MODEL 1
REMARK VINA RESULT: -8.931836883      0.000      0.000
REMARK  7 active torsions:
REMARK  status: ('A' for Active; 'I' for Inactive)
REMARK    1  A    between atoms: C4_6  and  C5_7 
REMARK    2  A    between atoms: C5_7  and  C6_9 
REMARK    3  A    between atoms: C6_9  and  O2_10 
REMARK    4  A    between atoms: O2_10  and  C7_11 
REMARK    5  A    between atoms: C7_11  and  C8_13 
REMARK    6  A    between atoms: C14_22  and  O4_23 
REMARK    7  A    between atoms: O4_23  and  C15_24 
ROOT
HETATM    1  C8  UNL     1      -3.274 -13.506  16.813  1.00  0.00     0.082 A 
HETATM    2  C9  UNL     1      -2.159 -13.769  17.614  1.00  0.00    -0.019 A 
HETATM    3  C10 UNL     1      -0.779 -13.905  17.090  1.00  0.00     0.051 C 
HETATM    4  C11 UNL     1      -2.380 -13.918  18.981  1.00  0.00     0.064 A 
HETATM    5 CL1  UNL     1      -0.989 -14.250  20.016  1.00  0.00    -0.082 Cl
HETATM    6  C12 UNL     1      -3.635 -13.811  19.503  1.00  0.00     0.080 A 
HETATM    7 CL2  UNL     1      -3.893 -13.999  21.228  1.00  0.00    -0.081 Cl
HETATM    8  C13 UNL     1      -4.739 -13.558  18.724  1.00  0.00     0.091 A 
HETATM    9 CL3  UNL     1      -6.324 -13.395  19.482  1.00  0.00    -0.079 Cl
HETATM   10  C14 UNL     1      -4.543 -13.408  17.351  1.00  0.00     0.109 A 
ENDROOT
BRANCH   1  11
HETATM   11  C7  UNL     1      -3.004 -13.216  15.419  1.00  0.00     0.297 C 
HETATM   12  O3  UNL     1      -2.645 -12.077  15.056  1.00  0.00    -0.259 OA
BRANCH  11  13
HETATM   13  O2  UNL     1      -3.115 -14.153  14.390  1.00  0.00    -0.309 OA
BRANCH  13  14
HETATM   14  C6  UNL     1      -1.927 -14.766  13.869  1.00  0.00     0.264 C 
BRANCH  14  15
HETATM   15  C5  UNL     1      -1.898 -16.178  14.321  1.00  0.00     0.201 C 
HETATM   16  O1  UNL     1      -1.330 -16.555  15.365  1.00  0.00    -0.288 OA
BRANCH  15  17
HETATM   17  C4  UNL     1      -2.579 -17.203  13.497  1.00  0.00     0.103 A 
HETATM   18  N1  UNL     1      -3.848 -16.924  13.066  1.00  0.00    -0.359 N 
HETATM   19  C3  UNL     1      -4.506 -17.809  12.323  1.00  0.00     0.113 A 
ATOM     20  H1  UNL     1      -4.289 -16.039  13.316  1.00  0.00     0.165 HD
HETATM   21  C2  UNL     1      -3.955 -19.024  11.955  1.00  0.00     0.021 A 
HETATM   22  C1  UNL     1      -4.715 -20.005  11.117  1.00  0.00     0.069 C 
HETATM   23  N4  UNL     1      -2.725 -19.270  12.383  1.00  0.00    -0.360 N 
HETATM   24  C19 UNL     1      -2.016 -18.389  13.148  1.00  0.00     0.036 A 
ATOM     25  H4  UNL     1      -2.289 -20.157  12.129  1.00  0.00     0.165 HD
HETATM   26  C20 UNL     1      -0.650 -18.745  13.581  1.00  0.00     0.070 C 
ENDBRANCH  15  17
ENDBRANCH  14  15
ENDBRANCH  13  14
ENDBRANCH  11  13
ENDBRANCH   1  11
BRANCH  10  27
HETATM   27  O4  UNL     1      -5.690 -13.185  16.586  1.00  0.00    -0.341 OA
BRANCH  27  28
HETATM   28  C15 UNL     1      -6.636 -14.208  16.283  1.00  0.00     0.154 C 
HETATM   29  C16 UNL     1      -6.185 -15.391  15.517  1.00  0.00     0.167 C 
HETATM   30  N2  UNL     1      -5.899 -15.154  14.118  1.00  0.00    -0.136 NA
HETATM   31  N3  UNL     1      -7.085 -14.674  13.510  1.00  0.00    -0.274 N 
HETATM   32  C17 UNL     1      -8.150 -14.327  14.369  1.00  0.00     0.235 C 
ATOM     33  H3  UNL     1      -7.165 -14.582  12.497  1.00  0.00     0.185 HD
HETATM   34  O5  UNL     1      -9.348 -14.681  14.076  1.00  0.00    -0.272 OA
HETATM   35  C18 UNL     1      -7.848 -13.553  15.604  1.00  0.00     0.138 C 
ENDBRANCH  27  28
ENDBRANCH  10  27
TORSDOF 7
ENDMDL
MODEL 2
REMARK VINA RESULT: -8.907849845      3.044      5.612
REMARK  7 active torsions:
REMARK  status: ('A' for Active; 'I' for Inactive)
REMARK    1  A    between atoms: C4_6  and  C5_7 
REMARK    2  A    between atoms: C5_7  and  C6_9 
REMARK    3  A    between atoms: C6_9  and  O2_10 
REMARK    4  A    between atoms: O2_10  and  C7_11 
REMARK    5  A    between atoms: C7_11  and  C8_13 
REMARK    6  A    between atoms: C14_22  and  O4_23 
REMARK    7  A    between atoms: O4_23  and  C15_24 
ROOT
HETATM    1  C8  UNL     1      -6.880 -14.493  15.651  1.00  0.00     0.082 A 
HETATM    2  C9  UNL     1      -7.782 -14.104  14.657  1.00  0.00    -0.019 A 
HETATM    3  C10 UNL     1      -7.657 -14.487  13.231  1.00  0.00     0.051 C 
HETATM    4  C11 UNL     1      -8.851 -13.299  15.049  1.00  0.00     0.064 A 
HETATM    5 CL1  UNL     1     -10.006 -12.794  13.814  1.00  0.00    -0.082 Cl
HETATM    6  C12 UNL     1      -8.998 -12.915  16.348  1.00  0.00     0.080 A 
HETATM    7 CL2  UNL     1     -10.352 -11.906  16.823  1.00  0.00    -0.081 Cl
HETATM    8  C13 UNL     1      -8.114 -13.289  17.333  1.00  0.00     0.091 A 
HETATM    9 CL3  UNL     1      -8.397 -12.781  19.000  1.00  0.00    -0.079 Cl
HETATM   10  C14 UNL     1      -7.034 -14.090  16.964  1.00  0.00     0.109 A 
ENDROOT
BRANCH   1  11
HETATM   11  C7  UNL     1      -5.859 -15.440  15.250  1.00  0.00     0.297 C 
HETATM   12  O3  UNL     1      -6.013 -16.666  15.425  1.00  0.00    -0.259 OA
BRANCH  11  13
HETATM   13  O2  UNL     1      -4.650 -15.079  14.651  1.00  0.00    -0.309 OA
BRANCH  13  14
HETATM   14  C6  UNL     1      -3.730 -16.106  14.257  1.00  0.00     0.264 C 
BRANCH  14  15
HETATM   15  C5  UNL     1      -2.379 -15.504  14.157  1.00  0.00     0.201 C 
HETATM   16  O1  UNL     1      -2.099 -14.563  13.387  1.00  0.00    -0.288 OA
BRANCH  15  17
HETATM   17  C4  UNL     1      -1.296 -16.040  15.015  1.00  0.00     0.103 A 
HETATM   18  N1  UNL     1      -0.779 -15.206  15.970  1.00  0.00    -0.359 N 
HETATM   19  C3  UNL     1       0.194 -15.635  16.768  1.00  0.00     0.113 A 
ATOM     20  H1  UNL     1      -1.141 -14.257  16.070  1.00  0.00     0.165 HD
HETATM   21  C2  UNL     1       0.721 -16.911  16.677  1.00  0.00     0.021 A 
HETATM   22  C1  UNL     1       1.817 -17.372  17.586  1.00  0.00     0.069 C 
HETATM   23  N4  UNL     1       0.203 -17.699  15.745  1.00  0.00    -0.360 N 
HETATM   24  C19 UNL     1      -0.797 -17.297  14.905  1.00  0.00     0.036 A 
ATOM     25  H4  UNL     1       0.567 -18.647  15.651  1.00  0.00     0.165 HD
HETATM   26  C20 UNL     1      -1.314 -18.242  13.896  1.00  0.00     0.070 C 
ENDBRANCH  15  17
ENDBRANCH  14  15
ENDBRANCH  13  14
ENDBRANCH  11  13
ENDBRANCH   1  11
BRANCH  10  27
HETATM   27  O4  UNL     1      -6.138 -14.422  17.982  1.00  0.00    -0.341 OA
BRANCH  27  28
HETATM   28  C15 UNL     1      -5.148 -13.522  18.475  1.00  0.00     0.154 C 
HETATM   29  C16 UNL     1      -3.911 -13.324  17.688  1.00  0.00     0.167 C 
HETATM   30  N2  UNL     1      -2.987 -14.438  17.692  1.00  0.00    -0.136 NA
HETATM   31  N3  UNL     1      -2.609 -14.683  19.035  1.00  0.00    -0.274 N 
HETATM   32  C17 UNL     1      -3.332 -14.000  20.038  1.00  0.00     0.235 C 
ATOM     33  H3  UNL     1      -1.849 -15.323  19.267  1.00  0.00     0.185 HD
HETATM   34  O5  UNL     1      -2.708 -13.466  21.023  1.00  0.00    -0.272 OA
HETATM   35  C18 UNL     1      -4.813 -13.921  19.920  1.00  0.00     0.138 C 
ENDBRANCH  27  28
ENDBRANCH  10  27
TORSDOF 7
ENDMDL
MODEL 3
REMARK VINA RESULT: -8.619187350      1.266      1.484
REMARK  7 active torsions:
REMARK  status: ('A' for Active; 'I' for Inactive)
REMARK    1  A    between atoms: C4_6  and  C5_7 
REMARK    2  A    between atoms: C5_7  and  C6_9 
REMARK    3  A    between atoms: C6_9  and  O2_10 
REMARK    4  A    between atoms: O2_10  and  C7_11 
REMARK    5  A    between atoms: C7_11  and  C8_13 
REMARK    6  A    between atoms: C14_22  and  O4_23 
REMARK    7  A    between atoms: O4_23  and  C15_24 
ROOT
HETATM    1  C8  UNL     1      -3.376 -13.502  16.684  1.00  0.00     0.082 A 
HETATM    2  C9  UNL     1      -2.318 -13.517  17.597  1.00  0.00    -0.019 A 
HETATM    3  C10 UNL     1      -0.895 -13.366  17.216  1.00  0.00     0.051 C 
HETATM    4  C11 UNL     1      -2.643 -13.698  18.941  1.00  0.00     0.064 A 
HETATM    5 CL1  UNL     1      -1.326 -13.720  20.116  1.00  0.00    -0.082 Cl
HETATM    6  C12 UNL     1      -3.938 -13.851  19.334  1.00  0.00     0.080 A 
HETATM    7 CL2  UNL     1      -4.327 -14.073  21.030  1.00  0.00    -0.081 Cl
HETATM    8  C13 UNL     1      -4.986 -13.842  18.443  1.00  0.00     0.091 A 
HETATM    9 CL3  UNL     1      -6.640 -14.008  19.037  1.00  0.00    -0.079 Cl
HETATM   10  C14 UNL     1      -4.686 -13.667  17.092  1.00  0.00     0.109 A 
ENDROOT
BRANCH   1  11
HETATM   11  C7  UNL     1      -3.031 -13.175  15.315  1.00  0.00     0.297 C 
HETATM   12  O3  UNL     1      -2.685 -12.019  14.996  1.00  0.00    -0.259 OA
BRANCH  11  13
HETATM   13  O2  UNL     1      -3.054 -14.093  14.263  1.00  0.00    -0.309 OA
BRANCH  13  14
HETATM   14  C6  UNL     1      -1.839 -14.757  13.886  1.00  0.00     0.264 C 
BRANCH  14  15
HETATM   15  C5  UNL     1      -1.894 -16.148  14.395  1.00  0.00     0.201 C 
HETATM   16  O1  UNL     1      -1.387 -16.506  15.477  1.00  0.00    -0.288 OA
BRANCH  15  17
HETATM   17  C4  UNL     1      -2.588 -17.175  13.584  1.00  0.00     0.103 A 
HETATM   18  N1  UNL     1      -3.870 -16.903  13.187  1.00  0.00    -0.359 N 
HETATM   19  C3  UNL     1      -4.540 -17.790  12.457  1.00  0.00     0.113 A 
ATOM     20  H1  UNL     1      -4.310 -16.021  13.451  1.00  0.00     0.165 HD
HETATM   21  C2  UNL     1      -3.991 -19.000  12.071  1.00  0.00     0.021 A 
HETATM   22  C1  UNL     1      -4.764 -19.983  11.249  1.00  0.00     0.069 C 
HETATM   23  N4  UNL     1      -2.749 -19.239  12.467  1.00  0.00    -0.360 N 
HETATM   24  C19 UNL     1      -2.027 -18.355  13.218  1.00  0.00     0.036 A 
ATOM     25  H4  UNL     1      -2.313 -20.121  12.199  1.00  0.00     0.165 HD
HETATM   26  C20 UNL     1      -0.648 -18.704  13.615  1.00  0.00     0.070 C 
ENDBRANCH  15  17
ENDBRANCH  14  15
ENDBRANCH  13  14
ENDBRANCH  11  13
ENDBRANCH   1  11
BRANCH  10  27
HETATM   27  O4  UNL     1      -5.770 -13.697  16.212  1.00  0.00    -0.341 OA
BRANCH  27  28
HETATM   28  C15 UNL     1      -6.681 -12.611  16.059  1.00  0.00     0.154 C 
HETATM   29  C16 UNL     1      -8.112 -12.909  15.832  1.00  0.00     0.167 C 
HETATM   30  N2  UNL     1      -8.436 -13.446  14.528  1.00  0.00    -0.136 NA
HETATM   31  N3  UNL     1      -8.035 -12.496  13.557  1.00  0.00    -0.274 N 
HETATM   32  C17 UNL     1      -7.250 -11.412  14.008  1.00  0.00     0.235 C 
ATOM     33  H3  UNL     1      -8.301 -12.591  12.576  1.00  0.00     0.185 HD
HETATM   34  O5  UNL     1      -7.504 -10.224  13.593  1.00  0.00    -0.272 OA
HETATM   35  C18 UNL     1      -6.140 -11.683  14.960  1.00  0.00     0.138 C 
ENDBRANCH  27  28
ENDBRANCH  10  27
TORSDOF 7
ENDMDL
MODEL 4
REMARK VINA RESULT: -8.585760121      2.576      4.854
REMARK  7 active torsions:
REMARK  status: ('A' for Active; 'I' for Inactive)
REMARK    1  A    between atoms: C4_6  and  C5_7 
REMARK    2  A    between atoms: C5_7  and  C6_9 
REMARK    3  A    between atoms: C6_9  and  O2_10 
REMARK    4  A    between atoms: O2_10  and  C7_11 
REMARK    5  A    between atoms: C7_11  and  C8_13 
REMARK    6  A    between atoms: C14_22  and  O4_23 
REMARK    7  A    between atoms: O4_23  and  C15_24 
ROOT
HETATM    1  C8  UNL     1      -6.591 -14.692  15.836  1.00  0.00     0.082 A 
HETATM    2  C9  UNL     1      -7.498 -14.325  14.838  1.00  0.00    -0.019 A 
HETATM    3  C10 UNL     1      -7.432 -14.814  13.440  1.00  0.00     0.051 C 
HETATM    4  C11 UNL     1      -8.510 -13.436  15.195  1.00  0.00     0.064 A 
HETATM    5 CL1  UNL     1      -9.669 -12.956  13.953  1.00  0.00    -0.082 Cl
HETATM    6  C12 UNL     1      -8.601 -12.953  16.466  1.00  0.00     0.080 A 
HETATM    7 CL2  UNL     1      -9.885 -11.838  16.898  1.00  0.00    -0.081 Cl
HETATM    8  C13 UNL     1      -7.712 -13.305  17.454  1.00  0.00     0.091 A 
HETATM    9 CL3  UNL     1      -7.923 -12.665  19.086  1.00  0.00    -0.079 Cl
HETATM   10  C14 UNL     1      -6.688 -14.189  17.120  1.00  0.00     0.109 A 
ENDROOT
BRANCH   1  11
HETATM   11  C7  UNL     1      -5.634 -15.721  15.481  1.00  0.00     0.297 C 
HETATM   12  O3  UNL     1      -6.011 -16.846  15.095  1.00  0.00    -0.259 OA
BRANCH  11  13
HETATM   13  O2  UNL     1      -4.249 -15.552  15.536  1.00  0.00    -0.309 OA
BRANCH  13  14
HETATM   14  C6  UNL     1      -3.579 -14.900  14.447  1.00  0.00     0.264 C 
BRANCH  14  15
HETATM   15  C5  UNL     1      -2.618 -15.860  13.853  1.00  0.00     0.201 C 
HETATM   16  O1  UNL     1      -1.380 -15.735  13.936  1.00  0.00    -0.288 OA
BRANCH  15  17
HETATM   17  C4  UNL     1      -3.146 -17.036  13.122  1.00  0.00     0.103 A 
HETATM   18  N1  UNL     1      -4.319 -16.875  12.436  1.00  0.00    -0.359 N 
HETATM   19  C3  UNL     1      -4.838 -17.897  11.761  1.00  0.00     0.113 A 
ATOM     20  H1  UNL     1      -4.795 -15.973  12.442  1.00  0.00     0.165 HD
HETATM   21  C2  UNL     1      -4.235 -19.141  11.719  1.00  0.00     0.021 A 
HETATM   22  C1  UNL     1      -4.837 -20.277  10.953  1.00  0.00     0.069 C 
HETATM   23  N4  UNL     1      -3.099 -19.270  12.391  1.00  0.00    -0.360 N 
HETATM   24  C19 UNL     1      -2.533 -18.247  13.096  1.00  0.00     0.036 A 
ATOM     25  H4  UNL     1      -2.627 -20.175  12.380  1.00  0.00     0.165 HD
HETATM   26  C20 UNL     1      -1.266 -18.480  13.815  1.00  0.00     0.070 C 
ENDBRANCH  15  17
ENDBRANCH  14  15
ENDBRANCH  13  14
ENDBRANCH  11  13
ENDBRANCH   1  11
BRANCH  10  27
HETATM   27  O4  UNL     1      -5.783 -14.498  18.138  1.00  0.00    -0.341 OA
BRANCH  27  28
HETATM   28  C15 UNL     1      -4.823 -13.569  18.637  1.00  0.00     0.154 C 
HETATM   29  C16 UNL     1      -3.558 -13.384  17.892  1.00  0.00     0.167 C 
HETATM   30  N2  UNL     1      -2.624 -14.487  17.971  1.00  0.00    -0.136 NA
HETATM   31  N3  UNL     1      -2.296 -14.681  19.335  1.00  0.00    -0.274 N 
HETATM   32  C17 UNL     1      -3.065 -13.972  20.285  1.00  0.00     0.235 C 
ATOM     33  H3  UNL     1      -1.540 -15.304  19.619  1.00  0.00     0.185 HD
HETATM   34  O5  UNL     1      -2.485 -13.397  21.274  1.00  0.00    -0.272 OA
HETATM   35  C18 UNL     1      -4.541 -13.914  20.107  1.00  0.00     0.138 C 
ENDBRANCH  27  28
ENDBRANCH  10  27
TORSDOF 7
ENDMDL
MODEL 5
REMARK VINA RESULT: -8.558706351      1.564      1.856
REMARK  7 active torsions:
REMARK  status: ('A' for Active; 'I' for Inactive)
REMARK    1  A    between atoms: C4_6  and  C5_7 
REMARK    2  A    between atoms: C5_7  and  C6_9 
REMARK    3  A    between atoms: C6_9  and  O2_10 
REMARK    4  A    between atoms: O2_10  and  C7_11 
REMARK    5  A    between atoms: C7_11  and  C8_13 
REMARK    6  A    between atoms: C14_22  and  O4_23 
REMARK    7  A    between atoms: O4_23  and  C15_24 
ROOT
HETATM    1  C8  UNL     1      -2.863 -14.223  16.999  1.00  0.00     0.082 A 
HETATM    2  C9  UNL     1      -1.790 -14.126  17.889  1.00  0.00    -0.019 A 
HETATM    3  C10 UNL     1      -0.370 -14.277  17.492  1.00  0.00     0.051 C 
HETATM    4  C11 UNL     1      -2.096 -13.884  19.227  1.00  0.00     0.064 A 
HETATM    5 CL1  UNL     1      -0.759 -13.756  20.373  1.00  0.00    -0.082 Cl
HETATM    6  C12 UNL     1      -3.388 -13.750  19.637  1.00  0.00     0.080 A 
HETATM    7 CL2  UNL     1      -3.753 -13.441  21.325  1.00  0.00    -0.081 Cl
HETATM    8  C13 UNL     1      -4.451 -13.847  18.770  1.00  0.00     0.091 A 
HETATM    9 CL3  UNL     1      -6.094 -13.622  19.374  1.00  0.00    -0.079 Cl
HETATM   10  C14 UNL     1      -4.171 -14.094  17.426  1.00  0.00     0.109 A 
ENDROOT
BRANCH   1  11
HETATM   11  C7  UNL     1      -2.519 -14.336  15.595  1.00  0.00     0.297 C 
HETATM   12  O3  UNL     1      -2.359 -13.319  14.888  1.00  0.00    -0.259 OA
BRANCH  11  13
HETATM   13  O2  UNL     1      -2.340 -15.549  14.930  1.00  0.00    -0.309 OA
BRANCH  13  14
HETATM   14  C6  UNL     1      -2.793 -15.678  13.574  1.00  0.00     0.264 C 
BRANCH  14  15
HETATM   15  C5  UNL     1      -3.872 -16.694  13.541  1.00  0.00     0.201 C 
HETATM   16  O1  UNL     1      -4.628 -16.927  14.506  1.00  0.00    -0.288 OA
BRANCH  15  17
HETATM   17  C4  UNL     1      -4.075 -17.478  12.301  1.00  0.00     0.103 A 
HETATM   18  N1  UNL     1      -5.147 -17.148  11.516  1.00  0.00    -0.359 N 
HETATM   19  C3  UNL     1      -5.376 -17.819  10.391  1.00  0.00     0.113 A 
ATOM     20  H1  UNL     1      -5.769 -16.390  11.794  1.00  0.00     0.165 HD
HETATM   21  C2  UNL     1      -4.564 -18.856   9.966  1.00  0.00     0.021 A 
HETATM   22  C1  UNL     1      -4.841 -19.596   8.695  1.00  0.00     0.069 C 
HETATM   23  N4  UNL     1      -3.532 -19.154  10.743  1.00  0.00    -0.360 N 
HETATM   24  C19 UNL     1      -3.262 -18.490  11.905  1.00  0.00     0.036 A 
ATOM     25  H4  UNL     1      -2.912 -19.913  10.458  1.00  0.00     0.165 HD
HETATM   26  C20 UNL     1      -2.090 -18.890  12.709  1.00  0.00     0.070 C 
ENDBRANCH  15  17
ENDBRANCH  14  15
ENDBRANCH  13  14
ENDBRANCH  11  13
ENDBRANCH   1  11
BRANCH  10  27
HETATM   27  O4  UNL     1      -5.275 -14.221  16.580  1.00  0.00    -0.341 OA
BRANCH  27  28
HETATM   28  C15 UNL     1      -6.214 -13.171  16.360  1.00  0.00     0.154 C 
HETATM   29  C16 UNL     1      -7.620 -13.525  16.065  1.00  0.00     0.167 C 
HETATM   30  N2  UNL     1      -7.856 -14.095  14.755  1.00  0.00    -0.136 NA
HETATM   31  N3  UNL     1      -7.438 -13.146  13.789  1.00  0.00    -0.274 N 
HETATM   32  C17 UNL     1      -6.717 -12.027  14.261  1.00  0.00     0.235 C 
ATOM     33  H3  UNL     1      -7.648 -13.266  12.798  1.00  0.00     0.185 HD
HETATM   34  O5  UNL     1      -6.990 -10.857  13.812  1.00  0.00    -0.272 OA
HETATM   35  C18 UNL     1      -5.649 -12.242  15.275  1.00  0.00     0.138 C 
ENDBRANCH  27  28
ENDBRANCH  10  27
TORSDOF 7
ENDMDL
