MODEL 1
REMARK VINA RESULT: -7.882941953      0.000      0.000
REMARK  8 active torsions:
REMARK  status: ('A' for Active; 'I' for Inactive)
REMARK    1  A    between atoms: C2_2  and  O1_3 
REMARK    2  A    between atoms: O1_3  and  C3_4 
REMARK    3  A    between atoms: C3_4  and  C4_6 
REMARK    4  A    between atoms: N2_9  and  C5_10 
REMARK    5  A    between atoms: C6_11  and  C7_12 
REMARK    6  A    between atoms: C13_19  and  N3_20 
REMARK    7  A    between atoms: C15_24  and  O3_26 
REMARK    8  A    between atoms: O3_26  and  N4_27 
ROOT
HETATM    1  C4  UNL     1      -2.435 -14.416  16.839  1.00  0.00     0.146 A 
HETATM    2  N1  UNL     1      -3.731 -14.138  16.919  1.00  0.00    -0.286 N 
ATOM      3  H1  UNL     1      -4.048 -13.546  17.686  1.00  0.00     0.188 HD
HETATM    4  N2  UNL     1      -4.655 -14.595  16.043  1.00  0.00    -0.250 N 
HETATM    5  C13 UNL     1      -4.273 -15.382  15.014  1.00  0.00     0.131 A 
HETATM    6  C14 UNL     1      -2.939 -15.729  14.844  1.00  0.00     0.053 A 
HETATM    7  C15 UNL     1      -2.382 -16.571  13.779  1.00  0.00     0.266 C 
HETATM    8 BR1  UNL     1      -0.549 -17.077  14.389  1.00  0.00    -0.027 Br
HETATM    9  C18 UNL     1      -2.052 -15.217  15.790  1.00  0.00     0.077 A 
HETATM   10 CL2  UNL     1      -0.320 -15.569  15.698  1.00  0.00    -0.106 Cl
ENDROOT
BRANCH   4  11
HETATM   11  C5  UNL     1      -6.000 -14.196  16.284  1.00  0.00     0.119 C 
HETATM   12  C6  UNL     1      -6.470 -13.135  16.848  1.00  0.00     0.032 C 
BRANCH  12  13
HETATM   13  C7  UNL     1      -7.922 -12.929  16.991  1.00  0.00    -0.013 A 
HETATM   14  C8  UNL     1      -8.644 -13.506  17.988  1.00  0.00     0.013 A 
HETATM   15  C9  UNL     1     -10.035 -13.279  18.084  1.00  0.00     0.001 A 
HETATM   16  C10 UNL     1     -10.666 -12.482  17.184  1.00  0.00     0.002 A 
HETATM   17  C11 UNL     1      -9.941 -11.906  16.187  1.00  0.00     0.024 A 
HETATM   18  C12 UNL     1      -8.599 -12.121  16.087  1.00  0.00     0.044 A 
HETATM   19 CL1  UNL     1      -7.701 -11.362  14.790  1.00  0.00    -0.083 Cl
ENDBRANCH  12  13
ENDBRANCH   4  11
BRANCH   5  20
HETATM   20  N3  UNL     1      -5.101 -15.806  14.188  1.00  0.00    -0.383 N 
ATOM     21  H32 UNL     1      -5.294 -15.239  13.364  1.00  0.00     0.157 HD
ATOM     22  H31 UNL     1      -5.582 -16.695  14.333  1.00  0.00     0.157 HD
ENDBRANCH   5  20
BRANCH   1  23
HETATM   23  C3  UNL     1      -1.464 -13.893  17.818  1.00  0.00     0.313 C 
HETATM   24  O2  UNL     1      -0.777 -12.896  17.491  1.00  0.00    -0.257 OA
BRANCH  23  25
HETATM   25  O1  UNL     1      -1.291 -14.453  19.056  1.00  0.00    -0.317 OA
BRANCH  25  26
HETATM   26  C2  UNL     1      -1.700 -13.712  20.200  1.00  0.00     0.175 C 
HETATM   27  C1  UNL     1      -3.137 -13.941  20.530  1.00  0.00     0.034 C 
ENDBRANCH  25  26
ENDBRANCH  23  25
ENDBRANCH   1  23
BRANCH   7  28
HETATM   28  O3  UNL     1      -3.041 -17.744  13.460  1.00  0.00    -0.258 OA
BRANCH  28  29
HETATM   29  N4  UNL     1      -3.271 -18.155  12.206  1.00  0.00    -0.256 N 
HETATM   30  C16 UNL     1      -4.289 -18.158  11.478  1.00  0.00     0.109 C 
HETATM   31  C17 UNL     1      -4.123 -18.728  10.084  1.00  0.00     0.087 C 
HETATM   32  N5  UNL     1      -5.580 -17.678  11.834  1.00  0.00    -0.086 NA
ATOM     33  H4  UNL     1      -2.447 -18.547  11.751  1.00  0.00     0.195 HD
ENDBRANCH  28  29
ENDBRANCH   7  28
TORSDOF 8
ENDMDL
MODEL 2
REMARK VINA RESULT: -7.814590688      1.061      1.439
REMARK  8 active torsions:
REMARK  status: ('A' for Active; 'I' for Inactive)
REMARK    1  A    between atoms: C2_2  and  O1_3 
REMARK    2  A    between atoms: O1_3  and  C3_4 
REMARK    3  A    between atoms: C3_4  and  C4_6 
REMARK    4  A    between atoms: N2_9  and  C5_10 
REMARK    5  A    between atoms: C6_11  and  C7_12 
REMARK    6  A    between atoms: C13_19  and  N3_20 
REMARK    7  A    between atoms: C15_24  and  O3_26 
REMARK    8  A    between atoms: O3_26  and  N4_27 
ROOT
HETATM    1  C4  UNL     1      -2.228 -14.208  16.807  1.00  0.00     0.146 A 
HETATM    2  N1  UNL     1      -3.436 -13.692  16.608  1.00  0.00    -0.286 N 
ATOM      3  H1  UNL     1      -3.758 -12.964  17.246  1.00  0.00     0.188 HD
HETATM    4  N2  UNL     1      -4.263 -14.075  15.611  1.00  0.00    -0.250 N 
HETATM    5  C13 UNL     1      -3.872 -15.036  14.745  1.00  0.00     0.131 A 
HETATM    6  C14 UNL     1      -2.626 -15.637  14.869  1.00  0.00     0.053 A 
HETATM    7  C15 UNL     1      -2.072 -16.687  14.008  1.00  0.00     0.266 C 
HETATM    8 BR1  UNL     1      -0.514 -17.441  15.004  1.00  0.00    -0.027 Br
HETATM    9  C18 UNL     1      -1.835 -15.184  15.924  1.00  0.00     0.077 A 
HETATM   10 CL2  UNL     1      -0.220 -15.853  16.202  1.00  0.00    -0.106 Cl
ENDROOT
BRANCH   4  11
HETATM   11  C5  UNL     1      -5.523 -13.413  15.550  1.00  0.00     0.119 C 
HETATM   12  C6  UNL     1      -6.577 -13.552  16.280  1.00  0.00     0.032 C 
BRANCH  12  13
HETATM   13  C7  UNL     1      -7.786 -12.748  16.032  1.00  0.00    -0.013 A 
HETATM   14  C8  UNL     1      -7.992 -12.085  14.862  1.00  0.00     0.013 A 
HETATM   15  C9  UNL     1      -9.167 -11.327  14.670  1.00  0.00     0.001 A 
HETATM   16  C10 UNL     1     -10.105 -11.250  15.649  1.00  0.00     0.002 A 
HETATM   17  C11 UNL     1      -9.897 -11.914  16.818  1.00  0.00     0.024 A 
HETATM   18  C12 UNL     1      -8.765 -12.647  17.012  1.00  0.00     0.044 A 
HETATM   19 CL1  UNL     1      -8.533 -13.488  18.530  1.00  0.00    -0.083 Cl
ENDBRANCH  12  13
ENDBRANCH   4  11
BRANCH   5  20
HETATM   20  N3  UNL     1      -4.611 -15.399  13.811  1.00  0.00    -0.383 N 
ATOM     21  H32 UNL     1      -5.147 -16.258  13.928  1.00  0.00     0.157 HD
ATOM     22  H31 UNL     1      -4.675 -14.858  12.949  1.00  0.00     0.157 HD
ENDBRANCH   5  20
BRANCH   1  23
HETATM   23  C3  UNL     1      -1.360 -13.756  17.910  1.00  0.00     0.313 C 
HETATM   24  O2  UNL     1      -0.582 -12.796  17.691  1.00  0.00    -0.257 OA
BRANCH  23  25
HETATM   25  O1  UNL     1      -1.375 -14.342  19.148  1.00  0.00    -0.317 OA
BRANCH  25  26
HETATM   26  C2  UNL     1      -1.879 -13.594  20.248  1.00  0.00     0.175 C 
HETATM   27  C1  UNL     1      -3.281 -13.975  20.587  1.00  0.00     0.034 C 
ENDBRANCH  25  26
ENDBRANCH  23  25
ENDBRANCH   1  23
BRANCH   7  28
HETATM   28  O3  UNL     1      -2.885 -17.751  13.665  1.00  0.00    -0.258 OA
BRANCH  28  29
HETATM   29  N4  UNL     1      -3.074 -18.174  12.408  1.00  0.00    -0.256 N 
HETATM   30  C16 UNL     1      -4.067 -18.186  11.647  1.00  0.00     0.109 C 
HETATM   31  C17 UNL     1      -3.854 -18.769  10.264  1.00  0.00     0.087 C 
HETATM   32  N5  UNL     1      -5.370 -17.707  11.956  1.00  0.00    -0.086 NA
ATOM     33  H4  UNL     1      -2.234 -18.568  11.984  1.00  0.00     0.195 HD
ENDBRANCH  28  29
ENDBRANCH   7  28
TORSDOF 8
ENDMDL
MODEL 3
REMARK VINA RESULT: -7.731807374      4.394      7.505
REMARK  8 active torsions:
REMARK  status: ('A' for Active; 'I' for Inactive)
REMARK    1  A    between atoms: C2_2  and  O1_3 
REMARK    2  A    between atoms: O1_3  and  C3_4 
REMARK    3  A    between atoms: C3_4  and  C4_6 
REMARK    4  A    between atoms: N2_9  and  C5_10 
REMARK    5  A    between atoms: C6_11  and  C7_12 
REMARK    6  A    between atoms: C13_19  and  N3_20 
REMARK    7  A    between atoms: C15_24  and  O3_26 
REMARK    8  A    between atoms: O3_26  and  N4_27 
ROOT
HETATM    1  C4  UNL     1      -8.295 -13.091  16.853  1.00  0.00     0.146 A 
HETATM    2  N1  UNL     1      -7.006 -13.164  17.164  1.00  0.00    -0.286 N 
ATOM      3  H1  UNL     1      -6.738 -13.018  18.137  1.00  0.00     0.188 HD
HETATM    4  N2  UNL     1      -6.028 -13.420  16.266  1.00  0.00    -0.250 N 
HETATM    5  C13 UNL     1      -6.344 -13.620  14.968  1.00  0.00     0.131 A 
HETATM    6  C14 UNL     1      -7.665 -13.563  14.543  1.00  0.00     0.053 A 
HETATM    7  C15 UNL     1      -8.153 -13.758  13.173  1.00  0.00     0.266 C 
HETATM    8 BR1  UNL     1     -10.024 -13.061  13.158  1.00  0.00    -0.027 Br
HETATM    9  C18 UNL     1      -8.611 -13.294  15.531  1.00  0.00     0.077 A 
HETATM   10 CL2  UNL     1     -10.334 -13.199  15.139  1.00  0.00    -0.106 Cl
ENDROOT
BRANCH   4  11
HETATM   11  C5  UNL     1      -4.700 -13.461  16.778  1.00  0.00     0.119 C 
HETATM   12  C6  UNL     1      -4.270 -13.707  17.969  1.00  0.00     0.032 C 
BRANCH  12  13
HETATM   13  C7  UNL     1      -2.828 -13.695  18.275  1.00  0.00    -0.013 A 
HETATM   14  C8  UNL     1      -1.882 -13.535  17.312  1.00  0.00     0.013 A 
HETATM   15  C9  UNL     1      -0.511 -13.530  17.654  1.00  0.00     0.001 A 
HETATM   16  C10 UNL     1      -0.123 -13.685  18.946  1.00  0.00     0.002 A 
HETATM   17  C11 UNL     1      -1.073 -13.845  19.907  1.00  0.00     0.024 A 
HETATM   18  C12 UNL     1      -2.397 -13.851  19.586  1.00  0.00     0.044 A 
HETATM   19 CL1  UNL     1      -3.589 -14.059  20.851  1.00  0.00    -0.083 Cl
ENDBRANCH  12  13
ENDBRANCH   4  11
BRANCH   5  20
HETATM   20  N3  UNL     1      -5.464 -13.868  14.123  1.00  0.00    -0.383 N 
ATOM     21  H32 UNL     1      -5.512 -13.392  13.223  1.00  0.00     0.157 HD
ATOM     22  H31 UNL     1      -4.718 -14.535  14.321  1.00  0.00     0.157 HD
ENDBRANCH   5  20
BRANCH   1  23
HETATM   23  C3  UNL     1      -9.327 -12.809  17.868  1.00  0.00     0.313 C 
HETATM   24  O2  UNL     1      -9.359 -11.660  18.371  1.00  0.00    -0.257 OA
BRANCH  23  25
HETATM   25  O1  UNL     1     -10.237 -13.747  18.275  1.00  0.00    -0.317 OA
BRANCH  25  26
HETATM   26  C2  UNL     1     -11.615 -13.392  18.296  1.00  0.00     0.175 C 
HETATM   27  C1  UNL     1     -12.490 -14.563  18.594  1.00  0.00     0.034 C 
ENDBRANCH  25  26
ENDBRANCH  23  25
ENDBRANCH   1  23
BRANCH   7  28
HETATM   28  O3  UNL     1      -7.479 -13.130  12.142  1.00  0.00    -0.258 OA
BRANCH  28  29
HETATM   29  N4  UNL     1      -7.812 -11.929  11.653  1.00  0.00    -0.256 N 
HETATM   30  C16 UNL     1      -7.695 -10.762  12.090  1.00  0.00     0.109 C 
HETATM   31  C17 UNL     1      -8.214  -9.650  11.201  1.00  0.00     0.087 C 
HETATM   32  N5  UNL     1      -7.123 -10.384  13.336  1.00  0.00    -0.086 NA
ATOM     33  H4  UNL     1      -8.253 -11.974  10.734  1.00  0.00     0.195 HD
ENDBRANCH  28  29
ENDBRANCH   7  28
TORSDOF 8
ENDMDL
MODEL 4
REMARK VINA RESULT: -7.711255654      3.499      6.207
REMARK  8 active torsions:
REMARK  status: ('A' for Active; 'I' for Inactive)
REMARK    1  A    between atoms: C2_2  and  O1_3 
REMARK    2  A    between atoms: O1_3  and  C3_4 
REMARK    3  A    between atoms: C3_4  and  C4_6 
REMARK    4  A    between atoms: N2_9  and  C5_10 
REMARK    5  A    between atoms: C6_11  and  C7_12 
REMARK    6  A    between atoms: C13_19  and  N3_20 
REMARK    7  A    between atoms: C15_24  and  O3_26 
REMARK    8  A    between atoms: O3_26  and  N4_27 
ROOT
HETATM    1  C4  UNL     1      -8.384 -13.976  14.834  1.00  0.00     0.146 A 
HETATM    2  N1  UNL     1      -7.374 -13.973  15.696  1.00  0.00    -0.286 N 
ATOM      3  H1  UNL     1      -7.386 -13.284  16.447  1.00  0.00     0.188 HD
HETATM    4  N2  UNL     1      -6.331 -14.832  15.637  1.00  0.00    -0.250 N 
HETATM    5  C13 UNL     1      -6.281 -15.760  14.656  1.00  0.00     0.131 A 
HETATM    6  C14 UNL     1      -7.290 -15.843  13.705  1.00  0.00     0.053 A 
HETATM    7  C15 UNL     1      -7.366 -16.794  12.591  1.00  0.00     0.266 C 
HETATM    8 BR1  UNL     1      -8.752 -16.067  11.350  1.00  0.00    -0.027 Br
HETATM    9  C18 UNL     1      -8.328 -14.921  13.839  1.00  0.00     0.077 A 
HETATM   10 CL2  UNL     1      -9.686 -14.911  12.704  1.00  0.00    -0.106 Cl
ENDROOT
BRANCH   4  11
HETATM   11  C5  UNL     1      -5.337 -14.684  16.645  1.00  0.00     0.119 C 
HETATM   12  C6  UNL     1      -4.796 -13.621  17.136  1.00  0.00     0.032 C 
BRANCH  12  13
HETATM   13  C7  UNL     1      -3.770 -13.708  18.191  1.00  0.00    -0.013 A 
HETATM   14  C8  UNL     1      -4.086 -13.925  19.496  1.00  0.00     0.013 A 
HETATM   15  C9  UNL     1      -3.068 -14.001  20.472  1.00  0.00     0.001 A 
HETATM   16  C10 UNL     1      -1.764 -13.859  20.121  1.00  0.00     0.002 A 
HETATM   17  C11 UNL     1      -1.451 -13.641  18.814  1.00  0.00     0.024 A 
HETATM   18  C12 UNL     1      -2.427 -13.567  17.866  1.00  0.00     0.044 A 
HETATM   19 CL1  UNL     1      -1.985 -13.286  16.196  1.00  0.00    -0.083 Cl
ENDBRANCH  12  13
ENDBRANCH   4  11
BRANCH   5  20
HETATM   20  N3  UNL     1      -5.337 -16.569  14.585  1.00  0.00    -0.383 N 
ATOM     21  H32 UNL     1      -5.491 -17.446  14.090  1.00  0.00     0.157 HD
ATOM     22  H31 UNL     1      -4.436 -16.366  15.017  1.00  0.00     0.157 HD
ENDBRANCH   5  20
BRANCH   1  23
HETATM   23  C3  UNL     1      -9.501 -13.019  14.940  1.00  0.00     0.313 C 
HETATM   24  O2  UNL     1      -9.432 -11.958  14.275  1.00  0.00    -0.257 OA
BRANCH  23  25
HETATM   25  O1  UNL     1     -10.596 -13.247  15.730  1.00  0.00    -0.317 OA
BRANCH  25  26
HETATM   26  C2  UNL     1     -10.682 -12.576  16.982  1.00  0.00     0.175 C 
HETATM   27  C1  UNL     1     -10.127 -13.398  18.097  1.00  0.00     0.034 C 
ENDBRANCH  25  26
ENDBRANCH  23  25
ENDBRANCH   1  23
BRANCH   7  28
HETATM   28  O3  UNL     1      -6.227 -17.016  11.840  1.00  0.00    -0.258 OA
BRANCH  28  29
HETATM   29  N4  UNL     1      -5.759 -18.233  11.532  1.00  0.00    -0.256 N 
HETATM   30  C16 UNL     1      -4.716 -18.853  11.838  1.00  0.00     0.109 C 
HETATM   31  C17 UNL     1      -4.564 -20.247  11.264  1.00  0.00     0.087 C 
HETATM   32  N5  UNL     1      -3.665 -18.375  12.668  1.00  0.00    -0.086 NA
ATOM     33  H4  UNL     1      -6.382 -18.763  10.923  1.00  0.00     0.195 HD
ENDBRANCH  28  29
ENDBRANCH   7  28
TORSDOF 8
ENDMDL
MODEL 5
REMARK VINA RESULT: -7.660089782      0.809      1.429
REMARK  8 active torsions:
REMARK  status: ('A' for Active; 'I' for Inactive)
REMARK    1  A    between atoms: C2_2  and  O1_3 
REMARK    2  A    between atoms: O1_3  and  C3_4 
REMARK    3  A    between atoms: C3_4  and  C4_6 
REMARK    4  A    between atoms: N2_9  and  C5_10 
REMARK    5  A    between atoms: C6_11  and  C7_12 
REMARK    6  A    between atoms: C13_19  and  N3_20 
REMARK    7  A    between atoms: C15_24  and  O3_26 
REMARK    8  A    between atoms: O3_26  and  N4_27 
ROOT
HETATM    1  C4  UNL     1      -2.665 -14.619  16.832  1.00  0.00     0.146 A 
HETATM    2  N1  UNL     1      -3.961 -14.351  16.948  1.00  0.00    -0.286 N 
ATOM      3  H1  UNL     1      -4.267 -13.798  17.748  1.00  0.00     0.188 HD
HETATM    4  N2  UNL     1      -4.897 -14.768  16.067  1.00  0.00    -0.250 N 
HETATM    5  C13 UNL     1      -4.530 -15.503  14.994  1.00  0.00     0.131 A 
HETATM    6  C14 UNL     1      -3.198 -15.836  14.785  1.00  0.00     0.053 A 
HETATM    7  C15 UNL     1      -2.657 -16.622  13.671  1.00  0.00     0.266 C 
HETATM    8 BR1  UNL     1      -0.812 -17.150  14.224  1.00  0.00    -0.027 Br
HETATM    9  C18 UNL     1      -2.297 -15.366  15.740  1.00  0.00     0.077 A 
HETATM   10 CL2  UNL     1      -0.566 -15.706  15.601  1.00  0.00    -0.106 Cl
ENDROOT
BRANCH   4  11
HETATM   11  C5  UNL     1      -6.240 -14.388  16.349  1.00  0.00     0.119 C 
HETATM   12  C6  UNL     1      -6.712 -13.295  16.846  1.00  0.00     0.032 C 
BRANCH  12  13
HETATM   13  C7  UNL     1      -8.161 -13.118  17.054  1.00  0.00    -0.013 A 
HETATM   14  C8  UNL     1      -8.783 -13.496  18.202  1.00  0.00     0.013 A 
HETATM   15  C9  UNL     1     -10.174 -13.305  18.355  1.00  0.00     0.001 A 
HETATM   16  C10 UNL     1     -10.905 -12.743  17.359  1.00  0.00     0.002 A 
HETATM   17  C11 UNL     1     -10.280 -12.365  16.211  1.00  0.00     0.024 A 
HETATM   18  C12 UNL     1      -8.939 -12.546  16.055  1.00  0.00     0.044 A 
HETATM   19 CL1  UNL     1      -8.170 -12.047  14.563  1.00  0.00    -0.083 Cl
ENDBRANCH  12  13
ENDBRANCH   4  11
BRANCH   5  20
HETATM   20  N3  UNL     1      -5.371 -15.890  14.162  1.00  0.00    -0.383 N 
ATOM     21  H32 UNL     1      -5.538 -15.311  13.340  1.00  0.00     0.157 HD
ATOM     22  H31 UNL     1      -5.886 -16.760  14.300  1.00  0.00     0.157 HD
ENDBRANCH   5  20
BRANCH   1  23
HETATM   23  C3  UNL     1      -1.680 -14.141  17.820  1.00  0.00     0.313 C 
HETATM   24  O2  UNL     1      -1.584 -14.764  18.904  1.00  0.00    -0.257 OA
BRANCH  23  25
HETATM   25  O1  UNL     1      -0.878 -13.053  17.595  1.00  0.00    -0.317 OA
BRANCH  25  26
HETATM   26  C2  UNL     1       0.488 -13.125  17.987  1.00  0.00     0.175 C 
HETATM   27  C1  UNL     1       1.412 -12.854  16.846  1.00  0.00     0.034 C 
ENDBRANCH  25  26
ENDBRANCH  23  25
ENDBRANCH   1  23
BRANCH   7  28
HETATM   28  O3  UNL     1      -3.316 -17.781  13.306  1.00  0.00    -0.258 OA
BRANCH  28  29
HETATM   29  N4  UNL     1      -3.468 -18.188  12.039  1.00  0.00    -0.256 N 
HETATM   30  C16 UNL     1      -4.433 -18.170  11.243  1.00  0.00     0.109 C 
HETATM   31  C17 UNL     1      -4.183 -18.744   9.862  1.00  0.00     0.087 C 
HETATM   32  N5  UNL     1      -5.735 -17.665  11.509  1.00  0.00    -0.086 NA
ATOM     33  H4  UNL     1      -2.622 -18.597  11.641  1.00  0.00     0.195 HD
ENDBRANCH  28  29
ENDBRANCH   7  28
TORSDOF 8
ENDMDL
