MODEL 1
REMARK VINA RESULT: -8.817441707      0.000      0.000
REMARK  7 active torsions:
REMARK  status: ('A' for Active; 'I' for Inactive)
REMARK    1  A    between atoms: O1_2  and  N1_3 
REMARK    2  A    between atoms: N1_3  and  C2_5 
REMARK    3  A    between atoms: C6_10  and  O2_11 
REMARK    4  A    between atoms: N3_13  and  C7_14 
REMARK    5  A    between atoms: C12_20  and  O3_21 
REMARK    6  A    between atoms: O3_21  and  C13_22 
REMARK    7  A    between atoms: C13_22  and  C14_23 
ROOT
HETATM    1  C7  UNL     1      -5.830 -13.424  16.338  1.00  0.00     0.093 A 
HETATM    2  C8  UNL     1      -6.594 -13.417  17.485  1.00  0.00     0.035 A 
HETATM    3  C9  UNL     1      -6.017 -13.596  18.734  1.00  0.00     0.021 A 
HETATM    4  C10 UNL     1      -4.645 -13.787  18.832  1.00  0.00     0.013 A 
HETATM    5 BR1  UNL     1      -3.801 -14.037  20.520  1.00  0.00    -0.051 Br
HETATM    6  C11 UNL     1      -3.877 -13.794  17.687  1.00  0.00     0.058 A 
HETATM    7  C12 UNL     1      -4.445 -13.617  16.443  1.00  0.00     0.104 A 
ENDROOT
BRANCH   1   8
HETATM    8  N3  UNL     1      -6.492 -13.234  15.111  1.00  0.00    -0.120 N 
HETATM    9  C2  UNL     1      -7.106 -14.191  14.408  1.00  0.00     0.713 A 
HETATM   10  N2  UNL     1      -7.620 -13.635  13.298  1.00  0.00    -0.185 N 
HETATM   11  C3  UNL     1      -8.365 -14.294  12.256  1.00  0.00     0.175 C 
HETATM   12  C4  UNL     1      -7.339 -12.307  13.280  1.00  0.00     0.076 A 
HETATM   13  C5  UNL     1      -7.711 -11.309  12.251  1.00  0.00     0.074 C 
HETATM   14  C6  UNL     1      -6.622 -12.064  14.434  1.00  0.00     0.186 A 
BRANCH   9  15
HETATM   15  N1  UNL     1      -7.208 -15.440  14.709  1.00  0.00    -0.096 N 
ATOM     16  H1  UNL     1      -8.069 -15.754  15.158  1.00  0.00     0.213 HD
BRANCH  15  17
HETATM   17  O1  UNL     1      -6.234 -16.375  14.466  1.00  0.00    -0.271 OA
HETATM   18  C1  UNL     1      -6.289 -17.070  13.229  1.00  0.00     0.238 C 
ENDBRANCH  15  17
ENDBRANCH   9  15
BRANCH  14  19
HETATM   19  O2  UNL     1      -6.097 -10.849  14.885  1.00  0.00    -0.344 OA
ATOM     20  H2  UNL     1      -5.187 -10.578  14.914  1.00  0.00     0.219 HD
ENDBRANCH  14  19
ENDBRANCH   1   8
BRANCH   7  21
HETATM   21  O3  UNL     1      -3.697 -13.616  15.309  1.00  0.00    -0.319 OA
BRANCH  21  22
HETATM   22  C13 UNL     1      -2.392 -13.724  15.032  1.00  0.00     0.159 C 
BRANCH  22  23
HETATM   23  C14 UNL     1      -1.565 -14.893  15.314  1.00  0.00     0.053 A 
HETATM   24  C15 UNL     1      -0.507 -14.702  16.249  1.00  0.00     0.132 A 
HETATM   25 CL1  UNL     1      -0.416 -13.105  16.987  1.00  0.00    -0.062 Cl
HETATM   26  N4  UNL     1       0.336 -15.664  16.531  1.00  0.00    -0.286 N 
HETATM   27  N5  UNL     1       0.287 -16.861  15.995  1.00  0.00    -0.264 N 
ATOM     28  H4  UNL     1       1.074 -15.470  17.208  1.00  0.00     0.188 HD
HETATM   29  C16 UNL     1      -0.675 -17.089  15.120  1.00  0.00     0.282 A 
ATOM     30  H5  UNL     1       0.963 -17.583  16.244  1.00  0.00     0.190 HD
HETATM   31  O4  UNL     1      -0.757 -18.234  14.578  1.00  0.00    -0.265 OA
HETATM   32  C17 UNL     1      -1.619 -16.133  14.751  1.00  0.00     0.118 A 
HETATM   33 CL2  UNL     1      -2.768 -16.537  13.481  1.00  0.00    -0.077 Cl
ENDBRANCH  22  23
ENDBRANCH  21  22
ENDBRANCH   7  21
TORSDOF 7
ENDMDL
MODEL 2
REMARK VINA RESULT: -8.631276887      0.941      1.876
REMARK  7 active torsions:
REMARK  status: ('A' for Active; 'I' for Inactive)
REMARK    1  A    between atoms: O1_2  and  N1_3 
REMARK    2  A    between atoms: N1_3  and  C2_5 
REMARK    3  A    between atoms: C6_10  and  O2_11 
REMARK    4  A    between atoms: N3_13  and  C7_14 
REMARK    5  A    between atoms: C12_20  and  O3_21 
REMARK    6  A    between atoms: O3_21  and  C13_22 
REMARK    7  A    between atoms: C13_22  and  C14_23 
ROOT
HETATM    1  C7  UNL     1      -5.806 -13.475  16.469  1.00  0.00     0.093 A 
HETATM    2  C8  UNL     1      -6.536 -13.414  17.636  1.00  0.00     0.035 A 
HETATM    3  C9  UNL     1      -5.926 -13.560  18.873  1.00  0.00     0.021 A 
HETATM    4  C10 UNL     1      -4.555 -13.773  18.939  1.00  0.00     0.013 A 
HETATM    5 BR1  UNL     1      -3.667 -13.980  20.609  1.00  0.00    -0.051 Br
HETATM    6  C11 UNL     1      -3.821 -13.834  17.773  1.00  0.00     0.058 A 
HETATM    7  C12 UNL     1      -4.423 -13.690  16.540  1.00  0.00     0.104 A 
ENDROOT
BRANCH   1   8
HETATM    8  N3  UNL     1      -6.501 -13.316  15.255  1.00  0.00    -0.120 N 
HETATM    9  C2  UNL     1      -7.183 -14.276  14.623  1.00  0.00     0.713 A 
HETATM   10  N2  UNL     1      -7.709 -13.753  13.503  1.00  0.00    -0.185 N 
HETATM   11  C3  UNL     1      -8.520 -14.426  12.521  1.00  0.00     0.175 C 
HETATM   12  C4  UNL     1      -7.366 -12.443  13.406  1.00  0.00     0.076 A 
HETATM   13  C5  UNL     1      -7.727 -11.482  12.339  1.00  0.00     0.074 C 
HETATM   14  C6  UNL     1      -6.599 -12.177  14.522  1.00  0.00     0.186 A 
BRANCH   9  15
HETATM   15  N1  UNL     1      -7.333 -15.502  14.993  1.00  0.00    -0.096 N 
ATOM     16  H1  UNL     1      -8.226 -15.769  15.408  1.00  0.00     0.213 HD
BRANCH  15  17
HETATM   17  O1  UNL     1      -6.371 -16.470  14.864  1.00  0.00    -0.271 OA
HETATM   18  C1  UNL     1      -6.116 -16.970  13.560  1.00  0.00     0.238 C 
ENDBRANCH  15  17
ENDBRANCH   9  15
BRANCH  14  19
HETATM   19  O2  UNL     1      -6.002 -10.967  14.891  1.00  0.00    -0.344 OA
ATOM     20  H2  UNL     1      -5.763 -10.673  15.762  1.00  0.00     0.219 HD
ENDBRANCH  14  19
ENDBRANCH   1   8
BRANCH   7  21
HETATM   21  O3  UNL     1      -3.708 -13.742  15.385  1.00  0.00    -0.319 OA
BRANCH  21  22
HETATM   22  C13 UNL     1      -2.409 -13.689  15.069  1.00  0.00     0.159 C 
BRANCH  22  23
HETATM   23  C14 UNL     1      -1.405 -14.673  15.466  1.00  0.00     0.053 A 
HETATM   24  C15 UNL     1      -1.485 -15.943  14.826  1.00  0.00     0.132 A 
HETATM   25 CL1  UNL     1      -2.731 -16.102  13.589  1.00  0.00    -0.062 Cl
HETATM   26  N4  UNL     1      -0.677 -16.922  15.149  1.00  0.00    -0.286 N 
HETATM   27  N5  UNL     1       0.257 -16.827  16.065  1.00  0.00    -0.264 N 
ATOM     28  H4  UNL     1      -0.780 -17.810  14.658  1.00  0.00     0.188 HD
HETATM   29  C16 UNL     1       0.372 -15.669  16.690  1.00  0.00     0.282 A 
ATOM     30  H5  UNL     1       0.869 -17.613  16.285  1.00  0.00     0.190 HD
HETATM   31  O4  UNL     1       1.264 -15.536  17.584  1.00  0.00    -0.265 OA
HETATM   32  C17 UNL     1      -0.440 -14.569  16.421  1.00  0.00     0.118 A 
HETATM   33 CL2  UNL     1      -0.256 -13.130  17.417  1.00  0.00    -0.077 Cl
ENDBRANCH  22  23
ENDBRANCH  21  22
ENDBRANCH   7  21
TORSDOF 7
ENDMDL
MODEL 3
REMARK VINA RESULT: -8.552447926      1.082      2.458
REMARK  7 active torsions:
REMARK  status: ('A' for Active; 'I' for Inactive)
REMARK    1  A    between atoms: O1_2  and  N1_3 
REMARK    2  A    between atoms: N1_3  and  C2_5 
REMARK    3  A    between atoms: C6_10  and  O2_11 
REMARK    4  A    between atoms: N3_13  and  C7_14 
REMARK    5  A    between atoms: C12_20  and  O3_21 
REMARK    6  A    between atoms: O3_21  and  C13_22 
REMARK    7  A    between atoms: C13_22  and  C14_23 
ROOT
HETATM    1  C7  UNL     1      -5.351 -14.182  16.471  1.00  0.00     0.093 A 
HETATM    2  C8  UNL     1      -6.060 -14.286  17.649  1.00  0.00     0.035 A 
HETATM    3  C9  UNL     1      -5.433 -14.150  18.879  1.00  0.00     0.021 A 
HETATM    4  C10 UNL     1      -4.067 -13.905  18.927  1.00  0.00     0.013 A 
HETATM    5 BR1  UNL     1      -3.157 -13.710  20.587  1.00  0.00    -0.051 Br
HETATM    6  C11 UNL     1      -3.354 -13.799  17.752  1.00  0.00     0.058 A 
HETATM    7  C12 UNL     1      -3.972 -13.933  16.525  1.00  0.00     0.104 A 
ENDROOT
BRANCH   1   8
HETATM    8  N3  UNL     1      -6.061 -14.331  15.266  1.00  0.00    -0.120 N 
HETATM    9  C2  UNL     1      -6.554 -13.329  14.530  1.00  0.00     0.713 A 
HETATM   10  N2  UNL     1      -7.165 -13.855  13.455  1.00  0.00    -0.185 N 
HETATM   11  C3  UNL     1      -7.833 -13.146  12.395  1.00  0.00     0.175 C 
HETATM   12  C4  UNL     1      -7.068 -15.210  13.492  1.00  0.00     0.076 A 
HETATM   13  C5  UNL     1      -7.595 -16.189  12.515  1.00  0.00     0.074 C 
HETATM   14  C6  UNL     1      -6.367 -15.500  14.645  1.00  0.00     0.186 A 
BRANCH   9  15
HETATM   15  N1  UNL     1      -6.477 -12.066  14.776  1.00  0.00    -0.096 N 
ATOM     16  H1  UNL     1      -5.590 -11.598  14.590  1.00  0.00     0.213 HD
BRANCH  15  17
HETATM   17  O1  UNL     1      -7.509 -11.312  15.272  1.00  0.00    -0.271 OA
HETATM   18  C1  UNL     1      -8.549 -11.994  15.956  1.00  0.00     0.238 C 
ENDBRANCH  15  17
ENDBRANCH   9  15
BRANCH  14  19
HETATM   19  O2  UNL     1      -6.002 -16.755  15.141  1.00  0.00    -0.344 OA
ATOM     20  H2  UNL     1      -6.139 -17.606  14.741  1.00  0.00     0.219 HD
ENDBRANCH  14  19
ENDBRANCH   1   8
BRANCH   7  21
HETATM   21  O3  UNL     1      -3.281 -13.824  15.361  1.00  0.00    -0.319 OA
BRANCH  21  22
HETATM   22  C13 UNL     1      -2.050 -14.155  14.952  1.00  0.00     0.159 C 
BRANCH  22  23
HETATM   23  C14 UNL     1      -1.465 -15.490  15.037  1.00  0.00     0.053 A 
HETATM   24  C15 UNL     1      -0.340 -15.628  15.899  1.00  0.00     0.132 A 
HETATM   25 CL1  UNL     1       0.117 -14.183  16.800  1.00  0.00    -0.062 Cl
HETATM   26  N4  UNL     1       0.304 -16.763  16.006  1.00  0.00    -0.286 N 
HETATM   27  N5  UNL     1      -0.018 -17.851  15.347  1.00  0.00    -0.264 N 
ATOM     28  H4  UNL     1       1.103 -16.804  16.638  1.00  0.00     0.188 HD
HETATM   29  C16 UNL     1      -1.054 -17.776  14.531  1.00  0.00     0.282 A 
ATOM     30  H5  UNL     1       0.508 -18.717  15.459  1.00  0.00     0.190 HD
HETATM   31  O4  UNL     1      -1.399 -18.807  13.874  1.00  0.00    -0.265 OA
HETATM   32  C17 UNL     1      -1.802 -16.615  14.346  1.00  0.00     0.118 A 
HETATM   33 CL2  UNL     1      -3.079 -16.626  13.135  1.00  0.00    -0.077 Cl
ENDBRANCH  22  23
ENDBRANCH  21  22
ENDBRANCH   7  21
TORSDOF 7
ENDMDL
MODEL 4
REMARK VINA RESULT: -8.361192363      1.282      3.008
REMARK  7 active torsions:
REMARK  status: ('A' for Active; 'I' for Inactive)
REMARK    1  A    between atoms: O1_2  and  N1_3 
REMARK    2  A    between atoms: N1_3  and  C2_5 
REMARK    3  A    between atoms: C6_10  and  O2_11 
REMARK    4  A    between atoms: N3_13  and  C7_14 
REMARK    5  A    between atoms: C12_20  and  O3_21 
REMARK    6  A    between atoms: O3_21  and  C13_22 
REMARK    7  A    between atoms: C13_22  and  C14_23 
ROOT
HETATM    1  C7  UNL     1      -5.394 -14.130  16.475  1.00  0.00     0.093 A 
HETATM    2  C8  UNL     1      -6.088 -14.449  17.622  1.00  0.00     0.035 A 
HETATM    3  C9  UNL     1      -5.501 -14.333  18.873  1.00  0.00     0.021 A 
HETATM    4  C10 UNL     1      -4.189 -13.886  18.974  1.00  0.00     0.013 A 
HETATM    5 BR1  UNL     1      -3.334 -13.708  20.665  1.00  0.00    -0.051 Br
HETATM    6  C11 UNL     1      -3.492 -13.565  17.829  1.00  0.00     0.058 A 
HETATM    7  C12 UNL     1      -4.071 -13.679  16.582  1.00  0.00     0.104 A 
ENDROOT
BRANCH   1   8
HETATM    8  N3  UNL     1      -6.063 -14.274  15.245  1.00  0.00    -0.120 N 
HETATM    9  C2  UNL     1      -6.516 -13.269  14.489  1.00  0.00     0.713 A 
HETATM   10  N2  UNL     1      -7.095 -13.791  13.395  1.00  0.00    -0.185 N 
HETATM   11  C3  UNL     1      -7.716 -13.077  12.309  1.00  0.00     0.175 C 
HETATM   12  C4  UNL     1      -7.018 -15.147  13.440  1.00  0.00     0.076 A 
HETATM   13  C5  UNL     1      -7.523 -16.123  12.448  1.00  0.00     0.074 C 
HETATM   14  C6  UNL     1      -6.363 -15.441  14.618  1.00  0.00     0.186 A 
BRANCH   9  15
HETATM   15  N1  UNL     1      -6.430 -12.006  14.733  1.00  0.00    -0.096 N 
ATOM     16  H1  UNL     1      -5.545 -11.541  14.532  1.00  0.00     0.213 HD
BRANCH  15  17
HETATM   17  O1  UNL     1      -7.452 -11.248  15.244  1.00  0.00    -0.271 OA
HETATM   18  C1  UNL     1      -8.526 -11.933  15.870  1.00  0.00     0.238 C 
ENDBRANCH  15  17
ENDBRANCH   9  15
BRANCH  14  19
HETATM   19  O2  UNL     1      -6.033 -16.700  15.132  1.00  0.00    -0.344 OA
ATOM     20  H2  UNL     1      -6.359 -17.549  14.857  1.00  0.00     0.219 HD
ENDBRANCH  14  19
ENDBRANCH   1   8
BRANCH   7  21
HETATM   21  O3  UNL     1      -3.396 -13.358  15.447  1.00  0.00    -0.319 OA
BRANCH  21  22
HETATM   22  C13 UNL     1      -2.549 -13.999  14.633  1.00  0.00     0.159 C 
BRANCH  22  23
HETATM   23  C14 UNL     1      -1.569 -14.997  15.053  1.00  0.00     0.053 A 
HETATM   24  C15 UNL     1      -1.746 -16.309  14.528  1.00  0.00     0.132 A 
HETATM   25 CL1  UNL     1      -3.071 -16.504  13.382  1.00  0.00    -0.062 Cl
HETATM   26  N4  UNL     1      -0.965 -17.298  14.885  1.00  0.00    -0.286 N 
HETATM   27  N5  UNL     1       0.027 -17.176  15.735  1.00  0.00    -0.264 N 
ATOM     28  H4  UNL     1      -1.138 -18.217  14.478  1.00  0.00     0.188 HD
HETATM   29  C16 UNL     1       0.233 -15.979  16.252  1.00  0.00     0.282 A 
ATOM     30  H5  UNL     1       0.615 -17.971  15.986  1.00  0.00     0.190 HD
HETATM   31  O4  UNL     1       1.183 -15.818  17.079  1.00  0.00    -0.265 OA
HETATM   32  C17 UNL     1      -0.543 -14.864  15.939  1.00  0.00     0.118 A 
HETATM   33 CL2  UNL     1      -0.232 -13.360  16.798  1.00  0.00    -0.077 Cl
ENDBRANCH  22  23
ENDBRANCH  21  22
ENDBRANCH   7  21
TORSDOF 7
ENDMDL
MODEL 5
REMARK VINA RESULT: -7.900116768      3.237      5.228
REMARK  7 active torsions:
REMARK  status: ('A' for Active; 'I' for Inactive)
REMARK    1  A    between atoms: O1_2  and  N1_3 
REMARK    2  A    between atoms: N1_3  and  C2_5 
REMARK    3  A    between atoms: C6_10  and  O2_11 
REMARK    4  A    between atoms: N3_13  and  C7_14 
REMARK    5  A    between atoms: C12_20  and  O3_21 
REMARK    6  A    between atoms: O3_21  and  C13_22 
REMARK    7  A    between atoms: C13_22  and  C14_23 
ROOT
HETATM    1  C7  UNL     1      -5.651 -13.313  15.613  1.00  0.00     0.093 A 
HETATM    2  C8  UNL     1      -6.380 -12.145  15.542  1.00  0.00     0.035 A 
HETATM    3  C9  UNL     1      -7.229 -11.892  14.474  1.00  0.00     0.021 A 
HETATM    4  C10 UNL     1      -7.347 -12.832  13.458  1.00  0.00     0.013 A 
HETATM    5 BR1  UNL     1      -8.497 -12.537  11.970  1.00  0.00    -0.051 Br
HETATM    6  C11 UNL     1      -6.620 -14.001  13.526  1.00  0.00     0.058 A 
HETATM    7  C12 UNL     1      -5.774 -14.257  14.586  1.00  0.00     0.104 A 
ENDROOT
BRANCH   1   8
HETATM    8  N3  UNL     1      -4.814 -13.493  16.730  1.00  0.00    -0.120 N 
HETATM    9  C2  UNL     1      -5.221 -13.856  17.951  1.00  0.00     0.713 A 
HETATM   10  N2  UNL     1      -4.144 -13.926  18.752  1.00  0.00    -0.185 N 
HETATM   11  C3  UNL     1      -4.115 -14.280  20.148  1.00  0.00     0.175 C 
HETATM   12  C4  UNL     1      -3.029 -13.606  18.046  1.00  0.00     0.076 A 
HETATM   13  C5  UNL     1      -1.629 -13.555  18.527  1.00  0.00     0.074 C 
HETATM   14  C6  UNL     1      -3.465 -13.333  16.766  1.00  0.00     0.186 A 
BRANCH   9  15
HETATM   15  N1  UNL     1      -6.427 -14.104  18.332  1.00  0.00    -0.096 N 
ATOM     16  H1  UNL     1      -6.726 -15.079  18.363  1.00  0.00     0.213 HD
BRANCH  15  17
HETATM   17  O1  UNL     1      -7.334 -13.142  18.697  1.00  0.00    -0.271 OA
HETATM   18  C1  UNL     1      -8.675 -13.309  18.262  1.00  0.00     0.238 C 
ENDBRANCH  15  17
ENDBRANCH   9  15
BRANCH  14  19
HETATM   19  O2  UNL     1      -2.703 -12.955  15.656  1.00  0.00    -0.344 OA
ATOM     20  H2  UNL     1      -1.989 -12.329  15.621  1.00  0.00     0.219 HD
ENDBRANCH  14  19
ENDBRANCH   1   8
BRANCH   7  21
HETATM   21  O3  UNL     1      -5.057 -15.409  14.666  1.00  0.00    -0.319 OA
BRANCH  21  22
HETATM   22  C13 UNL     1      -3.895 -15.842  14.164  1.00  0.00     0.159 C 
BRANCH  22  23
HETATM   23  C14 UNL     1      -3.689 -17.128  13.504  1.00  0.00     0.053 A 
HETATM   24  C15 UNL     1      -2.402 -17.717  13.664  1.00  0.00     0.132 A 
HETATM   25 CL1  UNL     1      -1.284 -16.842  14.709  1.00  0.00    -0.062 Cl
HETATM   26  N4  UNL     1      -2.084 -18.837  13.066  1.00  0.00    -0.286 N 
HETATM   27  N5  UNL     1      -2.900 -19.506  12.285  1.00  0.00    -0.264 N 
ATOM     28  H4  UNL     1      -1.148 -19.212  13.216  1.00  0.00     0.188 HD
HETATM   29  C16 UNL     1      -4.106 -19.002  12.102  1.00  0.00     0.282 A 
ATOM     30  H5  UNL     1      -2.614 -20.378  11.838  1.00  0.00     0.190 HD
HETATM   31  O4  UNL     1      -4.926 -19.618  11.353  1.00  0.00    -0.265 OA
HETATM   32  C17 UNL     1      -4.539 -17.816  12.691  1.00  0.00     0.118 A 
HETATM   33 CL2  UNL     1      -6.130 -17.199  12.259  1.00  0.00    -0.077 Cl
ENDBRANCH  22  23
ENDBRANCH  21  22
ENDBRANCH   7  21
TORSDOF 7
ENDMDL
