MODEL 1
REMARK VINA RESULT: -8.306315951      0.000      0.000
REMARK  8 active torsions:
REMARK  status: ('A' for Active; 'I' for Inactive)
REMARK    1  A    between atoms: C2_2  and  O1_3 
REMARK    2  A    between atoms: O1_3  and  C3_4 
REMARK    3  A    between atoms: C3_4  and  C4_6 
REMARK    4  A    between atoms: N3_12  and  C6_14 
REMARK    5  A    between atoms: C6_14  and  C7_15 
REMARK    6  A    between atoms: C9_18  and  N4_19 
REMARK       I    between atoms: N4_19  and  C10_21 
REMARK    7  A    between atoms: C10_21  and  C11_23 
REMARK    8  A    between atoms: C13_25  and  O4_26 
ROOT
HETATM    1  C7  UNL     1      -2.277 -13.843  19.022  1.00  0.00     0.056 A 
HETATM    2  C8  UNL     1      -2.366 -14.311  20.317  1.00  0.00     0.084 A 
HETATM    3  S1  UNL     1      -4.047 -14.249  20.601  1.00  0.00    -0.063 SA
HETATM    4  C9  UNL     1      -4.536 -13.642  19.082  1.00  0.00     0.151 A 
HETATM    5  N5  UNL     1      -3.385 -13.517  18.430  1.00  0.00    -0.335 N 
ATOM      6  H5  UNL     1      -3.373 -13.166  17.472  1.00  0.00     0.168 HD
ENDROOT
BRANCH   1   7
HETATM    7  C6  UNL     1      -0.903 -13.741  18.361  1.00  0.00     0.120 C 
BRANCH   7   8
HETATM    8  N3  UNL     1      -0.424 -14.954  17.847  1.00  0.00    -0.343 N 
HETATM    9  C5  UNL     1      -0.792 -15.585  16.789  1.00  0.00     0.165 A 
HETATM   10  N2  UNL     1      -1.718 -15.300  15.868  1.00  0.00    -0.279 N 
HETATM   11  S2  UNL     1      -0.162 -17.062  16.202  1.00  0.00    -0.027 SA
HETATM   12  N1  UNL     1      -1.881 -16.104  14.896  1.00  0.00    -0.287 N 
ATOM     13  H2  UNL     1      -2.283 -14.455  15.943  1.00  0.00     0.189 HD
HETATM   14  C4  UNL     1      -1.144 -17.203  14.805  1.00  0.00     0.168 A 
ATOM     15  H1  UNL     1      -2.584 -15.904  14.184  1.00  0.00     0.188 HD
ATOM     16  H3  UNL     1       0.319 -15.397  18.387  1.00  0.00     0.167 HD
BRANCH  14  17
HETATM   17  C3  UNL     1      -1.171 -18.258  13.778  1.00  0.00     0.318 C 
HETATM   18  O2  UNL     1      -0.079 -18.750  13.427  1.00  0.00    -0.257 OA
BRANCH  17  19
HETATM   19  O1  UNL     1      -2.344 -18.680  13.235  1.00  0.00    -0.316 OA
BRANCH  19  20
HETATM   20  C2  UNL     1      -3.144 -17.966  12.345  1.00  0.00     0.175 C 
HETATM   21  C1  UNL     1      -3.419 -18.713  11.054  1.00  0.00     0.034 C 
ENDBRANCH  19  20
ENDBRANCH  17  19
ENDBRANCH  14  17
ENDBRANCH   7   8
ENDBRANCH   1   7
BRANCH   4  22
HETATM   22  N4  UNL     1      -5.726 -13.359  18.634  1.00  0.00    -0.303 N 
HETATM   23  C10 UNL     1      -6.310 -14.047  17.566  1.00  0.00     0.259 C 
HETATM   24  O3  UNL     1      -5.742 -15.029  17.058  1.00  0.00    -0.267 OA
ATOM     25  H4  UNL     1      -6.252 -12.607  19.079  1.00  0.00     0.171 HD
BRANCH  23  26
HETATM   26  C11 UNL     1      -7.607 -13.546  17.094  1.00  0.00     0.059 A 
HETATM   27  C12 UNL     1      -8.652 -13.501  17.993  1.00  0.00     0.057 A 
HETATM   28  C13 UNL     1      -9.876 -13.050  17.610  1.00  0.00     0.094 A 
HETATM   29  C15 UNL     1     -10.034 -12.637  16.283  1.00  0.00     0.107 A 
HETATM   30 CL1  UNL     1     -11.616 -12.055  15.774  1.00  0.00    -0.078 Cl
HETATM   31  C16 UNL     1      -8.992 -12.681  15.389  1.00  0.00     0.163 A 
HETATM   32  F1  UNL     1      -9.135 -12.287  14.101  1.00  0.00    -0.202 F 
HETATM   33  C17 UNL     1      -7.747 -13.143  15.788  1.00  0.00     0.090 A 
HETATM   34 CL2  UNL     1      -6.421 -13.198  14.675  1.00  0.00    -0.080 Cl
BRANCH  28  35
HETATM   35  O4  UNL     1     -10.976 -12.975  18.453  1.00  0.00    -0.354 OA
HETATM   36  C14 UNL     1     -11.883 -14.060  18.533  1.00  0.00     0.210 C 
ENDBRANCH  28  35
ENDBRANCH  23  26
ENDBRANCH   4  22
TORSDOF 8
ENDMDL
MODEL 2
REMARK VINA RESULT: -8.297193366      2.874      5.422
REMARK  8 active torsions:
REMARK  status: ('A' for Active; 'I' for Inactive)
REMARK    1  A    between atoms: C2_2  and  O1_3 
REMARK    2  A    between atoms: O1_3  and  C3_4 
REMARK    3  A    between atoms: C3_4  and  C4_6 
REMARK    4  A    between atoms: N3_12  and  C6_14 
REMARK    5  A    between atoms: C6_14  and  C7_15 
REMARK    6  A    between atoms: C9_18  and  N4_19 
REMARK       I    between atoms: N4_19  and  C10_21 
REMARK    7  A    between atoms: C10_21  and  C11_23 
REMARK    8  A    between atoms: C13_25  and  O4_26 
ROOT
HETATM    1  C7  UNL     1      -2.645 -18.054  13.141  1.00  0.00     0.056 A 
HETATM    2  C8  UNL     1      -3.206 -18.613  12.011  1.00  0.00     0.084 A 
HETATM    3  S1  UNL     1      -4.799 -18.008  12.070  1.00  0.00    -0.063 SA
HETATM    4  C9  UNL     1      -4.667 -17.093  13.505  1.00  0.00     0.151 A 
HETATM    5  N5  UNL     1      -3.406 -17.296  13.869  1.00  0.00    -0.335 N 
ATOM      6  H5  UNL     1      -3.038 -16.858  14.715  1.00  0.00     0.168 HD
ENDROOT
BRANCH   1   7
HETATM    7  C6  UNL     1      -1.182 -18.349  13.468  1.00  0.00     0.120 C 
BRANCH   7   8
HETATM    8  N3  UNL     1      -0.767 -17.870  14.718  1.00  0.00    -0.343 N 
HETATM    9  C5  UNL     1      -0.785 -16.666  15.169  1.00  0.00     0.165 A 
HETATM   10  N2  UNL     1      -1.190 -15.520  14.612  1.00  0.00    -0.279 N 
HETATM   11  S2  UNL     1      -0.274 -16.139  16.713  1.00  0.00    -0.027 SA
HETATM   12  N1  UNL     1      -1.105 -14.447  15.289  1.00  0.00    -0.287 N 
ATOM     13  H2  UNL     1      -1.559 -15.507  13.661  1.00  0.00     0.189 HD
HETATM   14  C4  UNL     1      -0.622 -14.472  16.525  1.00  0.00     0.168 A 
ATOM     15  H1  UNL     1      -1.409 -13.563  14.880  1.00  0.00     0.188 HD
ATOM     16  H3  UNL     1      -0.400 -18.574  15.359  1.00  0.00     0.167 HD
BRANCH  14  17
HETATM   17  C3  UNL     1      -0.435 -13.360  17.472  1.00  0.00     0.318 C 
HETATM   18  O2  UNL     1       0.540 -12.603  17.287  1.00  0.00    -0.257 OA
BRANCH  17  19
HETATM   19  O1  UNL     1      -1.295 -13.166  18.507  1.00  0.00    -0.316 OA
BRANCH  19  20
HETATM   20  C2  UNL     1      -1.232 -13.780  19.757  1.00  0.00     0.175 C 
HETATM   21  C1  UNL     1      -2.563 -13.802  20.482  1.00  0.00     0.034 C 
ENDBRANCH  19  20
ENDBRANCH  17  19
ENDBRANCH  14  17
ENDBRANCH   7   8
ENDBRANCH   1   7
BRANCH   4  22
HETATM   22  N4  UNL     1      -5.554 -16.365  14.122  1.00  0.00    -0.303 N 
HETATM   23  C10 UNL     1      -5.254 -15.107  14.656  1.00  0.00     0.259 C 
HETATM   24  O3  UNL     1      -4.136 -14.593  14.477  1.00  0.00    -0.267 OA
ATOM     25  H4  UNL     1      -6.503 -16.725  14.220  1.00  0.00     0.171 HD
BRANCH  23  26
HETATM   26  C11 UNL     1      -6.319 -14.450  15.423  1.00  0.00     0.059 A 
HETATM   27  C12 UNL     1      -7.530 -14.234  14.800  1.00  0.00     0.057 A 
HETATM   28  C13 UNL     1      -8.551 -13.626  15.461  1.00  0.00     0.094 A 
HETATM   29  C15 UNL     1      -8.329 -13.232  16.785  1.00  0.00     0.107 A 
HETATM   30 CL1  UNL     1      -9.642 -12.441  17.650  1.00  0.00    -0.078 Cl
HETATM   31  C16 UNL     1      -7.122 -13.450  17.405  1.00  0.00     0.163 A 
HETATM   32  F1  UNL     1      -6.896 -13.069  18.685  1.00  0.00    -0.202 F 
HETATM   33  C17 UNL     1      -6.087 -14.070  16.723  1.00  0.00     0.090 A 
HETATM   34 CL2  UNL     1      -4.562 -14.357  17.493  1.00  0.00    -0.080 Cl
BRANCH  28  35
HETATM   35  O4  UNL     1      -9.796 -13.372  14.905  1.00  0.00    -0.354 OA
HETATM   36  C14 UNL     1      -9.896 -12.649  13.690  1.00  0.00     0.210 C 
ENDBRANCH  28  35
ENDBRANCH  23  26
ENDBRANCH   4  22
TORSDOF 8
ENDMDL
MODEL 3
REMARK VINA RESULT: -8.129528370      1.818      2.533
REMARK  8 active torsions:
REMARK  status: ('A' for Active; 'I' for Inactive)
REMARK    1  A    between atoms: C2_2  and  O1_3 
REMARK    2  A    between atoms: O1_3  and  C3_4 
REMARK    3  A    between atoms: C3_4  and  C4_6 
REMARK    4  A    between atoms: N3_12  and  C6_14 
REMARK    5  A    between atoms: C6_14  and  C7_15 
REMARK    6  A    between atoms: C9_18  and  N4_19 
REMARK       I    between atoms: N4_19  and  C10_21 
REMARK    7  A    between atoms: C10_21  and  C11_23 
REMARK    8  A    between atoms: C13_25  and  O4_26 
ROOT
HETATM    1  C7  UNL     1      -1.093 -14.777  16.805  1.00  0.00     0.056 A 
HETATM    2  C8  UNL     1      -0.618 -14.637  18.093  1.00  0.00     0.084 A 
HETATM    3  S1  UNL     1      -2.013 -14.123  18.931  1.00  0.00    -0.063 SA
HETATM    4  C9  UNL     1      -3.105 -14.113  17.618  1.00  0.00     0.151 A 
HETATM    5  N5  UNL     1      -2.346 -14.507  16.601  1.00  0.00    -0.335 N 
ATOM      6  H5  UNL     1      -2.746 -14.596  15.666  1.00  0.00     0.168 HD
ENDROOT
BRANCH   1   7
HETATM    7  C6  UNL     1      -0.137 -15.240  15.707  1.00  0.00     0.120 C 
BRANCH   7   8
HETATM    8  N3  UNL     1      -0.464 -16.484  15.151  1.00  0.00    -0.343 N 
HETATM    9  C5  UNL     1      -1.436 -16.790  14.367  1.00  0.00     0.165 A 
HETATM   10  N2  UNL     1      -2.418 -16.046  13.848  1.00  0.00    -0.279 N 
HETATM   11  S2  UNL     1      -1.782 -18.329  13.709  1.00  0.00    -0.027 SA
HETATM   12  N1  UNL     1      -3.266 -16.603  13.081  1.00  0.00    -0.287 N 
ATOM     13  H2  UNL     1      -2.486 -15.051  14.062  1.00  0.00     0.189 HD
HETATM   14  C4  UNL     1      -3.172 -17.897  12.807  1.00  0.00     0.168 A 
ATOM     15  H1  UNL     1      -4.022 -16.051  12.675  1.00  0.00     0.188 HD
ATOM     16  H3  UNL     1       0.156 -17.255  15.403  1.00  0.00     0.167 HD
BRANCH  14  17
HETATM   17  C3  UNL     1      -4.039 -18.733  11.958  1.00  0.00     0.318 C 
HETATM   18  O2  UNL     1      -3.485 -19.564  11.210  1.00  0.00    -0.257 OA
BRANCH  17  19
HETATM   19  O1  UNL     1      -5.392 -18.601  11.990  1.00  0.00    -0.316 OA
BRANCH  19  20
HETATM   20  C2  UNL     1      -6.288 -19.073  11.033  1.00  0.00     0.175 C 
HETATM   21  C1  UNL     1      -7.069 -20.290  11.490  1.00  0.00     0.034 C 
ENDBRANCH  19  20
ENDBRANCH  17  19
ENDBRANCH  14  17
ENDBRANCH   7   8
ENDBRANCH   1   7
BRANCH   4  22
HETATM   22  N4  UNL     1      -4.370 -13.806  17.580  1.00  0.00    -0.303 N 
HETATM   23  C10 UNL     1      -5.277 -14.460  16.740  1.00  0.00     0.259 C 
HETATM   24  O3  UNL     1      -4.919 -15.434  16.056  1.00  0.00    -0.267 OA
ATOM     25  H4  UNL     1      -4.712 -13.060  18.185  1.00  0.00     0.171 HD
BRANCH  23  26
HETATM   26  C11 UNL     1      -6.647 -13.931  16.718  1.00  0.00     0.059 A 
HETATM   27  C12 UNL     1      -7.222 -13.567  17.917  1.00  0.00     0.057 A 
HETATM   28  C13 UNL     1      -8.490 -13.076  17.957  1.00  0.00     0.094 A 
HETATM   29  C15 UNL     1      -9.181 -12.955  16.747  1.00  0.00     0.107 A 
HETATM   30 CL1  UNL     1     -10.824 -12.325  16.786  1.00  0.00    -0.078 Cl
HETATM   31  C16 UNL     1      -8.606 -13.318  15.553  1.00  0.00     0.163 A 
HETATM   32  F1  UNL     1      -9.269 -13.208  14.377  1.00  0.00    -0.202 F 
HETATM   33  C17 UNL     1      -7.313 -13.817  15.522  1.00  0.00     0.090 A 
HETATM   34 CL2  UNL     1      -6.573 -14.272  14.024  1.00  0.00    -0.080 Cl
BRANCH  28  35
HETATM   35  O4  UNL     1      -9.137 -12.689  19.121  1.00  0.00    -0.354 OA
HETATM   36  C14 UNL     1      -8.584 -11.668  19.933  1.00  0.00     0.210 C 
ENDBRANCH  28  35
ENDBRANCH  23  26
ENDBRANCH   4  22
TORSDOF 8
ENDMDL
MODEL 4
REMARK VINA RESULT: -8.085757719      2.877      5.371
REMARK  8 active torsions:
REMARK  status: ('A' for Active; 'I' for Inactive)
REMARK    1  A    between atoms: C2_2  and  O1_3 
REMARK    2  A    between atoms: O1_3  and  C3_4 
REMARK    3  A    between atoms: C3_4  and  C4_6 
REMARK    4  A    between atoms: N3_12  and  C6_14 
REMARK    5  A    between atoms: C6_14  and  C7_15 
REMARK    6  A    between atoms: C9_18  and  N4_19 
REMARK       I    between atoms: N4_19  and  C10_21 
REMARK    7  A    between atoms: C10_21  and  C11_23 
REMARK    8  A    between atoms: C13_25  and  O4_26 
ROOT
HETATM    1  C7  UNL     1      -3.127 -18.115  13.027  1.00  0.00     0.056 A 
HETATM    2  C8  UNL     1      -3.850 -18.477  11.909  1.00  0.00     0.084 A 
HETATM    3  S1  UNL     1      -5.357 -17.734  12.206  1.00  0.00    -0.063 SA
HETATM    4  C9  UNL     1      -4.990 -17.018  13.712  1.00  0.00     0.151 A 
HETATM    5  N5  UNL     1      -3.728 -17.382  13.913  1.00  0.00    -0.335 N 
ATOM      6  H5  UNL     1      -3.236 -17.088  14.757  1.00  0.00     0.168 HD
ENDROOT
BRANCH   1   7
HETATM    7  C6  UNL     1      -1.679 -18.586  13.159  1.00  0.00     0.120 C 
BRANCH   7   8
HETATM    8  N3  UNL     1      -1.032 -18.127  14.314  1.00  0.00    -0.343 N 
HETATM    9  C5  UNL     1      -0.910 -16.922  14.749  1.00  0.00     0.165 A 
HETATM   10  N2  UNL     1      -1.346 -15.759  14.258  1.00  0.00    -0.279 N 
HETATM   11  S2  UNL     1      -0.115 -16.420  16.176  1.00  0.00    -0.027 SA
HETATM   12  N1  UNL     1      -1.092 -14.690  14.899  1.00  0.00    -0.287 N 
ATOM     13  H2  UNL     1      -1.873 -15.727  13.385  1.00  0.00     0.189 HD
HETATM   14  C4  UNL     1      -0.406 -14.738  16.034  1.00  0.00     0.168 A 
ATOM     15  H1  UNL     1      -1.416 -13.793  14.539  1.00  0.00     0.188 HD
ATOM     16  H3  UNL     1      -0.596 -18.848  14.890  1.00  0.00     0.167 HD
BRANCH  14  17
HETATM   17  C3  UNL     1      -0.002 -13.635  16.923  1.00  0.00     0.318 C 
HETATM   18  O2  UNL     1       1.145 -13.165  16.775  1.00  0.00    -0.257 OA
BRANCH  17  19
HETATM   19  O1  UNL     1      -0.850 -13.148  17.868  1.00  0.00    -0.316 OA
BRANCH  19  20
HETATM   20  C2  UNL     1      -1.444 -13.878  18.896  1.00  0.00     0.175 C 
HETATM   21  C1  UNL     1      -0.980 -13.457  20.277  1.00  0.00     0.034 C 
ENDBRANCH  19  20
ENDBRANCH  17  19
ENDBRANCH  14  17
ENDBRANCH   7   8
ENDBRANCH   1   7
BRANCH   4  22
HETATM   22  N4  UNL     1      -5.730 -16.289  14.499  1.00  0.00    -0.303 N 
HETATM   23  C10 UNL     1      -5.332 -15.027  14.949  1.00  0.00     0.259 C 
HETATM   24  O3  UNL     1      -4.281 -14.508  14.535  1.00  0.00    -0.267 OA
ATOM     25  H4  UNL     1      -6.635 -16.654  14.797  1.00  0.00     0.171 HD
BRANCH  23  26
HETATM   26  C11 UNL     1      -6.214 -14.370  15.921  1.00  0.00     0.059 A 
HETATM   27  C12 UNL     1      -5.726 -14.140  17.190  1.00  0.00     0.057 A 
HETATM   28  C13 UNL     1      -6.501 -13.539  18.132  1.00  0.00     0.094 A 
HETATM   29  C15 UNL     1      -7.799 -13.166  17.770  1.00  0.00     0.107 A 
HETATM   30 CL1  UNL     1      -8.813 -12.391  18.982  1.00  0.00    -0.078 Cl
HETATM   31  C16 UNL     1      -8.284 -13.395  16.505  1.00  0.00     0.163 A 
HETATM   32  F1  UNL     1      -9.540 -13.042  16.144  1.00  0.00    -0.202 F 
HETATM   33  C17 UNL     1      -7.487 -14.008  15.550  1.00  0.00     0.090 A 
HETATM   34 CL2  UNL     1      -8.081 -14.298  13.949  1.00  0.00    -0.080 Cl
BRANCH  28  35
HETATM   35  O4  UNL     1      -6.083 -13.274  19.429  1.00  0.00    -0.354 OA
HETATM   36  C14 UNL     1      -4.884 -13.847  19.918  1.00  0.00     0.210 C 
ENDBRANCH  28  35
ENDBRANCH  23  26
ENDBRANCH   4  22
TORSDOF 8
ENDMDL
MODEL 5
REMARK VINA RESULT: -8.052142083      4.192      6.827
REMARK  8 active torsions:
REMARK  status: ('A' for Active; 'I' for Inactive)
REMARK    1  A    between atoms: C2_2  and  O1_3 
REMARK    2  A    between atoms: O1_3  and  C3_4 
REMARK    3  A    between atoms: C3_4  and  C4_6 
REMARK    4  A    between atoms: N3_12  and  C6_14 
REMARK    5  A    between atoms: C6_14  and  C7_15 
REMARK    6  A    between atoms: C9_18  and  N4_19 
REMARK       I    between atoms: N4_19  and  C10_21 
REMARK    7  A    between atoms: C10_21  and  C11_23 
REMARK    8  A    between atoms: C13_25  and  O4_26 
ROOT
HETATM    1  C7  UNL     1      -8.752 -13.750  14.131  1.00  0.00     0.056 A 
HETATM    2  C8  UNL     1      -9.595 -12.950  14.876  1.00  0.00     0.084 A 
HETATM    3  S1  UNL     1      -8.541 -12.344  16.073  1.00  0.00    -0.063 SA
HETATM    4  C9  UNL     1      -7.111 -13.129  15.569  1.00  0.00     0.151 A 
HETATM    5  N5  UNL     1      -7.511 -13.817  14.506  1.00  0.00    -0.335 N 
ATOM      6  H5  UNL     1      -6.848 -14.394  13.987  1.00  0.00     0.168 HD
ENDROOT
BRANCH   1   7
HETATM    7  C6  UNL     1      -9.313 -14.497  12.923  1.00  0.00     0.120 C 
BRANCH   7   8
HETATM    8  N3  UNL     1      -9.059 -15.876  12.934  1.00  0.00    -0.343 N 
HETATM    9  C5  UNL     1      -8.064 -16.519  12.435  1.00  0.00     0.165 A 
HETATM   10  N2  UNL     1      -6.986 -16.097  11.767  1.00  0.00    -0.279 N 
HETATM   11  S2  UNL     1      -7.800 -18.207  12.488  1.00  0.00    -0.027 SA
HETATM   12  N1  UNL     1      -6.131 -16.956  11.382  1.00  0.00    -0.287 N 
ATOM     13  H2  UNL     1      -6.852 -15.106  11.569  1.00  0.00     0.189 HD
HETATM   14  C4  UNL     1      -6.312 -18.244  11.641  1.00  0.00     0.168 A 
ATOM     15  H1  UNL     1      -5.302 -16.653  10.870  1.00  0.00     0.188 HD
ATOM     16  H3  UNL     1      -9.762 -16.448  13.403  1.00  0.00     0.167 HD
BRANCH  14  17
HETATM   17  C3  UNL     1      -5.459 -19.392  11.288  1.00  0.00     0.318 C 
HETATM   18  O2  UNL     1      -5.864 -20.155  10.387  1.00  0.00    -0.257 OA
BRANCH  17  19
HETATM   19  O1  UNL     1      -4.276 -19.610  11.921  1.00  0.00    -0.316 OA
BRANCH  19  20
HETATM   20  C2  UNL     1      -3.131 -18.822  11.821  1.00  0.00     0.175 C 
HETATM   21  C1  UNL     1      -2.817 -18.056  13.091  1.00  0.00     0.034 C 
ENDBRANCH  19  20
ENDBRANCH  17  19
ENDBRANCH  14  17
ENDBRANCH   7   8
ENDBRANCH   1   7
BRANCH   4  22
HETATM   22  N4  UNL     1      -5.910 -13.090  16.071  1.00  0.00    -0.303 N 
HETATM   23  C10 UNL     1      -5.201 -14.246  16.416  1.00  0.00     0.259 C 
HETATM   24  O3  UNL     1      -5.665 -15.371  16.166  1.00  0.00    -0.267 OA
ATOM     25  H4  UNL     1      -5.469 -12.182  16.219  1.00  0.00     0.171 HD
BRANCH  23  26
HETATM   26  C11 UNL     1      -3.906 -14.047  17.078  1.00  0.00     0.059 A 
HETATM   27  C12 UNL     1      -3.884 -13.981  18.455  1.00  0.00     0.057 A 
HETATM   28  C13 UNL     1      -2.713 -13.794  19.121  1.00  0.00     0.094 A 
HETATM   29  C15 UNL     1      -1.543 -13.672  18.363  1.00  0.00     0.107 A 
HETATM   30 CL1  UNL     1      -0.022 -13.425  19.214  1.00  0.00    -0.078 Cl
HETATM   31  C16 UNL     1      -1.567 -13.739  16.991  1.00  0.00     0.163 A 
HETATM   32  F1  UNL     1      -0.441 -13.618  16.249  1.00  0.00    -0.202 F 
HETATM   33  C17 UNL     1      -2.765 -13.930  16.321  1.00  0.00     0.090 A 
HETATM   34 CL2  UNL     1      -2.811 -14.022  14.592  1.00  0.00    -0.080 Cl
BRANCH  28  35
HETATM   35  O4  UNL     1      -2.608 -13.717  20.502  1.00  0.00    -0.354 OA
HETATM   36  C14 UNL     1      -3.774 -13.758  21.305  1.00  0.00     0.210 C 
ENDBRANCH  28  35
ENDBRANCH  23  26
ENDBRANCH   4  22
TORSDOF 8
ENDMDL
