MODEL 1
REMARK VINA RESULT: -7.207077354      0.000      0.000
REMARK  8 active torsions:
REMARK  status: ('A' for Active; 'I' for Inactive)
REMARK    1  A    between atoms: O1_2  and  C2_3 
REMARK    2  A    between atoms: C2_3  and  C3_5 
REMARK    3  A    between atoms: C5_8  and  O4_10 
REMARK    4  A    between atoms: C7_12  and  N1_13 
REMARK    5  A    between atoms: N1_13  and  C8_15 
REMARK    6  A    between atoms: C8_15  and  O5_16 
REMARK    7  A    between atoms: C8_15  and  C9_18 
REMARK    8  A    between atoms: C19_30  and  O6_31 
ROOT
HETATM    1  N1  UNL     1     -10.579  -3.305 -15.216  1.00  0.00    -0.360 N 
ATOM      2  H1  UNL     1     -11.323  -2.619 -15.086  1.00  0.00     0.162 HD
ENDROOT
BRANCH   1   3
HETATM    3  C7  UNL     1     -10.730  -4.608 -14.540  1.00  0.00     0.151 C 
HETATM    4  C5  UNL     1     -11.806  -5.360 -15.286  1.00  0.00     0.098 C 
HETATM    5  C4  UNL     1     -13.110  -4.677 -14.836  1.00  0.00     0.208 C 
HETATM    6  C6  UNL     1     -11.850  -6.792 -14.756  1.00  0.00     0.050 C 
HETATM    7  O3  UNL     1     -13.328  -5.169 -13.581  1.00  0.00    -0.370 OA
HETATM    8  C3  UNL     1     -12.426  -4.675 -12.633  1.00  0.00     0.251 C 
HETATM    9  C19 UNL     1     -11.040  -4.417 -13.113  1.00  0.00     0.182 C 
BRANCH   4  10
HETATM   10  O4  UNL     1     -11.661  -5.326 -16.637  1.00  0.00    -0.386 OA
ATOM     11  H4  UNL     1     -11.246  -6.115 -16.966  1.00  0.00     0.210 HD
ENDBRANCH   4  10
BRANCH   8  12
HETATM   12  C2  UNL     1     -13.057  -3.503 -11.967  1.00  0.00     0.290 C 
HETATM   13  O2  UNL     1     -13.539  -2.542 -12.670  1.00  0.00    -0.262 OA
BRANCH  12  14
HETATM   14  O1  UNL     1     -13.186  -3.341 -10.597  1.00  0.00    -0.324 OA
HETATM   15  C1  UNL     1     -14.493  -3.161 -10.012  1.00  0.00     0.213 C 
ENDBRANCH  12  14
ENDBRANCH   8  12
BRANCH   9  16
HETATM   16  O6  UNL     1     -10.732  -3.087 -12.772  1.00  0.00    -0.390 OA
ATOM     17  H6  UNL     1     -10.621  -2.613 -13.588  1.00  0.00     0.210 HD
ENDBRANCH   9  16
ENDBRANCH   1   3
BRANCH   1  18
HETATM   18  C8  UNL     1      -9.512  -2.943 -16.011  1.00  0.00     0.154 C 
BRANCH  18  19
HETATM   19  O5  UNL     1      -9.665  -1.877 -16.750  1.00  0.00    -0.345 OA
ATOM     20  H5  UNL     1      -8.883  -1.369 -16.934  1.00  0.00     0.219 HD
ENDBRANCH  18  19
BRANCH  18  21
HETATM   21  C9  UNL     1      -8.192  -3.549 -16.182  1.00  0.00     0.063 A 
HETATM   22  S1  UNL     1      -7.871  -5.171 -16.772  1.00  0.00    -0.084 SA
HETATM   23  C10 UNL     1      -6.189  -5.263 -16.504  1.00  0.00     0.030 A 
HETATM   24  C11 UNL     1      -5.380  -6.445 -16.689  1.00  0.00    -0.061 C 
HETATM   25  C16 UNL     1      -5.933  -4.039 -15.967  1.00  0.00     0.058 A 
HETATM   26  C12 UNL     1      -4.734  -6.644 -18.034  1.00  0.00     0.036 C 
HETATM   27  C15 UNL     1      -4.471  -6.960 -15.671  1.00  0.00     0.036 C 
HETATM   28  C13 UNL     1      -3.956  -7.907 -17.863  1.00  0.00     0.005 C 
HETATM   29  C14 UNL     1      -3.467  -7.851 -16.433  1.00  0.00     0.005 C 
HETATM   30 CL1  UNL     1      -4.225  -3.677 -15.526  1.00  0.00    -0.082 Cl
HETATM   31  C17 UNL     1      -6.933  -3.169 -15.806  1.00  0.00    -0.018 A 
HETATM   32  C18 UNL     1      -6.719  -1.758 -15.271  1.00  0.00     0.052 C 
ENDBRANCH  18  21
ENDBRANCH   1  18
TORSDOF 8
ENDMDL
MODEL 2
REMARK VINA RESULT: -6.972423464      3.751      8.283
REMARK  8 active torsions:
REMARK  status: ('A' for Active; 'I' for Inactive)
REMARK    1  A    between atoms: O1_2  and  C2_3 
REMARK    2  A    between atoms: C2_3  and  C3_5 
REMARK    3  A    between atoms: C5_8  and  O4_10 
REMARK    4  A    between atoms: C7_12  and  N1_13 
REMARK    5  A    between atoms: N1_13  and  C8_15 
REMARK    6  A    between atoms: C8_15  and  O5_16 
REMARK    7  A    between atoms: C8_15  and  C9_18 
REMARK    8  A    between atoms: C19_30  and  O6_31 
ROOT
HETATM    1  N1  UNL     1     -10.569  -4.552 -17.328  1.00  0.00    -0.360 N 
ATOM      2  H1  UNL     1     -11.209  -3.986 -17.886  1.00  0.00     0.162 HD
ENDROOT
BRANCH   1   3
HETATM    3  C7  UNL     1      -9.169  -4.643 -17.784  1.00  0.00     0.151 C 
HETATM    4  C5  UNL     1      -8.696  -3.228 -18.014  1.00  0.00     0.098 C 
HETATM    5  C4  UNL     1      -9.376  -2.824 -19.335  1.00  0.00     0.208 C 
HETATM    6  C6  UNL     1      -7.192  -3.259 -18.283  1.00  0.00     0.050 C 
HETATM    7  O3  UNL     1      -8.643  -3.461 -20.296  1.00  0.00    -0.370 OA
HETATM    8  C3  UNL     1      -8.837  -4.846 -20.307  1.00  0.00     0.251 C 
HETATM    9  C19 UNL     1      -9.069  -5.491 -18.985  1.00  0.00     0.182 C 
BRANCH   4  10
HETATM   10  O4  UNL     1      -9.011  -2.375 -17.006  1.00  0.00    -0.386 OA
ATOM     11  H4  UNL     1      -8.538  -2.583 -16.208  1.00  0.00     0.210 HD
ENDBRANCH   4  10
BRANCH   8  12
HETATM   12  C2  UNL     1      -9.885  -5.154 -21.317  1.00  0.00     0.290 C 
HETATM   13  O2  UNL     1      -9.836  -6.249 -21.987  1.00  0.00    -0.262 OA
BRANCH  12  14
HETATM   14  O1  UNL     1     -10.964  -4.338 -21.618  1.00  0.00    -0.324 OA
HETATM   15  C1  UNL     1     -10.979  -3.589 -22.851  1.00  0.00     0.213 C 
ENDBRANCH  12  14
ENDBRANCH   8  12
BRANCH   9  16
HETATM   16  O6  UNL     1     -10.260  -6.231 -19.098  1.00  0.00    -0.390 OA
ATOM     17  H6  UNL     1     -10.039  -7.137 -18.910  1.00  0.00     0.210 HD
ENDBRANCH   9  16
ENDBRANCH   1   3
BRANCH   1  18
HETATM   18  C8  UNL     1     -11.081  -5.171 -16.208  1.00  0.00     0.154 C 
BRANCH  18  19
HETATM   19  O5  UNL     1     -11.378  -6.439 -16.321  1.00  0.00    -0.345 OA
ATOM     20  H5  UNL     1     -12.253  -6.697 -16.058  1.00  0.00     0.219 HD
ENDBRANCH  18  19
BRANCH  18  21
HETATM   21  C9  UNL     1     -11.357  -4.657 -14.867  1.00  0.00     0.063 A 
HETATM   22  S1  UNL     1     -12.945  -4.459 -14.145  1.00  0.00    -0.084 SA
HETATM   23  C10 UNL     1     -12.525  -3.636 -12.712  1.00  0.00     0.030 A 
HETATM   24  C11 UNL     1     -13.465  -3.089 -11.761  1.00  0.00    -0.061 C 
HETATM   25  C16 UNL     1     -11.174  -3.539 -12.840  1.00  0.00     0.058 A 
HETATM   26  C12 UNL     1     -13.885  -3.966 -10.613  1.00  0.00     0.036 C 
HETATM   27  C15 UNL     1     -13.406  -1.713 -11.280  1.00  0.00     0.036 C 
HETATM   28  C13 UNL     1     -14.801  -3.091  -9.823  1.00  0.00     0.005 C 
HETATM   29  C14 UNL     1     -14.200  -1.710  -9.956  1.00  0.00     0.005 C 
HETATM   30 CL1  UNL     1     -10.279  -2.724 -11.508  1.00  0.00    -0.082 Cl
HETATM   31  C17 UNL     1     -10.578  -4.054 -13.918  1.00  0.00    -0.018 A 
HETATM   32  C18 UNL     1      -9.064  -4.043 -14.106  1.00  0.00     0.052 C 
ENDBRANCH  18  21
ENDBRANCH   1  18
TORSDOF 8
ENDMDL
MODEL 3
REMARK VINA RESULT: -6.935099168      2.286      2.799
REMARK  8 active torsions:
REMARK  status: ('A' for Active; 'I' for Inactive)
REMARK    1  A    between atoms: O1_2  and  C2_3 
REMARK    2  A    between atoms: C2_3  and  C3_5 
REMARK    3  A    between atoms: C5_8  and  O4_10 
REMARK    4  A    between atoms: C7_12  and  N1_13 
REMARK    5  A    between atoms: N1_13  and  C8_15 
REMARK    6  A    between atoms: C8_15  and  O5_16 
REMARK    7  A    between atoms: C8_15  and  C9_18 
REMARK    8  A    between atoms: C19_30  and  O6_31 
ROOT
HETATM    1  N1  UNL     1     -10.555  -3.123 -15.988  1.00  0.00    -0.360 N 
ATOM      2  H1  UNL     1     -11.506  -2.756 -15.997  1.00  0.00     0.162 HD
ENDROOT
BRANCH   1   3
HETATM    3  C7  UNL     1     -10.332  -4.415 -15.312  1.00  0.00     0.151 C 
HETATM    4  C5  UNL     1     -11.339  -5.383 -15.884  1.00  0.00     0.098 C 
HETATM    5  C4  UNL     1     -12.665  -4.966 -15.223  1.00  0.00     0.208 C 
HETATM    6  C6  UNL     1     -11.010  -6.783 -15.370  1.00  0.00     0.050 C 
HETATM    7  O3  UNL     1     -12.577  -5.464 -13.955  1.00  0.00    -0.370 OA
HETATM    8  C3  UNL     1     -11.654  -4.780 -13.158  1.00  0.00     0.251 C 
HETATM    9  C19 UNL     1     -10.442  -4.260 -13.851  1.00  0.00     0.182 C 
BRANCH   4  10
HETATM   10  O4  UNL     1     -11.421  -5.350 -17.240  1.00  0.00    -0.386 OA
ATOM     11  H4  UNL     1     -11.734  -6.174 -17.594  1.00  0.00     0.210 HD
ENDBRANCH   4  10
BRANCH   8  12
HETATM   12  C2  UNL     1     -12.394  -3.745 -12.386  1.00  0.00     0.290 C 
HETATM   13  O2  UNL     1     -13.387  -3.128 -12.918  1.00  0.00    -0.262 OA
BRANCH  12  14
HETATM   14  O1  UNL     1     -12.104  -3.364 -11.086  1.00  0.00    -0.324 OA
HETATM   15  C1  UNL     1     -12.183  -1.974 -10.706  1.00  0.00     0.213 C 
ENDBRANCH  12  14
ENDBRANCH   8  12
BRANCH   9  16
HETATM   16  O6  UNL     1     -10.358  -2.889 -13.548  1.00  0.00    -0.390 OA
ATOM     17  H6  UNL     1     -11.248  -2.557 -13.528  1.00  0.00     0.210 HD
ENDBRANCH   9  16
ENDBRANCH   1   3
BRANCH   1  18
HETATM   18  C8  UNL     1      -9.578  -2.374 -16.610  1.00  0.00     0.154 C 
BRANCH  18  19
HETATM   19  O5  UNL     1      -9.962  -1.260 -17.173  1.00  0.00    -0.345 OA
ATOM     20  H5  UNL     1      -9.302  -0.777 -17.656  1.00  0.00     0.219 HD
ENDBRANCH  18  19
BRANCH  18  21
HETATM   21  C9  UNL     1      -8.141  -2.601 -16.756  1.00  0.00     0.063 A 
HETATM   22  S1  UNL     1      -6.924  -2.335 -15.519  1.00  0.00    -0.084 SA
HETATM   23  C10 UNL     1      -5.505  -2.587 -16.432  1.00  0.00     0.030 A 
HETATM   24  C11 UNL     1      -4.159  -2.372 -15.954  1.00  0.00    -0.061 C 
HETATM   25  C16 UNL     1      -6.019  -2.865 -17.661  1.00  0.00     0.058 A 
HETATM   26  C12 UNL     1      -3.443  -3.543 -15.337  1.00  0.00     0.036 C 
HETATM   27  C15 UNL     1      -3.175  -1.568 -16.671  1.00  0.00     0.036 C 
HETATM   28  C13 UNL     1      -2.097  -2.992 -15.004  1.00  0.00     0.005 C 
HETATM   29  C14 UNL     1      -1.803  -2.025 -16.129  1.00  0.00     0.005 C 
HETATM   30 CL1  UNL     1      -4.846  -3.219 -18.980  1.00  0.00    -0.082 Cl
HETATM   31  C17 UNL     1      -7.343  -2.880 -17.832  1.00  0.00    -0.018 A 
HETATM   32  C18 UNL     1      -7.998  -3.245 -19.160  1.00  0.00     0.052 C 
ENDBRANCH  18  21
ENDBRANCH   1  18
TORSDOF 8
ENDMDL
MODEL 4
REMARK VINA RESULT: -6.930887149      3.879      7.845
REMARK  8 active torsions:
REMARK  status: ('A' for Active; 'I' for Inactive)
REMARK    1  A    between atoms: O1_2  and  C2_3 
REMARK    2  A    between atoms: C2_3  and  C3_5 
REMARK    3  A    between atoms: C5_8  and  O4_10 
REMARK    4  A    between atoms: C7_12  and  N1_13 
REMARK    5  A    between atoms: N1_13  and  C8_15 
REMARK    6  A    between atoms: C8_15  and  O5_16 
REMARK    7  A    between atoms: C8_15  and  C9_18 
REMARK    8  A    between atoms: C19_30  and  O6_31 
ROOT
HETATM    1  N1  UNL     1      -9.823  -4.644 -16.941  1.00  0.00    -0.360 N 
ATOM      2  H1  UNL     1      -8.804  -4.665 -16.904  1.00  0.00     0.162 HD
ENDROOT
BRANCH   1   3
HETATM    3  C7  UNL     1     -10.449  -4.021 -18.122  1.00  0.00     0.151 C 
HETATM    4  C5  UNL     1     -10.136  -4.915 -19.299  1.00  0.00     0.098 C 
HETATM    5  C4  UNL     1      -8.655  -4.621 -19.599  1.00  0.00     0.208 C 
HETATM    6  C6  UNL     1     -10.938  -4.425 -20.503  1.00  0.00     0.050 C 
HETATM    7  O3  UNL     1      -8.677  -3.415 -20.239  1.00  0.00    -0.370 OA
HETATM    8  C3  UNL     1      -8.995  -2.349 -19.391  1.00  0.00     0.251 C 
HETATM    9  C19 UNL     1      -9.964  -2.641 -18.298  1.00  0.00     0.182 C 
BRANCH   4  10
HETATM   10  O4  UNL     1     -10.348  -6.234 -19.055  1.00  0.00    -0.386 OA
ATOM     11  H4  UNL     1     -10.075  -6.775 -19.787  1.00  0.00     0.210 HD
ENDBRANCH   4  10
BRANCH   8  12
HETATM   12  C2  UNL     1      -7.720  -1.745 -18.918  1.00  0.00     0.290 C 
HETATM   13  O2  UNL     1      -7.489  -0.495 -19.104  1.00  0.00    -0.262 OA
BRANCH  12  14
HETATM   14  O1  UNL     1      -6.711  -2.430 -18.261  1.00  0.00    -0.324 OA
HETATM   15  C1  UNL     1      -5.810  -1.721 -17.385  1.00  0.00     0.213 C 
ENDBRANCH  12  14
ENDBRANCH   8  12
BRANCH   9  16
HETATM   16  O6  UNL     1      -9.354  -2.236 -17.096  1.00  0.00    -0.390 OA
ATOM     17  H6  UNL     1      -8.479  -1.937 -17.320  1.00  0.00     0.210 HD
ENDBRANCH   9  16
ENDBRANCH   1   3
BRANCH   1  18
HETATM   18  C8  UNL     1     -10.509  -5.201 -15.882  1.00  0.00     0.154 C 
BRANCH  18  19
HETATM   19  O5  UNL     1     -10.875  -6.449 -16.010  1.00  0.00    -0.345 OA
ATOM     20  H5  UNL     1     -10.862  -6.809 -16.889  1.00  0.00     0.219 HD
ENDBRANCH  18  19
BRANCH  18  21
HETATM   21  C9  UNL     1     -10.911  -4.637 -14.594  1.00  0.00     0.063 A 
HETATM   22  S1  UNL     1     -12.548  -4.567 -13.965  1.00  0.00    -0.084 SA
HETATM   23  C10 UNL     1     -12.296  -3.615 -12.571  1.00  0.00     0.030 A 
HETATM   24  C11 UNL     1     -13.339  -3.115 -11.707  1.00  0.00    -0.061 C 
HETATM   25  C16 UNL     1     -10.957  -3.382 -12.641  1.00  0.00     0.058 A 
HETATM   26  C12 UNL     1     -13.728  -3.959 -10.523  1.00  0.00     0.036 C 
HETATM   27  C15 UNL     1     -13.450  -1.713 -11.317  1.00  0.00     0.036 C 
HETATM   28  C13 UNL     1     -14.772  -3.140  -9.840  1.00  0.00     0.005 C 
HETATM   29  C14 UNL     1     -14.312  -1.713 -10.037  1.00  0.00     0.005 C 
HETATM   30 CL1  UNL     1     -10.227  -2.395 -11.325  1.00  0.00    -0.082 Cl
HETATM   31  C17 UNL     1     -10.252  -3.896 -13.651  1.00  0.00    -0.018 A 
HETATM   32  C18 UNL     1      -8.740  -3.735 -13.766  1.00  0.00     0.052 C 
ENDBRANCH  18  21
ENDBRANCH   1  18
TORSDOF 8
ENDMDL
MODEL 5
REMARK VINA RESULT: -6.916667624      1.623      2.001
REMARK  8 active torsions:
REMARK  status: ('A' for Active; 'I' for Inactive)
REMARK    1  A    between atoms: O1_2  and  C2_3 
REMARK    2  A    between atoms: C2_3  and  C3_5 
REMARK    3  A    between atoms: C5_8  and  O4_10 
REMARK    4  A    between atoms: C7_12  and  N1_13 
REMARK    5  A    between atoms: N1_13  and  C8_15 
REMARK    6  A    between atoms: C8_15  and  O5_16 
REMARK    7  A    between atoms: C8_15  and  C9_18 
REMARK    8  A    between atoms: C19_30  and  O6_31 
ROOT
HETATM    1  N1  UNL     1     -10.517  -3.277 -15.574  1.00  0.00    -0.360 N 
ATOM      2  H1  UNL     1     -11.353  -2.692 -15.562  1.00  0.00     0.162 HD
ENDROOT
BRANCH   1   3
HETATM    3  C7  UNL     1     -10.579  -4.565 -14.857  1.00  0.00     0.151 C 
HETATM    4  C5  UNL     1     -11.740  -5.331 -15.443  1.00  0.00     0.098 C 
HETATM    5  C4  UNL     1     -12.977  -4.637 -14.844  1.00  0.00     0.208 C 
HETATM    6  C6  UNL     1     -11.714  -6.751 -14.882  1.00  0.00     0.050 C 
HETATM    7  O3  UNL     1     -13.032  -5.102 -13.561  1.00  0.00    -0.370 OA
HETATM    8  C3  UNL     1     -12.017  -4.590 -12.748  1.00  0.00     0.251 C 
HETATM    9  C19 UNL     1     -10.703  -4.344 -13.406  1.00  0.00     0.182 C 
BRANCH   4  10
HETATM   10  O4  UNL     1     -11.769  -5.326 -16.801  1.00  0.00    -0.386 OA
ATOM     11  H4  UNL     1     -12.287  -4.604 -17.139  1.00  0.00     0.210 HD
ENDBRANCH   4  10
BRANCH   8  12
HETATM   12  C2  UNL     1     -12.559  -3.404 -12.031  1.00  0.00     0.290 C 
HETATM   13  O2  UNL     1     -13.506  -2.710 -12.552  1.00  0.00    -0.262 OA
BRANCH  12  14
HETATM   14  O1  UNL     1     -12.123  -2.953 -10.795  1.00  0.00    -0.324 OA
HETATM   15  C1  UNL     1     -11.814  -1.557 -10.604  1.00  0.00     0.213 C 
ENDBRANCH  12  14
ENDBRANCH   8  12
BRANCH   9  16
HETATM   16  O6  UNL     1     -10.356  -3.008 -13.135  1.00  0.00    -0.390 OA
ATOM     17  H6  UNL     1     -11.010  -2.671 -12.533  1.00  0.00     0.210 HD
ENDBRANCH   9  16
ENDBRANCH   1   3
BRANCH   1  18
HETATM   18  C8  UNL     1      -9.419  -2.803 -16.259  1.00  0.00     0.154 C 
BRANCH  18  19
HETATM   19  O5  UNL     1      -9.519  -1.606 -16.773  1.00  0.00    -0.345 OA
ATOM     20  H5  UNL     1      -9.622  -1.553 -17.716  1.00  0.00     0.219 HD
ENDBRANCH  18  19
BRANCH  18  21
HETATM   21  C9  UNL     1      -8.114  -3.410 -16.522  1.00  0.00     0.063 A 
HETATM   22  S1  UNL     1      -6.852  -3.696 -15.337  1.00  0.00    -0.084 SA
HETATM   23  C10 UNL     1      -5.586  -4.205 -16.360  1.00  0.00     0.030 A 
HETATM   24  C11 UNL     1      -4.228  -4.462 -15.938  1.00  0.00    -0.061 C 
HETATM   25  C16 UNL     1      -6.180  -4.135 -17.582  1.00  0.00     0.058 A 
HETATM   26  C12 UNL     1      -3.879  -5.869 -15.535  1.00  0.00     0.036 C 
HETATM   27  C15 UNL     1      -3.063  -3.878 -16.595  1.00  0.00     0.036 C 
HETATM   28  C13 UNL     1      -2.424  -5.787 -15.211  1.00  0.00     0.005 C 
HETATM   29  C14 UNL     1      -1.878  -4.787 -16.206  1.00  0.00     0.005 C 
HETATM   30 CL1  UNL     1      -5.186  -4.609 -19.006  1.00  0.00    -0.082 Cl
HETATM   31  C17 UNL     1      -7.452  -3.741 -17.673  1.00  0.00    -0.018 A 
HETATM   32  C18 UNL     1      -8.208  -3.697 -18.996  1.00  0.00     0.052 C 
ENDBRANCH  18  21
ENDBRANCH   1  18
TORSDOF 8
ENDMDL
