MODEL 1
REMARK VINA RESULT: -6.630531086      0.000      0.000
REMARK  6 active torsions:
REMARK  status: ('A' for Active; 'I' for Inactive)
REMARK    1  A    between atoms: O1_2  and  C2_3 
REMARK    2  A    between atoms: C7_8  and  N1_9 
REMARK       I    between atoms: N1_9  and  C8_11 
REMARK    3  A    between atoms: N3_13  and  C9_15 
REMARK    4  A    between atoms: C9_15  and  C10_16 
REMARK    5  A    between atoms: C10_16  and  C11_17 
REMARK    6  A    between atoms: C11_17  and  N4_19 
ROOT
HETATM    1  N1  UNL     1      38.577 -14.418   1.817  1.00  0.00    -0.328 N 
ATOM      2  H1  UNL     1      38.263 -14.541   2.780  1.00  0.00     0.168 HD
HETATM    3  C8  UNL     1      38.362 -13.138   1.148  1.00  0.00     0.192 C 
HETATM    4  N2  UNL     1      37.230 -13.134   0.292  1.00  0.00    -0.063 NA
HETATM    5  N3  UNL     1      39.165 -12.201   1.383  1.00  0.00    -0.344 N 
ATOM      6  H3  UNL     1      39.901 -12.461   2.040  1.00  0.00     0.167 HD
ENDROOT
BRANCH   1   7
HETATM    7  C7  UNL     1      39.209 -15.482   1.155  1.00  0.00     0.068 A 
HETATM    8  C2  UNL     1      38.451 -16.580   0.786  1.00  0.00     0.095 A 
HETATM    9  C3  UNL     1      39.096 -17.596   0.144  1.00  0.00     0.039 A 
HETATM   10  C4  UNL     1      40.437 -17.608  -0.162  1.00  0.00     0.003 A 
HETATM   11  C5  UNL     1      41.177 -16.503   0.214  1.00  0.00     0.002 A 
HETATM   12  C6  UNL     1      40.579 -15.446   0.865  1.00  0.00     0.032 A 
BRANCH   8  13
HETATM   13  O1  UNL     1      37.097 -16.667   1.046  1.00  0.00    -0.354 OA
HETATM   14  C1  UNL     1      36.196 -16.581  -0.039  1.00  0.00     0.210 C 
ENDBRANCH   8  13
ENDBRANCH   1   7
BRANCH   5  15
HETATM   15  C9  UNL     1      39.269 -10.872   0.936  1.00  0.00     0.065 C 
BRANCH  15  16
HETATM   16  C10 UNL     1      39.431  -9.899   2.054  1.00  0.00     0.077 C 
BRANCH  16  17
HETATM   17  C11 UNL     1      40.338  -8.735   1.668  1.00  0.00     0.184 C 
HETATM   18  C12 UNL     1      41.771  -9.162   1.561  1.00  0.00     0.040 C 
BRANCH  17  19
HETATM   19  N4  UNL     1      39.907  -8.306   0.350  1.00  0.00    -0.075 N 
ATOM     20  H43 UNL     1      39.405  -9.029  -0.168  1.00  0.00     0.274 HD
ATOM     21  H42 UNL     1      39.152  -7.622   0.373  1.00  0.00     0.274 HD
ATOM     22  H41 UNL     1      40.743  -7.972  -0.128  1.00  0.00     0.274 HD
ENDBRANCH  17  19
ENDBRANCH  16  17
ENDBRANCH  15  16
ENDBRANCH   5  15
TORSDOF 6
ENDMDL
MODEL 2
REMARK VINA RESULT: -6.610968836      1.291      1.458
REMARK  6 active torsions:
REMARK  status: ('A' for Active; 'I' for Inactive)
REMARK    1  A    between atoms: O1_2  and  C2_3 
REMARK    2  A    between atoms: C7_8  and  N1_9 
REMARK       I    between atoms: N1_9  and  C8_11 
REMARK    3  A    between atoms: N3_13  and  C9_15 
REMARK    4  A    between atoms: C9_15  and  C10_16 
REMARK    5  A    between atoms: C10_16  and  C11_17 
REMARK    6  A    between atoms: C11_17  and  N4_19 
ROOT
HETATM    1  N1  UNL     1      38.611 -13.994   1.686  1.00  0.00    -0.328 N 
ATOM      2  H1  UNL     1      38.288 -14.392   2.568  1.00  0.00     0.168 HD
HETATM    3  C8  UNL     1      38.218 -12.635   1.324  1.00  0.00     0.192 C 
HETATM    4  N2  UNL     1      37.129 -12.587   0.414  1.00  0.00    -0.063 NA
HETATM    5  N3  UNL     1      38.853 -11.676   1.829  1.00  0.00    -0.344 N 
ATOM      6  H3  UNL     1      39.599 -11.978   2.457  1.00  0.00     0.167 HD
ENDROOT
BRANCH   1   7
HETATM    7  C7  UNL     1      39.427 -14.760   0.839  1.00  0.00     0.068 A 
HETATM    8  C2  UNL     1      39.494 -16.128   1.040  1.00  0.00     0.095 A 
HETATM    9  C3  UNL     1      40.295 -16.843   0.199  1.00  0.00     0.039 A 
HETATM   10  C4  UNL     1      41.037 -16.306  -0.828  1.00  0.00     0.003 A 
HETATM   11  C5  UNL     1      40.956 -14.939  -1.012  1.00  0.00     0.002 A 
HETATM   12  C6  UNL     1      40.162 -14.165  -0.194  1.00  0.00     0.032 A 
BRANCH   8  13
HETATM   13  O1  UNL     1      38.789 -16.766   2.043  1.00  0.00    -0.354 OA
HETATM   14  C1  UNL     1      38.215 -18.026   1.765  1.00  0.00     0.210 C 
ENDBRANCH   8  13
ENDBRANCH   1   7
BRANCH   5  15
HETATM   15  C9  UNL     1      38.760 -10.278   1.716  1.00  0.00     0.065 C 
BRANCH  15  16
HETATM   16  C10 UNL     1      40.067  -9.637   1.396  1.00  0.00     0.077 C 
BRANCH  16  17
HETATM   17  C11 UNL     1      39.944  -8.121   1.279  1.00  0.00     0.184 C 
HETATM   18  C12 UNL     1      40.819  -7.417   2.273  1.00  0.00     0.040 C 
BRANCH  17  19
HETATM   19  N4  UNL     1      40.421  -7.777  -0.048  1.00  0.00    -0.075 N 
ATOM     20  H43 UNL     1      39.889  -7.024  -0.487  1.00  0.00     0.274 HD
ATOM     21  H42 UNL     1      41.325  -7.305  -0.044  1.00  0.00     0.274 HD
ATOM     22  H41 UNL     1      40.417  -8.643  -0.585  1.00  0.00     0.274 HD
ENDBRANCH  17  19
ENDBRANCH  16  17
ENDBRANCH  15  16
ENDBRANCH   5  15
TORSDOF 6
ENDMDL
MODEL 3
REMARK VINA RESULT: -6.545558622      1.695      2.148
REMARK  6 active torsions:
REMARK  status: ('A' for Active; 'I' for Inactive)
REMARK    1  A    between atoms: O1_2  and  C2_3 
REMARK    2  A    between atoms: C7_8  and  N1_9 
REMARK       I    between atoms: N1_9  and  C8_11 
REMARK    3  A    between atoms: N3_13  and  C9_15 
REMARK    4  A    between atoms: C9_15  and  C10_16 
REMARK    5  A    between atoms: C10_16  and  C11_17 
REMARK    6  A    between atoms: C11_17  and  N4_19 
ROOT
HETATM    1  N1  UNL     1      38.898 -16.078   1.627  1.00  0.00    -0.328 N 
ATOM      2  H1  UNL     1      38.839 -16.410   2.590  1.00  0.00     0.168 HD
HETATM    3  C8  UNL     1      38.073 -14.950   1.205  1.00  0.00     0.192 C 
HETATM    4  N2  UNL     1      36.898 -15.340   0.511  1.00  0.00    -0.063 NA
HETATM    5  N3  UNL     1      38.465 -13.789   1.482  1.00  0.00    -0.344 N 
ATOM      6  H3  UNL     1      39.350 -13.777   1.991  1.00  0.00     0.167 HD
ENDROOT
BRANCH   1   7
HETATM    7  C7  UNL     1      39.770 -16.713   0.729  1.00  0.00     0.068 A 
HETATM    8  C2  UNL     1      39.377 -17.911   0.155  1.00  0.00     0.095 A 
HETATM    9  C3  UNL     1      40.247 -18.500  -0.713  1.00  0.00     0.039 A 
HETATM   10  C4  UNL     1      41.479 -17.995  -1.059  1.00  0.00     0.003 A 
HETATM   11  C5  UNL     1      41.852 -16.798  -0.476  1.00  0.00     0.002 A 
HETATM   12  C6  UNL     1      41.014 -16.156   0.409  1.00  0.00     0.032 A 
BRANCH   8  13
HETATM   13  O1  UNL     1      38.161 -18.503   0.436  1.00  0.00    -0.354 OA
HETATM   14  C1  UNL     1      38.149 -19.668   1.235  1.00  0.00     0.210 C 
ENDBRANCH   8  13
ENDBRANCH   1   7
BRANCH   5  15
HETATM   15  C9  UNL     1      37.949 -12.503   1.244  1.00  0.00     0.065 C 
BRANCH  15  16
HETATM   16  C10 UNL     1      39.000 -11.447   1.265  1.00  0.00     0.077 C 
BRANCH  16  17
HETATM   17  C11 UNL     1      38.427 -10.080   1.627  1.00  0.00     0.184 C 
HETATM   18  C12 UNL     1      39.150  -8.972   0.921  1.00  0.00     0.040 C 
BRANCH  17  19
HETATM   19  N4  UNL     1      37.054 -10.080   1.155  1.00  0.00    -0.075 N 
ATOM     20  H43 UNL     1      36.974 -10.047   0.138  1.00  0.00     0.274 HD
ATOM     21  H42 UNL     1      36.579 -10.972   1.289  1.00  0.00     0.274 HD
ATOM     22  H41 UNL     1      36.592  -9.300   1.623  1.00  0.00     0.274 HD
ENDBRANCH  17  19
ENDBRANCH  16  17
ENDBRANCH  15  16
ENDBRANCH   5  15
TORSDOF 6
ENDMDL
MODEL 4
REMARK VINA RESULT: -6.423988198      1.609      1.885
REMARK  6 active torsions:
REMARK  status: ('A' for Active; 'I' for Inactive)
REMARK    1  A    between atoms: O1_2  and  C2_3 
REMARK    2  A    between atoms: C7_8  and  N1_9 
REMARK       I    between atoms: N1_9  and  C8_11 
REMARK    3  A    between atoms: N3_13  and  C9_15 
REMARK    4  A    between atoms: C9_15  and  C10_16 
REMARK    5  A    between atoms: C10_16  and  C11_17 
REMARK    6  A    between atoms: C11_17  and  N4_19 
ROOT
HETATM    1  N1  UNL     1      38.772 -13.279   1.620  1.00  0.00    -0.328 N 
ATOM      2  H1  UNL     1      38.805 -13.611   2.583  1.00  0.00     0.168 HD
HETATM    3  C8  UNL     1      38.250 -11.945   1.336  1.00  0.00     0.192 C 
HETATM    4  N2  UNL     1      36.902 -11.951   0.893  1.00  0.00    -0.063 NA
HETATM    5  N3  UNL     1      39.011 -10.960   1.503  1.00  0.00    -0.344 N 
ATOM      6  H3  UNL     1      39.941 -11.224   1.830  1.00  0.00     0.167 HD
ENDROOT
BRANCH   1   7
HETATM    7  C7  UNL     1      39.229 -14.111   0.585  1.00  0.00     0.068 A 
HETATM    8  C2  UNL     1      39.234 -15.481   0.787  1.00  0.00     0.095 A 
HETATM    9  C3  UNL     1      39.684 -16.260  -0.237  1.00  0.00     0.039 A 
HETATM   10  C4  UNL     1      40.130 -15.787  -1.449  1.00  0.00     0.003 A 
HETATM   11  C5  UNL     1      40.117 -14.417  -1.631  1.00  0.00     0.002 A 
HETATM   12  C6  UNL     1      39.673 -13.579  -0.631  1.00  0.00     0.032 A 
BRANCH   8  13
HETATM   13  O1  UNL     1      38.806 -16.058   1.968  1.00  0.00    -0.354 OA
HETATM   14  C1  UNL     1      38.406 -17.412   1.948  1.00  0.00     0.210 C 
ENDBRANCH   8  13
ENDBRANCH   1   7
BRANCH   5  15
HETATM   15  C9  UNL     1      38.860  -9.572   1.337  1.00  0.00     0.065 C 
BRANCH  15  16
HETATM   16  C10 UNL     1      40.113  -8.906   0.879  1.00  0.00     0.077 C 
BRANCH  16  17
HETATM   17  C11 UNL     1      41.189  -8.915   1.960  1.00  0.00     0.184 C 
HETATM   18  C12 UNL     1      42.567  -8.904   1.369  1.00  0.00     0.040 C 
BRANCH  17  19
HETATM   19  N4  UNL     1      41.022  -7.682   2.708  1.00  0.00    -0.075 N 
ATOM     20  H43 UNL     1      40.532  -7.809   3.594  1.00  0.00     0.274 HD
ATOM     21  H42 UNL     1      41.893  -7.324   3.098  1.00  0.00     0.274 HD
ATOM     22  H41 UNL     1      40.559  -7.028   2.078  1.00  0.00     0.274 HD
ENDBRANCH  17  19
ENDBRANCH  16  17
ENDBRANCH  15  16
ENDBRANCH   5  15
TORSDOF 6
ENDMDL
MODEL 5
REMARK VINA RESULT: -6.284230208      3.498      7.726
REMARK  6 active torsions:
REMARK  status: ('A' for Active; 'I' for Inactive)
REMARK    1  A    between atoms: O1_2  and  C2_3 
REMARK    2  A    between atoms: C7_8  and  N1_9 
REMARK       I    between atoms: N1_9  and  C8_11 
REMARK    3  A    between atoms: N3_13  and  C9_15 
REMARK    4  A    between atoms: C9_15  and  C10_16 
REMARK    5  A    between atoms: C10_16  and  C11_17 
REMARK    6  A    between atoms: C11_17  and  N4_19 
ROOT
HETATM    1  N1  UNL     1      39.732  -8.565   0.057  1.00  0.00    -0.328 N 
ATOM      2  H1  UNL     1      39.634  -8.264  -0.913  1.00  0.00     0.168 HD
HETATM    3  C8  UNL     1      38.663  -9.340   0.680  1.00  0.00     0.192 C 
HETATM    4  N2  UNL     1      37.801  -8.559   1.493  1.00  0.00    -0.063 NA
HETATM    5  N3  UNL     1      38.609 -10.574   0.447  1.00  0.00    -0.344 N 
ATOM      6  H3  UNL     1      39.351 -10.896  -0.175  1.00  0.00     0.167 HD
ENDROOT
BRANCH   1   7
HETATM    7  C7  UNL     1      40.891  -8.228   0.773  1.00  0.00     0.068 A 
HETATM    8  C2  UNL     1      41.331  -6.915   0.746  1.00  0.00     0.095 A 
HETATM    9  C3  UNL     1      42.460  -6.622   1.452  1.00  0.00     0.039 A 
HETATM   10  C4  UNL     1      43.189  -7.529   2.185  1.00  0.00     0.003 A 
HETATM   11  C5  UNL     1      42.733  -8.834   2.199  1.00  0.00     0.002 A 
HETATM   12  C6  UNL     1      41.598  -9.190   1.504  1.00  0.00     0.032 A 
BRANCH   8  13
HETATM   13  O1  UNL     1      40.671  -5.926   0.041  1.00  0.00    -0.354 OA
HETATM   14  C1  UNL     1      41.400  -4.784  -0.357  1.00  0.00     0.210 C 
ENDBRANCH   8  13
ENDBRANCH   1   7
BRANCH   5  15
HETATM   15  C9  UNL     1      37.748 -11.607   0.858  1.00  0.00     0.065 C 
BRANCH  15  16
HETATM   16  C10 UNL     1      38.464 -12.708   1.563  1.00  0.00     0.077 C 
BRANCH  16  17
HETATM   17  C11 UNL     1      38.356 -14.030   0.809  1.00  0.00     0.184 C 
HETATM   18  C12 UNL     1      39.425 -14.162  -0.233  1.00  0.00     0.040 C 
BRANCH  17  19
HETATM   19  N4  UNL     1      38.570 -15.076   1.793  1.00  0.00    -0.075 N 
ATOM     20  H43 UNL     1      39.106 -14.766   2.604  1.00  0.00     0.274 HD
ATOM     21  H42 UNL     1      37.723 -15.338   2.297  1.00  0.00     0.274 HD
ATOM     22  H41 UNL     1      39.002 -15.852   1.294  1.00  0.00     0.274 HD
ENDBRANCH  17  19
ENDBRANCH  16  17
ENDBRANCH  15  16
ENDBRANCH   5  15
TORSDOF 6
ENDMDL
