MODEL 1
REMARK VINA RESULT: -7.807885188      0.000      0.000
REMARK  8 active torsions:
REMARK  status: ('A' for Active; 'I' for Inactive)
REMARK    1  A    between atoms: C2_2  and  C3_3 
REMARK    2  A    between atoms: C6_6  and  C7_7 
REMARK    3  A    between atoms: N1_8  and  N2_10 
REMARK    4  A    between atoms: N2_10  and  C8_12 
REMARK    5  A    between atoms: C8_12  and  N3_14 
REMARK    6  A    between atoms: N3_14  and  C9_16 
REMARK    7  A    between atoms: C9_16  and  C10_17 
REMARK    8  A    between atoms: C10_17  and  N4_18 
ROOT
HETATM    1  N2  UNL     1      38.070 -12.589   1.730  1.00  0.00    -0.277 N 
ATOM      2  H2  UNL     1      37.223 -12.450   2.281  1.00  0.00     0.189 HD
ENDROOT
BRANCH   1   3
HETATM    3  N1  UNL     1      38.990 -11.558   1.573  1.00  0.00    -0.309 N 
HETATM    4  C7  UNL     1      38.695 -10.316   1.727  1.00  0.00     0.118 C 
ATOM      5  H1  UNL     1      39.949 -11.800   1.323  1.00  0.00     0.186 HD
BRANCH   4   6
HETATM    6  C6  UNL     1      39.736  -9.329   1.538  1.00  0.00    -0.019 A 
HETATM    7  C5  UNL     1      41.056  -9.664   1.705  1.00  0.00     0.013 A 
HETATM    8  C4  UNL     1      42.077  -8.754   1.535  1.00  0.00     0.012 A 
HETATM    9  C3  UNL     1      41.715  -7.451   1.179  1.00  0.00    -0.037 A 
HETATM   10  C12 UNL     1      40.416  -7.096   1.007  1.00  0.00     0.012 A 
HETATM   11  C11 UNL     1      39.411  -8.046   1.190  1.00  0.00     0.013 A 
BRANCH   9  12
HETATM   12  C2  UNL     1      42.795  -6.499   1.002  1.00  0.00     0.001 C 
HETATM   13  C1  UNL     1      43.386  -6.266  -0.150  1.00  0.00     0.012 C 
ENDBRANCH   9  12
ENDBRANCH   4   6
ENDBRANCH   1   3
BRANCH   1  14
HETATM   14  C8  UNL     1      38.328 -13.825   1.115  1.00  0.00     0.186 C 
HETATM   15  S1  UNL     1      39.016 -13.870  -0.346  1.00  0.00    -0.040 SA
BRANCH  14  16
HETATM   16  N3  UNL     1      37.990 -15.020   1.790  1.00  0.00    -0.364 N 
ATOM     17  H3  UNL     1      37.087 -15.085   2.259  1.00  0.00     0.162 HD
BRANCH  16  18
HETATM   18  C9  UNL     1      38.877 -16.143   1.835  1.00  0.00     0.149 C 
BRANCH  18  19
HETATM   19  C10 UNL     1      38.262 -17.437   1.436  1.00  0.00     0.249 C 
BRANCH  19  20
HETATM   20  N4  UNL     1      36.814 -17.194   1.320  1.00  0.00    -0.078 N 
ATOM     21  H43 UNL     1      36.587 -16.271   0.949  1.00  0.00     0.274 HD
ATOM     22  H42 UNL     1      36.370 -17.740   0.582  1.00  0.00     0.274 HD
ATOM     23  H41 UNL     1      36.417 -17.366   2.244  1.00  0.00     0.274 HD
ENDBRANCH  19  20
ENDBRANCH  18  19
ENDBRANCH  16  18
ENDBRANCH  14  16
ENDBRANCH   1  14
TORSDOF 8
ENDMDL
MODEL 2
REMARK VINA RESULT: -7.784230170      0.089      1.160
REMARK  8 active torsions:
REMARK  status: ('A' for Active; 'I' for Inactive)
REMARK    1  A    between atoms: C2_2  and  C3_3 
REMARK    2  A    between atoms: C6_6  and  C7_7 
REMARK    3  A    between atoms: N1_8  and  N2_10 
REMARK    4  A    between atoms: N2_10  and  C8_12 
REMARK    5  A    between atoms: C8_12  and  N3_14 
REMARK    6  A    between atoms: N3_14  and  C9_16 
REMARK    7  A    between atoms: C9_16  and  C10_17 
REMARK    8  A    between atoms: C10_17  and  N4_18 
ROOT
HETATM    1  N2  UNL     1      38.005 -12.567   1.705  1.00  0.00    -0.277 N 
ATOM      2  H2  UNL     1      37.150 -12.402   2.237  1.00  0.00     0.189 HD
ENDROOT
BRANCH   1   3
HETATM    3  N1  UNL     1      38.961 -11.566   1.573  1.00  0.00    -0.309 N 
HETATM    4  C7  UNL     1      38.694 -10.313   1.687  1.00  0.00     0.118 C 
ATOM      5  H1  UNL     1      39.923 -11.840   1.374  1.00  0.00     0.186 HD
BRANCH   4   6
HETATM    6  C6  UNL     1      39.771  -9.360   1.528  1.00  0.00    -0.019 A 
HETATM    7  C5  UNL     1      39.510  -8.063   1.164  1.00  0.00     0.013 A 
HETATM    8  C4  UNL     1      40.507  -7.126   1.003  1.00  0.00     0.012 A 
HETATM    9  C3  UNL     1      41.821  -7.549   1.229  1.00  0.00    -0.037 A 
HETATM   10  C12 UNL     1      42.104  -8.826   1.591  1.00  0.00     0.012 A 
HETATM   11  C11 UNL     1      41.066  -9.746   1.743  1.00  0.00     0.013 A 
BRANCH   9  12
HETATM   12  C2  UNL     1      42.865  -6.557   1.056  1.00  0.00     0.001 C 
HETATM   13  C1  UNL     1      43.350  -6.197  -0.114  1.00  0.00     0.012 C 
ENDBRANCH   9  12
ENDBRANCH   4   6
ENDBRANCH   1   3
BRANCH   1  14
HETATM   14  C8  UNL     1      38.238 -13.810   1.094  1.00  0.00     0.186 C 
HETATM   15  S1  UNL     1      38.859 -13.871  -0.396  1.00  0.00    -0.040 SA
BRANCH  14  16
HETATM   16  N3  UNL     1      37.935 -14.998   1.798  1.00  0.00    -0.364 N 
ATOM     17  H3  UNL     1      37.042 -15.070   2.285  1.00  0.00     0.162 HD
BRANCH  16  18
HETATM   18  C9  UNL     1      38.844 -16.103   1.848  1.00  0.00     0.149 C 
BRANCH  18  19
HETATM   19  C10 UNL     1      38.257 -17.408   1.445  1.00  0.00     0.249 C 
BRANCH  19  20
HETATM   20  N4  UNL     1      36.810 -17.187   1.290  1.00  0.00    -0.078 N 
ATOM     21  H43 UNL     1      36.485 -16.321   1.721  1.00  0.00     0.274 HD
ATOM     22  H42 UNL     1      36.535 -16.963   0.333  1.00  0.00     0.274 HD
ATOM     23  H41 UNL     1      36.348 -18.019   1.658  1.00  0.00     0.274 HD
ENDBRANCH  19  20
ENDBRANCH  18  19
ENDBRANCH  16  18
ENDBRANCH  14  16
ENDBRANCH   1  14
TORSDOF 8
ENDMDL
MODEL 3
REMARK VINA RESULT: -7.625235259      1.315      1.441
REMARK  8 active torsions:
REMARK  status: ('A' for Active; 'I' for Inactive)
REMARK    1  A    between atoms: C2_2  and  C3_3 
REMARK    2  A    between atoms: C6_6  and  C7_7 
REMARK    3  A    between atoms: N1_8  and  N2_10 
REMARK    4  A    between atoms: N2_10  and  C8_12 
REMARK    5  A    between atoms: C8_12  and  N3_14 
REMARK    6  A    between atoms: N3_14  and  C9_16 
REMARK    7  A    between atoms: C9_16  and  C10_17 
REMARK    8  A    between atoms: C10_17  and  N4_18 
ROOT
HETATM    1  N2  UNL     1      37.993 -12.706   1.740  1.00  0.00    -0.277 N 
ATOM      2  H2  UNL     1      37.098 -12.522   2.193  1.00  0.00     0.189 HD
ENDROOT
BRANCH   1   3
HETATM    3  N1  UNL     1      38.931 -11.691   1.586  1.00  0.00    -0.309 N 
HETATM    4  C7  UNL     1      38.643 -10.441   1.679  1.00  0.00     0.118 C 
ATOM      5  H1  UNL     1      39.898 -11.951   1.388  1.00  0.00     0.186 HD
BRANCH   4   6
HETATM    6  C6  UNL     1      39.702  -9.472   1.500  1.00  0.00    -0.019 A 
HETATM    7  C5  UNL     1      41.009  -9.811   1.743  1.00  0.00     0.013 A 
HETATM    8  C4  UNL     1      42.047  -8.918   1.583  1.00  0.00     0.012 A 
HETATM    9  C3  UNL     1      41.716  -7.627   1.157  1.00  0.00    -0.037 A 
HETATM   10  C12 UNL     1      40.430  -7.268   0.910  1.00  0.00     0.012 A 
HETATM   11  C11 UNL     1      39.408  -8.202   1.084  1.00  0.00     0.013 A 
BRANCH   9  12
HETATM   12  C2  UNL     1      42.812  -6.692   0.993  1.00  0.00     0.001 C 
HETATM   13  C1  UNL     1      43.318  -6.353  -0.173  1.00  0.00     0.012 C 
ENDBRANCH   9  12
ENDBRANCH   4   6
ENDBRANCH   1   3
BRANCH   1  14
HETATM   14  C8  UNL     1      38.302 -13.989   1.261  1.00  0.00     0.186 C 
HETATM   15  S1  UNL     1      37.523 -14.578  -0.027  1.00  0.00    -0.040 SA
BRANCH  14  16
HETATM   16  N3  UNL     1      39.302 -14.751   1.907  1.00  0.00    -0.364 N 
ATOM     17  H3  UNL     1      39.741 -14.378   2.749  1.00  0.00     0.162 HD
BRANCH  16  18
HETATM   18  C9  UNL     1      39.719 -16.029   1.416  1.00  0.00     0.149 C 
BRANCH  18  19
HETATM   19  C10 UNL     1      40.957 -16.006   0.594  1.00  0.00     0.249 C 
BRANCH  19  20
HETATM   20  N4  UNL     1      40.931 -17.222  -0.236  1.00  0.00    -0.078 N 
ATOM     21  H43 UNL     1      40.478 -18.014   0.221  1.00  0.00     0.274 HD
ATOM     22  H42 UNL     1      40.296 -17.155  -1.032  1.00  0.00     0.274 HD
ATOM     23  H41 UNL     1      41.897 -17.410  -0.505  1.00  0.00     0.274 HD
ENDBRANCH  19  20
ENDBRANCH  18  19
ENDBRANCH  16  18
ENDBRANCH  14  16
ENDBRANCH   1  14
TORSDOF 8
ENDMDL
MODEL 4
REMARK VINA RESULT: -7.572172432      1.307      1.839
REMARK  8 active torsions:
REMARK  status: ('A' for Active; 'I' for Inactive)
REMARK    1  A    between atoms: C2_2  and  C3_3 
REMARK    2  A    between atoms: C6_6  and  C7_7 
REMARK    3  A    between atoms: N1_8  and  N2_10 
REMARK    4  A    between atoms: N2_10  and  C8_12 
REMARK    5  A    between atoms: C8_12  and  N3_14 
REMARK    6  A    between atoms: N3_14  and  C9_16 
REMARK    7  A    between atoms: C9_16  and  C10_17 
REMARK    8  A    between atoms: C10_17  and  N4_18 
ROOT
HETATM    1  N2  UNL     1      37.998 -12.696   1.692  1.00  0.00    -0.277 N 
ATOM      2  H2  UNL     1      37.090 -12.506   2.117  1.00  0.00     0.189 HD
ENDROOT
BRANCH   1   3
HETATM    3  N1  UNL     1      38.942 -11.685   1.554  1.00  0.00    -0.309 N 
HETATM    4  C7  UNL     1      38.659 -10.434   1.656  1.00  0.00     0.118 C 
ATOM      5  H1  UNL     1      39.908 -11.949   1.361  1.00  0.00     0.186 HD
BRANCH   4   6
HETATM    6  C6  UNL     1      39.725  -9.470   1.493  1.00  0.00    -0.019 A 
HETATM    7  C5  UNL     1      39.452  -8.186   1.093  1.00  0.00     0.013 A 
HETATM    8  C4  UNL     1      40.438  -7.238   0.927  1.00  0.00     0.012 A 
HETATM    9  C3  UNL     1      41.754  -7.636   1.184  1.00  0.00    -0.037 A 
HETATM   10  C12 UNL     1      42.049  -8.900   1.580  1.00  0.00     0.012 A 
HETATM   11  C11 UNL     1      41.022  -9.832   1.737  1.00  0.00     0.013 A 
BRANCH   9  12
HETATM   12  C2  UNL     1      42.786  -6.634   1.005  1.00  0.00     0.001 C 
HETATM   13  C1  UNL     1      43.324  -6.333  -0.159  1.00  0.00     0.012 C 
ENDBRANCH   9  12
ENDBRANCH   4   6
ENDBRANCH   1   3
BRANCH   1  14
HETATM   14  C8  UNL     1      38.316 -13.986   1.235  1.00  0.00     0.186 C 
HETATM   15  S1  UNL     1      37.558 -14.595  -0.055  1.00  0.00    -0.040 SA
BRANCH  14  16
HETATM   16  N3  UNL     1      39.310 -14.735   1.907  1.00  0.00    -0.364 N 
ATOM     17  H3  UNL     1      39.742 -14.345   2.744  1.00  0.00     0.162 HD
BRANCH  16  18
HETATM   18  C9  UNL     1      39.728 -16.025   1.448  1.00  0.00     0.149 C 
BRANCH  18  19
HETATM   19  C10 UNL     1      40.953 -16.018   0.606  1.00  0.00     0.249 C 
BRANCH  19  20
HETATM   20  N4  UNL     1      40.903 -17.238  -0.216  1.00  0.00    -0.078 N 
ATOM     21  H43 UNL     1      41.803 -17.484  -0.630  1.00  0.00     0.274 HD
ATOM     22  H42 UNL     1      40.779 -18.090   0.332  1.00  0.00     0.274 HD
ATOM     23  H41 UNL     1      40.167 -17.092  -0.907  1.00  0.00     0.274 HD
ENDBRANCH  19  20
ENDBRANCH  18  19
ENDBRANCH  16  18
ENDBRANCH  14  16
ENDBRANCH   1  14
TORSDOF 8
ENDMDL
MODEL 5
REMARK VINA RESULT: -7.466722155      0.969      1.057
REMARK  8 active torsions:
REMARK  status: ('A' for Active; 'I' for Inactive)
REMARK    1  A    between atoms: C2_2  and  C3_3 
REMARK    2  A    between atoms: C6_6  and  C7_7 
REMARK    3  A    between atoms: N1_8  and  N2_10 
REMARK    4  A    between atoms: N2_10  and  C8_12 
REMARK    5  A    between atoms: C8_12  and  N3_14 
REMARK    6  A    between atoms: N3_14  and  C9_16 
REMARK    7  A    between atoms: C9_16  and  C10_17 
REMARK    8  A    between atoms: C10_17  and  N4_18 
ROOT
HETATM    1  N2  UNL     1      37.886 -13.294   1.743  1.00  0.00    -0.277 N 
ATOM      2  H2  UNL     1      36.952 -13.230   2.148  1.00  0.00     0.189 HD
ENDROOT
BRANCH   1   3
HETATM    3  N1  UNL     1      38.690 -12.164   1.634  1.00  0.00    -0.309 N 
HETATM    4  C7  UNL     1      38.229 -10.964   1.648  1.00  0.00     0.118 C 
ATOM      5  H1  UNL     1      39.697 -12.295   1.537  1.00  0.00     0.186 HD
BRANCH   4   6
HETATM    6  C6  UNL     1      39.162  -9.864   1.527  1.00  0.00    -0.019 A 
HETATM    7  C5  UNL     1      40.509 -10.068   1.688  1.00  0.00     0.013 A 
HETATM    8  C4  UNL     1      41.429  -9.047   1.580  1.00  0.00     0.012 A 
HETATM    9  C3  UNL     1      40.933  -7.771   1.296  1.00  0.00    -0.037 A 
HETATM   10  C12 UNL     1      39.605  -7.545   1.132  1.00  0.00     0.012 A 
HETATM   11  C11 UNL     1      38.705  -8.604   1.250  1.00  0.00     0.013 A 
BRANCH   9  12
HETATM   12  C2  UNL     1      41.907  -6.702   1.186  1.00  0.00     0.001 C 
HETATM   13  C1  UNL     1      43.159  -6.807   1.579  1.00  0.00     0.012 C 
ENDBRANCH   9  12
ENDBRANCH   4   6
ENDBRANCH   1   3
BRANCH   1  14
HETATM   14  C8  UNL     1      38.384 -14.525   1.286  1.00  0.00     0.186 C 
HETATM   15  S1  UNL     1      39.282 -14.583  -0.056  1.00  0.00    -0.040 SA
BRANCH  14  16
HETATM   16  N3  UNL     1      38.101 -15.703   2.015  1.00  0.00    -0.364 N 
ATOM     17  H3  UNL     1      37.407 -15.668   2.761  1.00  0.00     0.162 HD
BRANCH  16  18
HETATM   18  C9  UNL     1      38.760 -16.944   1.738  1.00  0.00     0.149 C 
BRANCH  18  19
HETATM   19  C10 UNL     1      37.850 -18.109   1.586  1.00  0.00     0.249 C 
BRANCH  19  20
HETATM   20  N4  UNL     1      37.850 -18.812   2.880  1.00  0.00    -0.078 N 
ATOM     21  H43 UNL     1      38.513 -19.586   2.920  1.00  0.00     0.274 HD
ATOM     22  H42 UNL     1      38.253 -18.261   3.639  1.00  0.00     0.274 HD
ATOM     23  H41 UNL     1      36.886 -19.096   3.056  1.00  0.00     0.274 HD
ENDBRANCH  19  20
ENDBRANCH  18  19
ENDBRANCH  16  18
ENDBRANCH  14  16
ENDBRANCH   1  14
TORSDOF 8
ENDMDL
