MODEL 1
REMARK VINA RESULT: -3.880736531      0.000      0.000
REMARK  3 active torsions:
REMARK  status: ('A' for Active; 'I' for Inactive)
REMARK    1  A    between atoms: C2_2  and  C3_3 
REMARK    2  A    between atoms: N1_5  and  N2_7 
REMARK    3  A    between atoms: C4_8  and  C5_9 
ROOT
HETATM    1  N2  UNL     1      11.559 -40.939   9.547  1.00  0.00    -0.210 N 
HETATM    2  C4  UNL     1      12.740 -41.454   9.186  1.00  0.00     0.164 A 
HETATM    3  N3  UNL     1      12.785 -41.336   7.840  1.00  0.00    -0.281 N 
ATOM      4  H3  UNL     1      13.566 -41.640   7.260  1.00  0.00     0.188 HD
HETATM    5  N4  UNL     1      11.683 -40.773   7.375  1.00  0.00    -0.273 N 
ATOM      6  H4  UNL     1      11.464 -40.570   6.400  1.00  0.00     0.189 HD
HETATM    7  C7  UNL     1      10.909 -40.522   8.446  1.00  0.00     0.214 A 
HETATM    8  S3  UNL     1       9.437 -39.821   8.327  1.00  0.00    -0.037 SA
ENDROOT
BRANCH   1   9
HETATM    9  N1  UNL     1      11.101 -40.858  10.846  1.00  0.00    -0.298 N 
HETATM   10  C2  UNL     1      10.343 -41.705  11.429  1.00  0.00     0.014 C 
HETATM   11  C1  UNL     1       9.937 -41.482  12.827  1.00  0.00     0.066 C 
ATOM     12  H1  UNL     1      11.395 -40.048  11.391  1.00  0.00     0.187 HD
BRANCH  10  13
HETATM   13  C3  UNL     1       9.893 -42.891  10.681  1.00  0.00     0.168 C 
HETATM   14 CL1  UNL     1       8.295 -42.517   9.945  1.00  0.00    -0.124 Cl
ENDBRANCH  10  13
ENDBRANCH   1   9
BRANCH   2  15
HETATM   15  C5  UNL     1      13.785 -42.031  10.051  1.00  0.00     0.088 A 
HETATM   16  S1  UNL     1      13.784 -43.423  11.042  1.00  0.00    -0.045 SA
HETATM   17  S2  UNL     1      15.669 -42.893  11.480  1.00  0.00    -0.038 SA
HETATM   18  C6  UNL     1      15.082 -41.701  10.376  1.00  0.00     0.102 A 
HETATM   19 CL2  UNL     1      16.081 -40.335   9.834  1.00  0.00    -0.074 Cl
ENDBRANCH   2  15
TORSDOF 3
ENDMDL
MODEL 2
REMARK VINA RESULT: -3.491624469      3.212      6.231
REMARK  3 active torsions:
REMARK  status: ('A' for Active; 'I' for Inactive)
REMARK    1  A    between atoms: C2_2  and  C3_3 
REMARK    2  A    between atoms: N1_5  and  N2_7 
REMARK    3  A    between atoms: C4_8  and  C5_9 
ROOT
HETATM    1  N2  UNL     1      15.577 -42.606  10.474  1.00  0.00    -0.210 N 
HETATM    2  C4  UNL     1      14.291 -42.883  10.720  1.00  0.00     0.164 A 
HETATM    3  N3  UNL     1      14.306 -43.989  11.497  1.00  0.00    -0.281 N 
ATOM      4  H3  UNL     1      13.473 -44.452  11.857  1.00  0.00     0.188 HD
HETATM    5  N4  UNL     1      15.544 -44.390  11.729  1.00  0.00    -0.273 N 
ATOM      6  H4  UNL     1      15.832 -45.196  12.284  1.00  0.00     0.189 HD
HETATM    7  C7  UNL     1      16.347 -43.523  11.087  1.00  0.00     0.214 A 
HETATM    8  S3  UNL     1      17.976 -43.645  11.109  1.00  0.00    -0.037 SA
ENDROOT
BRANCH   1   9
HETATM    9  N1  UNL     1      16.021 -41.545   9.711  1.00  0.00    -0.298 N 
HETATM   10  C2  UNL     1      16.604 -40.497  10.149  1.00  0.00     0.014 C 
HETATM   11  C1  UNL     1      17.023 -39.445   9.208  1.00  0.00     0.066 C 
ATOM     12  H1  UNL     1      15.868 -41.603   8.705  1.00  0.00     0.187 HD
BRANCH  10  13
HETATM   13  C3  UNL     1      16.845 -40.369  11.597  1.00  0.00     0.168 C 
HETATM   14 CL1  UNL     1      18.527 -39.780  11.835  1.00  0.00    -0.124 Cl
ENDBRANCH  10  13
ENDBRANCH   1   9
BRANCH   2  15
HETATM   15  C5  UNL     1      13.097 -42.154  10.256  1.00  0.00     0.088 A 
HETATM   16  S1  UNL     1      12.543 -41.788   8.681  1.00  0.00    -0.045 SA
HETATM   17  S2  UNL     1      11.016 -40.888   9.622  1.00  0.00    -0.038 SA
HETATM   18  C6  UNL     1      12.033 -41.526  10.865  1.00  0.00     0.102 A 
HETATM   19 CL2  UNL     1      11.657 -41.335  12.590  1.00  0.00    -0.074 Cl
ENDBRANCH   2  15
TORSDOF 3
ENDMDL
MODEL 3
REMARK VINA RESULT: -2.801175332      2.288      3.515
REMARK  3 active torsions:
REMARK  status: ('A' for Active; 'I' for Inactive)
REMARK    1  A    between atoms: C2_2  and  C3_3 
REMARK    2  A    between atoms: N1_5  and  N2_7 
REMARK    3  A    between atoms: C4_8  and  C5_9 
ROOT
HETATM    1  N2  UNL     1      12.169 -41.744  10.600  1.00  0.00    -0.210 N 
HETATM    2  C4  UNL     1      13.281 -41.485  11.298  1.00  0.00     0.164 A 
HETATM    3  N3  UNL     1      12.855 -41.150  12.536  1.00  0.00    -0.281 N 
ATOM      4  H3  UNL     1      13.470 -40.896  13.309  1.00  0.00     0.188 HD
HETATM    5  N4  UNL     1      11.536 -41.195  12.614  1.00  0.00    -0.273 N 
ATOM      6  H4  UNL     1      10.964 -40.989  13.433  1.00  0.00     0.189 HD
HETATM    7  C7  UNL     1      11.101 -41.569  11.398  1.00  0.00     0.214 A 
HETATM    8  S3  UNL     1       9.515 -41.754  11.046  1.00  0.00    -0.037 SA
ENDROOT
BRANCH   1   9
HETATM    9  N1  UNL     1      12.145 -42.129   9.275  1.00  0.00    -0.298 N 
HETATM   10  C2  UNL     1      11.699 -41.435   8.300  1.00  0.00     0.014 C 
HETATM   11  C1  UNL     1      11.742 -41.982   6.933  1.00  0.00     0.066 C 
ATOM     12  H1  UNL     1      12.518 -43.052   9.054  1.00  0.00     0.187 HD
BRANCH  10  13
HETATM   13  C3  UNL     1      11.150 -40.095   8.571  1.00  0.00     0.168 C 
HETATM   14 CL1  UNL     1       9.511 -40.001   7.838  1.00  0.00    -0.124 Cl
ENDBRANCH  10  13
ENDBRANCH   1   9
BRANCH   2  15
HETATM   15  C5  UNL     1      14.680 -41.546  10.839  1.00  0.00     0.088 A 
HETATM   16  S1  UNL     1      15.608 -40.453   9.908  1.00  0.00    -0.045 SA
HETATM   17  S2  UNL     1      17.083 -41.794  10.133  1.00  0.00    -0.038 SA
HETATM   18  C6  UNL     1      15.718 -42.441  10.971  1.00  0.00     0.102 A 
HETATM   19 CL2  UNL     1      15.776 -44.003  11.815  1.00  0.00    -0.074 Cl
ENDBRANCH   2  15
TORSDOF 3
ENDMDL
MODEL 4
REMARK VINA RESULT: -2.220138367      1.435      1.532
REMARK  3 active torsions:
REMARK  status: ('A' for Active; 'I' for Inactive)
REMARK    1  A    between atoms: C2_2  and  C3_3 
REMARK    2  A    between atoms: N1_5  and  N2_7 
REMARK    3  A    between atoms: C4_8  and  C5_9 
ROOT
HETATM    1  N2  UNL     1      11.659 -40.966   9.582  1.00  0.00    -0.210 N 
HETATM    2  C4  UNL     1      12.876 -41.305   9.139  1.00  0.00     0.164 A 
HETATM    3  N3  UNL     1      12.771 -41.326   7.791  1.00  0.00    -0.281 N 
ATOM      4  H3  UNL     1      13.537 -41.551   7.157  1.00  0.00     0.188 HD
HETATM    5  N4  UNL     1      11.546 -41.017   7.404  1.00  0.00    -0.273 N 
ATOM      6  H4  UNL     1      11.202 -40.961   6.445  1.00  0.00     0.189 HD
HETATM    7  C7  UNL     1      10.843 -40.790   8.528  1.00  0.00     0.214 A 
HETATM    8  S3  UNL     1       9.263 -40.372   8.513  1.00  0.00    -0.037 SA
ENDROOT
BRANCH   1   9
HETATM    9  N1  UNL     1      11.319 -40.827  10.912  1.00  0.00    -0.298 N 
HETATM   10  C2  UNL     1      10.703 -41.690  11.625  1.00  0.00     0.014 C 
HETATM   11  C1  UNL     1      10.410 -41.397  13.038  1.00  0.00     0.066 C 
ATOM     12  H1  UNL     1      11.583 -39.954  11.368  1.00  0.00     0.187 HD
BRANCH  10  13
HETATM   13  C3  UNL     1      10.301 -42.966  11.007  1.00  0.00     0.168 C 
HETATM   14 CL1  UNL     1       8.567 -42.845  10.548  1.00  0.00    -0.124 Cl
ENDBRANCH  10  13
ENDBRANCH   1   9
BRANCH   2  15
HETATM   15  C5  UNL     1      14.086 -41.595   9.929  1.00  0.00     0.088 A 
HETATM   16  S1  UNL     1      15.556 -40.738  10.091  1.00  0.00    -0.045 SA
HETATM   17  S2  UNL     1      16.076 -42.226  11.333  1.00  0.00    -0.038 SA
HETATM   18  C6  UNL     1      14.480 -42.596  10.788  1.00  0.00     0.102 A 
HETATM   19 CL2  UNL     1      13.609 -44.051  11.319  1.00  0.00    -0.074 Cl
ENDBRANCH   2  15
TORSDOF 3
ENDMDL
MODEL 5
REMARK VINA RESULT: -2.131351543      1.693      1.823
REMARK  3 active torsions:
REMARK  status: ('A' for Active; 'I' for Inactive)
REMARK    1  A    between atoms: C2_2  and  C3_3 
REMARK    2  A    between atoms: N1_5  and  N2_7 
REMARK    3  A    between atoms: C4_8  and  C5_9 
ROOT
HETATM    1  N2  UNL     1      11.371 -41.658   9.599  1.00  0.00    -0.210 N 
HETATM    2  C4  UNL     1      12.668 -41.721   9.277  1.00  0.00     0.164 A 
HETATM    3  N3  UNL     1      12.758 -41.168   8.047  1.00  0.00    -0.281 N 
ATOM      4  H3  UNL     1      13.626 -41.066   7.522  1.00  0.00     0.188 HD
HETATM    5  N4  UNL     1      11.572 -40.776   7.614  1.00  0.00    -0.273 N 
ATOM      6  H4  UNL     1      11.363 -40.330   6.720  1.00  0.00     0.189 HD
HETATM    7  C7  UNL     1      10.696 -41.083   8.588  1.00  0.00     0.214 A 
HETATM    8  S3  UNL     1       9.097 -40.767   8.469  1.00  0.00    -0.037 SA
ENDROOT
BRANCH   1   9
HETATM    9  N1  UNL     1      10.832 -42.117  10.784  1.00  0.00    -0.298 N 
HETATM   10  C2  UNL     1      10.884 -41.521  11.913  1.00  0.00     0.014 C 
HETATM   11  C1  UNL     1      10.259 -42.137  13.095  1.00  0.00     0.066 C 
ATOM     12  H1  UNL     1      10.348 -43.014  10.756  1.00  0.00     0.187 HD
BRANCH  10  13
HETATM   13  C3  UNL     1      11.574 -40.222  12.001  1.00  0.00     0.168 C 
HETATM   14 CL1  UNL     1      13.095 -40.457  12.930  1.00  0.00    -0.124 Cl
ENDBRANCH  10  13
ENDBRANCH   1   9
BRANCH   2  15
HETATM   15  C5  UNL     1      13.780 -42.269  10.075  1.00  0.00     0.088 A 
HETATM   16  S1  UNL     1      13.896 -43.692  11.015  1.00  0.00    -0.045 SA
HETATM   17  S2  UNL     1      15.768 -43.074  11.390  1.00  0.00    -0.038 SA
HETATM   18  C6  UNL     1      15.070 -41.879  10.356  1.00  0.00     0.102 A 
HETATM   19 CL2  UNL     1      15.971 -40.444   9.822  1.00  0.00    -0.074 Cl
ENDBRANCH   2  15
TORSDOF 3
ENDMDL
