MODEL 1
REMARK VINA RESULT: -4.631918663      0.000      0.000
REMARK  8 active torsions:
REMARK  status: ('A' for Active; 'I' for Inactive)
REMARK    1  A    between atoms: C2_2  and  C3_3 
REMARK    2  A    between atoms: C3_3  and  C4_4 
REMARK    3  A    between atoms: C3_3  and  N1_6 
REMARK    4  A    between atoms: C7_11  and  N3_12 
REMARK    5  A    between atoms: N3_12  and  C8_14 
REMARK    6  A    between atoms: C8_14  and  S1_15 
REMARK    7  A    between atoms: S1_15  and  C9_16 
REMARK    8  A    between atoms: C12_22  and  N5_23 
ROOT
HETATM    1  N1  UNL     1      14.178 -41.515  10.495  1.00  0.00    -0.270 N 
HETATM    2  N2  UNL     1      13.586 -41.792   9.322  1.00  0.00    -0.284 N 
ATOM      3  H2  UNL     1      14.176 -41.866   8.493  1.00  0.00     0.188 HD
HETATM    4  C6  UNL     1      12.270 -41.975   9.176  1.00  0.00     0.147 A 
HETATM    5 CL1  UNL     1      11.665 -42.331   7.550  1.00  0.00    -0.060 Cl
HETATM    6  C7  UNL     1      11.423 -41.887  10.256  1.00  0.00     0.104 A 
HETATM    7  C10 UNL     1      11.991 -41.606  11.475  1.00  0.00     0.120 A 
HETATM    8  C11 UNL     1      11.162 -41.503  12.629  1.00  0.00     0.106 C 
HETATM    9  N4  UNL     1      10.477 -41.409  13.556  1.00  0.00    -0.191 NA
HETATM   10  C12 UNL     1      13.362 -41.426  11.561  1.00  0.00     0.139 A 
ENDROOT
BRANCH   6  11
HETATM   11  N3  UNL     1      10.038 -42.091  10.034  1.00  0.00    -0.312 N 
ATOM     12  H3  UNL     1       9.586 -42.989  10.204  1.00  0.00     0.176 HD
BRANCH  11  13
HETATM   13  C8  UNL     1       9.388 -41.061   9.600  1.00  0.00     0.015 C 
BRANCH  13  14
HETATM   14  S1  UNL     1       8.650 -39.933   8.656  1.00  0.00     0.033 SA
BRANCH  14  15
HETATM   15  C9  UNL     1       9.776 -39.310   7.599  1.00  0.00     0.317 C 
HETATM   16  F1  UNL     1       9.882 -39.905   6.440  1.00  0.00    -0.164 F 
HETATM   17  F2  UNL     1      10.488 -38.304   8.039  1.00  0.00    -0.164 F 
ENDBRANCH  14  15
ENDBRANCH  13  14
ENDBRANCH  11  13
ENDBRANCH   6  11
BRANCH  10  18
HETATM   18  N5  UNL     1      13.855 -41.164  12.726  1.00  0.00    -0.383 N 
ATOM     19  H52 UNL     1      14.056 -41.954  13.339  1.00  0.00     0.157 HD
ATOM     20  H51 UNL     1      14.027 -40.196  12.996  1.00  0.00     0.157 HD
ENDBRANCH  10  18
BRANCH   1  21
HETATM   21  C3  UNL     1      15.612 -41.330  10.576  1.00  0.00     0.109 C 
BRANCH  21  22
HETATM   22  C2  UNL     1      16.402 -42.574  10.304  1.00  0.00     0.023 C 
HETATM   23  C1  UNL     1      16.347 -43.558  11.438  1.00  0.00     0.007 C 
ENDBRANCH  21  22
BRANCH  21  24
HETATM   24  C4  UNL     1      16.130 -40.200   9.732  1.00  0.00     0.023 C 
HETATM   25  C5  UNL     1      17.545 -39.814  10.100  1.00  0.00     0.007 C 
ENDBRANCH  21  24
ENDBRANCH   1  21
TORSDOF 8
ENDMDL
MODEL 2
REMARK VINA RESULT: -4.374869345      0.416      1.455
REMARK  8 active torsions:
REMARK  status: ('A' for Active; 'I' for Inactive)
REMARK    1  A    between atoms: C2_2  and  C3_3 
REMARK    2  A    between atoms: C3_3  and  C4_4 
REMARK    3  A    between atoms: C3_3  and  N1_6 
REMARK    4  A    between atoms: C7_11  and  N3_12 
REMARK    5  A    between atoms: N3_12  and  C8_14 
REMARK    6  A    between atoms: C8_14  and  S1_15 
REMARK    7  A    between atoms: S1_15  and  C9_16 
REMARK    8  A    between atoms: C12_22  and  N5_23 
ROOT
HETATM    1  N1  UNL     1      14.154 -41.534  10.239  1.00  0.00    -0.270 N 
HETATM    2  N2  UNL     1      13.459 -41.819   9.126  1.00  0.00    -0.284 N 
ATOM      3  H2  UNL     1      13.973 -41.914   8.250  1.00  0.00     0.188 HD
HETATM    4  C6  UNL     1      12.133 -41.986   9.097  1.00  0.00     0.147 A 
HETATM    5 CL1  UNL     1      11.384 -42.358   7.535  1.00  0.00    -0.060 Cl
HETATM    6  C7  UNL     1      11.384 -41.872  10.245  1.00  0.00     0.104 A 
HETATM    7  C10 UNL     1      12.059 -41.581  11.406  1.00  0.00     0.120 A 
HETATM    8  C11 UNL     1      11.335 -41.451  12.626  1.00  0.00     0.106 C 
HETATM    9  N4  UNL     1      10.734 -41.334  13.607  1.00  0.00    -0.191 NA
HETATM   10  C12 UNL     1      13.434 -41.419  11.370  1.00  0.00     0.139 A 
ENDROOT
BRANCH   6  11
HETATM   11  N3  UNL     1       9.983 -42.061  10.147  1.00  0.00    -0.312 N 
ATOM     12  H3  UNL     1       9.528 -42.927  10.435  1.00  0.00     0.176 HD
BRANCH  11  13
HETATM   13  C8  UNL     1       9.320 -41.059   9.667  1.00  0.00     0.015 C 
BRANCH  13  14
HETATM   14  S1  UNL     1       8.584 -39.974   8.672  1.00  0.00     0.033 SA
BRANCH  14  15
HETATM   15  C9  UNL     1       9.728 -39.348   7.636  1.00  0.00     0.317 C 
HETATM   16  F1  UNL     1       9.837 -39.923   6.467  1.00  0.00    -0.164 F 
HETATM   17  F2  UNL     1      10.450 -38.360   8.100  1.00  0.00    -0.164 F 
ENDBRANCH  14  15
ENDBRANCH  13  14
ENDBRANCH  11  13
ENDBRANCH   6  11
BRANCH  10  18
HETATM   18  N5  UNL     1      14.030 -41.146  12.483  1.00  0.00    -0.383 N 
ATOM     19  H52 UNL     1      14.572 -40.283  12.527  1.00  0.00     0.157 HD
ATOM     20  H51 UNL     1      13.944 -41.787  13.273  1.00  0.00     0.157 HD
ENDBRANCH  10  18
BRANCH   1  21
HETATM   21  C3  UNL     1      15.591 -41.367  10.193  1.00  0.00     0.109 C 
BRANCH  21  22
HETATM   22  C2  UNL     1      16.050 -39.966  10.468  1.00  0.00     0.023 C 
HETATM   23  C1  UNL     1      17.543 -39.818  10.390  1.00  0.00     0.007 C 
ENDBRANCH  21  22
BRANCH  21  24
HETATM   24  C4  UNL     1      16.346 -42.332  11.062  1.00  0.00     0.023 C 
HETATM   25  C5  UNL     1      16.916 -43.488  10.271  1.00  0.00     0.007 C 
ENDBRANCH  21  24
ENDBRANCH   1  21
TORSDOF 8
ENDMDL
MODEL 3
REMARK VINA RESULT: -4.163181782      1.739      2.715
REMARK  8 active torsions:
REMARK  status: ('A' for Active; 'I' for Inactive)
REMARK    1  A    between atoms: C2_2  and  C3_3 
REMARK    2  A    between atoms: C3_3  and  C4_4 
REMARK    3  A    between atoms: C3_3  and  N1_6 
REMARK    4  A    between atoms: C7_11  and  N3_12 
REMARK    5  A    between atoms: N3_12  and  C8_14 
REMARK    6  A    between atoms: C8_14  and  S1_15 
REMARK    7  A    between atoms: S1_15  and  C9_16 
REMARK    8  A    between atoms: C12_22  and  N5_23 
ROOT
HETATM    1  N1  UNL     1      13.614 -41.735  11.184  1.00  0.00    -0.270 N 
HETATM    2  N2  UNL     1      12.856 -41.380  12.234  1.00  0.00    -0.284 N 
ATOM      3  H2  UNL     1      13.327 -41.117  13.100  1.00  0.00     0.188 HD
HETATM    4  C6  UNL     1      11.519 -41.349  12.212  1.00  0.00     0.147 A 
HETATM    5 CL1  UNL     1      10.683 -40.856  13.693  1.00  0.00    -0.060 Cl
HETATM    6  C7  UNL     1      10.827 -41.692  11.073  1.00  0.00     0.104 A 
HETATM    7  C10 UNL     1      11.568 -42.061   9.977  1.00  0.00     0.120 A 
HETATM    8  C11 UNL     1      10.904 -42.425   8.771  1.00  0.00     0.106 C 
HETATM    9  N4  UNL     1      10.353 -42.732   7.801  1.00  0.00    -0.191 NA
HETATM   10  C12 UNL     1      12.950 -42.072  10.064  1.00  0.00     0.139 A 
ENDROOT
BRANCH   6  11
HETATM   11  N3  UNL     1       9.411 -41.639  11.116  1.00  0.00    -0.312 N 
ATOM     12  H3  UNL     1       8.865 -42.194  11.775  1.00  0.00     0.176 HD
BRANCH  11  13
HETATM   13  C8  UNL     1       8.859 -40.839  10.262  1.00  0.00     0.015 C 
BRANCH  13  14
HETATM   14  S1  UNL     1       8.179 -40.179   8.917  1.00  0.00     0.033 SA
BRANCH  14  15
HETATM   15  C9  UNL     1       9.390 -39.524   7.980  1.00  0.00     0.317 C 
HETATM   16  F1  UNL     1      10.007 -38.480   8.468  1.00  0.00    -0.164 F 
HETATM   17  F2  UNL     1       9.589 -40.086   6.815  1.00  0.00    -0.164 F 
ENDBRANCH  14  15
ENDBRANCH  13  14
ENDBRANCH  11  13
ENDBRANCH   6  11
BRANCH  10  18
HETATM   18  N5  UNL     1      13.609 -42.425   9.010  1.00  0.00    -0.383 N 
ATOM     19  H52 UNL     1      14.505 -42.892   9.152  1.00  0.00     0.157 HD
ATOM     20  H51 UNL     1      13.225 -42.232   8.085  1.00  0.00     0.157 HD
ENDBRANCH  10  18
BRANCH   1  21
HETATM   21  C3  UNL     1      15.059 -41.743  11.283  1.00  0.00     0.109 C 
BRANCH  21  22
HETATM   22  C2  UNL     1      15.649 -43.111  11.454  1.00  0.00     0.023 C 
HETATM   23  C1  UNL     1      16.705 -43.421  10.431  1.00  0.00     0.007 C 
ENDBRANCH  21  22
BRANCH  21  24
HETATM   24  C4  UNL     1      15.752 -41.025  10.160  1.00  0.00     0.023 C 
HETATM   25  C5  UNL     1      16.853 -40.114  10.659  1.00  0.00     0.007 C 
ENDBRANCH  21  24
ENDBRANCH   1  21
TORSDOF 8
ENDMDL
MODEL 4
REMARK VINA RESULT: -3.949216359      1.748      2.963
REMARK  8 active torsions:
REMARK  status: ('A' for Active; 'I' for Inactive)
REMARK    1  A    between atoms: C2_2  and  C3_3 
REMARK    2  A    between atoms: C3_3  and  C4_4 
REMARK    3  A    between atoms: C3_3  and  N1_6 
REMARK    4  A    between atoms: C7_11  and  N3_12 
REMARK    5  A    between atoms: N3_12  and  C8_14 
REMARK    6  A    between atoms: C8_14  and  S1_15 
REMARK    7  A    between atoms: S1_15  and  C9_16 
REMARK    8  A    between atoms: C12_22  and  N5_23 
ROOT
HETATM    1  N1  UNL     1      13.663 -41.721  10.793  1.00  0.00    -0.270 N 
HETATM    2  N2  UNL     1      13.052 -41.333  11.924  1.00  0.00    -0.284 N 
ATOM      3  H2  UNL     1      13.635 -41.042  12.709  1.00  0.00     0.188 HD
HETATM    4  C6  UNL     1      11.725 -41.305  12.083  1.00  0.00     0.147 A 
HETATM    5 CL1  UNL     1      11.095 -40.765  13.647  1.00  0.00    -0.060 Cl
HETATM    6  C7  UNL     1      10.886 -41.685  11.061  1.00  0.00     0.104 A 
HETATM    7  C10 UNL     1      11.474 -42.089   9.886  1.00  0.00     0.120 A 
HETATM    8  C11 UNL     1      10.655 -42.493   8.794  1.00  0.00     0.106 C 
HETATM    9  N4  UNL     1       9.979 -42.832   7.918  1.00  0.00    -0.191 NA
HETATM   10  C12 UNL     1      12.856 -42.095   9.784  1.00  0.00     0.139 A 
ENDROOT
BRANCH   6  11
HETATM   11  N3  UNL     1       9.489 -41.634  11.293  1.00  0.00    -0.312 N 
ATOM     12  H3  UNL     1       9.044 -42.152  12.050  1.00  0.00     0.176 HD
BRANCH  11  13
HETATM   13  C8  UNL     1       8.818 -40.884  10.480  1.00  0.00     0.015 C 
BRANCH  13  14
HETATM   14  S1  UNL     1       8.050 -40.261   9.165  1.00  0.00     0.033 SA
BRANCH  14  15
HETATM   15  C9  UNL     1       9.190 -39.582   8.159  1.00  0.00     0.317 C 
HETATM   16  F1  UNL     1       9.338 -40.135   6.984  1.00  0.00    -0.164 F 
HETATM   17  F2  UNL     1       9.871 -38.578   8.651  1.00  0.00    -0.164 F 
ENDBRANCH  14  15
ENDBRANCH  13  14
ENDBRANCH  11  13
ENDBRANCH   6  11
BRANCH  10  18
HETATM   18  N5  UNL     1      13.367 -42.481   8.663  1.00  0.00    -0.383 N 
ATOM     19  H52 UNL     1      12.728 -42.629   7.882  1.00  0.00     0.157 HD
ATOM     20  H51 UNL     1      14.375 -42.623   8.589  1.00  0.00     0.157 HD
ENDBRANCH  10  18
BRANCH   1  21
HETATM   21  C3  UNL     1      15.108 -41.724  10.695  1.00  0.00     0.109 C 
BRANCH  21  22
HETATM   22  C2  UNL     1      15.742 -40.405  11.019  1.00  0.00     0.023 C 
HETATM   23  C1  UNL     1      17.049 -40.197  10.306  1.00  0.00     0.007 C 
ENDBRANCH  21  22
BRANCH  21  24
HETATM   24  C4  UNL     1      15.771 -42.817  11.484  1.00  0.00     0.023 C 
HETATM   25  C5  UNL     1      16.686 -43.665  10.629  1.00  0.00     0.007 C 
ENDBRANCH  21  24
ENDBRANCH   1  21
TORSDOF 8
ENDMDL
MODEL 5
REMARK VINA RESULT: -3.863892458      1.700      2.030
REMARK  8 active torsions:
REMARK  status: ('A' for Active; 'I' for Inactive)
REMARK    1  A    between atoms: C2_2  and  C3_3 
REMARK    2  A    between atoms: C3_3  and  C4_4 
REMARK    3  A    between atoms: C3_3  and  N1_6 
REMARK    4  A    between atoms: C7_11  and  N3_12 
REMARK    5  A    between atoms: N3_12  and  C8_14 
REMARK    6  A    between atoms: C8_14  and  S1_15 
REMARK    7  A    between atoms: S1_15  and  C9_16 
REMARK    8  A    between atoms: C12_22  and  N5_23 
ROOT
HETATM    1  N1  UNL     1      14.792 -41.577  10.353  1.00  0.00    -0.270 N 
HETATM    2  N2  UNL     1      14.124 -41.497   9.191  1.00  0.00    -0.284 N 
ATOM      3  H2  UNL     1      14.652 -41.608   8.325  1.00  0.00     0.188 HD
HETATM    4  C6  UNL     1      12.808 -41.280   9.101  1.00  0.00     0.147 A 
HETATM    5 CL1  UNL     1      12.096 -41.203   7.482  1.00  0.00    -0.060 Cl
HETATM    6  C7  UNL     1      12.042 -41.122  10.233  1.00  0.00     0.104 A 
HETATM    7  C10 UNL     1      12.689 -41.198  11.442  1.00  0.00     0.120 A 
HETATM    8  C11 UNL     1      11.946 -41.043  12.647  1.00  0.00     0.106 C 
HETATM    9  N4  UNL     1      11.334 -40.902  13.619  1.00  0.00    -0.191 NA
HETATM   10  C12 UNL     1      14.056 -41.425  11.469  1.00  0.00     0.139 A 
ENDROOT
BRANCH   6  11
HETATM   11  N3  UNL     1      10.653 -40.895  10.069  1.00  0.00    -0.312 N 
ATOM     12  H3  UNL     1      10.259 -39.956  10.002  1.00  0.00     0.176 HD
BRANCH  11  13
HETATM   13  C8  UNL     1       9.919 -41.958  10.009  1.00  0.00     0.015 C 
BRANCH  13  14
HETATM   14  S1  UNL     1       8.984 -43.214   9.502  1.00  0.00     0.033 SA
BRANCH  14  15
HETATM   15  C9  UNL     1       8.838 -43.129   7.845  1.00  0.00     0.317 C 
HETATM   16  F1  UNL     1       8.861 -41.933   7.316  1.00  0.00    -0.164 F 
HETATM   17  F2  UNL     1       8.670 -44.266   7.220  1.00  0.00    -0.164 F 
ENDBRANCH  14  15
ENDBRANCH  13  14
ENDBRANCH  11  13
ENDBRANCH   6  11
BRANCH  10  18
HETATM   18  N5  UNL     1      14.625 -41.490  12.626  1.00  0.00    -0.383 N 
ATOM     19  H52 UNL     1      15.276 -40.744  12.871  1.00  0.00     0.157 HD
ATOM     20  H51 UNL     1      14.413 -42.267  13.252  1.00  0.00     0.157 HD
ENDBRANCH  10  18
BRANCH   1  21
HETATM   21  C3  UNL     1      16.220 -41.815  10.372  1.00  0.00     0.109 C 
BRANCH  21  22
HETATM   22  C2  UNL     1      16.606 -43.227  10.048  1.00  0.00     0.023 C 
HETATM   23  C1  UNL     1      17.081 -43.991  11.251  1.00  0.00     0.007 C 
ENDBRANCH  21  22
BRANCH  21  24
HETATM   24  C4  UNL     1      17.009 -40.861   9.520  1.00  0.00     0.023 C 
HETATM   25  C5  UNL     1      17.619 -39.740  10.332  1.00  0.00     0.007 C 
ENDBRANCH  21  24
ENDBRANCH   1  21
TORSDOF 8
ENDMDL
