MODEL 1
REMARK VINA RESULT: -6.844054487      0.000      0.000
REMARK  4 active torsions:
REMARK  status: ('A' for Active; 'I' for Inactive)
REMARK    1  A    between atoms: C4_6  and  C5_7 
REMARK    2  A    between atoms: C5_7  and  O2_9 
REMARK    3  A    between atoms: O2_9  and  C6_10 
REMARK    4  A    between atoms: C7_12  and  S2_13 
ROOT
HETATM    1  C5  UNL     1      12.465 -41.619  11.583  1.00  0.00     0.308 C 
HETATM    2  O1  UNL     1      12.376 -40.912  12.584  1.00  0.00    -0.258 OA
ENDROOT
BRANCH   1   3
HETATM    3  C4  UNL     1      11.420 -41.649  10.529  1.00  0.00     0.104 A 
HETATM    4  C1  UNL     1      10.061 -41.660  10.698  1.00  0.00     0.070 A 
HETATM    5  N1  UNL     1       9.502 -41.640  12.044  1.00  0.00    -0.101 NA
HETATM    6  C2  UNL     1       9.300 -41.688   9.602  1.00  0.00     0.035 A 
HETATM    7  C3  UNL     1       9.942 -41.704   8.389  1.00  0.00     0.052 A 
HETATM    8  S1  UNL     1      11.589 -41.678   8.833  1.00  0.00    -0.094 SA
ENDBRANCH   1   3
BRANCH   1   9
HETATM    9  O2  UNL     1      13.551 -42.411  11.415  1.00  0.00    -0.266 OA
BRANCH   9  10
HETATM   10  C6  UNL     1      14.805 -42.126  10.980  1.00  0.00     0.133 C 
HETATM   11 BR1  UNL     1      16.106 -43.510  11.409  1.00  0.00    -0.022 Br
HETATM   12  C7  UNL     1      15.257 -41.097  10.338  1.00  0.00     0.107 C 
BRANCH  12  13
HETATM   13  S2  UNL     1      16.972 -40.973   9.882  1.00  0.00    -0.028 SA
HETATM   14 CL1  UNL     1      17.925 -39.809  11.379  1.00  0.00    -0.039 Cl
ENDBRANCH  12  13
ENDBRANCH   9  10
ENDBRANCH   1   9
TORSDOF 4
ENDMDL
MODEL 2
REMARK VINA RESULT: -6.822766213      1.541      1.660
REMARK  4 active torsions:
REMARK  status: ('A' for Active; 'I' for Inactive)
REMARK    1  A    between atoms: C4_6  and  C5_7 
REMARK    2  A    between atoms: C5_7  and  O2_9 
REMARK    3  A    between atoms: O2_9  and  C6_10 
REMARK    4  A    between atoms: C7_12  and  S2_13 
ROOT
HETATM    1  C5  UNL     1      12.439 -41.543  11.399  1.00  0.00     0.308 C 
HETATM    2  O1  UNL     1      12.451 -40.679  12.273  1.00  0.00    -0.258 OA
ENDROOT
BRANCH   1   3
HETATM    3  C4  UNL     1      11.296 -41.727  10.470  1.00  0.00     0.104 A 
HETATM    4  C1  UNL     1      11.311 -41.660   9.103  1.00  0.00     0.070 A 
HETATM    5  N1  UNL     1      12.561 -41.380   8.408  1.00  0.00    -0.101 NA
HETATM    6  C2  UNL     1      10.158 -41.859   8.460  1.00  0.00     0.035 A 
HETATM    7  C3  UNL     1       9.046 -42.114   9.223  1.00  0.00     0.052 A 
HETATM    8  S1  UNL     1       9.662 -42.067  10.814  1.00  0.00    -0.094 SA
ENDBRANCH   1   3
BRANCH   1   9
HETATM    9  O2  UNL     1      13.502 -42.372  11.260  1.00  0.00    -0.266 OA
BRANCH   9  10
HETATM   10  C6  UNL     1      14.789 -42.123  10.906  1.00  0.00     0.133 C 
HETATM   11 BR1  UNL     1      16.019 -43.544  11.412  1.00  0.00    -0.022 Br
HETATM   12  C7  UNL     1      15.309 -41.106  10.297  1.00  0.00     0.107 C 
BRANCH  12  13
HETATM   13  S2  UNL     1      17.052 -41.031   9.949  1.00  0.00    -0.028 SA
HETATM   14 CL1  UNL     1      17.924 -39.794  11.437  1.00  0.00    -0.039 Cl
ENDBRANCH  12  13
ENDBRANCH   9  10
ENDBRANCH   1   9
TORSDOF 4
ENDMDL
MODEL 3
REMARK VINA RESULT: -6.576517901      1.857      2.273
REMARK  4 active torsions:
REMARK  status: ('A' for Active; 'I' for Inactive)
REMARK    1  A    between atoms: C4_6  and  C5_7 
REMARK    2  A    between atoms: C5_7  and  O2_9 
REMARK    3  A    between atoms: O2_9  and  C6_10 
REMARK    4  A    between atoms: C7_12  and  S2_13 
ROOT
HETATM    1  C5  UNL     1      12.754 -41.966   9.665  1.00  0.00     0.308 C 
HETATM    2  O1  UNL     1      12.677 -41.573   8.502  1.00  0.00    -0.258 OA
ENDROOT
BRANCH   1   3
HETATM    3  C4  UNL     1      11.662 -41.769  10.650  1.00  0.00     0.104 A 
HETATM    4  C1  UNL     1      10.316 -41.922  10.449  1.00  0.00     0.070 A 
HETATM    5  N1  UNL     1       9.824 -42.325   9.138  1.00  0.00    -0.101 NA
HETATM    6  C2  UNL     1       9.505 -41.691  11.483  1.00  0.00     0.035 A 
HETATM    7  C3  UNL     1      10.085 -41.318  12.669  1.00  0.00     0.052 A 
HETATM    8  S1  UNL     1      11.748 -41.305  12.288  1.00  0.00    -0.094 SA
ENDBRANCH   1   3
BRANCH   1   9
HETATM    9  O2  UNL     1      13.872 -42.607  10.083  1.00  0.00    -0.266 OA
BRANCH   9  10
HETATM   10  C6  UNL     1      15.098 -42.135  10.424  1.00  0.00     0.133 C 
HETATM   11 BR1  UNL     1      16.271 -43.497  11.172  1.00  0.00    -0.022 Br
HETATM   12  C7  UNL     1      15.593 -40.943  10.330  1.00  0.00     0.107 C 
BRANCH  12  13
HETATM   13  S2  UNL     1      17.255 -40.589  10.859  1.00  0.00    -0.028 SA
HETATM   14 CL1  UNL     1      18.065 -39.212   9.463  1.00  0.00    -0.039 Cl
ENDBRANCH  12  13
ENDBRANCH   9  10
ENDBRANCH   1   9
TORSDOF 4
ENDMDL
MODEL 4
REMARK VINA RESULT: -6.270847751      3.872      5.846
REMARK  4 active torsions:
REMARK  status: ('A' for Active; 'I' for Inactive)
REMARK    1  A    between atoms: C4_6  and  C5_7 
REMARK    2  A    between atoms: C5_7  and  O2_9 
REMARK    3  A    between atoms: O2_9  and  C6_10 
REMARK    4  A    between atoms: C7_12  and  S2_13 
ROOT
HETATM    1  C5  UNL     1      13.471 -41.504  11.083  1.00  0.00     0.308 C 
HETATM    2  O1  UNL     1      12.922 -41.474  12.182  1.00  0.00    -0.258 OA
ENDROOT
BRANCH   1   3
HETATM    3  C4  UNL     1      14.894 -41.887  10.909  1.00  0.00     0.104 A 
HETATM    4  C1  UNL     1      15.472 -43.100  11.171  1.00  0.00     0.070 A 
HETATM    5  N1  UNL     1      14.654 -44.193  11.682  1.00  0.00    -0.101 NA
HETATM    6  C2  UNL     1      16.781 -43.226  10.941  1.00  0.00     0.035 A 
HETATM    7  C3  UNL     1      17.445 -42.127  10.459  1.00  0.00     0.052 A 
HETATM    8  S1  UNL     1      16.207 -40.957  10.347  1.00  0.00    -0.094 SA
ENDBRANCH   1   3
BRANCH   1   9
HETATM    9  O2  UNL     1      12.766 -41.179   9.972  1.00  0.00    -0.266 OA
BRANCH   9  10
HETATM   10  C6  UNL     1      11.538 -41.570   9.547  1.00  0.00     0.133 C 
HETATM   11 BR1  UNL     1      11.293 -41.394   7.623  1.00  0.00    -0.022 Br
HETATM   12  C7  UNL     1      10.527 -42.031  10.212  1.00  0.00     0.107 C 
BRANCH  12  13
HETATM   13  S2  UNL     1       9.010 -42.474   9.396  1.00  0.00    -0.028 SA
HETATM   14 CL1  UNL     1       7.919 -40.677   9.105  1.00  0.00    -0.039 Cl
ENDBRANCH  12  13
ENDBRANCH   9  10
ENDBRANCH   1   9
TORSDOF 4
ENDMDL
MODEL 5
REMARK VINA RESULT: -6.153661580      3.753      5.872
REMARK  4 active torsions:
REMARK  status: ('A' for Active; 'I' for Inactive)
REMARK    1  A    between atoms: C4_6  and  C5_7 
REMARK    2  A    between atoms: C5_7  and  O2_9 
REMARK    3  A    between atoms: O2_9  and  C6_10 
REMARK    4  A    between atoms: C7_12  and  S2_13 
ROOT
HETATM    1  C5  UNL     1      14.218 -41.474  10.234  1.00  0.00     0.308 C 
HETATM    2  O1  UNL     1      14.014 -41.031   9.105  1.00  0.00    -0.258 OA
ENDROOT
BRANCH   1   3
HETATM    3  C4  UNL     1      15.462 -42.196  10.597  1.00  0.00     0.104 A 
HETATM    4  C1  UNL     1      15.573 -43.407  11.226  1.00  0.00     0.070 A 
HETATM    5  N1  UNL     1      14.369 -44.131  11.613  1.00  0.00    -0.101 NA
HETATM    6  C2  UNL     1      16.801 -43.876  11.458  1.00  0.00     0.035 A 
HETATM    7  C3  UNL     1      17.858 -43.104  11.046  1.00  0.00     0.052 A 
HETATM    8  S1  UNL     1      17.088 -41.750  10.349  1.00  0.00    -0.094 SA
ENDBRANCH   1   3
BRANCH   1   9
HETATM    9  O2  UNL     1      13.282 -41.306  11.199  1.00  0.00    -0.266 OA
BRANCH   9  10
HETATM   10  C6  UNL     1      11.936 -41.479  11.178  1.00  0.00     0.133 C 
HETATM   11 BR1  UNL     1      11.103 -41.274  12.926  1.00  0.00    -0.022 Br
HETATM   12  C7  UNL     1      11.141 -41.755  10.195  1.00  0.00     0.107 C 
BRANCH  12  13
HETATM   13  S2  UNL     1       9.389 -41.931  10.445  1.00  0.00    -0.028 SA
HETATM   14 CL1  UNL     1       8.440 -40.512   9.183  1.00  0.00    -0.039 Cl
ENDBRANCH  12  13
ENDBRANCH   9  10
ENDBRANCH   1   9
TORSDOF 4
ENDMDL
