MODEL 1
REMARK VINA RESULT: -5.108843818      0.000      0.000
REMARK  5 active torsions:
REMARK  status: ('A' for Active; 'I' for Inactive)
REMARK    1  A    between atoms: C2_2  and  N1_3 
REMARK    2  A    between atoms: N1_3  and  C3_5 
REMARK    3  A    between atoms: C4_7  and  C5_8 
REMARK    4  A    between atoms: C5_8  and  S2_9 
REMARK    5  A    between atoms: S2_9  and  C6_10 
ROOT
HETATM    1  C3  UNL     1      10.990 -41.637   9.150  1.00  0.00     0.105 A 
HETATM    2  S1  UNL     1      12.647 -41.988   9.318  1.00  0.00    -0.072 SA
HETATM    3  C4  UNL     1      12.768 -41.940  11.016  1.00  0.00     0.018 A 
HETATM    4  C9  UNL     1      11.498 -41.648  11.414  1.00  0.00     0.072 A 
HETATM    5 CL1  UNL     1      11.124 -41.491  13.159  1.00  0.00    -0.081 Cl
HETATM    6  C10 UNL     1      10.570 -41.491  10.443  1.00  0.00     0.091 A 
HETATM    7 CL2  UNL     1       8.847 -41.104  10.767  1.00  0.00    -0.079 Cl
ENDROOT
BRANCH   3   8
HETATM    8  C5  UNL     1      13.985 -42.164  11.888  1.00  0.00     0.130 C 
BRANCH   8   9
HETATM    9  S2  UNL     1      15.315 -42.792  10.831  1.00  0.00    -0.089 SA
BRANCH   9  10
HETATM   10  C6  UNL     1      16.510 -41.471  10.538  1.00  0.00     0.136 C 
HETATM   11  N2  UNL     1      16.882 -40.611  11.421  1.00  0.00    -0.369 N 
HETATM   12  C7  UNL     1      17.834 -39.714  10.848  1.00  0.00     0.141 C 
ATOM     13  H2  UNL     1      16.548 -40.575  12.384  1.00  0.00     0.161 HD
HETATM   14  C8  UNL     1      17.724 -39.943   9.363  1.00  0.00     0.141 C 
HETATM   15  N3  UNL     1      17.154 -41.252   9.294  1.00  0.00    -0.369 N 
ATOM     16  H3  UNL     1      17.202 -41.898   8.507  1.00  0.00     0.161 HD
ENDBRANCH   9  10
ENDBRANCH   8   9
ENDBRANCH   3   8
BRANCH   1  17
HETATM   17  N1  UNL     1      10.192 -41.518   7.943  1.00  0.00    -0.319 N 
ATOM     18  H1  UNL     1       9.977 -42.349   7.392  1.00  0.00     0.176 HD
BRANCH  17  19
HETATM   19  C2  UNL     1       9.754 -40.365   7.565  1.00  0.00    -0.074 C 
HETATM   20  C1  UNL     1       9.465 -39.090   7.537  1.00  0.00     0.123 C 
ENDBRANCH  17  19
ENDBRANCH   1  17
TORSDOF 5
ENDMDL
MODEL 2
REMARK VINA RESULT: -4.232632026      1.591      1.888
REMARK  5 active torsions:
REMARK  status: ('A' for Active; 'I' for Inactive)
REMARK    1  A    between atoms: C2_2  and  N1_3 
REMARK    2  A    between atoms: N1_3  and  C3_5 
REMARK    3  A    between atoms: C4_7  and  C5_8 
REMARK    4  A    between atoms: C5_8  and  S2_9 
REMARK    5  A    between atoms: S2_9  and  C6_10 
ROOT
HETATM    1  C3  UNL     1      10.314 -41.906   9.502  1.00  0.00     0.105 A 
HETATM    2  S1  UNL     1      12.014 -41.862   9.465  1.00  0.00    -0.072 SA
HETATM    3  C4  UNL     1      12.319 -41.558  11.113  1.00  0.00     0.018 A 
HETATM    4  C9  UNL     1      11.071 -41.497  11.657  1.00  0.00     0.072 A 
HETATM    5 CL1  UNL     1      10.878 -41.188  13.411  1.00  0.00    -0.081 Cl
HETATM    6  C10 UNL     1      10.025 -41.679  10.820  1.00  0.00     0.091 A 
HETATM    7 CL2  UNL     1       8.310 -41.635  11.346  1.00  0.00    -0.079 Cl
ENDROOT
BRANCH   3   8
HETATM    8  C5  UNL     1      13.648 -41.391  11.818  1.00  0.00     0.130 C 
BRANCH   8   9
HETATM    9  S2  UNL     1      14.930 -41.222  10.550  1.00  0.00    -0.089 SA
BRANCH   9  10
HETATM   10  C6  UNL     1      16.139 -42.547  10.753  1.00  0.00     0.136 C 
HETATM   11  N2  UNL     1      16.080 -43.459  11.660  1.00  0.00    -0.369 N 
HETATM   12  C7  UNL     1      17.195 -44.341  11.528  1.00  0.00     0.141 C 
ATOM     13  H2  UNL     1      15.349 -43.540  12.366  1.00  0.00     0.161 HD
HETATM   14  C8  UNL     1      18.145 -43.616  10.610  1.00  0.00     0.141 C 
HETATM   15  N3  UNL     1      17.280 -42.707   9.926  1.00  0.00    -0.369 N 
ATOM     16  H3  UNL     1      17.450 -42.262   9.025  1.00  0.00     0.161 HD
ENDBRANCH   9  10
ENDBRANCH   8   9
ENDBRANCH   3   8
BRANCH   1  17
HETATM   17  N1  UNL     1       9.375 -42.129   8.418  1.00  0.00    -0.319 N 
ATOM     18  H1  UNL     1       8.972 -43.056   8.276  1.00  0.00     0.176 HD
BRANCH  17  19
HETATM   19  C2  UNL     1       9.047 -41.160   7.632  1.00  0.00    -0.074 C 
HETATM   20  C1  UNL     1       9.032 -40.007   7.015  1.00  0.00     0.123 C 
ENDBRANCH  17  19
ENDBRANCH   1  17
TORSDOF 5
ENDMDL
MODEL 3
REMARK VINA RESULT: -4.142306107      1.681      2.082
REMARK  5 active torsions:
REMARK  status: ('A' for Active; 'I' for Inactive)
REMARK    1  A    between atoms: C2_2  and  N1_3 
REMARK    2  A    between atoms: N1_3  and  C3_5 
REMARK    3  A    between atoms: C4_7  and  C5_8 
REMARK    4  A    between atoms: C5_8  and  S2_9 
REMARK    5  A    between atoms: S2_9  and  C6_10 
ROOT
HETATM    1  C3  UNL     1       9.752 -41.389   9.815  1.00  0.00     0.105 A 
HETATM    2  S1  UNL     1      11.403 -41.749   9.608  1.00  0.00    -0.072 SA
HETATM    3  C4  UNL     1      11.911 -41.653  11.231  1.00  0.00     0.018 A 
HETATM    4  C9  UNL     1      10.767 -41.338  11.901  1.00  0.00     0.072 A 
HETATM    5 CL1  UNL     1      10.805 -41.126  13.680  1.00  0.00    -0.081 Cl
HETATM    6  C10 UNL     1       9.641 -41.201  11.165  1.00  0.00     0.091 A 
HETATM    7 CL2  UNL     1       8.040 -40.789  11.864  1.00  0.00    -0.079 Cl
ENDROOT
BRANCH   3   8
HETATM    8  C5  UNL     1      13.296 -41.862  11.806  1.00  0.00     0.130 C 
BRANCH   8   9
HETATM    9  S2  UNL     1      14.498 -41.480  10.507  1.00  0.00    -0.089 SA
BRANCH   9  10
HETATM   10  C6  UNL     1      15.962 -42.513  10.736  1.00  0.00     0.136 C 
HETATM   11  N2  UNL     1      17.015 -42.465   9.997  1.00  0.00    -0.369 N 
HETATM   12  C7  UNL     1      17.973 -43.416  10.462  1.00  0.00     0.141 C 
ATOM     13  H2  UNL     1      17.146 -41.842   9.200  1.00  0.00     0.161 HD
HETATM   14  C8  UNL     1      17.197 -44.309  11.395  1.00  0.00     0.141 C 
HETATM   15  N3  UNL     1      16.088 -43.486  11.761  1.00  0.00    -0.369 N 
ATOM     16  H3  UNL     1      15.504 -43.579  12.591  1.00  0.00     0.161 HD
ENDBRANCH   9  10
ENDBRANCH   8   9
ENDBRANCH   3   8
BRANCH   1  17
HETATM   17  N1  UNL     1       8.698 -41.299   8.820  1.00  0.00    -0.319 N 
ATOM     18  H1  UNL     1       7.818 -41.793   8.967  1.00  0.00     0.176 HD
BRANCH  17  19
HETATM   19  C2  UNL     1       8.871 -40.596   7.753  1.00  0.00    -0.074 C 
HETATM   20  C1  UNL     1       9.360 -39.749   6.884  1.00  0.00     0.123 C 
ENDBRANCH  17  19
ENDBRANCH   1  17
TORSDOF 5
ENDMDL
MODEL 4
REMARK VINA RESULT: -4.127599300      2.142      3.113
REMARK  5 active torsions:
REMARK  status: ('A' for Active; 'I' for Inactive)
REMARK    1  A    between atoms: C2_2  and  N1_3 
REMARK    2  A    between atoms: N1_3  and  C3_5 
REMARK    3  A    between atoms: C4_7  and  C5_8 
REMARK    4  A    between atoms: C5_8  and  S2_9 
REMARK    5  A    between atoms: S2_9  and  C6_10 
ROOT
HETATM    1  C3  UNL     1      10.277 -41.428  11.204  1.00  0.00     0.105 A 
HETATM    2  S1  UNL     1      11.858 -41.945  11.562  1.00  0.00    -0.072 SA
HETATM    3  C4  UNL     1      12.475 -42.061   9.978  1.00  0.00     0.018 A 
HETATM    4  C9  UNL     1      11.419 -41.690   9.201  1.00  0.00     0.072 A 
HETATM    5 CL1  UNL     1      11.591 -41.657   7.418  1.00  0.00    -0.081 Cl
HETATM    6  C10 UNL     1      10.272 -41.359   9.839  1.00  0.00     0.091 A 
HETATM    7 CL2  UNL     1       8.776 -40.845   8.991  1.00  0.00    -0.079 Cl
ENDROOT
BRANCH   3   8
HETATM    8  C5  UNL     1      13.858 -42.477   9.526  1.00  0.00     0.130 C 
BRANCH   8   9
HETATM    9  S2  UNL     1      14.934 -42.496  10.983  1.00  0.00    -0.089 SA
BRANCH   9  10
HETATM   10  C6  UNL     1      16.296 -41.339  10.727  1.00  0.00     0.136 C 
HETATM   11  N2  UNL     1      16.839 -40.630  11.654  1.00  0.00    -0.369 N 
HETATM   12  C7  UNL     1      17.883 -39.829  11.099  1.00  0.00     0.141 C 
ATOM     13  H2  UNL     1      16.566 -40.639  12.637  1.00  0.00     0.161 HD
HETATM   14  C8  UNL     1      17.661 -39.897   9.610  1.00  0.00     0.141 C 
HETATM   15  N3  UNL     1      16.898 -41.097   9.466  1.00  0.00    -0.369 N 
ATOM     16  H3  UNL     1      16.807 -41.666   8.625  1.00  0.00     0.161 HD
ENDBRANCH   9  10
ENDBRANCH   8   9
ENDBRANCH   3   8
BRANCH   1  17
HETATM   17  N1  UNL     1       9.181 -41.127  12.108  1.00  0.00    -0.319 N 
ATOM     18  H1  UNL     1       8.229 -41.058  11.747  1.00  0.00     0.176 HD
BRANCH  17  19
HETATM   19  C2  UNL     1       9.406 -40.945  13.365  1.00  0.00    -0.074 C 
HETATM   20  C1  UNL     1      10.002 -40.880  14.528  1.00  0.00     0.123 C 
ENDBRANCH  17  19
ENDBRANCH   1  17
TORSDOF 5
ENDMDL
MODEL 5
REMARK VINA RESULT: -4.110955840      1.659      1.931
REMARK  5 active torsions:
REMARK  status: ('A' for Active; 'I' for Inactive)
REMARK    1  A    between atoms: C2_2  and  N1_3 
REMARK    2  A    between atoms: N1_3  and  C3_5 
REMARK    3  A    between atoms: C4_7  and  C5_8 
REMARK    4  A    between atoms: C5_8  and  S2_9 
REMARK    5  A    between atoms: S2_9  and  C6_10 
ROOT
HETATM    1  C3  UNL     1       9.556 -41.310   9.998  1.00  0.00     0.105 A 
HETATM    2  S1  UNL     1      11.183 -41.677   9.660  1.00  0.00    -0.072 SA
HETATM    3  C4  UNL     1      11.822 -41.576  11.236  1.00  0.00     0.018 A 
HETATM    4  C9  UNL     1      10.737 -41.254  11.995  1.00  0.00     0.072 A 
HETATM    5 CL1  UNL     1      10.919 -41.034  13.764  1.00  0.00    -0.081 Cl
HETATM    6  C10 UNL     1       9.555 -41.115  11.351  1.00  0.00     0.091 A 
HETATM    7 CL2  UNL     1       8.017 -40.694  12.175  1.00  0.00    -0.079 Cl
ENDROOT
BRANCH   3   8
HETATM    8  C5  UNL     1      13.247 -41.789  11.699  1.00  0.00     0.130 C 
BRANCH   8   9
HETATM    9  S2  UNL     1      13.872 -43.286  10.895  1.00  0.00    -0.089 SA
BRANCH   9  10
HETATM   10  C6  UNL     1      15.672 -43.189  10.785  1.00  0.00     0.136 C 
HETATM   11  N2  UNL     1      16.486 -44.014  11.347  1.00  0.00    -0.369 N 
HETATM   12  C7  UNL     1      17.831 -43.639  11.052  1.00  0.00     0.141 C 
ATOM     13  H2  UNL     1      16.211 -44.814  11.917  1.00  0.00     0.161 HD
HETATM   14  C8  UNL     1      17.723 -42.238  10.507  1.00  0.00     0.141 C 
HETATM   15  N3  UNL     1      16.365 -42.183  10.065  1.00  0.00    -0.369 N 
ATOM     16  H3  UNL     1      15.973 -41.547   9.371  1.00  0.00     0.161 HD
ENDBRANCH   9  10
ENDBRANCH   8   9
ENDBRANCH   3   8
BRANCH   1  17
HETATM   17  N1  UNL     1       8.426 -41.219   9.091  1.00  0.00    -0.319 N 
ATOM     18  H1  UNL     1       7.505 -41.539   9.393  1.00  0.00     0.176 HD
BRANCH  17  19
HETATM   19  C2  UNL     1       8.581 -40.735   7.905  1.00  0.00    -0.074 C 
HETATM   20  C1  UNL     1       9.109 -40.179   6.845  1.00  0.00     0.123 C 
ENDBRANCH  17  19
ENDBRANCH   1  17
TORSDOF 5
ENDMDL
