MODEL 1
REMARK VINA RESULT: -6.694955866      0.000      0.000
REMARK  17 active torsions:
REMARK  status: ('A' for Active; 'I' for Inactive)
REMARK    1  A    between atoms: C2_2  and  C3_3 
REMARK    2  A    between atoms: C3_3  and  C4_4 
REMARK    3  A    between atoms: C4_4  and  C5_5 
REMARK    4  A    between atoms: C5_5  and  C6_6 
REMARK    5  A    between atoms: C6_6  and  C7_7 
REMARK    6  A    between atoms: C8_8  and  N1_9 
REMARK    7  A    between atoms: N1_9  and  C9_10 
REMARK    8  A    between atoms: C12_15  and  N3_16 
REMARK       I    between atoms: N3_16  and  C13_18 
REMARK    9  A    between atoms: C13_18  and  C14_20 
REMARK   10  A    between atoms: C14_20  and  N4_22 
REMARK       I    between atoms: N4_22  and  C16_24 
REMARK   11  A    between atoms: C16_24  and  C17_26 
REMARK   12  A    between atoms: C19_28  and  C20_29 
REMARK       I    between atoms: C20_29  and  N5_31 
REMARK   13  A    between atoms: N5_31  and  C21_32 
REMARK   14  A    between atoms: N5_31  and  C23_34 
REMARK       I    between atoms: N6_38  and  C27_39 
REMARK   15  A    between atoms: C27_39  and  C28_41 
REMARK   16  A    between atoms: C28_41  and  N7_42 
REMARK   17  A    between atoms: C28_41  and  C30_47 
REMARK       I    between atoms: N7_42  and  C29_44 
ROOT
HETATM    1  C17 UNL     1      34.034  -6.306  15.074  1.00  0.00     0.180 C 
HETATM    2  C18 UNL     1      34.881  -7.044  16.112  1.00  0.00     0.049 C 
HETATM    3  C19 UNL     1      34.536  -8.499  16.047  1.00  0.00     0.082 C 
HETATM    4  C25 UNL     1      33.748  -9.004  14.904  1.00  0.00     0.034 C 
HETATM    5  C26 UNL     1      33.706  -8.213  13.630  1.00  0.00     0.127 C 
HETATM    6  N6  UNL     1      34.379  -6.910  13.838  1.00  0.00    -0.337 N 
HETATM    7  C27 UNL     1      35.268  -6.432  12.891  1.00  0.00     0.243 C 
HETATM    8  O4  UNL     1      35.949  -5.354  12.998  1.00  0.00    -0.271 OA
ENDROOT
BRANCH   1   9
HETATM    9  C16 UNL     1      33.970  -4.876  15.238  1.00  0.00     0.241 C 
HETATM   10  N4  UNL     1      35.165  -4.166  15.658  1.00  0.00    -0.346 N 
ATOM     11  H4  UNL     1      36.009  -4.711  15.833  1.00  0.00     0.163 HD
HETATM   12  O2  UNL     1      32.982  -4.167  15.059  1.00  0.00    -0.271 OA
BRANCH  10  13
HETATM   13  C14 UNL     1      35.230  -2.753  15.839  1.00  0.00     0.172 C 
HETATM   14  C15 UNL     1      36.122  -2.131  14.800  1.00  0.00     0.042 C 
BRANCH  13  15
HETATM   15  C13 UNL     1      35.813  -2.404  17.189  1.00  0.00     0.240 C 
HETATM   16  N3  UNL     1      36.379  -3.354  18.065  1.00  0.00    -0.352 N 
ATOM     17  H3  UNL     1      36.398  -4.342  17.813  1.00  0.00     0.163 HD
HETATM   18  O1  UNL     1      35.759  -1.159  17.488  1.00  0.00    -0.271 OA
BRANCH  16  19
HETATM   19  C12 UNL     1      36.931  -2.908  19.331  1.00  0.00     0.114 C 
HETATM   20  C7  UNL     1      38.228  -3.609  19.653  1.00  0.00     0.092 C 
HETATM   21  C8  UNL     1      37.688  -4.998  19.894  1.00  0.00     0.156 C 
HETATM   22  N2  UNL     1      36.555  -4.682  20.787  1.00  0.00    -0.366 N 
HETATM   23  C11 UNL     1      36.011  -3.401  20.425  1.00  0.00     0.147 C 
ATOM     24  H2  UNL     1      36.213  -5.277  21.541  1.00  0.00     0.161 HD
BRANCH  20  25
HETATM   25  C6  UNL     1      39.248  -3.493  18.608  1.00  0.00     0.015 C 
BRANCH  25  26
HETATM   26  C5  UNL     1      39.813  -2.126  18.316  1.00  0.00     0.001 C 
BRANCH  26  27
HETATM   27  C4  UNL     1      39.488  -1.615  16.977  1.00  0.00     0.000 C 
BRANCH  27  28
HETATM   28  C3  UNL     1      39.479  -2.548  15.828  1.00  0.00    -0.000 C 
BRANCH  28  29
HETATM   29  C2  UNL     1      39.806  -2.019  14.475  1.00  0.00    -0.005 C 
HETATM   30  C1  UNL     1      39.527  -2.884  13.307  1.00  0.00     0.005 C 
ENDBRANCH  28  29
ENDBRANCH  27  28
ENDBRANCH  26  27
ENDBRANCH  25  26
ENDBRANCH  20  25
BRANCH  21  31
HETATM   31  N1  UNL     1      37.948  -6.102  19.553  1.00  0.00    -0.409 NA
BRANCH  31  32
HETATM   32  C9  UNL     1      38.289  -7.374  19.262  1.00  0.00     0.152 C 
HETATM   33  C10 UNL     1      37.144  -8.302  18.862  1.00  0.00     0.070 C 
ENDBRANCH  31  32
ENDBRANCH  21  31
ENDBRANCH  16  19
ENDBRANCH  13  15
ENDBRANCH  10  13
ENDBRANCH   1   9
BRANCH   3  34
HETATM   34  C20 UNL     1      33.711  -8.763  17.294  1.00  0.00     0.224 C 
HETATM   35  O3  UNL     1      32.875  -7.880  17.649  1.00  0.00    -0.273 OA
HETATM   36  N5  UNL     1      33.826  -9.932  18.064  1.00  0.00    -0.353 N 
BRANCH  36  37
HETATM   37  C21 UNL     1      32.940 -10.106  19.229  1.00  0.00     0.121 C 
HETATM   38  C22 UNL     1      33.658  -9.918  20.523  1.00  0.00     0.026 C 
ENDBRANCH  36  37
BRANCH  36  39
HETATM   39  C23 UNL     1      34.811 -10.928  17.764  1.00  0.00     0.121 C 
HETATM   40  C24 UNL     1      34.200 -12.094  17.004  1.00  0.00     0.026 C 
ENDBRANCH  36  39
ENDBRANCH   3  34
BRANCH   7  41
HETATM   41  C28 UNL     1      35.529  -7.151  11.603  1.00  0.00     0.182 C 
BRANCH  41  42
HETATM   42  N7  UNL     1      34.502  -6.569  10.727  1.00  0.00    -0.332 N 
HETATM   43  C29 UNL     1      34.412  -5.456   9.946  1.00  0.00     0.329 C 
HETATM   44  N8  UNL     1      33.160  -5.280   9.190  1.00  0.00    -0.040 NA
HETATM   45  O5  UNL     1      35.226  -4.546   9.762  1.00  0.00    -0.251 OA
ATOM     46  H7  UNL     1      33.654  -7.135  10.696  1.00  0.00     0.164 HD
ENDBRANCH  41  42
BRANCH  41  47
HETATM   47  C30 UNL     1      36.904  -6.738  11.052  1.00  0.00     0.018 C 
HETATM   48  C31 UNL     1      38.041  -7.304  11.852  1.00  0.00     0.007 C 
HETATM   49  C32 UNL     1      38.612  -8.580  11.359  1.00  0.00     0.000 C 
HETATM   50  C33 UNL     1      39.258  -8.437  10.003  1.00  0.00     0.000 C 
HETATM   51  C34 UNL     1      38.395  -7.497   9.179  1.00  0.00     0.000 C 
HETATM   52  C35 UNL     1      36.992  -7.523   9.721  1.00  0.00     0.007 C 
ENDBRANCH  41  47
ENDBRANCH   7  41
TORSDOF 17
ENDMDL
MODEL 2
REMARK VINA RESULT: -6.660064274      3.220      8.621
REMARK  17 active torsions:
REMARK  status: ('A' for Active; 'I' for Inactive)
REMARK    1  A    between atoms: C2_2  and  C3_3 
REMARK    2  A    between atoms: C3_3  and  C4_4 
REMARK    3  A    between atoms: C4_4  and  C5_5 
REMARK    4  A    between atoms: C5_5  and  C6_6 
REMARK    5  A    between atoms: C6_6  and  C7_7 
REMARK    6  A    between atoms: C8_8  and  N1_9 
REMARK    7  A    between atoms: N1_9  and  C9_10 
REMARK    8  A    between atoms: C12_15  and  N3_16 
REMARK       I    between atoms: N3_16  and  C13_18 
REMARK    9  A    between atoms: C13_18  and  C14_20 
REMARK   10  A    between atoms: C14_20  and  N4_22 
REMARK       I    between atoms: N4_22  and  C16_24 
REMARK   11  A    between atoms: C16_24  and  C17_26 
REMARK   12  A    between atoms: C19_28  and  C20_29 
REMARK       I    between atoms: C20_29  and  N5_31 
REMARK   13  A    between atoms: N5_31  and  C21_32 
REMARK   14  A    between atoms: N5_31  and  C23_34 
REMARK       I    between atoms: N6_38  and  C27_39 
REMARK   15  A    between atoms: C27_39  and  C28_41 
REMARK   16  A    between atoms: C28_41  and  N7_42 
REMARK   17  A    between atoms: C28_41  and  C30_47 
REMARK       I    between atoms: N7_42  and  C29_44 
ROOT
HETATM    1  C17 UNL     1      37.756  -2.231  16.239  1.00  0.00     0.180 C 
HETATM    2  C18 UNL     1      38.868  -2.907  17.042  1.00  0.00     0.049 C 
HETATM    3  C19 UNL     1      38.775  -2.433  18.459  1.00  0.00     0.082 C 
HETATM    4  C25 UNL     1      37.566  -1.707  18.899  1.00  0.00     0.034 C 
HETATM    5  C26 UNL     1      36.292  -1.856  18.121  1.00  0.00     0.127 C 
HETATM    6  N6  UNL     1      36.558  -2.628  16.885  1.00  0.00    -0.337 N 
HETATM    7  C27 UNL     1      35.695  -3.640  16.503  1.00  0.00     0.243 C 
HETATM    8  O4  UNL     1      35.862  -4.407  15.492  1.00  0.00    -0.271 OA
ENDROOT
BRANCH   1   9
HETATM    9  C16 UNL     1      37.911  -2.288  14.807  1.00  0.00     0.241 C 
HETATM   10  N4  UNL     1      38.576  -3.438  14.221  1.00  0.00    -0.346 N 
ATOM     11  H4  UNL     1      38.922  -4.162  14.849  1.00  0.00     0.163 HD
HETATM   12  O2  UNL     1      37.532  -1.442  14.000  1.00  0.00    -0.271 OA
BRANCH  10  13
HETATM   13  C14 UNL     1      38.775  -3.615  12.820  1.00  0.00     0.172 C 
HETATM   14  C15 UNL     1      37.496  -4.048  12.159  1.00  0.00     0.042 C 
BRANCH  13  15
HETATM   15  C13 UNL     1      39.800  -4.691  12.548  1.00  0.00     0.240 C 
HETATM   16  N3  UNL     1      39.485  -5.947  11.989  1.00  0.00    -0.352 N 
ATOM     17  H3  UNL     1      38.520  -6.181  11.756  1.00  0.00     0.163 HD
HETATM   18  O1  UNL     1      41.002  -4.378  12.868  1.00  0.00    -0.271 OA
BRANCH  16  19
HETATM   19  C12 UNL     1      40.551  -6.903  11.748  1.00  0.00     0.114 C 
HETATM   20  C7  UNL     1      40.612  -7.320  10.299  1.00  0.00     0.092 C 
HETATM   21  C8  UNL     1      39.321  -8.100  10.227  1.00  0.00     0.156 C 
HETATM   22  N2  UNL     1      39.455  -8.931  11.440  1.00  0.00    -0.366 N 
HETATM   23  C11 UNL     1      40.170  -8.190  12.444  1.00  0.00     0.147 C 
ATOM     24  H2  UNL     1      39.098  -9.880  11.549  1.00  0.00     0.161 HD
BRANCH  20  25
HETATM   25  C6  UNL     1      40.737  -6.203   9.359  1.00  0.00     0.015 C 
BRANCH  25  26
HETATM   26  C5  UNL     1      42.118  -5.676   9.062  1.00  0.00     0.001 C 
BRANCH  26  27
HETATM   27  C4  UNL     1      42.334  -4.286   9.485  1.00  0.00     0.000 C 
BRANCH  27  28
HETATM   28  C3  UNL     1      43.538  -3.564   9.013  1.00  0.00    -0.000 C 
BRANCH  28  29
HETATM   29  C2  UNL     1      44.356  -2.815  10.005  1.00  0.00    -0.005 C 
HETATM   30  C1  UNL     1      43.726  -2.455  11.295  1.00  0.00     0.005 C 
ENDBRANCH  28  29
ENDBRANCH  27  28
ENDBRANCH  26  27
ENDBRANCH  25  26
ENDBRANCH  20  25
BRANCH  21  31
HETATM   31  N1  UNL     1      38.379  -8.155   9.512  1.00  0.00    -0.409 NA
BRANCH  31  32
HETATM   32  C9  UNL     1      37.257  -8.147   8.763  1.00  0.00     0.152 C 
HETATM   33  C10 UNL     1      36.352  -6.927   8.922  1.00  0.00     0.070 C 
ENDBRANCH  31  32
ENDBRANCH  21  31
ENDBRANCH  16  19
ENDBRANCH  13  15
ENDBRANCH  10  13
ENDBRANCH   1   9
BRANCH   3  34
HETATM   34  C20 UNL     1      39.943  -1.477  18.631  1.00  0.00     0.224 C 
HETATM   35  O3  UNL     1      40.063  -0.533  17.795  1.00  0.00    -0.273 OA
HETATM   36  N5  UNL     1      40.884  -1.586  19.667  1.00  0.00    -0.353 N 
BRANCH  36  37
HETATM   37  C21 UNL     1      41.951  -0.573  19.768  1.00  0.00     0.121 C 
HETATM   38  C22 UNL     1      41.756   0.345  20.927  1.00  0.00     0.026 C 
ENDBRANCH  36  37
BRANCH  36  39
HETATM   39  C23 UNL     1      40.851  -2.679  20.593  1.00  0.00     0.121 C 
HETATM   40  C24 UNL     1      41.797  -3.789  20.167  1.00  0.00     0.026 C 
ENDBRANCH  36  39
ENDBRANCH   3  34
BRANCH   7  41
HETATM   41  C28 UNL     1      34.438  -3.947  17.256  1.00  0.00     0.182 C 
BRANCH  41  42
HETATM   42  N7  UNL     1      33.549  -4.399  16.176  1.00  0.00    -0.332 N 
HETATM   43  C29 UNL     1      32.520  -3.848  15.473  1.00  0.00     0.329 C 
HETATM   44  N8  UNL     1      31.915  -4.684  14.422  1.00  0.00    -0.040 NA
HETATM   45  O5  UNL     1      31.996  -2.734  15.573  1.00  0.00    -0.251 OA
ATOM     46  H7  UNL     1      33.751  -5.355  15.882  1.00  0.00     0.164 HD
ENDBRANCH  41  42
BRANCH  41  47
HETATM   47  C30 UNL     1      34.678  -5.141  18.195  1.00  0.00     0.018 C 
HETATM   48  C31 UNL     1      34.896  -4.721  19.620  1.00  0.00     0.007 C 
HETATM   49  C32 UNL     1      33.695  -4.721  20.490  1.00  0.00     0.000 C 
HETATM   50  C33 UNL     1      33.124  -6.104  20.683  1.00  0.00     0.000 C 
HETATM   51  C34 UNL     1      33.234  -6.837  19.357  1.00  0.00     0.000 C 
HETATM   52  C35 UNL     1      33.290  -5.826  18.245  1.00  0.00     0.007 C 
ENDBRANCH  41  47
ENDBRANCH   7  41
TORSDOF 17
ENDMDL
MODEL 3
REMARK VINA RESULT: -6.508754605     10.464     15.599
REMARK  17 active torsions:
REMARK  status: ('A' for Active; 'I' for Inactive)
REMARK    1  A    between atoms: C2_2  and  C3_3 
REMARK    2  A    between atoms: C3_3  and  C4_4 
REMARK    3  A    between atoms: C4_4  and  C5_5 
REMARK    4  A    between atoms: C5_5  and  C6_6 
REMARK    5  A    between atoms: C6_6  and  C7_7 
REMARK    6  A    between atoms: C8_8  and  N1_9 
REMARK    7  A    between atoms: N1_9  and  C9_10 
REMARK    8  A    between atoms: C12_15  and  N3_16 
REMARK       I    between atoms: N3_16  and  C13_18 
REMARK    9  A    between atoms: C13_18  and  C14_20 
REMARK   10  A    between atoms: C14_20  and  N4_22 
REMARK       I    between atoms: N4_22  and  C16_24 
REMARK   11  A    between atoms: C16_24  and  C17_26 
REMARK   12  A    between atoms: C19_28  and  C20_29 
REMARK       I    between atoms: C20_29  and  N5_31 
REMARK   13  A    between atoms: N5_31  and  C21_32 
REMARK   14  A    between atoms: N5_31  and  C23_34 
REMARK       I    between atoms: N6_38  and  C27_39 
REMARK   15  A    between atoms: C27_39  and  C28_41 
REMARK   16  A    between atoms: C28_41  and  N7_42 
REMARK   17  A    between atoms: C28_41  and  C30_47 
REMARK       I    between atoms: N7_42  and  C29_44 
ROOT
HETATM    1  C17 UNL     1      49.414  -1.161  13.735  1.00  0.00     0.180 C 
HETATM    2  C18 UNL     1      50.818  -1.248  13.134  1.00  0.00     0.049 C 
HETATM    3  C19 UNL     1      51.655  -0.166  13.741  1.00  0.00     0.082 C 
HETATM    4  C25 UNL     1      51.154   0.551  14.931  1.00  0.00     0.034 C 
HETATM    5  C26 UNL     1      50.097  -0.084  15.785  1.00  0.00     0.127 C 
HETATM    6  N6  UNL     1      49.614  -1.322  15.130  1.00  0.00    -0.337 N 
HETATM    7  C27 UNL     1      49.445  -2.477  15.872  1.00  0.00     0.243 C 
HETATM    8  O4  UNL     1      49.093  -3.612  15.398  1.00  0.00    -0.271 OA
ENDROOT
BRANCH   1   9
HETATM    9  C16 UNL     1      48.393  -1.880  13.017  1.00  0.00     0.241 C 
HETATM   10  N4  UNL     1      48.746  -2.542  11.774  1.00  0.00    -0.346 N 
ATOM     11  H4  UNL     1      49.708  -2.463  11.447  1.00  0.00     0.163 HD
HETATM   12  O2  UNL     1      47.215  -1.997  13.350  1.00  0.00    -0.271 OA
BRANCH  10  13
HETATM   13  C14 UNL     1      47.829  -3.295  10.984  1.00  0.00     0.172 C 
HETATM   14  C15 UNL     1      48.430  -3.612   9.641  1.00  0.00     0.042 C 
BRANCH  13  15
HETATM   15  C13 UNL     1      46.562  -2.514  10.728  1.00  0.00     0.240 C 
HETATM   16  N3  UNL     1      45.267  -3.037  10.925  1.00  0.00    -0.352 N 
ATOM     17  H3  UNL     1      45.141  -3.998  11.244  1.00  0.00     0.163 HD
HETATM   18  O1  UNL     1      46.748  -1.316  10.310  1.00  0.00    -0.271 OA
BRANCH  16  19
HETATM   19  C12 UNL     1      44.115  -2.192  10.669  1.00  0.00     0.114 C 
HETATM   20  C7  UNL     1      42.820  -2.956  10.802  1.00  0.00     0.092 C 
HETATM   21  C8  UNL     1      42.958  -3.858   9.600  1.00  0.00     0.156 C 
HETATM   22  N2  UNL     1      43.352  -2.868   8.579  1.00  0.00    -0.366 N 
HETATM   23  C11 UNL     1      44.135  -1.834   9.200  1.00  0.00     0.147 C 
ATOM     24  H2  UNL     1      43.108  -2.909   7.589  1.00  0.00     0.161 HD
BRANCH  20  25
HETATM   25  C6  UNL     1      42.652  -3.631  12.092  1.00  0.00     0.015 C 
BRANCH  25  26
HETATM   26  C5  UNL     1      41.319  -4.268  12.392  1.00  0.00     0.001 C 
BRANCH  26  27
HETATM   27  C4  UNL     1      40.208  -3.313  12.501  1.00  0.00     0.000 C 
BRANCH  27  28
HETATM   28  C3  UNL     1      39.997  -2.589  13.775  1.00  0.00    -0.000 C 
BRANCH  28  29
HETATM   29  C2  UNL     1      38.659  -2.660  14.424  1.00  0.00    -0.005 C 
HETATM   30  C1  UNL     1      37.569  -3.344  13.693  1.00  0.00     0.005 C 
ENDBRANCH  28  29
ENDBRANCH  27  28
ENDBRANCH  26  27
ENDBRANCH  25  26
ENDBRANCH  20  25
BRANCH  21  31
HETATM   31  N1  UNL     1      42.841  -5.013   9.363  1.00  0.00    -0.409 NA
BRANCH  31  32
HETATM   32  C9  UNL     1      42.601  -6.315   9.104  1.00  0.00     0.152 C 
HETATM   33  C10 UNL     1      41.946  -7.114  10.228  1.00  0.00     0.070 C 
ENDBRANCH  31  32
ENDBRANCH  21  31
ENDBRANCH  16  19
ENDBRANCH  13  15
ENDBRANCH  10  13
ENDBRANCH   1   9
BRANCH   3  34
HETATM   34  C20 UNL     1      51.813   0.872  12.643  1.00  0.00     0.224 C 
HETATM   35  O3  UNL     1      50.869   1.698  12.469  1.00  0.00    -0.273 OA
HETATM   36  N5  UNL     1      52.948   0.960  11.821  1.00  0.00    -0.353 N 
BRANCH  36  37
HETATM   37  C21 UNL     1      53.017   2.037  10.817  1.00  0.00     0.121 C 
HETATM   38  C22 UNL     1      53.483   1.548   9.488  1.00  0.00     0.026 C 
ENDBRANCH  36  37
BRANCH  36  39
HETATM   39  C23 UNL     1      54.010   0.003  11.911  1.00  0.00     0.121 C 
HETATM   40  C24 UNL     1      55.169   0.544  12.732  1.00  0.00     0.026 C 
ENDBRANCH  36  39
ENDBRANCH   3  34
BRANCH   7  41
HETATM   41  C28 UNL     1      49.660  -2.515  17.354  1.00  0.00     0.182 C 
BRANCH  41  42
HETATM   42  N7  UNL     1      48.277  -2.502  17.854  1.00  0.00    -0.332 N 
HETATM   43  C29 UNL     1      47.345  -1.539  18.100  1.00  0.00     0.329 C 
HETATM   44  N8  UNL     1      46.033  -2.000  18.586  1.00  0.00    -0.040 NA
HETATM   45  O5  UNL     1      47.418  -0.312  17.981  1.00  0.00    -0.251 OA
ATOM     46  H7  UNL     1      47.934  -3.439  18.068  1.00  0.00     0.164 HD
ENDBRANCH  41  42
BRANCH  41  47
HETATM   47  C30 UNL     1      50.288  -3.861  17.749  1.00  0.00     0.018 C 
HETATM   48  C31 UNL     1      51.786  -3.852  17.645  1.00  0.00     0.007 C 
HETATM   49  C32 UNL     1      52.523  -3.535  18.893  1.00  0.00     0.000 C 
HETATM   50  C33 UNL     1      52.315  -4.576  19.965  1.00  0.00     0.000 C 
HETATM   51  C34 UNL     1      50.863  -5.017  19.904  1.00  0.00     0.000 C 
HETATM   52  C35 UNL     1      50.047  -3.920  19.277  1.00  0.00     0.007 C 
ENDBRANCH  41  47
ENDBRANCH   7  41
TORSDOF 17
ENDMDL
MODEL 4
REMARK VINA RESULT: -6.504114476      0.890      1.254
REMARK  17 active torsions:
REMARK  status: ('A' for Active; 'I' for Inactive)
REMARK    1  A    between atoms: C2_2  and  C3_3 
REMARK    2  A    between atoms: C3_3  and  C4_4 
REMARK    3  A    between atoms: C4_4  and  C5_5 
REMARK    4  A    between atoms: C5_5  and  C6_6 
REMARK    5  A    between atoms: C6_6  and  C7_7 
REMARK    6  A    between atoms: C8_8  and  N1_9 
REMARK    7  A    between atoms: N1_9  and  C9_10 
REMARK    8  A    between atoms: C12_15  and  N3_16 
REMARK       I    between atoms: N3_16  and  C13_18 
REMARK    9  A    between atoms: C13_18  and  C14_20 
REMARK   10  A    between atoms: C14_20  and  N4_22 
REMARK       I    between atoms: N4_22  and  C16_24 
REMARK   11  A    between atoms: C16_24  and  C17_26 
REMARK   12  A    between atoms: C19_28  and  C20_29 
REMARK       I    between atoms: C20_29  and  N5_31 
REMARK   13  A    between atoms: N5_31  and  C21_32 
REMARK   14  A    between atoms: N5_31  and  C23_34 
REMARK       I    between atoms: N6_38  and  C27_39 
REMARK   15  A    between atoms: C27_39  and  C28_41 
REMARK   16  A    between atoms: C28_41  and  N7_42 
REMARK   17  A    between atoms: C28_41  and  C30_47 
REMARK       I    between atoms: N7_42  and  C29_44 
ROOT
HETATM    1  C17 UNL     1      34.040  -6.306  14.991  1.00  0.00     0.180 C 
HETATM    2  C18 UNL     1      34.869  -7.112  15.993  1.00  0.00     0.049 C 
HETATM    3  C19 UNL     1      34.456  -8.547  15.895  1.00  0.00     0.082 C 
HETATM    4  C25 UNL     1      33.626  -8.982  14.753  1.00  0.00     0.034 C 
HETATM    5  C26 UNL     1      33.599  -8.154  13.502  1.00  0.00     0.127 C 
HETATM    6  N6  UNL     1      34.336  -6.890  13.733  1.00  0.00    -0.337 N 
HETATM    7  C27 UNL     1      35.230  -6.427  12.784  1.00  0.00     0.243 C 
HETATM    8  O4  UNL     1      35.961  -5.384  12.909  1.00  0.00    -0.271 OA
ENDROOT
BRANCH   1   9
HETATM    9  C16 UNL     1      34.045  -4.880  15.197  1.00  0.00     0.241 C 
HETATM   10  N4  UNL     1      35.308  -4.216  15.464  1.00  0.00    -0.346 N 
ATOM     11  H4  UNL     1      36.150  -4.790  15.509  1.00  0.00     0.163 HD
HETATM   12  O2  UNL     1      33.065  -4.138  15.171  1.00  0.00    -0.271 OA
BRANCH  10  13
HETATM   13  C14 UNL     1      35.443  -2.812  15.668  1.00  0.00     0.172 C 
HETATM   14  C15 UNL     1      36.526  -2.255  14.785  1.00  0.00     0.042 C 
BRANCH  13  15
HETATM   15  C13 UNL     1      35.834  -2.504  17.095  1.00  0.00     0.240 C 
HETATM   16  N3  UNL     1      36.233  -3.486  18.025  1.00  0.00    -0.352 N 
ATOM     17  H3  UNL     1      36.256  -4.470  17.759  1.00  0.00     0.163 HD
HETATM   18  O1  UNL     1      35.777  -1.262  17.408  1.00  0.00    -0.271 OA
BRANCH  16  19
HETATM   19  C12 UNL     1      36.609  -3.079  19.367  1.00  0.00     0.114 C 
HETATM   20  C7  UNL     1      37.427  -4.139  20.064  1.00  0.00     0.092 C 
HETATM   21  C8  UNL     1      36.355  -5.189  20.227  1.00  0.00     0.156 C 
HETATM   22  N2  UNL     1      35.259  -4.358  20.763  1.00  0.00    -0.366 N 
HETATM   23  C11 UNL     1      35.346  -3.039  20.198  1.00  0.00     0.147 C 
ATOM     24  H2  UNL     1      34.552  -4.670  21.428  1.00  0.00     0.161 HD
BRANCH  20  25
HETATM   25  C6  UNL     1      38.623  -4.554  19.327  1.00  0.00     0.015 C 
BRANCH  25  26
HETATM   26  C5  UNL     1      39.916  -3.832  19.608  1.00  0.00     0.001 C 
BRANCH  26  27
HETATM   27  C4  UNL     1      40.531  -3.217  18.424  1.00  0.00     0.000 C 
BRANCH  27  28
HETATM   28  C3  UNL     1      39.668  -2.791  17.299  1.00  0.00    -0.000 C 
BRANCH  28  29
HETATM   29  C2  UNL     1      39.397  -1.338  17.117  1.00  0.00    -0.005 C 
HETATM   30  C1  UNL     1      39.104  -0.530  18.322  1.00  0.00     0.005 C 
ENDBRANCH  28  29
ENDBRANCH  27  28
ENDBRANCH  26  27
ENDBRANCH  25  26
ENDBRANCH  20  25
BRANCH  21  31
HETATM   31  N1  UNL     1      36.243  -6.352  20.030  1.00  0.00    -0.409 NA
BRANCH  31  32
HETATM   32  C9  UNL     1      36.135  -7.656  19.701  1.00  0.00     0.152 C 
HETATM   33  C10 UNL     1      37.220  -8.208  18.779  1.00  0.00     0.070 C 
ENDBRANCH  31  32
ENDBRANCH  21  31
ENDBRANCH  16  19
ENDBRANCH  13  15
ENDBRANCH  10  13
ENDBRANCH   1   9
BRANCH   3  34
HETATM   34  C20 UNL     1      33.640  -8.808  17.149  1.00  0.00     0.224 C 
HETATM   35  O3  UNL     1      32.739  -7.972  17.454  1.00  0.00    -0.273 OA
HETATM   36  N5  UNL     1      33.833  -9.926  17.977  1.00  0.00    -0.353 N 
BRANCH  36  37
HETATM   37  C21 UNL     1      32.952 -10.106  19.144  1.00  0.00     0.121 C 
HETATM   38  C22 UNL     1      31.739 -10.912  18.822  1.00  0.00     0.026 C 
ENDBRANCH  36  37
BRANCH  36  39
HETATM   39  C23 UNL     1      34.891 -10.861  17.733  1.00  0.00     0.121 C 
HETATM   40  C24 UNL     1      34.438 -11.973  16.802  1.00  0.00     0.026 C 
ENDBRANCH  36  39
ENDBRANCH   3  34
BRANCH   7  41
HETATM   41  C28 UNL     1      35.436  -7.120  11.472  1.00  0.00     0.182 C 
BRANCH  41  42
HETATM   42  N7  UNL     1      34.378  -6.514  10.649  1.00  0.00    -0.332 N 
HETATM   43  C29 UNL     1      34.272  -5.397   9.876  1.00  0.00     0.329 C 
HETATM   44  N8  UNL     1      32.988  -5.193   9.184  1.00  0.00    -0.040 NA
HETATM   45  O5  UNL     1      35.095  -4.504   9.653  1.00  0.00    -0.251 OA
ATOM     46  H7  UNL     1      33.518  -7.062  10.660  1.00  0.00     0.164 HD
ENDBRANCH  41  42
BRANCH  41  47
HETATM   47  C30 UNL     1      36.789  -6.702  10.876  1.00  0.00     0.018 C 
HETATM   48  C31 UNL     1      37.954  -7.192  11.687  1.00  0.00     0.007 C 
HETATM   49  C32 UNL     1      38.552  -8.479  11.256  1.00  0.00     0.000 C 
HETATM   50  C33 UNL     1      39.173  -8.395   9.884  1.00  0.00     0.000 C 
HETATM   51  C34 UNL     1      38.272  -7.526   9.023  1.00  0.00     0.000 C 
HETATM   52  C35 UNL     1      36.879  -7.558   9.589  1.00  0.00     0.007 C 
ENDBRANCH  41  47
ENDBRANCH   7  41
TORSDOF 17
ENDMDL
MODEL 5
REMARK VINA RESULT: -6.374365143     10.301     14.644
REMARK  17 active torsions:
REMARK  status: ('A' for Active; 'I' for Inactive)
REMARK    1  A    between atoms: C2_2  and  C3_3 
REMARK    2  A    between atoms: C3_3  and  C4_4 
REMARK    3  A    between atoms: C4_4  and  C5_5 
REMARK    4  A    between atoms: C5_5  and  C6_6 
REMARK    5  A    between atoms: C6_6  and  C7_7 
REMARK    6  A    between atoms: C8_8  and  N1_9 
REMARK    7  A    between atoms: N1_9  and  C9_10 
REMARK    8  A    between atoms: C12_15  and  N3_16 
REMARK       I    between atoms: N3_16  and  C13_18 
REMARK    9  A    between atoms: C13_18  and  C14_20 
REMARK   10  A    between atoms: C14_20  and  N4_22 
REMARK       I    between atoms: N4_22  and  C16_24 
REMARK   11  A    between atoms: C16_24  and  C17_26 
REMARK   12  A    between atoms: C19_28  and  C20_29 
REMARK       I    between atoms: C20_29  and  N5_31 
REMARK   13  A    between atoms: N5_31  and  C21_32 
REMARK   14  A    between atoms: N5_31  and  C23_34 
REMARK       I    between atoms: N6_38  and  C27_39 
REMARK   15  A    between atoms: C27_39  and  C28_41 
REMARK   16  A    between atoms: C28_41  and  N7_42 
REMARK   17  A    between atoms: C28_41  and  C30_47 
REMARK       I    between atoms: N7_42  and  C29_44 
ROOT
HETATM    1  C17 UNL     1      48.795  -1.941  14.250  1.00  0.00     0.180 C 
HETATM    2  C18 UNL     1      48.006  -1.435  15.458  1.00  0.00     0.049 C 
HETATM    3  C19 UNL     1      48.886  -1.534  16.666  1.00  0.00     0.082 C 
HETATM    4  C25 UNL     1      50.331  -1.780  16.487  1.00  0.00     0.034 C 
HETATM    5  C26 UNL     1      50.976  -1.465  15.169  1.00  0.00     0.127 C 
HETATM    6  N6  UNL     1      49.931  -1.095  14.187  1.00  0.00    -0.337 N 
HETATM    7  C27 UNL     1      50.114   0.003  13.364  1.00  0.00     0.243 C 
HETATM    8  O4  UNL     1      49.254   0.446  12.527  1.00  0.00    -0.271 OA
ENDROOT
BRANCH   1   9
HETATM    9  C16 UNL     1      48.004  -2.253  13.087  1.00  0.00     0.241 C 
HETATM   10  N4  UNL     1      48.653  -2.875  11.946  1.00  0.00    -0.346 N 
ATOM     11  H4  UNL     1      49.655  -3.058  12.007  1.00  0.00     0.163 HD
HETATM   12  O2  UNL     1      46.801  -2.043  12.947  1.00  0.00    -0.271 OA
BRANCH  10  13
HETATM   13  C14 UNL     1      47.976  -3.244  10.748  1.00  0.00     0.172 C 
HETATM   14  C15 UNL     1      48.831  -2.943   9.547  1.00  0.00     0.042 C 
BRANCH  13  15
HETATM   15  C13 UNL     1      46.693  -2.463  10.584  1.00  0.00     0.240 C 
HETATM   16  N3  UNL     1      45.409  -3.034  10.703  1.00  0.00    -0.352 N 
ATOM     17  H3  UNL     1      45.303  -4.030  10.895  1.00  0.00     0.163 HD
HETATM   18  O1  UNL     1      46.856  -1.218  10.325  1.00  0.00    -0.271 OA
BRANCH  16  19
HETATM   19  C12 UNL     1      44.240  -2.187  10.549  1.00  0.00     0.114 C 
HETATM   20  C7  UNL     1      42.960  -2.955  10.767  1.00  0.00     0.092 C 
HETATM   21  C8  UNL     1      43.007  -3.837   9.543  1.00  0.00     0.156 C 
HETATM   22  N2  UNL     1      43.322  -2.830   8.511  1.00  0.00    -0.366 N 
HETATM   23  C11 UNL     1      44.149  -1.805   9.089  1.00  0.00     0.147 C 
ATOM     24  H2  UNL     1      43.003  -2.856   7.543  1.00  0.00     0.161 HD
BRANCH  20  25
HETATM   25  C6  UNL     1      42.891  -3.650  12.054  1.00  0.00     0.015 C 
BRANCH  25  26
HETATM   26  C5  UNL     1      41.567  -4.236  12.476  1.00  0.00     0.001 C 
BRANCH  26  27
HETATM   27  C4  UNL     1      40.448  -3.285  12.432  1.00  0.00     0.000 C 
BRANCH  27  28
HETATM   28  C3  UNL     1      39.991  -2.645  13.686  1.00  0.00    -0.000 C 
BRANCH  28  29
HETATM   29  C2  UNL     1      38.619  -2.943  14.182  1.00  0.00    -0.005 C 
HETATM   30  C1  UNL     1      37.707  -3.692  13.290  1.00  0.00     0.005 C 
ENDBRANCH  28  29
ENDBRANCH  27  28
ENDBRANCH  26  27
ENDBRANCH  25  26
ENDBRANCH  20  25
BRANCH  21  31
HETATM   31  N1  UNL     1      42.872  -4.988   9.298  1.00  0.00    -0.409 NA
BRANCH  31  32
HETATM   32  C9  UNL     1      42.628  -6.296   9.074  1.00  0.00     0.152 C 
HETATM   33  C10 UNL     1      41.909  -7.045  10.194  1.00  0.00     0.070 C 
ENDBRANCH  31  32
ENDBRANCH  21  31
ENDBRANCH  16  19
ENDBRANCH  13  15
ENDBRANCH  10  13
ENDBRANCH   1   9
BRANCH   3  34
HETATM   34  C20 UNL     1      48.339  -2.710  17.455  1.00  0.00     0.224 C 
HETATM   35  O3  UNL     1      48.717  -3.873  17.123  1.00  0.00    -0.273 OA
HETATM   36  N5  UNL     1      47.446  -2.571  18.530  1.00  0.00    -0.353 N 
BRANCH  36  37
HETATM   37  C21 UNL     1      47.016  -3.779  19.258  1.00  0.00     0.121 C 
HETATM   38  C22 UNL     1      47.784  -3.986  20.519  1.00  0.00     0.026 C 
ENDBRANCH  36  37
BRANCH  36  39
HETATM   39  C23 UNL     1      46.917  -1.292  18.899  1.00  0.00     0.121 C 
HETATM   40  C24 UNL     1      45.424  -1.372  19.171  1.00  0.00     0.026 C 
ENDBRANCH  36  39
ENDBRANCH   3  34
BRANCH   7  41
HETATM   41  C28 UNL     1      51.378   0.806  13.369  1.00  0.00     0.182 C 
BRANCH  41  42
HETATM   42  N7  UNL     1      51.820   0.670  11.973  1.00  0.00    -0.332 N 
HETATM   43  C29 UNL     1      52.684  -0.145  11.306  1.00  0.00     0.329 C 
HETATM   44  N8  UNL     1      52.798   0.063   9.852  1.00  0.00    -0.040 NA
HETATM   45  O5  UNL     1      53.407  -1.053  11.728  1.00  0.00    -0.251 OA
ATOM     46  H7  UNL     1      51.372   1.349  11.357  1.00  0.00     0.164 HD
ENDBRANCH  41  42
BRANCH  41  47
HETATM   47  C30 UNL     1      51.046   2.287  13.613  1.00  0.00     0.018 C 
HETATM   48  C31 UNL     1      50.446   2.530  14.967  1.00  0.00     0.007 C 
HETATM   49  C32 UNL     1      51.394   2.923  16.038  1.00  0.00     0.000 C 
HETATM   50  C33 UNL     1      52.045   4.257  15.770  1.00  0.00     0.000 C 
HETATM   51  C34 UNL     1      52.338   4.336  14.282  1.00  0.00     0.000 C 
HETATM   52  C35 UNL     1      52.445   2.939  13.732  1.00  0.00     0.007 C 
ENDBRANCH  41  47
ENDBRANCH   7  41
TORSDOF 17
ENDMDL
