MODEL 1
REMARK VINA RESULT: -6.112911858      0.000      0.000
REMARK  19 active torsions:
REMARK  status: ('A' for Active; 'I' for Inactive)
REMARK    1  A    between atoms: C2_2  and  C3_3 
REMARK    2  A    between atoms: C3_3  and  C4_4 
REMARK    3  A    between atoms: C4_4  and  C5_5 
REMARK    4  A    between atoms: C5_5  and  C6_6 
REMARK    5  A    between atoms: C6_6  and  C7_7 
REMARK    6  A    between atoms: C8_10  and  O1_11 
REMARK    7  A    between atoms: C11_15  and  C12_16 
REMARK    8  A    between atoms: C12_16  and  N4_22 
REMARK    9  A    between atoms: N2_17  and  N3_19 
REMARK   10  A    between atoms: N4_22  and  C13_24 
REMARK   11  A    between atoms: C13_24  and  C14_25 
REMARK   12  A    between atoms: C13_24  and  C18_29 
REMARK   13  A    between atoms: C14_25  and  C15_26 
REMARK   14  A    between atoms: C22_38  and  C23_39 
REMARK   15  A    between atoms: C23_39  and  C24_40 
REMARK   16  A    between atoms: C24_40  and  C25_41 
REMARK   17  A    between atoms: C25_41  and  C26_42 
REMARK   18  A    between atoms: C26_42  and  C27_43 
REMARK   19  A    between atoms: C35_54  and  O5_55 
ROOT
HETATM    1  C7  UNL     1      46.414   0.176  18.930  1.00  0.00     0.062 C 
HETATM    2  N1  UNL     1      46.351  -0.197  17.537  1.00  0.00    -0.339 N 
ATOM      3  H1  UNL     1      45.433  -0.573  17.301  1.00  0.00     0.167 HD
HETATM    4  C8  UNL     1      47.171  -0.190  16.442  1.00  0.00     0.139 C 
HETATM    5  C9  UNL     1      48.296  -0.959  15.893  1.00  0.00     0.162 C 
HETATM    6  C10 UNL     1      47.875  -1.530  14.528  1.00  0.00     0.047 C 
HETATM    7  C11 UNL     1      48.550  -0.944  13.346  1.00  0.00     0.069 C 
HETATM    8  C19 UNL     1      48.869  -2.073  12.396  1.00  0.00     0.085 C 
HETATM    9  C20 UNL     1      48.799  -1.692  10.936  1.00  0.00     0.020 C 
HETATM   10  C21 UNL     1      50.164  -2.744  12.645  1.00  0.00     0.223 C 
HETATM   11  O3  UNL     1      50.949  -2.968  11.641  1.00  0.00    -0.273 OA
HETATM   12  N6  UNL     1      50.669  -3.189  13.882  1.00  0.00    -0.347 N 
ATOM     13  H6  UNL     1      50.869  -4.188  13.942  1.00  0.00     0.163 HD
HETATM   14  C22 UNL     1      50.941  -2.430  15.069  1.00  0.00     0.176 C 
HETATM   15  C29 UNL     1      49.892  -2.793  16.067  1.00  0.00     0.243 C 
HETATM   16  O4  UNL     1      49.913  -4.034  16.408  1.00  0.00    -0.271 OA
HETATM   17  N7  UNL     1      48.927  -1.952  16.649  1.00  0.00    -0.336 N 
HETATM   18  C30 UNL     1      48.681  -2.202  18.094  1.00  0.00     0.152 C 
HETATM   19  C31 UNL     1      49.467  -1.175  18.789  1.00  0.00     0.104 C 
HETATM   20  C32 UNL     1      50.591  -1.903  19.556  1.00  0.00     0.028 C 
HETATM   21  C33 UNL     1      50.932  -0.786  20.554  1.00  0.00     0.022 C 
HETATM   22  C34 UNL     1      49.533  -0.544  21.051  1.00  0.00     0.125 C 
HETATM   23  N8  UNL     1      48.803  -0.361  19.768  1.00  0.00    -0.354 N 
HETATM   24  C35 UNL     1      47.677   0.468  19.540  1.00  0.00     0.161 C 
ENDROOT
BRANCH   7  25
HETATM   25  C12 UNL     1      47.683   0.061  12.632  1.00  0.00     0.097 C 
HETATM   26  N2  UNL     1      48.155   1.236  12.460  1.00  0.00    -0.295 N 
ATOM     27  H2  UNL     1      47.596   1.942  11.980  1.00  0.00     0.187 HD
BRANCH  26  28
HETATM   28  N3  UNL     1      49.421   1.556  12.923  1.00  0.00    -0.344 N 
ATOM     29  H32 UNL     1      50.191   0.915  12.733  1.00  0.00     0.176 HD
ATOM     30  H31 UNL     1      49.576   2.419  13.443  1.00  0.00     0.176 HD
ENDBRANCH  26  28
BRANCH  25  31
HETATM   31  N4  UNL     1      46.399  -0.313  12.161  1.00  0.00    -0.365 N 
ATOM     32  H4  UNL     1      46.034  -1.206  12.496  1.00  0.00     0.161 HD
BRANCH  31  33
HETATM   33  C13 UNL     1      45.560   0.426  11.267  1.00  0.00     0.172 C 
BRANCH  33  34
HETATM   34  C14 UNL     1      44.921  -0.419  10.200  1.00  0.00     0.039 C 
BRANCH  34  35
HETATM   35  C15 UNL     1      45.034  -1.878  10.566  1.00  0.00    -0.012 A 
HETATM   36  C16 UNL     1      43.838  -2.617  11.048  1.00  0.00     0.005 A 
HETATM   37  C17 UNL     1      44.296  -2.814   9.599  1.00  0.00     0.005 A 
ENDBRANCH  34  35
ENDBRANCH  33  34
BRANCH  33  38
HETATM   38  C18 UNL     1      44.497   1.150  12.012  1.00  0.00     0.253 C 
HETATM   39  N5  UNL     1      44.580   1.686  13.304  1.00  0.00    -0.060 NA
HETATM   40  O2  UNL     1      43.371   1.311  11.423  1.00  0.00    -0.275 OA
ENDBRANCH  33  38
ENDBRANCH  31  33
ENDBRANCH  25  31
ENDBRANCH   7  25
BRANCH   4  41
HETATM   41  O1  UNL     1      46.925   0.770  15.582  1.00  0.00    -0.348 OA
ATOM     42  H1  UNL     1      47.684   1.066  15.092  1.00  0.00     0.219 HD
ENDBRANCH   4  41
BRANCH  14  43
HETATM   43  C23 UNL     1      52.245  -2.930  15.734  1.00  0.00     0.035 C 
BRANCH  43  44
HETATM   44  C24 UNL     1      53.268  -1.793  15.833  1.00  0.00     0.002 C 
BRANCH  44  45
HETATM   45  C25 UNL     1      53.394  -1.284  17.224  1.00  0.00     0.000 C 
BRANCH  45  46
HETATM   46  C26 UNL     1      52.911   0.105  17.400  1.00  0.00    -0.000 C 
BRANCH  46  47
HETATM   47  C27 UNL     1      52.146   0.779  16.335  1.00  0.00    -0.005 C 
HETATM   48  C28 UNL     1      50.897   1.492  16.670  1.00  0.00     0.005 C 
ENDBRANCH  46  47
ENDBRANCH  45  46
ENDBRANCH  44  45
ENDBRANCH  43  44
ENDBRANCH  14  43
BRANCH   1  49
HETATM   49  C6  UNL     1      45.486  -0.719  19.778  1.00  0.00     0.062 C 
BRANCH  49  50
HETATM   50  C5  UNL     1      44.103  -0.209  19.877  1.00  0.00     0.006 C 
BRANCH  50  51
HETATM   51  C4  UNL     1      44.169   1.288  20.112  1.00  0.00     0.000 C 
BRANCH  51  52
HETATM   52  C3  UNL     1      43.695   1.735  21.448  1.00  0.00    -0.000 C 
BRANCH  52  53
HETATM   53  C2  UNL     1      42.626   2.807  21.173  1.00  0.00    -0.005 C 
HETATM   54  C1  UNL     1      42.671   3.804  22.338  1.00  0.00     0.005 C 
ENDBRANCH  52  53
ENDBRANCH  51  52
ENDBRANCH  50  51
ENDBRANCH  49  50
ENDBRANCH   1  49
BRANCH  24  55
HETATM   55  O5  UNL     1      47.867   1.686  19.975  1.00  0.00    -0.345 OA
ATOM     56  H5  UNL     1      48.398   2.263  19.440  1.00  0.00     0.219 HD
ENDBRANCH  24  55
TORSDOF 19
ENDMDL
MODEL 2
REMARK VINA RESULT: -6.092993957      1.302      2.297
REMARK  19 active torsions:
REMARK  status: ('A' for Active; 'I' for Inactive)
REMARK    1  A    between atoms: C2_2  and  C3_3 
REMARK    2  A    between atoms: C3_3  and  C4_4 
REMARK    3  A    between atoms: C4_4  and  C5_5 
REMARK    4  A    between atoms: C5_5  and  C6_6 
REMARK    5  A    between atoms: C6_6  and  C7_7 
REMARK    6  A    between atoms: C8_10  and  O1_11 
REMARK    7  A    between atoms: C11_15  and  C12_16 
REMARK    8  A    between atoms: C12_16  and  N4_22 
REMARK    9  A    between atoms: N2_17  and  N3_19 
REMARK   10  A    between atoms: N4_22  and  C13_24 
REMARK   11  A    between atoms: C13_24  and  C14_25 
REMARK   12  A    between atoms: C13_24  and  C18_29 
REMARK   13  A    between atoms: C14_25  and  C15_26 
REMARK   14  A    between atoms: C22_38  and  C23_39 
REMARK   15  A    between atoms: C23_39  and  C24_40 
REMARK   16  A    between atoms: C24_40  and  C25_41 
REMARK   17  A    between atoms: C25_41  and  C26_42 
REMARK   18  A    between atoms: C26_42  and  C27_43 
REMARK   19  A    between atoms: C35_54  and  O5_55 
ROOT
HETATM    1  C7  UNL     1      46.418   0.172  18.924  1.00  0.00     0.062 C 
HETATM    2  N1  UNL     1      46.360  -0.203  17.531  1.00  0.00    -0.339 N 
ATOM      3  H1  UNL     1      45.443  -0.580  17.293  1.00  0.00     0.167 HD
HETATM    4  C8  UNL     1      47.183  -0.195  16.439  1.00  0.00     0.139 C 
HETATM    5  C9  UNL     1      48.311  -0.962  15.894  1.00  0.00     0.162 C 
HETATM    6  C10 UNL     1      47.896  -1.534  14.528  1.00  0.00     0.047 C 
HETATM    7  C11 UNL     1      48.574  -0.948  13.348  1.00  0.00     0.069 C 
HETATM    8  C19 UNL     1      48.898  -2.078  12.400  1.00  0.00     0.085 C 
HETATM    9  C20 UNL     1      48.832  -1.697  10.939  1.00  0.00     0.020 C 
HETATM   10  C21 UNL     1      50.194  -2.746  12.653  1.00  0.00     0.223 C 
HETATM   11  O3  UNL     1      50.981  -2.969  11.652  1.00  0.00    -0.273 OA
HETATM   12  N6  UNL     1      50.695  -3.189  13.892  1.00  0.00    -0.347 N 
ATOM     13  H6  UNL     1      50.896  -4.187  13.954  1.00  0.00     0.163 HD
HETATM   14  C22 UNL     1      50.962  -2.429  15.080  1.00  0.00     0.176 C 
HETATM   15  C29 UNL     1      49.910  -2.792  16.074  1.00  0.00     0.243 C 
HETATM   16  O4  UNL     1      49.932  -4.034  16.416  1.00  0.00    -0.271 OA
HETATM   17  N7  UNL     1      48.941  -1.953  16.653  1.00  0.00    -0.336 N 
HETATM   18  C30 UNL     1      48.692  -2.202  18.097  1.00  0.00     0.152 C 
HETATM   19  C31 UNL     1      49.473  -1.174  18.794  1.00  0.00     0.104 C 
HETATM   20  C32 UNL     1      50.596  -1.900  19.565  1.00  0.00     0.028 C 
HETATM   21  C33 UNL     1      50.932  -0.782  20.563  1.00  0.00     0.022 C 
HETATM   22  C34 UNL     1      49.531  -0.541  21.055  1.00  0.00     0.125 C 
HETATM   23  N8  UNL     1      48.805  -0.361  19.771  1.00  0.00    -0.354 N 
HETATM   24  C35 UNL     1      47.678   0.467  19.538  1.00  0.00     0.161 C 
ENDROOT
BRANCH   7  25
HETATM   25  C12 UNL     1      47.707   0.055  12.630  1.00  0.00     0.097 C 
HETATM   26  N2  UNL     1      48.175   1.232  12.464  1.00  0.00    -0.295 N 
ATOM     27  H2  UNL     1      47.617   1.937  11.981  1.00  0.00     0.187 HD
BRANCH  26  28
HETATM   28  N3  UNL     1      49.438   1.556  12.934  1.00  0.00    -0.344 N 
ATOM     29  H32 UNL     1      49.928   2.350  12.523  1.00  0.00     0.176 HD
ATOM     30  H31 UNL     1      49.866   1.007  13.680  1.00  0.00     0.176 HD
ENDBRANCH  26  28
BRANCH  25  31
HETATM   31  N4  UNL     1      46.428  -0.324  12.151  1.00  0.00    -0.365 N 
ATOM     32  H4  UNL     1      46.068  -1.221  12.475  1.00  0.00     0.161 HD
BRANCH  31  33
HETATM   33  C13 UNL     1      45.587   0.419  11.261  1.00  0.00     0.172 C 
BRANCH  33  34
HETATM   34  C14 UNL     1      44.951  -0.421  10.189  1.00  0.00     0.039 C 
BRANCH  34  35
HETATM   35  C15 UNL     1      45.097  -1.884  10.528  1.00  0.00    -0.012 A 
HETATM   36  C16 UNL     1      43.934  -2.643  11.054  1.00  0.00     0.005 A 
HETATM   37  C17 UNL     1      44.327  -2.816   9.583  1.00  0.00     0.005 A 
ENDBRANCH  34  35
ENDBRANCH  33  34
BRANCH  33  38
HETATM   38  C18 UNL     1      44.521   1.135  12.010  1.00  0.00     0.253 C 
HETATM   39  N5  UNL     1      44.612   1.691  13.293  1.00  0.00    -0.060 NA
HETATM   40  O2  UNL     1      43.385   1.267  11.434  1.00  0.00    -0.275 OA
ENDBRANCH  33  38
ENDBRANCH  31  33
ENDBRANCH  25  31
ENDBRANCH   7  25
BRANCH   4  41
HETATM   41  O1  UNL     1      46.938   0.765  15.577  1.00  0.00    -0.348 OA
ATOM     42  H1  UNL     1      46.731   0.464  14.700  1.00  0.00     0.219 HD
ENDBRANCH   4  41
BRANCH  14  43
HETATM   43  C23 UNL     1      52.264  -2.926  15.749  1.00  0.00     0.035 C 
BRANCH  43  44
HETATM   44  C24 UNL     1      52.868  -1.828  16.632  1.00  0.00     0.002 C 
BRANCH  44  45
HETATM   45  C25 UNL     1      52.546  -0.470  16.121  1.00  0.00     0.000 C 
BRANCH  45  46
HETATM   46  C26 UNL     1      52.363   0.543  17.186  1.00  0.00    -0.000 C 
BRANCH  46  47
HETATM   47  C27 UNL     1      51.224   1.478  17.150  1.00  0.00    -0.005 C 
HETATM   48  C28 UNL     1      50.918   2.305  18.335  1.00  0.00     0.005 C 
ENDBRANCH  46  47
ENDBRANCH  45  46
ENDBRANCH  44  45
ENDBRANCH  43  44
ENDBRANCH  14  43
BRANCH   1  49
HETATM   49  C6  UNL     1      45.489  -0.724  19.770  1.00  0.00     0.062 C 
BRANCH  49  50
HETATM   50  C5  UNL     1      45.421  -2.121  19.292  1.00  0.00     0.006 C 
BRANCH  50  51
HETATM   51  C4  UNL     1      45.904  -3.025  20.409  1.00  0.00     0.000 C 
BRANCH  51  52
HETATM   52  C3  UNL     1      46.047  -4.458  20.040  1.00  0.00    -0.000 C 
BRANCH  52  53
HETATM   53  C2  UNL     1      47.501  -4.831  20.380  1.00  0.00    -0.005 C 
HETATM   54  C1  UNL     1      47.971  -3.872  21.482  1.00  0.00     0.005 C 
ENDBRANCH  52  53
ENDBRANCH  51  52
ENDBRANCH  50  51
ENDBRANCH  49  50
ENDBRANCH   1  49
BRANCH  24  55
HETATM   55  O5  UNL     1      47.864   1.685  19.973  1.00  0.00    -0.345 OA
ATOM     56  H5  UNL     1      48.749   2.028  19.945  1.00  0.00     0.219 HD
ENDBRANCH  24  55
TORSDOF 19
ENDMDL
MODEL 3
REMARK VINA RESULT: -6.029892291      1.526      2.422
REMARK  19 active torsions:
REMARK  status: ('A' for Active; 'I' for Inactive)
REMARK    1  A    between atoms: C2_2  and  C3_3 
REMARK    2  A    between atoms: C3_3  and  C4_4 
REMARK    3  A    between atoms: C4_4  and  C5_5 
REMARK    4  A    between atoms: C5_5  and  C6_6 
REMARK    5  A    between atoms: C6_6  and  C7_7 
REMARK    6  A    between atoms: C8_10  and  O1_11 
REMARK    7  A    between atoms: C11_15  and  C12_16 
REMARK    8  A    between atoms: C12_16  and  N4_22 
REMARK    9  A    between atoms: N2_17  and  N3_19 
REMARK   10  A    between atoms: N4_22  and  C13_24 
REMARK   11  A    between atoms: C13_24  and  C14_25 
REMARK   12  A    between atoms: C13_24  and  C18_29 
REMARK   13  A    between atoms: C14_25  and  C15_26 
REMARK   14  A    between atoms: C22_38  and  C23_39 
REMARK   15  A    between atoms: C23_39  and  C24_40 
REMARK   16  A    between atoms: C24_40  and  C25_41 
REMARK   17  A    between atoms: C25_41  and  C26_42 
REMARK   18  A    between atoms: C26_42  and  C27_43 
REMARK   19  A    between atoms: C35_54  and  O5_55 
ROOT
HETATM    1  C7  UNL     1      45.934   0.136  18.968  1.00  0.00     0.062 C 
HETATM    2  N1  UNL     1      46.014  -0.231  17.575  1.00  0.00    -0.339 N 
ATOM      3  H1  UNL     1      45.126  -0.606  17.244  1.00  0.00     0.167 HD
HETATM    4  C8  UNL     1      46.943  -0.219  16.571  1.00  0.00     0.139 C 
HETATM    5  C9  UNL     1      48.119  -0.985  16.137  1.00  0.00     0.162 C 
HETATM    6  C10 UNL     1      47.842  -1.550  14.733  1.00  0.00     0.047 C 
HETATM    7  C11 UNL     1      48.635  -0.958  13.630  1.00  0.00     0.069 C 
HETATM    8  C19 UNL     1      49.051  -2.084  12.713  1.00  0.00     0.085 C 
HETATM    9  C20 UNL     1      49.132  -1.696  11.255  1.00  0.00     0.020 C 
HETATM   10  C21 UNL     1      50.314  -2.756  13.091  1.00  0.00     0.223 C 
HETATM   11  O3  UNL     1      51.197  -2.975  12.173  1.00  0.00    -0.273 OA
HETATM   12  N6  UNL     1      50.688  -3.207  14.371  1.00  0.00    -0.347 N 
ATOM     13  H6  UNL     1      50.881  -4.205  14.447  1.00  0.00     0.163 HD
HETATM   14  C22 UNL     1      50.836  -2.453  15.584  1.00  0.00     0.176 C 
HETATM   15  C29 UNL     1      49.690  -2.820  16.466  1.00  0.00     0.243 C 
HETATM   16  O4  UNL     1      49.676  -4.063  16.802  1.00  0.00    -0.271 OA
HETATM   17  N7  UNL     1      48.669  -1.981  16.950  1.00  0.00    -0.336 N 
HETATM   18  C30 UNL     1      48.276  -2.238  18.360  1.00  0.00     0.152 C 
HETATM   19  C31 UNL     1      48.985  -1.215  19.138  1.00  0.00     0.104 C 
HETATM   20  C32 UNL     1      50.024  -1.947  20.013  1.00  0.00     0.028 C 
HETATM   21  C33 UNL     1      50.260  -0.835  21.046  1.00  0.00     0.022 C 
HETATM   22  C34 UNL     1      48.817  -0.594  21.397  1.00  0.00     0.125 C 
HETATM   23  N8  UNL     1      48.223  -0.406  20.047  1.00  0.00    -0.354 N 
HETATM   24  C35 UNL     1      47.126   0.425  19.707  1.00  0.00     0.161 C 
ENDROOT
BRANCH   7  25
HETATM   25  C12 UNL     1      47.846   0.050  12.834  1.00  0.00     0.097 C 
HETATM   26  N2  UNL     1      48.421   1.152  12.536  1.00  0.00    -0.295 N 
ATOM     27  H2  UNL     1      47.917   1.857  11.998  1.00  0.00     0.187 HD
BRANCH  26  28
HETATM   28  N3  UNL     1      49.724   1.392  12.939  1.00  0.00    -0.344 N 
ATOM     29  H32 UNL     1      50.485   1.193  12.290  1.00  0.00     0.176 HD
ATOM     30  H31 UNL     1      49.915   1.763  13.870  1.00  0.00     0.176 HD
ENDBRANCH  26  28
BRANCH  25  31
HETATM   31  N4  UNL     1      46.520  -0.244  12.429  1.00  0.00    -0.365 N 
ATOM     32  H4  UNL     1      46.079  -1.054  12.866  1.00  0.00     0.161 HD
BRANCH  31  33
HETATM   33  C13 UNL     1      45.732   0.473  11.471  1.00  0.00     0.172 C 
BRANCH  33  34
HETATM   34  C14 UNL     1      45.159  -0.396  10.388  1.00  0.00     0.039 C 
BRANCH  34  35
HETATM   35  C15 UNL     1      45.135  -1.834  10.842  1.00  0.00    -0.012 A 
HETATM   36  C16 UNL     1      43.849  -2.471  11.223  1.00  0.00     0.005 A 
HETATM   37  C17 UNL     1      44.451  -2.783   9.849  1.00  0.00     0.005 A 
ENDBRANCH  34  35
ENDBRANCH  33  34
BRANCH  33  38
HETATM   38  C18 UNL     1      44.626   1.209  12.138  1.00  0.00     0.253 C 
HETATM   39  N5  UNL     1      44.642   1.799  13.409  1.00  0.00    -0.060 NA
HETATM   40  O2  UNL     1      43.526   1.327  11.492  1.00  0.00    -0.275 OA
ENDBRANCH  33  38
ENDBRANCH  31  33
ENDBRANCH  25  31
ENDBRANCH   7  25
BRANCH   4  41
HETATM   41  O1  UNL     1      46.787   0.746  15.694  1.00  0.00    -0.348 OA
ATOM     42  H1  UNL     1      47.509   1.361  15.651  1.00  0.00     0.219 HD
ENDBRANCH   4  41
BRANCH  14  43
HETATM   43  C23 UNL     1      52.064  -2.956  16.377  1.00  0.00     0.035 C 
BRANCH  43  44
HETATM   44  C24 UNL     1      53.235  -3.244  15.431  1.00  0.00     0.002 C 
BRANCH  44  45
HETATM   45  C25 UNL     1      54.355  -3.924  16.130  1.00  0.00     0.000 C 
BRANCH  45  46
HETATM   46  C26 UNL     1      54.395  -5.389  15.917  1.00  0.00    -0.000 C 
BRANCH  46  47
HETATM   47  C27 UNL     1      54.186  -6.321  17.039  1.00  0.00    -0.005 C 
HETATM   48  C28 UNL     1      52.862  -6.397  17.690  1.00  0.00     0.005 C 
ENDBRANCH  46  47
ENDBRANCH  45  46
ENDBRANCH  44  45
ENDBRANCH  43  44
ENDBRANCH  14  43
BRANCH   1  49
HETATM   49  C6  UNL     1      44.923  -0.763  19.712  1.00  0.00     0.062 C 
BRANCH  49  50
HETATM   50  C5  UNL     1      43.639  -0.093  20.001  1.00  0.00     0.006 C 
BRANCH  50  51
HETATM   51  C4  UNL     1      42.550  -1.148  20.018  1.00  0.00     0.000 C 
BRANCH  51  52
HETATM   52  C3  UNL     1      41.172  -0.632  19.809  1.00  0.00    -0.000 C 
BRANCH  52  53
HETATM   53  C2  UNL     1      40.435  -1.725  19.014  1.00  0.00    -0.005 C 
HETATM   54  C1  UNL     1      39.639  -1.022  17.906  1.00  0.00     0.005 C 
ENDBRANCH  52  53
ENDBRANCH  51  52
ENDBRANCH  50  51
ENDBRANCH  49  50
ENDBRANCH   1  49
BRANCH  24  55
HETATM   55  O5  UNL     1      47.270   1.640  20.165  1.00  0.00    -0.345 OA
ATOM     56  H5  UNL     1      46.948   2.352  19.624  1.00  0.00     0.219 HD
ENDBRANCH  24  55
TORSDOF 19
ENDMDL
MODEL 4
REMARK VINA RESULT: -6.016015835      1.021      1.477
REMARK  19 active torsions:
REMARK  status: ('A' for Active; 'I' for Inactive)
REMARK    1  A    between atoms: C2_2  and  C3_3 
REMARK    2  A    between atoms: C3_3  and  C4_4 
REMARK    3  A    between atoms: C4_4  and  C5_5 
REMARK    4  A    between atoms: C5_5  and  C6_6 
REMARK    5  A    between atoms: C6_6  and  C7_7 
REMARK    6  A    between atoms: C8_10  and  O1_11 
REMARK    7  A    between atoms: C11_15  and  C12_16 
REMARK    8  A    between atoms: C12_16  and  N4_22 
REMARK    9  A    between atoms: N2_17  and  N3_19 
REMARK   10  A    between atoms: N4_22  and  C13_24 
REMARK   11  A    between atoms: C13_24  and  C14_25 
REMARK   12  A    between atoms: C13_24  and  C18_29 
REMARK   13  A    between atoms: C14_25  and  C15_26 
REMARK   14  A    between atoms: C22_38  and  C23_39 
REMARK   15  A    between atoms: C23_39  and  C24_40 
REMARK   16  A    between atoms: C24_40  and  C25_41 
REMARK   17  A    between atoms: C25_41  and  C26_42 
REMARK   18  A    between atoms: C26_42  and  C27_43 
REMARK   19  A    between atoms: C35_54  and  O5_55 
ROOT
HETATM    1  C7  UNL     1      46.277   0.167  18.936  1.00  0.00     0.062 C 
HETATM    2  N1  UNL     1      46.249  -0.207  17.542  1.00  0.00    -0.339 N 
ATOM      3  H1  UNL     1      45.337  -0.584  17.284  1.00  0.00     0.167 HD
HETATM    4  C8  UNL     1      47.096  -0.199  16.468  1.00  0.00     0.139 C 
HETATM    5  C9  UNL     1      48.235  -0.966  15.947  1.00  0.00     0.162 C 
HETATM    6  C10 UNL     1      47.849  -1.539  14.573  1.00  0.00     0.047 C 
HETATM    7  C11 UNL     1      48.552  -0.952  13.407  1.00  0.00     0.069 C 
HETATM    8  C19 UNL     1      48.896  -2.082  12.466  1.00  0.00     0.085 C 
HETATM    9  C20 UNL     1      48.862  -1.701  11.005  1.00  0.00     0.020 C 
HETATM   10  C21 UNL     1      50.186  -2.751  12.748  1.00  0.00     0.223 C 
HETATM   11  O3  UNL     1      50.995  -2.974  11.764  1.00  0.00    -0.273 OA
HETATM   12  N6  UNL     1      50.661  -3.195  13.997  1.00  0.00    -0.347 N 
ATOM     13  H6  UNL     1      50.860  -4.193  14.062  1.00  0.00     0.163 HD
HETATM   14  C22 UNL     1      50.902  -2.434  15.190  1.00  0.00     0.176 C 
HETATM   15  C29 UNL     1      49.829  -2.798  16.162  1.00  0.00     0.243 C 
HETATM   16  O4  UNL     1      49.844  -4.039  16.504  1.00  0.00    -0.271 OA
HETATM   17  N7  UNL     1      48.848  -1.958  16.720  1.00  0.00    -0.336 N 
HETATM   18  C30 UNL     1      48.568  -2.208  18.158  1.00  0.00     0.152 C 
HETATM   19  C31 UNL     1      49.334  -1.179  18.872  1.00  0.00     0.104 C 
HETATM   20  C32 UNL     1      50.440  -1.906  19.667  1.00  0.00     0.028 C 
HETATM   21  C33 UNL     1      50.755  -0.788  20.672  1.00  0.00     0.022 C 
HETATM   22  C34 UNL     1      49.344  -0.547  21.134  1.00  0.00     0.125 C 
HETATM   23  N8  UNL     1      48.645  -0.366  19.834  1.00  0.00    -0.354 N 
HETATM   24  C35 UNL     1      47.524   0.462  19.577  1.00  0.00     0.161 C 
ENDROOT
BRANCH   7  25
HETATM   25  C12 UNL     1      47.702   0.051  12.671  1.00  0.00     0.097 C 
HETATM   26  N2  UNL     1      48.186   1.220  12.490  1.00  0.00    -0.295 N 
ATOM     27  H2  UNL     1      47.638   1.924  11.995  1.00  0.00     0.187 HD
BRANCH  26  28
HETATM   28  N3  UNL     1      49.450   1.535  12.962  1.00  0.00    -0.344 N 
ATOM     29  H32 UNL     1      49.615   1.529  13.968  1.00  0.00     0.176 HD
ATOM     30  H31 UNL     1      50.199   1.767  12.310  1.00  0.00     0.176 HD
ENDBRANCH  26  28
BRANCH  25  31
HETATM   31  N4  UNL     1      46.420  -0.318  12.192  1.00  0.00    -0.365 N 
ATOM     32  H4  UNL     1      46.047  -1.207  12.527  1.00  0.00     0.161 HD
BRANCH  31  33
HETATM   33  C13 UNL     1      45.592   0.422  11.288  1.00  0.00     0.172 C 
BRANCH  33  34
HETATM   34  C14 UNL     1      44.955  -0.424  10.221  1.00  0.00     0.039 C 
BRANCH  34  35
HETATM   35  C15 UNL     1      45.069  -1.883  10.587  1.00  0.00    -0.012 A 
HETATM   36  C16 UNL     1      43.862  -2.638  11.013  1.00  0.00     0.005 A 
HETATM   37  C17 UNL     1      44.387  -2.825   9.586  1.00  0.00     0.005 A 
ENDBRANCH  34  35
ENDBRANCH  33  34
BRANCH  33  38
HETATM   38  C18 UNL     1      44.528   1.157  12.021  1.00  0.00     0.253 C 
HETATM   39  N5  UNL     1      44.610   1.709  13.307  1.00  0.00    -0.060 NA
HETATM   40  O2  UNL     1      43.405   1.313  11.428  1.00  0.00    -0.275 OA
ENDBRANCH  33  38
ENDBRANCH  31  33
ENDBRANCH  25  31
ENDBRANCH   7  25
BRANCH   4  41
HETATM   41  O1  UNL     1      46.869   0.761  15.601  1.00  0.00    -0.348 OA
ATOM     42  H1  UNL     1      47.584   0.922  14.995  1.00  0.00     0.219 HD
ENDBRANCH   4  41
BRANCH  14  43
HETATM   43  C23 UNL     1      52.190  -2.932  15.887  1.00  0.00     0.035 C 
BRANCH  43  44
HETATM   44  C24 UNL     1      52.814  -1.811  16.726  1.00  0.00     0.002 C 
BRANCH  44  45
HETATM   45  C25 UNL     1      52.581  -0.474  16.121  1.00  0.00     0.000 C 
BRANCH  45  46
HETATM   46  C26 UNL     1      52.026   0.523  17.066  1.00  0.00    -0.000 C 
BRANCH  46  47
HETATM   47  C27 UNL     1      50.941   1.430  16.654  1.00  0.00    -0.005 C 
HETATM   48  C28 UNL     1      51.269   2.713  15.997  1.00  0.00     0.005 C 
ENDBRANCH  46  47
ENDBRANCH  45  46
ENDBRANCH  44  45
ENDBRANCH  43  44
ENDBRANCH  14  43
BRANCH   1  49
HETATM   49  C6  UNL     1      45.330  -0.729  19.761  1.00  0.00     0.062 C 
BRANCH  49  50
HETATM   50  C5  UNL     1      43.954  -0.199  19.860  1.00  0.00     0.006 C 
BRANCH  50  51
HETATM   51  C4  UNL     1      43.014  -1.368  20.082  1.00  0.00     0.000 C 
BRANCH  51  52
HETATM   52  C3  UNL     1      41.588  -0.999  20.280  1.00  0.00    -0.000 C 
BRANCH  52  53
HETATM   53  C2  UNL     1      40.792  -1.873  19.295  1.00  0.00    -0.005 C 
HETATM   54  C1  UNL     1      39.864  -0.939  18.506  1.00  0.00     0.005 C 
ENDBRANCH  52  53
ENDBRANCH  51  52
ENDBRANCH  50  51
ENDBRANCH  49  50
ENDBRANCH   1  49
BRANCH  24  55
HETATM   55  O5  UNL     1      47.701   1.679  20.016  1.00  0.00    -0.345 OA
ATOM     56  H5  UNL     1      48.594   1.959  20.181  1.00  0.00     0.219 HD
ENDBRANCH  24  55
TORSDOF 19
ENDMDL
MODEL 5
REMARK VINA RESULT: -5.994137970      3.097      5.257
REMARK  19 active torsions:
REMARK  status: ('A' for Active; 'I' for Inactive)
REMARK    1  A    between atoms: C2_2  and  C3_3 
REMARK    2  A    between atoms: C3_3  and  C4_4 
REMARK    3  A    between atoms: C4_4  and  C5_5 
REMARK    4  A    between atoms: C5_5  and  C6_6 
REMARK    5  A    between atoms: C6_6  and  C7_7 
REMARK    6  A    between atoms: C8_10  and  O1_11 
REMARK    7  A    between atoms: C11_15  and  C12_16 
REMARK    8  A    between atoms: C12_16  and  N4_22 
REMARK    9  A    between atoms: N2_17  and  N3_19 
REMARK   10  A    between atoms: N4_22  and  C13_24 
REMARK   11  A    between atoms: C13_24  and  C14_25 
REMARK   12  A    between atoms: C13_24  and  C18_29 
REMARK   13  A    between atoms: C14_25  and  C15_26 
REMARK   14  A    between atoms: C22_38  and  C23_39 
REMARK   15  A    between atoms: C23_39  and  C24_40 
REMARK   16  A    between atoms: C24_40  and  C25_41 
REMARK   17  A    between atoms: C25_41  and  C26_42 
REMARK   18  A    between atoms: C26_42  and  C27_43 
REMARK   19  A    between atoms: C35_54  and  O5_55 
ROOT
HETATM    1  C7  UNL     1      49.506   0.853  16.252  1.00  0.00     0.062 C 
HETATM    2  N1  UNL     1      48.602   0.034  15.481  1.00  0.00    -0.339 N 
ATOM      3  H1  UNL     1      48.021  -0.542  16.090  1.00  0.00     0.167 HD
HETATM    4  C8  UNL     1      48.301  -0.188  14.165  1.00  0.00     0.139 C 
HETATM    5  C9  UNL     1      48.852  -0.901  13.006  1.00  0.00     0.162 C 
HETATM    6  C10 UNL     1      47.826  -1.953  12.548  1.00  0.00     0.047 C 
HETATM    7  C11 UNL     1      47.167  -1.689  11.246  1.00  0.00     0.069 C 
HETATM    8  C19 UNL     1      47.081  -3.002  10.505  1.00  0.00     0.085 C 
HETATM    9  C20 UNL     1      45.853  -3.142   9.636  1.00  0.00     0.020 C 
HETATM   10  C21 UNL     1      48.272  -3.333   9.692  1.00  0.00     0.223 C 
HETATM   11  O3  UNL     1      48.098  -3.746   8.479  1.00  0.00    -0.273 OA
HETATM   12  N6  UNL     1      49.621  -3.255  10.086  1.00  0.00    -0.347 N 
ATOM     13  H6  UNL     1      50.143  -4.131  10.046  1.00  0.00     0.163 HD
HETATM   14  C22 UNL     1      50.363  -2.112  10.538  1.00  0.00     0.176 C 
HETATM   15  C29 UNL     1      50.587  -2.289  12.002  1.00  0.00     0.243 C 
HETATM   16  O4  UNL     1      51.291  -3.327  12.294  1.00  0.00    -0.271 OA
HETATM   17  N7  UNL     1      50.128  -1.472  13.051  1.00  0.00    -0.336 N 
HETATM   18  C30 UNL     1      51.110  -1.266  14.148  1.00  0.00     0.152 C 
HETATM   19  C31 UNL     1      51.708   0.046  13.873  1.00  0.00     0.104 C 
HETATM   20  C32 UNL     1      53.190  -0.195  13.515  1.00  0.00     0.028 C 
HETATM   21  C33 UNL     1      53.708   1.229  13.767  1.00  0.00     0.022 C 
HETATM   22  C34 UNL     1      53.145   1.392  15.153  1.00  0.00     0.125 C 
HETATM   23  N8  UNL     1      51.723   1.019  14.928  1.00  0.00    -0.354 N 
HETATM   24  C35 UNL     1      50.591   1.531  15.609  1.00  0.00     0.161 C 
ENDROOT
BRANCH   7  25
HETATM   25  C12 UNL     1      45.776  -1.132  11.412  1.00  0.00     0.097 C 
HETATM   26  N2  UNL     1      45.590   0.096  11.114  1.00  0.00    -0.295 N 
ATOM     27  H2  UNL     1      44.661   0.507  11.212  1.00  0.00     0.187 HD
BRANCH  26  28
HETATM   28  N3  UNL     1      46.642   0.873  10.657  1.00  0.00    -0.344 N 
ATOM     29  H32 UNL     1      47.455   1.004  11.259  1.00  0.00     0.176 HD
ATOM     30  H31 UNL     1      46.601   1.305   9.734  1.00  0.00     0.176 HD
ENDBRANCH  26  28
BRANCH  25  31
HETATM   31  N4  UNL     1      44.725  -1.967  11.867  1.00  0.00    -0.365 N 
ATOM     32  H4  UNL     1      44.973  -2.677  12.557  1.00  0.00     0.161 HD
BRANCH  31  33
HETATM   33  C13 UNL     1      43.351  -1.921  11.463  1.00  0.00     0.172 C 
BRANCH  33  34
HETATM   34  C14 UNL     1      42.625  -3.224  11.640  1.00  0.00     0.039 C 
BRANCH  34  35
HETATM   35  C15 UNL     1      41.978  -3.632  10.340  1.00  0.00    -0.012 A 
HETATM   36  C16 UNL     1      42.813  -4.154   9.227  1.00  0.00     0.005 A 
HETATM   37  C17 UNL     1      42.015  -5.145  10.081  1.00  0.00     0.005 A 
ENDBRANCH  34  35
ENDBRANCH  33  34
BRANCH  33  38
HETATM   38  C18 UNL     1      42.618  -0.855  12.195  1.00  0.00     0.253 C 
HETATM   39  N5  UNL     1      42.871   0.524  12.166  1.00  0.00    -0.060 NA
HETATM   40  O2  UNL     1      41.644  -1.218  12.942  1.00  0.00    -0.275 OA
ENDBRANCH  33  38
ENDBRANCH  31  33
ENDBRANCH  25  31
ENDBRANCH   7  25
BRANCH   4  41
HETATM   41  O1  UNL     1      47.190   0.380  13.756  1.00  0.00    -0.348 OA
ATOM     42  H1  UNL     1      47.312   1.059  13.102  1.00  0.00     0.219 HD
ENDBRANCH   4  41
BRANCH  14  43
HETATM   43  C23 UNL     1      51.797  -2.145   9.958  1.00  0.00     0.035 C 
BRANCH  43  44
HETATM   44  C24 UNL     1      52.134  -0.811   9.283  1.00  0.00     0.002 C 
BRANCH  44  45
HETATM   45  C25 UNL     1      53.392  -0.226   9.815  1.00  0.00     0.000 C 
BRANCH  45  46
HETATM   46  C26 UNL     1      53.418   1.255   9.802  1.00  0.00    -0.000 C 
BRANCH  46  47
HETATM   47  C27 UNL     1      54.685   1.985   9.621  1.00  0.00    -0.005 C 
HETATM   48  C28 UNL     1      55.404   1.897   8.333  1.00  0.00     0.005 C 
ENDBRANCH  46  47
ENDBRANCH  45  46
ENDBRANCH  44  45
ENDBRANCH  43  44
ENDBRANCH  14  43
BRANCH   1  49
HETATM   49  C6  UNL     1      49.886   0.150  17.574  1.00  0.00     0.062 C 
BRANCH  49  50
HETATM   50  C5  UNL     1      48.724  -0.387  18.311  1.00  0.00     0.006 C 
BRANCH  50  51
HETATM   51  C4  UNL     1      48.952  -1.869  18.534  1.00  0.00     0.000 C 
BRANCH  51  52
HETATM   52  C3  UNL     1      48.083  -2.767  17.727  1.00  0.00    -0.000 C 
BRANCH  52  53
HETATM   53  C2  UNL     1      48.966  -3.969  17.348  1.00  0.00    -0.005 C 
HETATM   54  C1  UNL     1      49.326  -3.817  15.864  1.00  0.00     0.005 C 
ENDBRANCH  52  53
ENDBRANCH  51  52
ENDBRANCH  50  51
ENDBRANCH  49  50
ENDBRANCH   1  49
BRANCH  24  55
HETATM   55  O5  UNL     1      50.579   2.838  15.628  1.00  0.00    -0.345 OA
ATOM     56  H5  UNL     1      51.122   3.270  16.275  1.00  0.00     0.219 HD
ENDBRANCH  24  55
TORSDOF 19
ENDMDL
