MODEL 1
REMARK VINA RESULT: -9.051399755      0.000      0.000
REMARK  18 active torsions:
REMARK  status: ('A' for Active; 'I' for Inactive)
REMARK    1  A    between atoms: C2_2  and  C3_3 
REMARK    2  A    between atoms: C3_3  and  N1_4 
REMARK    3  A    between atoms: C3_3  and  C11_14 
REMARK       I    between atoms: N1_4  and  C4_6 
REMARK    4  A    between atoms: C4_6  and  C5_8 
REMARK    5  A    between atoms: C11_14  and  O2_15 
REMARK    6  A    between atoms: C11_14  and  N2_17 
REMARK    7  A    between atoms: C15_21  and  C16_22 
REMARK       I    between atoms: C16_22  and  N3_24 
REMARK    8  A    between atoms: N3_24  and  C17_26 
REMARK    9  A    between atoms: C17_26  and  C18_27 
REMARK   10  A    between atoms: C17_26  and  C25_36 
REMARK   11  A    between atoms: C18_27  and  C19_28 
REMARK   12  A    between atoms: C19_28  and  C20_29 
REMARK   13  A    between atoms: C20_29  and  C21_30 
REMARK   14  A    between atoms: C21_30  and  C22_31 
REMARK   15  A    between atoms: C22_31  and  C23_32 
REMARK   16  A    between atoms: C23_32  and  C24_33 
REMARK       I    between atoms: C25_36  and  N5_38 
REMARK   17  A    between atoms: N5_38  and  C26_40 
REMARK   18  A    between atoms: C26_40  and  C27_41 
REMARK       I    between atoms: N6_45  and  C31_46 
ROOT
HETATM    1  C16 UNL     1      37.043  -4.986  11.675  1.00  0.00     0.241 C 
HETATM    2  O3  UNL     1      36.544  -5.738  12.545  1.00  0.00    -0.271 OA
HETATM    3  N3  UNL     1      37.855  -3.899  12.080  1.00  0.00    -0.346 N 
ATOM      4  H3  UNL     1      38.259  -3.285  11.373  1.00  0.00     0.163 HD
ENDROOT
BRANCH   1   5
HETATM    5  C15 UNL     1      36.762  -5.264  10.246  1.00  0.00     0.183 C 
HETATM    6  N2  UNL     1      36.881  -6.711   9.987  1.00  0.00    -0.346 N 
HETATM    7  C12 UNL     1      35.513  -7.140   9.615  1.00  0.00     0.132 C 
HETATM    8  C13 UNL     1      35.239  -5.927   8.742  1.00  0.00     0.019 A 
HETATM    9  C14 UNL     1      35.341  -4.999   9.994  1.00  0.00     0.032 A 
HETATM   10  C33 UNL     1      34.519  -4.743   8.887  1.00  0.00    -0.036 A 
HETATM   11  C34 UNL     1      34.845  -3.535   8.024  1.00  0.00     0.016 C 
HETATM   12  C35 UNL     1      32.994  -4.887   9.000  1.00  0.00     0.016 C 
BRANCH   6  13
HETATM   13  C11 UNL     1      38.082  -7.419  10.091  1.00  0.00     0.162 C 
BRANCH  13  14
HETATM   14  C3  UNL     1      39.057  -7.492  11.193  1.00  0.00     0.062 C 
BRANCH  14  15
HETATM   15  C2  UNL     1      39.159  -8.798  11.868  1.00  0.00     0.057 C 
HETATM   16  C1  UNL     1      40.429  -9.028  12.684  1.00  0.00     0.011 C 
ENDBRANCH  14  15
BRANCH  14  17
HETATM   17  N1  UNL     1      40.158  -6.631  11.038  1.00  0.00    -0.327 N 
HETATM   18  C4  UNL     1      41.237  -6.456  10.199  1.00  0.00     0.226 C 
HETATM   19  O1  UNL     1      41.455  -7.182   9.203  1.00  0.00    -0.273 OA
ATOM     20  H1  UNL     1      40.158  -5.920  11.769  1.00  0.00     0.168 HD
BRANCH  18  21
HETATM   21  C5  UNL     1      42.261  -5.376  10.409  1.00  0.00     0.078 C 
HETATM   22  C6  UNL     1      42.247  -4.479   9.194  1.00  0.00     0.014 C 
HETATM   23  C7  UNL     1      43.380  -3.477   9.238  1.00  0.00     0.001 C 
HETATM   24  C8  UNL     1      43.791  -3.285  10.667  1.00  0.00     0.000 C 
HETATM   25  C9  UNL     1      42.542  -3.186  11.537  1.00  0.00     0.001 C 
HETATM   26  C10 UNL     1      41.846  -4.542  11.609  1.00  0.00     0.014 C 
ENDBRANCH  18  21
ENDBRANCH  14  17
ENDBRANCH  13  14
BRANCH  13  27
HETATM   27  O2  UNL     1      38.380  -8.146   9.032  1.00  0.00    -0.345 OA
ATOM     28  H2  UNL     1      38.451  -7.661   8.219  1.00  0.00     0.219 HD
ENDBRANCH  13  27
ENDBRANCH   6  13
ENDBRANCH   1   5
BRANCH   3  29
HETATM   29  C17 UNL     1      38.128  -3.640  13.515  1.00  0.00     0.177 C 
BRANCH  29  30
HETATM   30  C18 UNL     1      39.179  -2.603  13.505  1.00  0.00     0.035 C 
BRANCH  30  31
HETATM   31  C19 UNL     1      40.135  -2.482  14.614  1.00  0.00     0.002 C 
BRANCH  31  32
HETATM   32  C20 UNL     1      39.660  -1.690  15.798  1.00  0.00     0.000 C 
BRANCH  32  33
HETATM   33  C21 UNL     1      39.411  -2.637  16.969  1.00  0.00     0.000 C 
BRANCH  33  34
HETATM   34  C22 UNL     1      38.071  -2.425  17.602  1.00  0.00     0.009 C 
BRANCH  34  35
HETATM   35  C23 UNL     1      37.982  -1.062  18.279  1.00  0.00     0.099 C 
BRANCH  35  36
HETATM   36  C24 UNL     1      36.742  -0.387  17.809  1.00  0.00     0.231 C 
HETATM   37  N4  UNL     1      35.544  -0.290  18.518  1.00  0.00    -0.062 NA
HETATM   38  O4  UNL     1      36.756   0.157  16.645  1.00  0.00    -0.277 OA
ENDBRANCH  35  36
ENDBRANCH  34  35
ENDBRANCH  33  34
ENDBRANCH  32  33
ENDBRANCH  31  32
ENDBRANCH  30  31
ENDBRANCH  29  30
BRANCH  29  39
HETATM   39  C25 UNL     1      36.833  -3.225  14.142  1.00  0.00     0.244 C 
HETATM   40  O5  UNL     1      36.516  -2.029  14.006  1.00  0.00    -0.271 OA
HETATM   41  N5  UNL     1      36.011  -4.111  14.838  1.00  0.00    -0.339 N 
ATOM     42  H5  UNL     1      36.369  -5.066  14.881  1.00  0.00     0.167 HD
BRANCH  41  43
HETATM   43  C26 UNL     1      34.768  -3.930  15.498  1.00  0.00     0.070 C 
BRANCH  43  44
HETATM   44  C27 UNL     1      33.894  -5.055  15.836  1.00  0.00     0.042 C 
HETATM   45  C28 UNL     1      33.408  -5.263  17.208  1.00  0.00     0.013 C 
HETATM   46  C29 UNL     1      32.116  -6.107  17.119  1.00  0.00     0.021 C 
HETATM   47  C30 UNL     1      32.201  -7.043  15.967  1.00  0.00     0.127 C 
HETATM   48  N6  UNL     1      33.559  -7.418  15.690  1.00  0.00    -0.336 N 
HETATM   49  C31 UNL     1      33.974  -8.783  15.715  1.00  0.00     0.330 C 
HETATM   50  C32 UNL     1      34.529  -6.399  15.380  1.00  0.00     0.137 C 
HETATM   51  N7  UNL     1      35.317  -9.133  15.430  1.00  0.00    -0.040 NA
HETATM   52  O6  UNL     1      33.106  -9.646  15.999  1.00  0.00    -0.251 OA
ENDBRANCH  43  44
ENDBRANCH  41  43
ENDBRANCH  29  39
ENDBRANCH   3  29
TORSDOF 18
ENDMDL
MODEL 2
REMARK VINA RESULT: -9.035689171      5.996     10.553
REMARK  18 active torsions:
REMARK  status: ('A' for Active; 'I' for Inactive)
REMARK    1  A    between atoms: C2_2  and  C3_3 
REMARK    2  A    between atoms: C3_3  and  N1_4 
REMARK    3  A    between atoms: C3_3  and  C11_14 
REMARK       I    between atoms: N1_4  and  C4_6 
REMARK    4  A    between atoms: C4_6  and  C5_8 
REMARK    5  A    between atoms: C11_14  and  O2_15 
REMARK    6  A    between atoms: C11_14  and  N2_17 
REMARK    7  A    between atoms: C15_21  and  C16_22 
REMARK       I    between atoms: C16_22  and  N3_24 
REMARK    8  A    between atoms: N3_24  and  C17_26 
REMARK    9  A    between atoms: C17_26  and  C18_27 
REMARK   10  A    between atoms: C17_26  and  C25_36 
REMARK   11  A    between atoms: C18_27  and  C19_28 
REMARK   12  A    between atoms: C19_28  and  C20_29 
REMARK   13  A    between atoms: C20_29  and  C21_30 
REMARK   14  A    between atoms: C21_30  and  C22_31 
REMARK   15  A    between atoms: C22_31  and  C23_32 
REMARK   16  A    between atoms: C23_32  and  C24_33 
REMARK       I    between atoms: C25_36  and  N5_38 
REMARK   17  A    between atoms: N5_38  and  C26_40 
REMARK   18  A    between atoms: C26_40  and  C27_41 
REMARK       I    between atoms: N6_45  and  C31_46 
ROOT
HETATM    1  C16 UNL     1      45.718  -1.529  10.116  1.00  0.00     0.241 C 
HETATM    2  O3  UNL     1      45.093  -0.449  10.003  1.00  0.00    -0.271 OA
HETATM    3  N3  UNL     1      44.996  -2.745  10.178  1.00  0.00    -0.346 N 
ATOM      4  H3  UNL     1      45.503  -3.625  10.273  1.00  0.00     0.163 HD
ENDROOT
BRANCH   1   5
HETATM    5  C15 UNL     1      47.199  -1.494  10.182  1.00  0.00     0.183 C 
HETATM    6  N2  UNL     1      47.638  -1.607  11.585  1.00  0.00    -0.346 N 
HETATM    7  C12 UNL     1      48.365  -2.896  11.650  1.00  0.00     0.132 C 
HETATM    8  C13 UNL     1      49.086  -2.694  10.327  1.00  0.00     0.019 A 
HETATM    9  C14 UNL     1      47.718  -2.724   9.573  1.00  0.00     0.032 A 
HETATM   10  C33 UNL     1      48.930  -3.175   9.029  1.00  0.00    -0.036 A 
HETATM   11  C34 UNL     1      49.508  -2.408   7.851  1.00  0.00     0.016 C 
HETATM   12  C35 UNL     1      49.182  -4.677   8.828  1.00  0.00     0.016 C 
BRANCH   6  13
HETATM   13  C11 UNL     1      47.376  -0.637  12.558  1.00  0.00     0.162 C 
BRANCH  13  14
HETATM   14  C3  UNL     1      47.290   0.829  12.448  1.00  0.00     0.062 C 
BRANCH  14  15
HETATM   15  C2  UNL     1      45.949   1.405  12.646  1.00  0.00     0.057 C 
HETATM   16  C1  UNL     1      45.785   2.868  12.239  1.00  0.00     0.011 C 
ENDBRANCH  14  15
BRANCH  14  17
HETATM   17  N1  UNL     1      48.466   1.499  12.828  1.00  0.00    -0.327 N 
HETATM   18  C4  UNL     1      49.289   1.623  13.927  1.00  0.00     0.226 C 
HETATM   19  O1  UNL     1      49.096   1.009  15.000  1.00  0.00    -0.273 OA
ATOM     20  H1  UNL     1      48.816   2.066  12.057  1.00  0.00     0.168 HD
BRANCH  18  21
HETATM   21  C5  UNL     1      50.496   2.519  13.940  1.00  0.00     0.078 C 
HETATM   22  C6  UNL     1      51.452   1.997  14.985  1.00  0.00     0.014 C 
HETATM   23  C7  UNL     1      52.609   2.950  15.197  1.00  0.00     0.001 C 
HETATM   24  C8  UNL     1      52.774   3.780  13.960  1.00  0.00     0.000 C 
HETATM   25  C9  UNL     1      52.632   2.884  12.734  1.00  0.00     0.001 C 
HETATM   26  C10 UNL     1      51.185   2.422  12.589  1.00  0.00     0.014 C 
ENDBRANCH  18  21
ENDBRANCH  14  17
ENDBRANCH  13  14
BRANCH  13  27
HETATM   27  O2  UNL     1      47.164  -1.120  13.766  1.00  0.00    -0.345 OA
ATOM     28  H2  UNL     1      47.716  -1.854  14.009  1.00  0.00     0.219 HD
ENDBRANCH  13  27
ENDBRANCH   6  13
ENDBRANCH   1   5
BRANCH   3  29
HETATM   29  C17 UNL     1      43.515  -2.761  10.107  1.00  0.00     0.177 C 
BRANCH  29  30
HETATM   30  C18 UNL     1      43.200  -3.958   9.301  1.00  0.00     0.035 C 
BRANCH  30  31
HETATM   31  C19 UNL     1      41.915  -4.654   9.446  1.00  0.00     0.002 C 
BRANCH  31  32
HETATM   32  C20 UNL     1      41.860  -6.043   8.879  1.00  0.00     0.000 C 
BRANCH  32  33
HETATM   33  C21 UNL     1      42.267  -7.043   9.959  1.00  0.00     0.000 C 
BRANCH  33  34
HETATM   34  C22 UNL     1      41.110  -7.858  10.448  1.00  0.00     0.009 C 
BRANCH  34  35
HETATM   35  C23 UNL     1      40.205  -8.289   9.301  1.00  0.00     0.099 C 
BRANCH  35  36
HETATM   36  C24 UNL     1      38.803  -8.322   9.798  1.00  0.00     0.231 C 
HETATM   37  N4  UNL     1      37.703  -7.716   9.190  1.00  0.00    -0.062 NA
HETATM   38  O4  UNL     1      38.566  -8.959  10.889  1.00  0.00    -0.277 OA
ENDBRANCH  35  36
ENDBRANCH  34  35
ENDBRANCH  33  34
ENDBRANCH  32  33
ENDBRANCH  31  32
ENDBRANCH  30  31
ENDBRANCH  29  30
BRANCH  29  39
HETATM   39  C25 UNL     1      43.006  -2.793  11.515  1.00  0.00     0.244 C 
HETATM   40  O5  UNL     1      43.410  -3.734  12.224  1.00  0.00    -0.271 OA
HETATM   41  N5  UNL     1      42.135  -1.831  12.027  1.00  0.00    -0.339 N 
ATOM     42  H5  UNL     1      41.876  -1.105  11.358  1.00  0.00     0.167 HD
BRANCH  41  43
HETATM   43  C26 UNL     1      41.542  -1.676  13.307  1.00  0.00     0.070 C 
BRANCH  43  44
HETATM   44  C27 UNL     1      40.155  -2.066  13.575  1.00  0.00     0.042 C 
HETATM   45  C28 UNL     1      39.683  -2.321  14.944  1.00  0.00     0.013 C 
HETATM   46  C29 UNL     1      38.150  -2.123  14.948  1.00  0.00     0.021 C 
HETATM   47  C30 UNL     1      37.583  -2.526  13.634  1.00  0.00     0.127 C 
HETATM   48  N6  UNL     1      38.370  -3.553  13.011  1.00  0.00    -0.336 N 
HETATM   49  C31 UNL     1      37.806  -4.816  12.665  1.00  0.00     0.330 C 
HETATM   50  C32 UNL     1      39.762  -3.308  12.728  1.00  0.00     0.137 C 
HETATM   51  N7  UNL     1      38.597  -5.813  12.043  1.00  0.00    -0.040 NA
HETATM   52  O6  UNL     1      36.593  -5.001  12.936  1.00  0.00    -0.251 OA
ENDBRANCH  43  44
ENDBRANCH  41  43
ENDBRANCH  29  39
ENDBRANCH   3  29
TORSDOF 18
ENDMDL
MODEL 3
REMARK VINA RESULT: -8.845930693      5.395     10.163
REMARK  18 active torsions:
REMARK  status: ('A' for Active; 'I' for Inactive)
REMARK    1  A    between atoms: C2_2  and  C3_3 
REMARK    2  A    between atoms: C3_3  and  N1_4 
REMARK    3  A    between atoms: C3_3  and  C11_14 
REMARK       I    between atoms: N1_4  and  C4_6 
REMARK    4  A    between atoms: C4_6  and  C5_8 
REMARK    5  A    between atoms: C11_14  and  O2_15 
REMARK    6  A    between atoms: C11_14  and  N2_17 
REMARK    7  A    between atoms: C15_21  and  C16_22 
REMARK       I    between atoms: C16_22  and  N3_24 
REMARK    8  A    between atoms: N3_24  and  C17_26 
REMARK    9  A    between atoms: C17_26  and  C18_27 
REMARK   10  A    between atoms: C17_26  and  C25_36 
REMARK   11  A    between atoms: C18_27  and  C19_28 
REMARK   12  A    between atoms: C19_28  and  C20_29 
REMARK   13  A    between atoms: C20_29  and  C21_30 
REMARK   14  A    between atoms: C21_30  and  C22_31 
REMARK   15  A    between atoms: C22_31  and  C23_32 
REMARK   16  A    between atoms: C23_32  and  C24_33 
REMARK       I    between atoms: C25_36  and  N5_38 
REMARK   17  A    between atoms: N5_38  and  C26_40 
REMARK   18  A    between atoms: C26_40  and  C27_41 
REMARK       I    between atoms: N6_45  and  C31_46 
ROOT
HETATM    1  C16 UNL     1      45.551  -1.277  10.248  1.00  0.00     0.241 C 
HETATM    2  O3  UNL     1      45.004  -0.409   9.529  1.00  0.00    -0.271 OA
HETATM    3  N3  UNL     1      44.755  -2.276  10.859  1.00  0.00    -0.346 N 
ATOM      4  H3  UNL     1      45.199  -2.981  11.447  1.00  0.00     0.163 HD
ENDROOT
BRANCH   1   5
HETATM    5  C15 UNL     1      47.022  -1.226  10.434  1.00  0.00     0.183 C 
HETATM    6  N2  UNL     1      47.338  -1.135  11.872  1.00  0.00    -0.346 N 
HETATM    7  C12 UNL     1      48.047  -2.398  12.182  1.00  0.00     0.132 C 
HETATM    8  C13 UNL     1      48.880  -2.385  10.911  1.00  0.00     0.019 A 
HETATM    9  C14 UNL     1      47.581  -2.529  10.055  1.00  0.00     0.032 A 
HETATM   10  C33 UNL     1      48.831  -3.047   9.687  1.00  0.00    -0.036 A 
HETATM   11  C34 UNL     1      49.513  -2.455   8.465  1.00  0.00     0.016 C 
HETATM   12  C35 UNL     1      49.087  -4.561   9.725  1.00  0.00     0.016 C 
BRANCH   6  13
HETATM   13  C11 UNL     1      47.002  -0.037  12.670  1.00  0.00     0.162 C 
BRANCH  13  14
HETATM   14  C3  UNL     1      47.734   0.599  13.778  1.00  0.00     0.062 C 
BRANCH  14  15
HETATM   15  C2  UNL     1      48.357   1.898  13.468  1.00  0.00     0.057 C 
HETATM   16  C1  UNL     1      49.746   2.128  14.059  1.00  0.00     0.011 C 
ENDBRANCH  14  15
BRANCH  14  17
HETATM   17  N1  UNL     1      47.224   0.288  15.051  1.00  0.00    -0.327 N 
HETATM   18  C4  UNL     1      47.679  -0.115  16.289  1.00  0.00     0.226 C 
HETATM   19  O1  UNL     1      48.890  -0.293  16.548  1.00  0.00    -0.273 OA
ATOM     20  H1  UNL     1      46.210   0.394  15.063  1.00  0.00     0.168 HD
BRANCH  18  21
HETATM   21  C5  UNL     1      46.756  -0.388  17.442  1.00  0.00     0.078 C 
HETATM   22  C6  UNL     1      47.536  -0.190  18.719  1.00  0.00     0.014 C 
HETATM   23  C7  UNL     1      46.735  -0.629  19.927  1.00  0.00     0.001 C 
HETATM   24  C8  UNL     1      45.279  -0.569  19.579  1.00  0.00     0.000 C 
HETATM   25  C9  UNL     1      45.002   0.716  18.805  1.00  0.00     0.001 C 
HETATM   26  C10 UNL     1      45.634   0.636  17.418  1.00  0.00     0.014 C 
ENDBRANCH  18  21
ENDBRANCH  14  17
ENDBRANCH  13  14
BRANCH  13  27
HETATM   27  O2  UNL     1      45.846   0.521  12.371  1.00  0.00    -0.345 OA
ATOM     28  H2  UNL     1      45.643   0.555  11.444  1.00  0.00     0.219 HD
ENDBRANCH  13  27
ENDBRANCH   6  13
ENDBRANCH   1   5
BRANCH   3  29
HETATM   29  C17 UNL     1      43.286  -2.313  10.658  1.00  0.00     0.177 C 
BRANCH  29  30
HETATM   30  C18 UNL     1      42.969  -3.750  10.542  1.00  0.00     0.035 C 
BRANCH  30  31
HETATM   31  C19 UNL     1      43.009  -4.434   9.242  1.00  0.00     0.002 C 
BRANCH  31  32
HETATM   32  C20 UNL     1      42.321  -5.767   9.187  1.00  0.00     0.000 C 
BRANCH  32  33
HETATM   33  C21 UNL     1      41.974  -6.212  10.606  1.00  0.00     0.000 C 
BRANCH  33  34
HETATM   34  C22 UNL     1      41.466  -7.619  10.656  1.00  0.00     0.009 C 
BRANCH  34  35
HETATM   35  C23 UNL     1      40.637  -7.959   9.423  1.00  0.00     0.099 C 
BRANCH  35  36
HETATM   36  C24 UNL     1      39.233  -8.198   9.854  1.00  0.00     0.231 C 
HETATM   37  N4  UNL     1      38.087  -7.742   9.201  1.00  0.00    -0.062 NA
HETATM   38  O4  UNL     1      39.040  -8.879  10.926  1.00  0.00    -0.277 OA
ENDBRANCH  35  36
ENDBRANCH  34  35
ENDBRANCH  33  34
ENDBRANCH  32  33
ENDBRANCH  31  32
ENDBRANCH  30  31
ENDBRANCH  29  30
BRANCH  29  39
HETATM   39  C25 UNL     1      42.662  -1.618  11.828  1.00  0.00     0.244 C 
HETATM   40  O5  UNL     1      43.176  -0.533  12.160  1.00  0.00    -0.271 OA
HETATM   41  N5  UNL     1      41.565  -2.133  12.518  1.00  0.00    -0.339 N 
ATOM     42  H5  UNL     1      41.225  -3.024  12.154  1.00  0.00     0.167 HD
BRANCH  41  43
HETATM   43  C26 UNL     1      40.834  -1.647  13.633  1.00  0.00     0.070 C 
BRANCH  43  44
HETATM   44  C27 UNL     1      39.496  -2.143  13.964  1.00  0.00     0.042 C 
HETATM   45  C28 UNL     1      39.165  -2.607  15.319  1.00  0.00     0.013 C 
HETATM   46  C29 UNL     1      37.632  -2.495  15.485  1.00  0.00     0.021 C 
HETATM   47  C30 UNL     1      36.962  -2.743  14.182  1.00  0.00     0.127 C 
HETATM   48  N6  UNL     1      37.728  -3.632  13.354  1.00  0.00    -0.336 N 
HETATM   49  C31 UNL     1      37.185  -4.865  12.884  1.00  0.00     0.330 C 
HETATM   50  C32 UNL     1      39.075  -3.277  12.988  1.00  0.00     0.137 C 
HETATM   51  N7  UNL     1      37.955  -5.723  12.061  1.00  0.00    -0.040 NA
HETATM   52  O6  UNL     1      36.012  -5.150  13.231  1.00  0.00    -0.251 OA
ENDBRANCH  43  44
ENDBRANCH  41  43
ENDBRANCH  29  39
ENDBRANCH   3  29
TORSDOF 18
ENDMDL
MODEL 4
REMARK VINA RESULT: -8.816164126      1.186      1.366
REMARK  18 active torsions:
REMARK  status: ('A' for Active; 'I' for Inactive)
REMARK    1  A    between atoms: C2_2  and  C3_3 
REMARK    2  A    between atoms: C3_3  and  N1_4 
REMARK    3  A    between atoms: C3_3  and  C11_14 
REMARK       I    between atoms: N1_4  and  C4_6 
REMARK    4  A    between atoms: C4_6  and  C5_8 
REMARK    5  A    between atoms: C11_14  and  O2_15 
REMARK    6  A    between atoms: C11_14  and  N2_17 
REMARK    7  A    between atoms: C15_21  and  C16_22 
REMARK       I    between atoms: C16_22  and  N3_24 
REMARK    8  A    between atoms: N3_24  and  C17_26 
REMARK    9  A    between atoms: C17_26  and  C18_27 
REMARK   10  A    between atoms: C17_26  and  C25_36 
REMARK   11  A    between atoms: C18_27  and  C19_28 
REMARK   12  A    between atoms: C19_28  and  C20_29 
REMARK   13  A    between atoms: C20_29  and  C21_30 
REMARK   14  A    between atoms: C21_30  and  C22_31 
REMARK   15  A    between atoms: C22_31  and  C23_32 
REMARK   16  A    between atoms: C23_32  and  C24_33 
REMARK       I    between atoms: C25_36  and  N5_38 
REMARK   17  A    between atoms: N5_38  and  C26_40 
REMARK   18  A    between atoms: C26_40  and  C27_41 
REMARK       I    between atoms: N6_45  and  C31_46 
ROOT
HETATM    1  C16 UNL     1      37.012  -5.012  11.708  1.00  0.00     0.241 C 
HETATM    2  O3  UNL     1      36.525  -5.791  12.560  1.00  0.00    -0.271 OA
HETATM    3  N3  UNL     1      37.798  -3.916  12.138  1.00  0.00    -0.346 N 
ATOM      4  H3  UNL     1      38.194  -3.280  11.446  1.00  0.00     0.163 HD
ENDROOT
BRANCH   1   5
HETATM    5  C15 UNL     1      36.746  -5.268  10.272  1.00  0.00     0.183 C 
HETATM    6  N2  UNL     1      36.882  -6.709   9.990  1.00  0.00    -0.346 N 
HETATM    7  C12 UNL     1      35.522  -7.147   9.599  1.00  0.00     0.132 C 
HETATM    8  C13 UNL     1      35.241  -5.922   8.745  1.00  0.00     0.019 A 
HETATM    9  C14 UNL     1      35.324  -5.014  10.013  1.00  0.00     0.032 A 
HETATM   10  C33 UNL     1      34.508  -4.749   8.904  1.00  0.00    -0.036 A 
HETATM   11  C34 UNL     1      34.828  -3.522   8.065  1.00  0.00     0.016 C 
HETATM   12  C35 UNL     1      32.984  -4.911   9.002  1.00  0.00     0.016 C 
BRANCH   6  13
HETATM   13  C11 UNL     1      38.090  -7.406  10.091  1.00  0.00     0.162 C 
BRANCH  13  14
HETATM   14  C3  UNL     1      39.059  -7.485  11.197  1.00  0.00     0.062 C 
BRANCH  14  15
HETATM   15  C2  UNL     1      39.161  -8.795  11.864  1.00  0.00     0.057 C 
HETATM   16  C1  UNL     1      40.371  -8.986  12.776  1.00  0.00     0.011 C 
ENDBRANCH  14  15
BRANCH  14  17
HETATM   17  N1  UNL     1      40.158  -6.620  11.055  1.00  0.00    -0.327 N 
HETATM   18  C4  UNL     1      41.246  -6.440  10.227  1.00  0.00     0.226 C 
HETATM   19  O1  UNL     1      41.476  -7.164   9.233  1.00  0.00    -0.273 OA
ATOM     20  H1  UNL     1      40.148  -5.910  11.786  1.00  0.00     0.168 HD
BRANCH  18  21
HETATM   21  C5  UNL     1      42.264  -5.357  10.448  1.00  0.00     0.078 C 
HETATM   22  C6  UNL     1      42.255  -4.456   9.237  1.00  0.00     0.014 C 
HETATM   23  C7  UNL     1      43.384  -3.449   9.293  1.00  0.00     0.001 C 
HETATM   24  C8  UNL     1      43.783  -3.260  10.725  1.00  0.00     0.000 C 
HETATM   25  C9  UNL     1      42.527  -3.169  11.586  1.00  0.00     0.001 C 
HETATM   26  C10 UNL     1      41.836  -4.528  11.648  1.00  0.00     0.014 C 
ENDBRANCH  18  21
ENDBRANCH  14  17
ENDBRANCH  13  14
BRANCH  13  27
HETATM   27  O2  UNL     1      38.402  -8.115   9.024  1.00  0.00    -0.345 OA
ATOM     28  H2  UNL     1      38.759  -7.616   8.300  1.00  0.00     0.219 HD
ENDBRANCH  13  27
ENDBRANCH   6  13
ENDBRANCH   1   5
BRANCH   3  29
HETATM   29  C17 UNL     1      38.057  -3.678  13.580  1.00  0.00     0.177 C 
BRANCH  29  30
HETATM   30  C18 UNL     1      39.165  -2.701  13.596  1.00  0.00     0.035 C 
BRANCH  30  31
HETATM   31  C19 UNL     1      40.038  -2.564  14.769  1.00  0.00     0.002 C 
BRANCH  31  32
HETATM   32  C20 UNL     1      39.608  -1.543  15.782  1.00  0.00     0.000 C 
BRANCH  32  33
HETATM   33  C21 UNL     1      39.231  -2.251  17.081  1.00  0.00     0.000 C 
BRANCH  33  34
HETATM   34  C22 UNL     1      37.798  -2.034  17.455  1.00  0.00     0.009 C 
BRANCH  34  35
HETATM   35  C23 UNL     1      37.369  -0.592  17.213  1.00  0.00     0.099 C 
BRANCH  35  36
HETATM   36  C24 UNL     1      37.590   0.179  18.466  1.00  0.00     0.231 C 
HETATM   37  N4  UNL     1      37.046  -0.117  19.717  1.00  0.00    -0.062 NA
HETATM   38  O4  UNL     1      38.344   1.218  18.409  1.00  0.00    -0.277 OA
ENDBRANCH  35  36
ENDBRANCH  34  35
ENDBRANCH  33  34
ENDBRANCH  32  33
ENDBRANCH  31  32
ENDBRANCH  30  31
ENDBRANCH  29  30
BRANCH  29  39
HETATM   39  C25 UNL     1      36.776  -3.196  14.185  1.00  0.00     0.244 C 
HETATM   40  O5  UNL     1      36.512  -1.990  14.022  1.00  0.00    -0.271 OA
HETATM   41  N5  UNL     1      35.908  -4.032  14.888  1.00  0.00    -0.339 N 
ATOM     42  H5  UNL     1      36.224  -5.000  14.952  1.00  0.00     0.167 HD
BRANCH  41  43
HETATM   43  C26 UNL     1      34.668  -3.784  15.530  1.00  0.00     0.070 C 
BRANCH  43  44
HETATM   44  C27 UNL     1      34.029  -4.774  16.400  1.00  0.00     0.042 C 
HETATM   45  C28 UNL     1      34.735  -5.995  16.818  1.00  0.00     0.013 C 
HETATM   46  C29 UNL     1      34.070  -6.489  18.123  1.00  0.00     0.021 C 
HETATM   47  C30 UNL     1      32.620  -6.162  18.108  1.00  0.00     0.127 C 
HETATM   48  N6  UNL     1      32.098  -6.133  16.771  1.00  0.00    -0.336 N 
HETATM   49  C31 UNL     1      31.025  -6.985  16.373  1.00  0.00     0.330 C 
HETATM   50  C32 UNL     1      32.666  -5.228  15.805  1.00  0.00     0.137 C 
HETATM   51  N7  UNL     1      30.518  -6.935  15.051  1.00  0.00    -0.040 NA
HETATM   52  O6  UNL     1      30.559  -7.771  17.236  1.00  0.00    -0.251 OA
ENDBRANCH  43  44
ENDBRANCH  41  43
ENDBRANCH  29  39
ENDBRANCH   3  29
TORSDOF 18
ENDMDL
MODEL 5
REMARK VINA RESULT: -8.778619724      7.739     12.198
REMARK  18 active torsions:
REMARK  status: ('A' for Active; 'I' for Inactive)
REMARK    1  A    between atoms: C2_2  and  C3_3 
REMARK    2  A    between atoms: C3_3  and  N1_4 
REMARK    3  A    between atoms: C3_3  and  C11_14 
REMARK       I    between atoms: N1_4  and  C4_6 
REMARK    4  A    between atoms: C4_6  and  C5_8 
REMARK    5  A    between atoms: C11_14  and  O2_15 
REMARK    6  A    between atoms: C11_14  and  N2_17 
REMARK    7  A    between atoms: C15_21  and  C16_22 
REMARK       I    between atoms: C16_22  and  N3_24 
REMARK    8  A    between atoms: N3_24  and  C17_26 
REMARK    9  A    between atoms: C17_26  and  C18_27 
REMARK   10  A    between atoms: C17_26  and  C25_36 
REMARK   11  A    between atoms: C18_27  and  C19_28 
REMARK   12  A    between atoms: C19_28  and  C20_29 
REMARK   13  A    between atoms: C20_29  and  C21_30 
REMARK   14  A    between atoms: C21_30  and  C22_31 
REMARK   15  A    between atoms: C22_31  and  C23_32 
REMARK   16  A    between atoms: C23_32  and  C24_33 
REMARK       I    between atoms: C25_36  and  N5_38 
REMARK   17  A    between atoms: N5_38  and  C26_40 
REMARK   18  A    between atoms: C26_40  and  C27_41 
REMARK       I    between atoms: N6_45  and  C31_46 
ROOT
HETATM    1  C16 UNL     1      47.738  -2.158  12.693  1.00  0.00     0.241 C 
HETATM    2  O3  UNL     1      47.199  -1.358  13.494  1.00  0.00    -0.271 OA
HETATM    3  N3  UNL     1      47.117  -2.417  11.448  1.00  0.00    -0.346 N 
ATOM      4  H3  UNL     1      47.553  -3.070  10.796  1.00  0.00     0.163 HD
ENDROOT
BRANCH   1   5
HETATM    5  C15 UNL     1      49.013  -2.808  13.083  1.00  0.00     0.183 C 
HETATM    6  N2  UNL     1      50.062  -2.471  12.104  1.00  0.00    -0.346 N 
HETATM    7  C12 UNL     1      51.048  -1.673  12.868  1.00  0.00     0.132 C 
HETATM    8  C13 UNL     1      50.994  -2.561  14.100  1.00  0.00     0.019 A 
HETATM    9  C14 UNL     1      49.496  -2.176  14.316  1.00  0.00     0.032 A 
HETATM   10  C33 UNL     1      50.389  -2.484  15.352  1.00  0.00    -0.036 A 
HETATM   11  C34 UNL     1      50.131  -3.746  16.160  1.00  0.00     0.016 C 
HETATM   12  C35 UNL     1      50.906  -1.382  16.288  1.00  0.00     0.016 C 
BRANCH   6  13
HETATM   13  C11 UNL     1      50.034  -2.882  10.767  1.00  0.00     0.162 C 
BRANCH  13  14
HETATM   14  C3  UNL     1      50.651  -2.285   9.570  1.00  0.00     0.062 C 
BRANCH  14  15
HETATM   15  C2  UNL     1      49.767  -2.144   8.400  1.00  0.00     0.057 C 
HETATM   16  C1  UNL     1      49.902  -3.224   7.329  1.00  0.00     0.011 C 
ENDBRANCH  14  15
BRANCH  14  17
HETATM   17  N1  UNL     1      51.682  -1.372   9.855  1.00  0.00    -0.327 N 
HETATM   18  C4  UNL     1      53.046  -1.252   9.694  1.00  0.00     0.226 C 
HETATM   19  O1  UNL     1      53.746  -2.119   9.124  1.00  0.00    -0.273 OA
ATOM     20  H1  UNL     1      51.306  -0.547  10.323  1.00  0.00     0.168 HD
BRANCH  18  21
HETATM   21  C5  UNL     1      53.822  -0.068  10.198  1.00  0.00     0.078 C 
HETATM   22  C6  UNL     1      54.419   0.638   9.004  1.00  0.00     0.014 C 
HETATM   23  C7  UNL     1      55.373   1.732   9.434  1.00  0.00     0.001 C 
HETATM   24  C8  UNL     1      55.007   2.165  10.821  1.00  0.00     0.000 C 
HETATM   25  C9  UNL     1      53.490   2.279  10.925  1.00  0.00     0.001 C 
HETATM   26  C10 UNL     1      52.856   0.893  10.872  1.00  0.00     0.014 C 
ENDBRANCH  18  21
ENDBRANCH  14  17
ENDBRANCH  13  14
BRANCH  13  27
HETATM   27  O2  UNL     1      49.352  -3.988  10.550  1.00  0.00    -0.345 OA
ATOM     28  H2  UNL     1      48.596  -3.891   9.983  1.00  0.00     0.219 HD
ENDBRANCH  13  27
ENDBRANCH   6  13
ENDBRANCH   1   5
BRANCH   3  29
HETATM   29  C17 UNL     1      45.844  -1.754  11.074  1.00  0.00     0.177 C 
BRANCH  29  30
HETATM   30  C18 UNL     1      46.258  -0.440  10.541  1.00  0.00     0.035 C 
BRANCH  30  31
HETATM   31  C19 UNL     1      45.340   0.706  10.552  1.00  0.00     0.002 C 
BRANCH  31  32
HETATM   32  C20 UNL     1      44.910   1.183  11.909  1.00  0.00     0.000 C 
BRANCH  32  33
HETATM   33  C21 UNL     1      45.583   2.520  12.208  1.00  0.00     0.000 C 
BRANCH  33  34
HETATM   34  C22 UNL     1      47.075   2.409  12.271  1.00  0.00     0.009 C 
BRANCH  34  35
HETATM   35  C23 UNL     1      47.530   1.706  13.544  1.00  0.00     0.099 C 
BRANCH  35  36
HETATM   36  C24 UNL     1      49.012   1.810  13.631  1.00  0.00     0.231 C 
HETATM   37  N4  UNL     1      49.866   2.219  12.606  1.00  0.00    -0.062 NA
HETATM   38  O4  UNL     1      49.574   1.493  14.743  1.00  0.00    -0.277 OA
ENDBRANCH  35  36
ENDBRANCH  34  35
ENDBRANCH  33  34
ENDBRANCH  32  33
ENDBRANCH  31  32
ENDBRANCH  30  31
ENDBRANCH  29  30
BRANCH  29  39
HETATM   39  C25 UNL     1      45.153  -2.648  10.092  1.00  0.00     0.244 C 
HETATM   40  O5  UNL     1      45.887  -3.246   9.283  1.00  0.00    -0.271 OA
HETATM   41  N5  UNL     1      43.769  -2.821  10.069  1.00  0.00    -0.339 N 
ATOM     42  H5  UNL     1      43.270  -2.285  10.781  1.00  0.00     0.167 HD
BRANCH  41  43
HETATM   43  C26 UNL     1      42.926  -3.604   9.239  1.00  0.00     0.070 C 
BRANCH  43  44
HETATM   44  C27 UNL     1      42.435  -4.921   9.649  1.00  0.00     0.042 C 
HETATM   45  C28 UNL     1      41.823  -5.846   8.682  1.00  0.00     0.013 C 
HETATM   46  C29 UNL     1      41.961  -7.274   9.257  1.00  0.00     0.021 C 
HETATM   47  C30 UNL     1      41.888  -7.232  10.741  1.00  0.00     0.127 C 
HETATM   48  N6  UNL     1      41.081  -6.136  11.200  1.00  0.00    -0.336 N 
HETATM   49  C31 UNL     1      39.929  -6.351  12.014  1.00  0.00     0.330 C 
HETATM   50  C32 UNL     1      41.436  -4.789  10.833  1.00  0.00     0.137 C 
HETATM   51  N7  UNL     1      39.151  -5.256  12.463  1.00  0.00    -0.040 NA
HETATM   52  O6  UNL     1      39.640  -7.538  12.307  1.00  0.00    -0.251 OA
ENDBRANCH  43  44
ENDBRANCH  41  43
ENDBRANCH  29  39
ENDBRANCH   3  29
TORSDOF 18
ENDMDL
