MODEL 1
REMARK VINA RESULT: -8.478497265      0.000      0.000
REMARK  17 active torsions:
REMARK  status: ('A' for Active; 'I' for Inactive)
REMARK    1  A    between atoms: C2_2  and  C3_3 
REMARK    2  A    between atoms: C3_3  and  C4_4 
REMARK    3  A    between atoms: C4_4  and  C5_5 
REMARK    4  A    between atoms: C5_5  and  C6_6 
REMARK    5  A    between atoms: C6_6  and  C7_7 
REMARK    6  A    between atoms: C7_7  and  N1_8 
REMARK    7  A    between atoms: C7_7  and  C26_40 
REMARK       I    between atoms: N1_8  and  C8_10 
REMARK    8  A    between atoms: C8_10  and  C9_12 
REMARK    9  A    between atoms: C9_12  and  C10_13 
REMARK   10  A    between atoms: C9_12  and  N3_18 
REMARK   11  A    between atoms: C10_13  and  C11_14 
REMARK   12  A    between atoms: C11_14  and  C12_15 
REMARK       I    between atoms: N3_18  and  C13_20 
REMARK   13  A    between atoms: C13_20  and  C14_22 
REMARK       I    between atoms: N4_26  and  C18_27 
REMARK   14  A    between atoms: C18_27  and  C19_29 
REMARK   15  A    between atoms: C19_29  and  N5_30 
REMARK   16  A    between atoms: C19_29  and  C20_34 
REMARK       I    between atoms: C26_40  and  N6_42 
REMARK   17  A    between atoms: C34_50  and  C35_51 
ROOT
HETATM    1  C9  UNL     1      37.060  -1.564  15.758  1.00  0.00     0.177 C 
ENDROOT
BRANCH   1   2
HETATM    2  C8  UNL     1      38.034  -2.507  15.168  1.00  0.00     0.241 C 
HETATM    3  N1  UNL     1      37.833  -3.048  13.875  1.00  0.00    -0.346 N 
ATOM      4  H1  UNL     1      36.998  -2.774  13.357  1.00  0.00     0.163 HD
HETATM    5  O1  UNL     1      39.051  -2.831  15.812  1.00  0.00    -0.271 OA
BRANCH   3   6
HETATM    6  C7  UNL     1      38.780  -3.995  13.241  1.00  0.00     0.176 C 
BRANCH   6   7
HETATM    7  C6  UNL     1      39.803  -3.049  12.580  1.00  0.00     0.035 C 
BRANCH   7   8
HETATM    8  C5  UNL     1      41.210  -3.447  12.992  1.00  0.00     0.002 C 
BRANCH   8   9
HETATM    9  C4  UNL     1      42.035  -3.794  11.775  1.00  0.00     0.000 C 
BRANCH   9  10
HETATM   10  C3  UNL     1      43.082  -2.750  11.540  1.00  0.00    -0.000 C 
BRANCH  10  11
HETATM   11  C2  UNL     1      43.783  -3.111  10.242  1.00  0.00    -0.005 C 
HETATM   12  C1  UNL     1      42.709  -3.688   9.320  1.00  0.00     0.005 C 
ENDBRANCH  10  11
ENDBRANCH   9  10
ENDBRANCH   8   9
ENDBRANCH   7   8
ENDBRANCH   6   7
BRANCH   6  13
HETATM   13  C26 UNL     1      38.053  -4.701  12.198  1.00  0.00     0.243 C 
HETATM   14  O5  UNL     1      36.937  -4.146  11.837  1.00  0.00    -0.271 OA
HETATM   15  N6  UNL     1      38.355  -5.888  11.521  1.00  0.00    -0.333 N 
HETATM   16  C27 UNL     1      39.561  -6.659  11.728  1.00  0.00     0.088 C 
HETATM   17  C34 UNL     1      37.378  -6.415  10.568  1.00  0.00     0.177 C 
HETATM   18  C28 UNL     1      40.517  -6.486  10.586  1.00  0.00     0.025 C 
HETATM   19  C32 UNL     1      39.211  -8.143  11.777  1.00  0.00     0.030 C 
HETATM   20  C29 UNL     1      41.122  -7.756  10.064  1.00  0.00     0.002 C 
HETATM   21  C30 UNL     1      40.056  -8.730   9.588  1.00  0.00     0.005 C 
HETATM   22  C31 UNL     1      38.772  -8.519  10.384  1.00  0.00    -0.010 C 
HETATM   23  C33 UNL     1      37.883  -7.527   9.717  1.00  0.00     0.039 C 
BRANCH  17  24
HETATM   24  C35 UNL     1      36.136  -6.846  11.293  1.00  0.00     0.254 C 
HETATM   25  N7  UNL     1      34.886  -6.886  10.636  1.00  0.00    -0.060 NA
HETATM   26  O6  UNL     1      36.217  -7.171  12.488  1.00  0.00    -0.275 OA
ENDBRANCH  17  24
ENDBRANCH   6  13
ENDBRANCH   3   6
ENDBRANCH   1   2
BRANCH   1  27
HETATM   27  C10 UNL     1      35.721  -1.723  15.030  1.00  0.00     0.043 C 
BRANCH  27  28
HETATM   28  C11 UNL     1      35.060  -2.966  15.591  1.00  0.00     0.102 C 
BRANCH  28  29
HETATM   29  C12 UNL     1      33.747  -2.593  16.148  1.00  0.00     0.231 C 
HETATM   30  N2  UNL     1      32.532  -3.149  15.648  1.00  0.00    -0.062 NA
HETATM   31  O2  UNL     1      33.666  -1.777  17.077  1.00  0.00    -0.277 OA
ENDBRANCH  28  29
ENDBRANCH  27  28
ENDBRANCH   1  27
BRANCH   1  32
HETATM   32  N3  UNL     1      36.885  -1.694  17.175  1.00  0.00    -0.346 N 
HETATM   33  C13 UNL     1      37.056  -0.567  18.025  1.00  0.00     0.241 C 
HETATM   34  O3  UNL     1      37.356   0.526  17.480  1.00  0.00    -0.271 OA
ATOM     35  H3  UNL     1      36.637  -2.599  17.576  1.00  0.00     0.163 HD
BRANCH  33  36
HETATM   36  C14 UNL     1      36.907  -0.602  19.499  1.00  0.00     0.179 C 
HETATM   37  C15 UNL     1      38.109  -0.211  20.267  1.00  0.00     0.037 C 
HETATM   38  C16 UNL     1      38.838  -1.487  20.533  1.00  0.00     0.022 C 
HETATM   39  C17 UNL     1      37.964  -2.594  19.929  1.00  0.00     0.127 C 
HETATM   40  N4  UNL     1      36.672  -2.006  19.883  1.00  0.00    -0.337 N 
HETATM   41  C18 UNL     1      35.369  -2.486  20.126  1.00  0.00     0.251 C 
HETATM   42  O4  UNL     1      34.372  -1.674  20.051  1.00  0.00    -0.271 OA
BRANCH  41  43
HETATM   43  C19 UNL     1      34.973  -3.870  20.472  1.00  0.00     0.278 C 
BRANCH  43  44
HETATM   44  N5  UNL     1      33.743  -3.955  21.233  1.00  0.00    -0.066 N 
ATOM     45  H53 UNL     1      33.702  -3.216  21.934  1.00  0.00     0.275 HD
ATOM     46  H52 UNL     1      32.945  -3.687  20.656  1.00  0.00     0.275 HD
ATOM     47  H51 UNL     1      33.585  -4.866  21.662  1.00  0.00     0.275 HD
ENDBRANCH  43  44
BRANCH  43  48
HETATM   48  C20 UNL     1      34.913  -4.738  19.224  1.00  0.00     0.025 C 
HETATM   49  C21 UNL     1      36.021  -5.736  19.218  1.00  0.00     0.007 C 
HETATM   50  C22 UNL     1      35.593  -7.007  18.472  1.00  0.00     0.000 C 
HETATM   51  C23 UNL     1      34.692  -6.706  17.304  1.00  0.00     0.000 C 
HETATM   52  C24 UNL     1      33.446  -5.979  17.709  1.00  0.00     0.000 C 
HETATM   53  C25 UNL     1      33.591  -5.463  19.124  1.00  0.00     0.007 C 
ENDBRANCH  43  48
ENDBRANCH  41  43
ENDBRANCH  33  36
ENDBRANCH   1  32
TORSDOF 17
ENDMDL
MODEL 2
REMARK VINA RESULT: -8.455554922      1.551      1.815
REMARK  17 active torsions:
REMARK  status: ('A' for Active; 'I' for Inactive)
REMARK    1  A    between atoms: C2_2  and  C3_3 
REMARK    2  A    between atoms: C3_3  and  C4_4 
REMARK    3  A    between atoms: C4_4  and  C5_5 
REMARK    4  A    between atoms: C5_5  and  C6_6 
REMARK    5  A    between atoms: C6_6  and  C7_7 
REMARK    6  A    between atoms: C7_7  and  N1_8 
REMARK    7  A    between atoms: C7_7  and  C26_40 
REMARK       I    between atoms: N1_8  and  C8_10 
REMARK    8  A    between atoms: C8_10  and  C9_12 
REMARK    9  A    between atoms: C9_12  and  C10_13 
REMARK   10  A    between atoms: C9_12  and  N3_18 
REMARK   11  A    between atoms: C10_13  and  C11_14 
REMARK   12  A    between atoms: C11_14  and  C12_15 
REMARK       I    between atoms: N3_18  and  C13_20 
REMARK   13  A    between atoms: C13_20  and  C14_22 
REMARK       I    between atoms: N4_26  and  C18_27 
REMARK   14  A    between atoms: C18_27  and  C19_29 
REMARK   15  A    between atoms: C19_29  and  N5_30 
REMARK   16  A    between atoms: C19_29  and  C20_34 
REMARK       I    between atoms: C26_40  and  N6_42 
REMARK   17  A    between atoms: C34_50  and  C35_51 
ROOT
HETATM    1  C9  UNL     1      37.321  -1.450  15.809  1.00  0.00     0.177 C 
ENDROOT
BRANCH   1   2
HETATM    2  C8  UNL     1      38.240  -2.433  15.197  1.00  0.00     0.241 C 
HETATM    3  N1  UNL     1      37.991  -2.958  13.906  1.00  0.00    -0.346 N 
ATOM      4  H1  UNL     1      37.161  -2.643  13.403  1.00  0.00     0.163 HD
HETATM    5  O1  UNL     1      39.252  -2.807  15.821  1.00  0.00    -0.271 OA
BRANCH   3   6
HETATM    6  C7  UNL     1      38.883  -3.944  13.250  1.00  0.00     0.176 C 
BRANCH   6   7
HETATM    7  C6  UNL     1      39.911  -3.041  12.539  1.00  0.00     0.035 C 
BRANCH   7   8
HETATM    8  C5  UNL     1      41.318  -3.460  12.930  1.00  0.00     0.002 C 
BRANCH   8   9
HETATM    9  C4  UNL     1      42.120  -3.819  11.700  1.00  0.00     0.000 C 
BRANCH   9  10
HETATM   10  C3  UNL     1      43.187  -2.797  11.458  1.00  0.00    -0.000 C 
BRANCH  10  11
HETATM   11  C2  UNL     1      43.774  -3.088  10.087  1.00  0.00    -0.005 C 
HETATM   12  C1  UNL     1      42.640  -3.687   9.254  1.00  0.00     0.005 C 
ENDBRANCH  10  11
ENDBRANCH   9  10
ENDBRANCH   8   9
ENDBRANCH   7   8
ENDBRANCH   6   7
BRANCH   6  13
HETATM   13  C26 UNL     1      38.095  -4.638  12.244  1.00  0.00     0.243 C 
HETATM   14  O5  UNL     1      36.978  -4.057  11.926  1.00  0.00    -0.271 OA
HETATM   15  N6  UNL     1      38.338  -5.837  11.564  1.00  0.00    -0.333 N 
HETATM   16  C27 UNL     1      39.532  -6.637  11.726  1.00  0.00     0.088 C 
HETATM   17  C34 UNL     1      37.308  -6.345  10.657  1.00  0.00     0.177 C 
HETATM   18  C28 UNL     1      40.442  -6.495  10.543  1.00  0.00     0.025 C 
HETATM   19  C32 UNL     1      39.147  -8.110  11.801  1.00  0.00     0.030 C 
HETATM   20  C29 UNL     1      40.993  -7.784  10.005  1.00  0.00     0.002 C 
HETATM   21  C30 UNL     1      39.884  -8.734   9.583  1.00  0.00     0.005 C 
HETATM   22  C31 UNL     1      38.640  -8.484  10.430  1.00  0.00    -0.010 C 
HETATM   23  C33 UNL     1      37.749  -7.475   9.794  1.00  0.00     0.039 C 
BRANCH  17  24
HETATM   24  C35 UNL     1      36.087  -6.739  11.437  1.00  0.00     0.254 C 
HETATM   25  N7  UNL     1      34.793  -6.577  10.896  1.00  0.00    -0.060 NA
HETATM   26  O6  UNL     1      36.227  -7.215  12.575  1.00  0.00    -0.275 OA
ENDBRANCH  17  24
ENDBRANCH   6  13
ENDBRANCH   3   6
ENDBRANCH   1   2
BRANCH   1  27
HETATM   27  C10 UNL     1      35.948  -1.580  15.140  1.00  0.00     0.043 C 
BRANCH  27  28
HETATM   28  C11 UNL     1      35.306  -2.835  15.695  1.00  0.00     0.102 C 
BRANCH  28  29
HETATM   29  C12 UNL     1      34.019  -2.473  16.316  1.00  0.00     0.231 C 
HETATM   30  N2  UNL     1      32.772  -2.896  15.765  1.00  0.00    -0.062 NA
HETATM   31  O2  UNL     1      33.988  -1.784  17.345  1.00  0.00    -0.277 OA
ENDBRANCH  28  29
ENDBRANCH  27  28
ENDBRANCH   1  27
BRANCH   1  32
HETATM   32  N3  UNL     1      37.202  -1.549  17.234  1.00  0.00    -0.346 N 
HETATM   33  C13 UNL     1      37.412  -0.406  18.052  1.00  0.00     0.241 C 
HETATM   34  O3  UNL     1      37.695   0.675  17.473  1.00  0.00    -0.271 OA
ATOM     35  H3  UNL     1      36.967  -2.444  17.664  1.00  0.00     0.163 HD
BRANCH  33  36
HETATM   36  C14 UNL     1      37.322  -0.409  19.531  1.00  0.00     0.179 C 
HETATM   37  C15 UNL     1      37.760   0.838  20.195  1.00  0.00     0.037 C 
HETATM   38  C16 UNL     1      39.206   0.630  20.505  1.00  0.00     0.022 C 
HETATM   39  C17 UNL     1      39.528  -0.794  20.035  1.00  0.00     0.127 C 
HETATM   40  N4  UNL     1      38.259  -1.432  20.027  1.00  0.00    -0.337 N 
HETATM   41  C18 UNL     1      37.810  -2.721  20.381  1.00  0.00     0.251 C 
HETATM   42  O4  UNL     1      36.552  -2.993  20.310  1.00  0.00    -0.271 OA
BRANCH  41  43
HETATM   43  C19 UNL     1      38.631  -3.861  20.847  1.00  0.00     0.278 C 
BRANCH  43  44
HETATM   44  N5  UNL     1      38.630  -4.035  22.285  1.00  0.00    -0.066 N 
ATOM     45  H53 UNL     1      38.715  -3.135  22.757  1.00  0.00     0.275 HD
ATOM     46  H52 UNL     1      37.705  -4.314  22.612  1.00  0.00     0.275 HD
ATOM     47  H51 UNL     1      39.340  -4.685  22.623  1.00  0.00     0.275 HD
ENDBRANCH  43  44
BRANCH  43  48
HETATM   48  C20 UNL     1      38.223  -5.142  20.134  1.00  0.00     0.025 C 
HETATM   49  C21 UNL     1      39.412  -5.823  19.545  1.00  0.00     0.007 C 
HETATM   50  C22 UNL     1      39.196  -7.342  19.508  1.00  0.00     0.000 C 
HETATM   51  C23 UNL     1      37.762  -7.705  19.229  1.00  0.00     0.000 C 
HETATM   52  C24 UNL     1      36.815  -7.139  20.241  1.00  0.00     0.000 C 
HETATM   53  C25 UNL     1      37.522  -6.093  21.075  1.00  0.00     0.007 C 
ENDBRANCH  43  48
ENDBRANCH  41  43
ENDBRANCH  33  36
ENDBRANCH   1  32
TORSDOF 17
ENDMDL
MODEL 3
REMARK VINA RESULT: -8.342207178      1.854      3.572
REMARK  17 active torsions:
REMARK  status: ('A' for Active; 'I' for Inactive)
REMARK    1  A    between atoms: C2_2  and  C3_3 
REMARK    2  A    between atoms: C3_3  and  C4_4 
REMARK    3  A    between atoms: C4_4  and  C5_5 
REMARK    4  A    between atoms: C5_5  and  C6_6 
REMARK    5  A    between atoms: C6_6  and  C7_7 
REMARK    6  A    between atoms: C7_7  and  N1_8 
REMARK    7  A    between atoms: C7_7  and  C26_40 
REMARK       I    between atoms: N1_8  and  C8_10 
REMARK    8  A    between atoms: C8_10  and  C9_12 
REMARK    9  A    between atoms: C9_12  and  C10_13 
REMARK   10  A    between atoms: C9_12  and  N3_18 
REMARK   11  A    between atoms: C10_13  and  C11_14 
REMARK   12  A    between atoms: C11_14  and  C12_15 
REMARK       I    between atoms: N3_18  and  C13_20 
REMARK   13  A    between atoms: C13_20  and  C14_22 
REMARK       I    between atoms: N4_26  and  C18_27 
REMARK   14  A    between atoms: C18_27  and  C19_29 
REMARK   15  A    between atoms: C19_29  and  N5_30 
REMARK   16  A    between atoms: C19_29  and  C20_34 
REMARK       I    between atoms: C26_40  and  N6_42 
REMARK   17  A    between atoms: C34_50  and  C35_51 
ROOT
HETATM    1  C9  UNL     1      36.763  -2.405  16.333  1.00  0.00     0.177 C 
ENDROOT
BRANCH   1   2
HETATM    2  C8  UNL     1      37.858  -2.988  15.529  1.00  0.00     0.241 C 
HETATM    3  N1  UNL     1      37.611  -3.523  14.241  1.00  0.00    -0.346 N 
ATOM      4  H1  UNL     1      36.659  -3.499  13.878  1.00  0.00     0.163 HD
HETATM    5  O1  UNL     1      39.018  -3.007  15.984  1.00  0.00    -0.271 OA
BRANCH   3   6
HETATM    6  C7  UNL     1      38.676  -4.115  13.396  1.00  0.00     0.176 C 
BRANCH   6   7
HETATM    7  C6  UNL     1      39.425  -2.870  12.882  1.00  0.00     0.035 C 
BRANCH   7   8
HETATM    8  C5  UNL     1      40.923  -3.109  12.951  1.00  0.00     0.002 C 
BRANCH   8   9
HETATM    9  C4  UNL     1      41.511  -3.165  11.560  1.00  0.00     0.000 C 
BRANCH   9  10
HETATM   10  C3  UNL     1      42.963  -3.525  11.621  1.00  0.00    -0.000 C 
BRANCH  10  11
HETATM   11  C2  UNL     1      43.548  -3.235  10.250  1.00  0.00    -0.005 C 
HETATM   12  C1  UNL     1      42.508  -3.703   9.232  1.00  0.00     0.005 C 
ENDBRANCH  10  11
ENDBRANCH   9  10
ENDBRANCH   8   9
ENDBRANCH   7   8
ENDBRANCH   6   7
BRANCH   6  13
HETATM   13  C26 UNL     1      38.022  -4.766  12.272  1.00  0.00     0.243 C 
HETATM   14  O5  UNL     1      36.930  -4.195  11.866  1.00  0.00    -0.271 OA
HETATM   15  N6  UNL     1      38.374  -5.916  11.555  1.00  0.00    -0.333 N 
HETATM   16  C27 UNL     1      39.568  -6.695  11.801  1.00  0.00     0.088 C 
HETATM   17  C34 UNL     1      37.465  -6.393  10.512  1.00  0.00     0.177 C 
HETATM   18  C28 UNL     1      40.597  -6.461  10.736  1.00  0.00     0.025 C 
HETATM   19  C32 UNL     1      39.222  -8.180  11.749  1.00  0.00     0.030 C 
HETATM   20  C29 UNL     1      41.241  -7.701  10.189  1.00  0.00     0.002 C 
HETATM   21  C30 UNL     1      40.214  -8.650   9.593  1.00  0.00     0.005 C 
HETATM   22  C31 UNL     1      38.878  -8.482  10.311  1.00  0.00    -0.010 C 
HETATM   23  C33 UNL     1      38.031  -7.458   9.640  1.00  0.00     0.039 C 
BRANCH  17  24
HETATM   24  C35 UNL     1      36.179  -6.863  11.129  1.00  0.00     0.254 C 
HETATM   25  N7  UNL     1      34.982  -6.898  10.381  1.00  0.00    -0.060 NA
HETATM   26  O6  UNL     1      36.178  -7.225  12.317  1.00  0.00    -0.275 OA
ENDBRANCH  17  24
ENDBRANCH   6  13
ENDBRANCH   3   6
ENDBRANCH   1   2
BRANCH   1  27
HETATM   27  C10 UNL     1      36.229  -1.165  15.607  1.00  0.00     0.043 C 
BRANCH  27  28
HETATM   28  C11 UNL     1      37.128  -0.008  15.994  1.00  0.00     0.102 C 
BRANCH  28  29
HETATM   29  C12 UNL     1      37.266   0.014  17.461  1.00  0.00     0.231 C 
HETATM   30  N2  UNL     1      38.542  -0.045  18.098  1.00  0.00    -0.062 NA
HETATM   31  O2  UNL     1      36.265   0.086  18.187  1.00  0.00    -0.277 OA
ENDBRANCH  28  29
ENDBRANCH  27  28
ENDBRANCH   1  27
BRANCH   1  32
HETATM   32  N3  UNL     1      35.696  -3.313  16.636  1.00  0.00    -0.346 N 
HETATM   33  C13 UNL     1      35.408  -3.654  17.986  1.00  0.00     0.241 C 
HETATM   34  O3  UNL     1      36.118  -3.125  18.879  1.00  0.00    -0.271 OA
ATOM     35  H3  UNL     1      35.141  -3.716  15.881  1.00  0.00     0.163 HD
BRANCH  33  36
HETATM   36  C14 UNL     1      34.334  -4.588  18.400  1.00  0.00     0.179 C 
HETATM   37  C15 UNL     1      34.623  -5.388  19.611  1.00  0.00     0.037 C 
HETATM   38  C16 UNL     1      35.227  -6.657  19.108  1.00  0.00     0.022 C 
HETATM   39  C17 UNL     1      35.209  -6.544  17.578  1.00  0.00     0.127 C 
HETATM   40  N4  UNL     1      34.187  -5.591  17.330  1.00  0.00    -0.337 N 
HETATM   41  C18 UNL     1      33.176  -5.471  16.354  1.00  0.00     0.251 C 
HETATM   42  O4  UNL     1      32.342  -4.492  16.425  1.00  0.00    -0.271 OA
BRANCH  41  43
HETATM   43  C19 UNL     1      32.933  -6.366  15.201  1.00  0.00     0.278 C 
BRANCH  43  44
HETATM   44  N5  UNL     1      33.820  -6.131  14.079  1.00  0.00    -0.066 N 
ATOM     45  H53 UNL     1      33.292  -5.828  13.261  1.00  0.00     0.275 HD
ATOM     46  H52 UNL     1      34.385  -5.297  14.237  1.00  0.00     0.275 HD
ATOM     47  H51 UNL     1      34.413  -6.928  13.848  1.00  0.00     0.275 HD
ENDBRANCH  43  44
BRANCH  43  48
HETATM   48  C20 UNL     1      32.966  -7.824  15.636  1.00  0.00     0.025 C 
HETATM   49  C21 UNL     1      31.617  -8.445  15.512  1.00  0.00     0.007 C 
HETATM   50  C22 UNL     1      31.743  -9.946  15.213  1.00  0.00     0.000 C 
HETATM   51  C23 UNL     1      32.922 -10.567  15.912  1.00  0.00     0.000 C 
HETATM   52  C24 UNL     1      34.221  -9.922  15.539  1.00  0.00     0.000 C 
HETATM   53  C25 UNL     1      33.956  -8.618  14.817  1.00  0.00     0.007 C 
ENDBRANCH  43  48
ENDBRANCH  41  43
ENDBRANCH  33  36
ENDBRANCH   1  32
TORSDOF 17
ENDMDL
MODEL 4
REMARK VINA RESULT: -8.048757990      8.897     13.865
REMARK  17 active torsions:
REMARK  status: ('A' for Active; 'I' for Inactive)
REMARK    1  A    between atoms: C2_2  and  C3_3 
REMARK    2  A    between atoms: C3_3  and  C4_4 
REMARK    3  A    between atoms: C4_4  and  C5_5 
REMARK    4  A    between atoms: C5_5  and  C6_6 
REMARK    5  A    between atoms: C6_6  and  C7_7 
REMARK    6  A    between atoms: C7_7  and  N1_8 
REMARK    7  A    between atoms: C7_7  and  C26_40 
REMARK       I    between atoms: N1_8  and  C8_10 
REMARK    8  A    between atoms: C8_10  and  C9_12 
REMARK    9  A    between atoms: C9_12  and  C10_13 
REMARK   10  A    between atoms: C9_12  and  N3_18 
REMARK   11  A    between atoms: C10_13  and  C11_14 
REMARK   12  A    between atoms: C11_14  and  C12_15 
REMARK       I    between atoms: N3_18  and  C13_20 
REMARK   13  A    between atoms: C13_20  and  C14_22 
REMARK       I    between atoms: N4_26  and  C18_27 
REMARK   14  A    between atoms: C18_27  and  C19_29 
REMARK   15  A    between atoms: C19_29  and  N5_30 
REMARK   16  A    between atoms: C19_29  and  C20_34 
REMARK       I    between atoms: C26_40  and  N6_42 
REMARK   17  A    between atoms: C34_50  and  C35_51 
ROOT
HETATM    1  C9  UNL     1      48.370  -1.494  13.288  1.00  0.00     0.177 C 
ENDROOT
BRANCH   1   2
HETATM    2  C8  UNL     1      49.813  -1.514  12.968  1.00  0.00     0.241 C 
HETATM    3  N1  UNL     1      50.788  -1.429  13.990  1.00  0.00    -0.346 N 
ATOM      4  H1  UNL     1      50.474  -1.351  14.958  1.00  0.00     0.163 HD
HETATM    5  O1  UNL     1      50.182  -1.613  11.781  1.00  0.00    -0.271 OA
BRANCH   3   6
HETATM    6  C7  UNL     1      52.245  -1.447  13.719  1.00  0.00     0.176 C 
BRANCH   6   7
HETATM    7  C6  UNL     1      52.834  -1.829  15.092  1.00  0.00     0.035 C 
BRANCH   7   8
HETATM    8  C5  UNL     1      51.724  -2.314  16.009  1.00  0.00     0.002 C 
BRANCH   8   9
HETATM    9  C4  UNL     1      51.958  -3.755  16.398  1.00  0.00     0.000 C 
BRANCH   9  10
HETATM   10  C3  UNL     1      50.761  -4.302  17.113  1.00  0.00    -0.000 C 
BRANCH  10  11
HETATM   11  C2  UNL     1      49.545  -3.944  16.277  1.00  0.00    -0.005 C 
HETATM   12  C1  UNL     1      48.496  -3.411  17.253  1.00  0.00     0.005 C 
ENDBRANCH  10  11
ENDBRANCH   9  10
ENDBRANCH   8   9
ENDBRANCH   7   8
ENDBRANCH   6   7
BRANCH   6  13
HETATM   13  C26 UNL     1      52.643  -0.085  13.401  1.00  0.00     0.243 C 
HETATM   14  O5  UNL     1      52.522   0.763  14.376  1.00  0.00    -0.271 OA
HETATM   15  N6  UNL     1      53.131   0.467  12.211  1.00  0.00    -0.333 N 
HETATM   16  C27 UNL     1      53.384  -0.291  11.005  1.00  0.00     0.088 C 
HETATM   17  C34 UNL     1      53.368   1.910  12.157  1.00  0.00     0.177 C 
HETATM   18  C28 UNL     1      54.854  -0.497  10.793  1.00  0.00     0.025 C 
HETATM   19  C32 UNL     1      52.879   0.493   9.799  1.00  0.00     0.030 C 
HETATM   20  C29 UNL     1      55.340  -0.229   9.399  1.00  0.00     0.002 C 
HETATM   21  C30 UNL     1      55.038   1.196   8.964  1.00  0.00     0.005 C 
HETATM   22  C31 UNL     1      53.780   1.695   9.670  1.00  0.00    -0.010 C 
HETATM   23  C33 UNL     1      54.117   2.368  10.955  1.00  0.00     0.039 C 
BRANCH  17  24
HETATM   24  C35 UNL     1      52.064   2.647  12.263  1.00  0.00     0.254 C 
HETATM   25  N7  UNL     1      52.022   4.000  12.665  1.00  0.00    -0.060 NA
HETATM   26  O6  UNL     1      51.010   2.050  11.989  1.00  0.00    -0.275 OA
ENDBRANCH  17  24
ENDBRANCH   6  13
ENDBRANCH   3   6
ENDBRANCH   1   2
BRANCH   1  27
HETATM   27  C10 UNL     1      48.175  -0.763  14.621  1.00  0.00     0.043 C 
BRANCH  27  28
HETATM   28  C11 UNL     1      48.552   0.686  14.389  1.00  0.00     0.102 C 
BRANCH  28  29
HETATM   29  C12 UNL     1      47.411   1.376  13.761  1.00  0.00     0.231 C 
HETATM   30  N2  UNL     1      47.568   2.177  12.590  1.00  0.00    -0.062 NA
HETATM   31  O2  UNL     1      46.273   1.276  14.240  1.00  0.00    -0.277 OA
ENDBRANCH  28  29
ENDBRANCH  27  28
ENDBRANCH   1  27
BRANCH   1  32
HETATM   32  N3  UNL     1      47.540  -0.920  12.270  1.00  0.00    -0.346 N 
HETATM   33  C13 UNL     1      46.724  -1.753  11.457  1.00  0.00     0.241 C 
HETATM   34  O3  UNL     1      46.763  -2.991  11.677  1.00  0.00    -0.271 OA
ATOM     35  H3  UNL     1      47.535   0.090  12.127  1.00  0.00     0.163 HD
BRANCH  33  36
HETATM   36  C14 UNL     1      45.841  -1.258  10.375  1.00  0.00     0.179 C 
HETATM   37  C15 UNL     1      45.788   0.213  10.225  1.00  0.00     0.037 C 
HETATM   38  C16 UNL     1      44.634   0.652  11.065  1.00  0.00     0.022 C 
HETATM   39  C17 UNL     1      44.026  -0.636  11.636  1.00  0.00     0.127 C 
HETATM   40  N4  UNL     1      44.460  -1.636  10.726  1.00  0.00    -0.337 N 
HETATM   41  C18 UNL     1      43.855  -2.781  10.170  1.00  0.00     0.251 C 
HETATM   42  O4  UNL     1      44.505  -3.484   9.308  1.00  0.00    -0.271 OA
BRANCH  41  43
HETATM   43  C19 UNL     1      42.503  -3.311  10.459  1.00  0.00     0.278 C 
BRANCH  43  44
HETATM   44  N5  UNL     1      41.478  -2.825   9.558  1.00  0.00    -0.066 N 
ATOM     45  H53 UNL     1      41.884  -2.225   8.841  1.00  0.00     0.275 HD
ATOM     46  H52 UNL     1      41.129  -3.582   8.970  1.00  0.00     0.275 HD
ATOM     47  H51 UNL     1      40.706  -2.352  10.028  1.00  0.00     0.275 HD
ENDBRANCH  43  44
BRANCH  43  48
HETATM   48  C20 UNL     1      42.523  -4.833  10.505  1.00  0.00     0.025 C 
HETATM   49  C21 UNL     1      41.686  -5.340  11.630  1.00  0.00     0.007 C 
HETATM   50  C22 UNL     1      41.096  -6.713  11.282  1.00  0.00     0.000 C 
HETATM   51  C23 UNL     1      42.042  -7.548  10.461  1.00  0.00     0.000 C 
HETATM   52  C24 UNL     1      42.430  -6.884   9.176  1.00  0.00     0.000 C 
HETATM   53  C25 UNL     1      42.025  -5.426   9.209  1.00  0.00     0.007 C 
ENDBRANCH  43  48
ENDBRANCH  41  43
ENDBRANCH  33  36
ENDBRANCH   1  32
TORSDOF 17
ENDMDL
MODEL 5
REMARK VINA RESULT: -7.835405297      7.604     11.862
REMARK  17 active torsions:
REMARK  status: ('A' for Active; 'I' for Inactive)
REMARK    1  A    between atoms: C2_2  and  C3_3 
REMARK    2  A    between atoms: C3_3  and  C4_4 
REMARK    3  A    between atoms: C4_4  and  C5_5 
REMARK    4  A    between atoms: C5_5  and  C6_6 
REMARK    5  A    between atoms: C6_6  and  C7_7 
REMARK    6  A    between atoms: C7_7  and  N1_8 
REMARK    7  A    between atoms: C7_7  and  C26_40 
REMARK       I    between atoms: N1_8  and  C8_10 
REMARK    8  A    between atoms: C8_10  and  C9_12 
REMARK    9  A    between atoms: C9_12  and  C10_13 
REMARK   10  A    between atoms: C9_12  and  N3_18 
REMARK   11  A    between atoms: C10_13  and  C11_14 
REMARK   12  A    between atoms: C11_14  and  C12_15 
REMARK       I    between atoms: N3_18  and  C13_20 
REMARK   13  A    between atoms: C13_20  and  C14_22 
REMARK       I    between atoms: N4_26  and  C18_27 
REMARK   14  A    between atoms: C18_27  and  C19_29 
REMARK   15  A    between atoms: C19_29  and  N5_30 
REMARK   16  A    between atoms: C19_29  and  C20_34 
REMARK       I    between atoms: C26_40  and  N6_42 
REMARK   17  A    between atoms: C34_50  and  C35_51 
ROOT
HETATM    1  C9  UNL     1      45.555   1.258  11.817  1.00  0.00     0.177 C 
ENDROOT
BRANCH   1   2
HETATM    2  C8  UNL     1      45.783   0.159  10.855  1.00  0.00     0.241 C 
HETATM    3  N1  UNL     1      46.410  -1.044  11.258  1.00  0.00    -0.346 N 
ATOM      4  H1  UNL     1      46.705  -1.138  12.230  1.00  0.00     0.163 HD
HETATM    5  O1  UNL     1      45.415   0.286   9.671  1.00  0.00    -0.271 OA
BRANCH   3   6
HETATM    6  C7  UNL     1      46.658  -2.175  10.332  1.00  0.00     0.176 C 
BRANCH   6   7
HETATM    7  C6  UNL     1      45.460  -3.103  10.612  1.00  0.00     0.035 C 
BRANCH   7   8
HETATM    8  C5  UNL     1      44.440  -2.975   9.493  1.00  0.00     0.002 C 
BRANCH   8   9
HETATM    9  C4  UNL     1      43.067  -3.369   9.986  1.00  0.00     0.000 C 
BRANCH   9  10
HETATM   10  C3  UNL     1      42.568  -4.565   9.236  1.00  0.00    -0.000 C 
BRANCH  10  11
HETATM   11  C2  UNL     1      42.171  -5.602  10.273  1.00  0.00    -0.005 C 
HETATM   12  C1  UNL     1      42.293  -6.962   9.588  1.00  0.00     0.005 C 
ENDBRANCH  10  11
ENDBRANCH   9  10
ENDBRANCH   8   9
ENDBRANCH   7   8
ENDBRANCH   6   7
BRANCH   6  13
HETATM   13  C26 UNL     1      47.876  -2.836  10.773  1.00  0.00     0.243 C 
HETATM   14  O5  UNL     1      48.043  -2.875  12.060  1.00  0.00    -0.271 OA
HETATM   15  N6  UNL     1      48.906  -3.434  10.037  1.00  0.00    -0.333 N 
HETATM   16  C27 UNL     1      48.918  -3.544   8.595  1.00  0.00     0.088 C 
HETATM   17  C34 UNL     1      50.069  -3.951  10.759  1.00  0.00     0.177 C 
HETATM   18  C28 UNL     1      48.621  -4.947   8.157  1.00  0.00     0.025 C 
HETATM   19  C32 UNL     1      50.312  -3.215   8.074  1.00  0.00     0.030 C 
HETATM   20  C29 UNL     1      49.533  -5.490   7.096  1.00  0.00     0.002 C 
HETATM   21  C30 UNL     1      50.985  -5.478   7.546  1.00  0.00     0.005 C 
HETATM   22  C31 UNL     1      51.210  -4.337   8.534  1.00  0.00    -0.010 C 
HETATM   23  C33 UNL     1      50.985  -4.787   9.935  1.00  0.00     0.039 C 
BRANCH  17  24
HETATM   24  C35 UNL     1      50.830  -2.816  11.383  1.00  0.00     0.254 C 
HETATM   25  N7  UNL     1      51.110  -1.639  10.655  1.00  0.00    -0.060 NA
HETATM   26  O6  UNL     1      51.214  -2.923  12.559  1.00  0.00    -0.275 OA
ENDBRANCH  17  24
ENDBRANCH   6  13
ENDBRANCH   3   6
ENDBRANCH   1   2
BRANCH   1  27
HETATM   27  C10 UNL     1      44.047   1.397  12.054  1.00  0.00     0.043 C 
BRANCH  27  28
HETATM   28  C11 UNL     1      43.430   0.043  11.769  1.00  0.00     0.102 C 
BRANCH  28  29
HETATM   29  C12 UNL     1      42.184  -0.082  12.547  1.00  0.00     0.231 C 
HETATM   30  N2  UNL     1      41.651  -1.354  12.916  1.00  0.00    -0.062 NA
HETATM   31  O2  UNL     1      41.561   0.927  12.905  1.00  0.00    -0.277 OA
ENDBRANCH  28  29
ENDBRANCH  27  28
ENDBRANCH   1  27
BRANCH   1  32
HETATM   32  N3  UNL     1      46.252   1.116  13.062  1.00  0.00    -0.346 N 
HETATM   33  C13 UNL     1      47.594   1.571  13.187  1.00  0.00     0.241 C 
HETATM   34  O3  UNL     1      48.122   2.097  12.174  1.00  0.00    -0.271 OA
ATOM     35  H3  UNL     1      45.785   0.688  13.861  1.00  0.00     0.163 HD
BRANCH  33  36
HETATM   36  C14 UNL     1      48.400   1.461  14.426  1.00  0.00     0.179 C 
HETATM   37  C15 UNL     1      49.705   2.158  14.396  1.00  0.00     0.037 C 
HETATM   38  C16 UNL     1      50.687   1.133  13.931  1.00  0.00     0.022 C 
HETATM   39  C17 UNL     1      49.881  -0.161  13.759  1.00  0.00     0.127 C 
HETATM   40  N4  UNL     1      48.752   0.040  14.597  1.00  0.00    -0.337 N 
HETATM   41  C18 UNL     1      48.016  -0.794  15.462  1.00  0.00     0.251 C 
HETATM   42  O4  UNL     1      47.045  -0.294  16.146  1.00  0.00    -0.271 OA
BRANCH  41  43
HETATM   43  C19 UNL     1      48.218  -2.240  15.702  1.00  0.00     0.278 C 
BRANCH  43  44
HETATM   44  N5  UNL     1      49.007  -2.900  14.681  1.00  0.00    -0.066 N 
ATOM     45  H53 UNL     1      48.598  -2.750  13.758  1.00  0.00     0.275 HD
ATOM     46  H52 UNL     1      49.899  -2.422  14.553  1.00  0.00     0.275 HD
ATOM     47  H51 UNL     1      49.154  -3.895  14.851  1.00  0.00     0.275 HD
ENDBRANCH  43  44
BRANCH  43  48
HETATM   48  C20 UNL     1      48.798  -2.478  17.088  1.00  0.00     0.025 C 
HETATM   49  C21 UNL     1      48.986  -3.935  17.342  1.00  0.00     0.007 C 
HETATM   50  C22 UNL     1      50.168  -4.166  18.294  1.00  0.00     0.000 C 
HETATM   51  C23 UNL     1      50.279  -3.083  19.335  1.00  0.00     0.000 C 
HETATM   52  C24 UNL     1      50.441  -1.721  18.735  1.00  0.00     0.000 C 
HETATM   53  C25 UNL     1      50.122  -1.770  17.257  1.00  0.00     0.007 C 
ENDBRANCH  43  48
ENDBRANCH  41  43
ENDBRANCH  33  36
ENDBRANCH   1  32
TORSDOF 17
ENDMDL
