MODEL 1
REMARK VINA RESULT: -8.595936622      0.000      0.000
REMARK  19 active torsions:
REMARK  status: ('A' for Active; 'I' for Inactive)
REMARK    1  A    between atoms: C2_2  and  C3_3 
REMARK    2  A    between atoms: C3_3  and  N1_4 
REMARK    3  A    between atoms: C3_3  and  C4_8 
REMARK       I    between atoms: C4_8  and  N2_10 
REMARK       I    between atoms: N3_13  and  C7_14 
REMARK       I    between atoms: C7_14  and  N4_16 
REMARK    4  A    between atoms: N4_16  and  C8_18 
REMARK    5  A    between atoms: C8_18  and  C9_19 
REMARK    6  A    between atoms: C8_18  and  C13_27 
REMARK    7  A    between atoms: C9_19  and  C10_20 
REMARK    8  A    between atoms: C10_20  and  C11_21 
REMARK    9  A    between atoms: C11_21  and  N5_22 
REMARK       I    between atoms: N5_22  and  C12_24 
REMARK       I    between atoms: C13_27  and  N8_29 
REMARK   10  A    between atoms: N8_29  and  C14_31 
REMARK   11  A    between atoms: C14_31  and  C15_32 
REMARK   12  A    between atoms: C14_31  and  C17_34 
REMARK   13  A    between atoms: C17_34  and  O4_35 
REMARK   14  A    between atoms: C17_34  and  N9_37 
REMARK   15  A    between atoms: N9_37  and  C19_39 
REMARK   16  A    between atoms: C19_39  and  C20_40 
REMARK   17  A    between atoms: C19_39  and  C26_46 
REMARK   18  A    between atoms: C26_46  and  C27_47 
REMARK   19  A    between atoms: C27_47  and  C28_48 
ROOT
HETATM    1  C8  UNL     1      46.114  -1.800  10.861  1.00  0.00     0.178 C 
ENDROOT
BRANCH   1   2
HETATM    2  N4  UNL     1      45.023  -2.728  10.974  1.00  0.00    -0.330 N 
HETATM    3  C7  UNL     1      44.161  -3.127   9.901  1.00  0.00     0.319 C 
HETATM    4  N3  UNL     1      43.113  -4.048  10.118  1.00  0.00    -0.331 N 
HETATM    5  O2  UNL     1      44.307  -2.677   8.747  1.00  0.00    -0.247 OA
HETATM    6  C6  UNL     1      42.267  -4.446   9.017  1.00  0.00     0.147 C 
HETATM    7  C34 UNL     1      42.833  -4.624  11.429  1.00  0.00     0.147 C 
HETATM    8  C5  UNL     1      41.921  -5.903   9.056  1.00  0.00     0.145 C 
HETATM    9  N2  UNL     1      41.295  -6.181  10.362  1.00  0.00    -0.347 N 
HETATM   10  C4  UNL     1      40.610  -7.394  10.542  1.00  0.00     0.250 C 
HETATM   11  C35 UNL     1      41.426  -5.227  11.425  1.00  0.00     0.145 C 
HETATM   12  O1  UNL     1      40.609  -8.203   9.561  1.00  0.00    -0.271 OA
ATOM     13  H4  UNL     1      44.848  -3.135  11.892  1.00  0.00     0.165 HD
BRANCH  10  14
HETATM   14  C3  UNL     1      39.901  -7.819  11.746  1.00  0.00     0.274 C 
BRANCH  14  15
HETATM   15  C2  UNL     1      38.477  -8.300  11.489  1.00  0.00     0.038 C 
HETATM   16  C1  UNL     1      37.562  -7.253  10.961  1.00  0.00     0.007 C 
ENDBRANCH  14  15
BRANCH  14  17
HETATM   17  N1  UNL     1      40.570  -9.050  12.248  1.00  0.00    -0.067 N 
ATOM     18  H13 UNL     1      40.447  -9.228  13.244  1.00  0.00     0.275 HD
ATOM     19  H12 UNL     1      40.148  -9.925  11.937  1.00  0.00     0.275 HD
ATOM     20  H11 UNL     1      41.536  -8.911  11.952  1.00  0.00     0.275 HD
ENDBRANCH  14  17
ENDBRANCH  10  14
ENDBRANCH   1   2
BRANCH   1  21
HETATM   21  C9  UNL     1      46.241  -0.790  11.933  1.00  0.00     0.036 C 
BRANCH  21  22
HETATM   22  C10 UNL     1      45.923   0.596  11.478  1.00  0.00     0.022 C 
BRANCH  22  23
HETATM   23  C11 UNL     1      44.610   0.583  10.729  1.00  0.00     0.122 C 
BRANCH  23  24
HETATM   24  N5  UNL     1      43.518   1.048  11.569  1.00  0.00    -0.367 N 
HETATM   25  C12 UNL     1      42.688   0.267  12.155  1.00  0.00     0.196 C 
HETATM   26  N6  UNL     1      42.723  -1.153  12.063  1.00  0.00    -0.067 NA
HETATM   27  N7  UNL     1      41.665   0.852  12.946  1.00  0.00    -0.067 NA
ATOM     28  H5  UNL     1      43.407   2.053  11.701  1.00  0.00     0.161 HD
ENDBRANCH  23  24
ENDBRANCH  22  23
ENDBRANCH  21  22
ENDBRANCH   1  21
BRANCH   1  29
HETATM   29  C13 UNL     1      47.420  -2.548  10.728  1.00  0.00     0.241 C 
HETATM   30  O3  UNL     1      47.449  -3.768  11.015  1.00  0.00    -0.271 OA
HETATM   31  N8  UNL     1      48.599  -1.916  10.293  1.00  0.00    -0.347 N 
ATOM     32  H8  UNL     1      48.586  -0.923  10.063  1.00  0.00     0.163 HD
BRANCH  31  33
HETATM   33  C14 UNL     1      49.870  -2.689  10.166  1.00  0.00     0.159 C 
BRANCH  33  34
HETATM   34  C15 UNL     1      50.568  -2.241   8.935  1.00  0.00     0.029 C 
HETATM   35  C16 UNL     1      49.821  -2.489   7.659  1.00  0.00     0.007 C 
ENDBRANCH  33  34
BRANCH  33  36
HETATM   36  C17 UNL     1      50.648  -2.518  11.395  1.00  0.00     0.141 C 
BRANCH  36  37
HETATM   37  O4  UNL     1      51.021  -3.674  11.972  1.00  0.00    -0.348 OA
ATOM     38  H4  UNL     1      51.957  -3.751  12.114  1.00  0.00     0.219 HD
ENDBRANCH  36  37
BRANCH  36  39
HETATM   39  N9  UNL     1      51.105  -1.425  12.099  1.00  0.00    -0.338 N 
HETATM   40  C18 UNL     1      50.056  -0.909  13.087  1.00  0.00     0.158 C 
BRANCH  39  41
HETATM   41  C19 UNL     1      52.289  -0.629  12.134  1.00  0.00     0.013 C 
BRANCH  41  42
HETATM   42  C20 UNL     1      53.132  -0.827  10.977  1.00  0.00     0.028 C 
HETATM   43  C21 UNL     1      53.486  -0.103   9.961  1.00  0.00    -0.078 C 
HETATM   44  C22 UNL     1      54.424  -0.622   8.871  1.00  0.00     0.034 C 
HETATM   45  C25 UNL     1      53.205   1.263   9.460  1.00  0.00     0.034 C 
HETATM   46  C23 UNL     1      55.411   0.514   8.797  1.00  0.00     0.005 C 
HETATM   47  C24 UNL     1      54.617   1.773   9.147  1.00  0.00     0.005 C 
ENDBRANCH  41  42
BRANCH  41  48
HETATM   48  C26 UNL     1      52.049   0.720  12.684  1.00  0.00     0.057 C 
BRANCH  48  49
HETATM   49  C27 UNL     1      53.086   1.282  13.602  1.00  0.00     0.010 C 
BRANCH  49  50
HETATM   50  C28 UNL     1      53.428   2.712  13.371  1.00  0.00    -0.014 C 
HETATM   51  C29 UNL     1      52.509   3.413  12.432  1.00  0.00     0.004 C 
HETATM   52  C30 UNL     1      52.782   4.911  12.461  1.00  0.00     0.000 C 
HETATM   53  C31 UNL     1      54.281   5.173  12.528  1.00  0.00     0.000 C 
HETATM   54  C32 UNL     1      54.965   3.992  11.868  1.00  0.00     0.000 C 
HETATM   55  C33 UNL     1      54.820   2.756  12.728  1.00  0.00     0.004 C 
ENDBRANCH  49  50
ENDBRANCH  48  49
ENDBRANCH  41  48
ENDBRANCH  39  41
ENDBRANCH  36  39
ENDBRANCH  33  36
ENDBRANCH  31  33
ENDBRANCH   1  29
TORSDOF 19
ENDMDL
MODEL 2
REMARK VINA RESULT: -8.498104185      1.567      1.997
REMARK  19 active torsions:
REMARK  status: ('A' for Active; 'I' for Inactive)
REMARK    1  A    between atoms: C2_2  and  C3_3 
REMARK    2  A    between atoms: C3_3  and  N1_4 
REMARK    3  A    between atoms: C3_3  and  C4_8 
REMARK       I    between atoms: C4_8  and  N2_10 
REMARK       I    between atoms: N3_13  and  C7_14 
REMARK       I    between atoms: C7_14  and  N4_16 
REMARK    4  A    between atoms: N4_16  and  C8_18 
REMARK    5  A    between atoms: C8_18  and  C9_19 
REMARK    6  A    between atoms: C8_18  and  C13_27 
REMARK    7  A    between atoms: C9_19  and  C10_20 
REMARK    8  A    between atoms: C10_20  and  C11_21 
REMARK    9  A    between atoms: C11_21  and  N5_22 
REMARK       I    between atoms: N5_22  and  C12_24 
REMARK       I    between atoms: C13_27  and  N8_29 
REMARK   10  A    between atoms: N8_29  and  C14_31 
REMARK   11  A    between atoms: C14_31  and  C15_32 
REMARK   12  A    between atoms: C14_31  and  C17_34 
REMARK   13  A    between atoms: C17_34  and  O4_35 
REMARK   14  A    between atoms: C17_34  and  N9_37 
REMARK   15  A    between atoms: N9_37  and  C19_39 
REMARK   16  A    between atoms: C19_39  and  C20_40 
REMARK   17  A    between atoms: C19_39  and  C26_46 
REMARK   18  A    between atoms: C26_46  and  C27_47 
REMARK   19  A    between atoms: C27_47  and  C28_48 
ROOT
HETATM    1  C8  UNL     1      45.748  -1.325  11.071  1.00  0.00     0.178 C 
ENDROOT
BRANCH   1   2
HETATM    2  N4  UNL     1      44.733  -2.338  11.147  1.00  0.00    -0.330 N 
HETATM    3  C7  UNL     1      44.003  -2.865  10.032  1.00  0.00     0.319 C 
HETATM    4  N3  UNL     1      43.021  -3.863  10.215  1.00  0.00    -0.331 N 
HETATM    5  O2  UNL     1      44.211  -2.462   8.870  1.00  0.00    -0.247 OA
HETATM    6  C6  UNL     1      42.310  -4.389   9.073  1.00  0.00     0.147 C 
HETATM    7  C34 UNL     1      42.679  -4.396  11.530  1.00  0.00     0.147 C 
HETATM    8  C5  UNL     1      42.086  -5.867   9.167  1.00  0.00     0.145 C 
HETATM    9  N2  UNL     1      41.375  -6.134  10.431  1.00  0.00    -0.347 N 
HETATM   10  C4  UNL     1      40.782  -7.393  10.623  1.00  0.00     0.250 C 
HETATM   11  C35 UNL     1      41.333  -5.120  11.445  1.00  0.00     0.145 C 
HETATM   12  O1  UNL     1      40.933  -8.246   9.693  1.00  0.00    -0.271 OA
ATOM     13  H4  UNL     1      44.514  -2.713  12.070  1.00  0.00     0.165 HD
BRANCH  10  14
HETATM   14  C3  UNL     1      40.009  -7.818  11.787  1.00  0.00     0.274 C 
BRANCH  14  15
HETATM   15  C2  UNL     1      38.625  -8.359  11.448  1.00  0.00     0.038 C 
HETATM   16  C1  UNL     1      37.747  -7.391  10.735  1.00  0.00     0.007 C 
ENDBRANCH  14  15
BRANCH  14  17
HETATM   17  N1  UNL     1      40.687  -9.011  12.362  1.00  0.00    -0.067 N 
ATOM     18  H13 UNL     1      40.060  -9.757  12.663  1.00  0.00     0.275 HD
ATOM     19  H12 UNL     1      41.201  -9.579  11.688  1.00  0.00     0.275 HD
ATOM     20  H11 UNL     1      41.258  -8.604  13.103  1.00  0.00     0.275 HD
ENDBRANCH  14  17
ENDBRANCH  10  14
ENDBRANCH   1   2
BRANCH   1  21
HETATM   21  C9  UNL     1      45.398   0.008  11.609  1.00  0.00     0.036 C 
BRANCH  21  22
HETATM   22  C10 UNL     1      46.409   1.058  11.287  1.00  0.00     0.022 C 
BRANCH  22  23
HETATM   23  C11 UNL     1      46.672   1.887  12.524  1.00  0.00     0.122 C 
BRANCH  23  24
HETATM   24  N5  UNL     1      46.566   1.084  13.731  1.00  0.00    -0.367 N 
HETATM   25  C12 UNL     1      47.512   0.954  14.585  1.00  0.00     0.196 C 
HETATM   26  N6  UNL     1      48.788   1.574  14.468  1.00  0.00    -0.067 NA
HETATM   27  N7  UNL     1      47.278   0.136  15.722  1.00  0.00    -0.067 NA
ATOM     28  H5  UNL     1      45.687   0.597  13.909  1.00  0.00     0.161 HD
ENDBRANCH  23  24
ENDBRANCH  22  23
ENDBRANCH  21  22
ENDBRANCH   1  21
BRANCH   1  29
HETATM   29  C13 UNL     1      47.017  -1.809  11.734  1.00  0.00     0.241 C 
HETATM   30  O3  UNL     1      46.997  -2.065  12.961  1.00  0.00    -0.271 OA
HETATM   31  N8  UNL     1      48.213  -1.979  11.015  1.00  0.00    -0.347 N 
ATOM     32  H8  UNL     1      48.240  -1.767  10.018  1.00  0.00     0.163 HD
BRANCH  31  33
HETATM   33  C14 UNL     1      49.446  -2.468  11.701  1.00  0.00     0.159 C 
BRANCH  33  34
HETATM   34  C15 UNL     1      50.293  -3.166  10.701  1.00  0.00     0.029 C 
HETATM   35  C16 UNL     1      50.409  -2.471   9.378  1.00  0.00     0.007 C 
ENDBRANCH  33  34
BRANCH  33  36
HETATM   36  C17 UNL     1      50.101  -1.332  12.355  1.00  0.00     0.141 C 
BRANCH  36  37
HETATM   37  O4  UNL     1      49.355  -0.214  12.387  1.00  0.00    -0.348 OA
ATOM     38  H4  UNL     1      48.904  -0.073  13.211  1.00  0.00     0.219 HD
ENDBRANCH  36  37
BRANCH  36  39
HETATM   39  N9  UNL     1      51.323  -1.149  12.967  1.00  0.00    -0.338 N 
HETATM   40  C18 UNL     1      51.415  -1.914  14.289  1.00  0.00     0.158 C 
BRANCH  39  41
HETATM   41  C19 UNL     1      52.518  -0.414  12.705  1.00  0.00     0.013 C 
BRANCH  41  42
HETATM   42  C20 UNL     1      53.100  -0.729  11.421  1.00  0.00     0.028 C 
HETATM   43  C21 UNL     1      53.323  -0.072  10.326  1.00  0.00    -0.078 C 
HETATM   44  C22 UNL     1      53.980  -0.714   9.103  1.00  0.00     0.034 C 
HETATM   45  C25 UNL     1      53.089   1.303   9.826  1.00  0.00     0.034 C 
HETATM   46  C23 UNL     1      55.042   0.309   8.795  1.00  0.00     0.005 C 
HETATM   47  C24 UNL     1      54.458   1.654   9.231  1.00  0.00     0.005 C 
ENDBRANCH  41  42
BRANCH  41  48
HETATM   48  C26 UNL     1      52.444   0.978  13.192  1.00  0.00     0.057 C 
BRANCH  48  49
HETATM   49  C27 UNL     1      53.710   1.601  13.687  1.00  0.00     0.010 C 
BRANCH  49  50
HETATM   50  C28 UNL     1      53.865   3.049  13.380  1.00  0.00    -0.014 C 
HETATM   51  C29 UNL     1      52.763   3.617  12.555  1.00  0.00     0.004 C 
HETATM   52  C30 UNL     1      52.877   5.135  12.513  1.00  0.00     0.000 C 
HETATM   53  C31 UNL     1      54.336   5.551  12.374  1.00  0.00     0.000 C 
HETATM   54  C32 UNL     1      55.049   4.423  11.656  1.00  0.00     0.000 C 
HETATM   55  C33 UNL     1      55.149   3.211  12.557  1.00  0.00     0.004 C 
ENDBRANCH  49  50
ENDBRANCH  48  49
ENDBRANCH  41  48
ENDBRANCH  39  41
ENDBRANCH  36  39
ENDBRANCH  33  36
ENDBRANCH  31  33
ENDBRANCH   1  29
TORSDOF 19
ENDMDL
MODEL 3
REMARK VINA RESULT: -8.474490088      2.347      3.926
REMARK  19 active torsions:
REMARK  status: ('A' for Active; 'I' for Inactive)
REMARK    1  A    between atoms: C2_2  and  C3_3 
REMARK    2  A    between atoms: C3_3  and  N1_4 
REMARK    3  A    between atoms: C3_3  and  C4_8 
REMARK       I    between atoms: C4_8  and  N2_10 
REMARK       I    between atoms: N3_13  and  C7_14 
REMARK       I    between atoms: C7_14  and  N4_16 
REMARK    4  A    between atoms: N4_16  and  C8_18 
REMARK    5  A    between atoms: C8_18  and  C9_19 
REMARK    6  A    between atoms: C8_18  and  C13_27 
REMARK    7  A    between atoms: C9_19  and  C10_20 
REMARK    8  A    between atoms: C10_20  and  C11_21 
REMARK    9  A    between atoms: C11_21  and  N5_22 
REMARK       I    between atoms: N5_22  and  C12_24 
REMARK       I    between atoms: C13_27  and  N8_29 
REMARK   10  A    between atoms: N8_29  and  C14_31 
REMARK   11  A    between atoms: C14_31  and  C15_32 
REMARK   12  A    between atoms: C14_31  and  C17_34 
REMARK   13  A    between atoms: C17_34  and  O4_35 
REMARK   14  A    between atoms: C17_34  and  N9_37 
REMARK   15  A    between atoms: N9_37  and  C19_39 
REMARK   16  A    between atoms: C19_39  and  C20_40 
REMARK   17  A    between atoms: C19_39  and  C26_46 
REMARK   18  A    between atoms: C26_46  and  C27_47 
REMARK   19  A    between atoms: C27_47  and  C28_48 
ROOT
HETATM    1  C8  UNL     1      46.070  -1.830  10.919  1.00  0.00     0.178 C 
ENDROOT
BRANCH   1   2
HETATM    2  N4  UNL     1      44.976  -2.755  11.017  1.00  0.00    -0.330 N 
HETATM    3  C7  UNL     1      44.152  -3.182   9.925  1.00  0.00     0.319 C 
HETATM    4  N3  UNL     1      43.097  -4.098  10.128  1.00  0.00    -0.331 N 
HETATM    5  O2  UNL     1      44.339  -2.761   8.766  1.00  0.00    -0.247 OA
HETATM    6  C6  UNL     1      42.291  -4.525   9.008  1.00  0.00     0.147 C 
HETATM    7  C34 UNL     1      42.772  -4.642  11.443  1.00  0.00     0.147 C 
HETATM    8  C5  UNL     1      41.944  -5.981   9.072  1.00  0.00     0.145 C 
HETATM    9  N2  UNL     1      41.273  -6.227  10.362  1.00  0.00    -0.347 N 
HETATM   10  C4  UNL     1      40.583  -7.436  10.548  1.00  0.00     0.250 C 
HETATM   11  C35 UNL     1      41.366  -5.246  11.405  1.00  0.00     0.145 C 
HETATM   12  O1  UNL     1      40.616  -8.269   9.588  1.00  0.00    -0.271 OA
ATOM     13  H4  UNL     1      44.769  -3.140  11.938  1.00  0.00     0.165 HD
BRANCH  10  14
HETATM   14  C3  UNL     1      39.831  -7.831  11.736  1.00  0.00     0.274 C 
BRANCH  14  15
HETATM   15  C2  UNL     1      38.420  -8.325  11.442  1.00  0.00     0.038 C 
HETATM   16  C1  UNL     1      37.553  -7.328  10.756  1.00  0.00     0.007 C 
ENDBRANCH  14  15
BRANCH  14  17
HETATM   17  N1  UNL     1      40.485  -9.046  12.295  1.00  0.00    -0.067 N 
ATOM     18  H13 UNL     1      41.502  -8.993  12.363  1.00  0.00     0.275 HD
ATOM     19  H12 UNL     1      40.327  -9.199  13.291  1.00  0.00     0.275 HD
ATOM     20  H11 UNL     1      40.133  -9.785  11.686  1.00  0.00     0.275 HD
ENDBRANCH  14  17
ENDBRANCH  10  14
ENDBRANCH   1   2
BRANCH   1  21
HETATM   21  C9  UNL     1      46.212  -0.850  12.017  1.00  0.00     0.036 C 
BRANCH  21  22
HETATM   22  C10 UNL     1      45.920   0.553  11.598  1.00  0.00     0.022 C 
BRANCH  22  23
HETATM   23  C11 UNL     1      44.632   0.575  10.805  1.00  0.00     0.122 C 
BRANCH  23  24
HETATM   24  N5  UNL     1      43.522   1.050  11.615  1.00  0.00    -0.367 N 
HETATM   25  C12 UNL     1      42.672   0.277  12.181  1.00  0.00     0.196 C 
HETATM   26  N6  UNL     1      42.700  -1.144  12.096  1.00  0.00    -0.067 NA
HETATM   27  N7  UNL     1      41.631   0.871  12.943  1.00  0.00    -0.067 NA
ATOM     28  H5  UNL     1      43.414   2.057  11.739  1.00  0.00     0.161 HD
ENDBRANCH  23  24
ENDBRANCH  22  23
ENDBRANCH  21  22
ENDBRANCH   1  21
BRANCH   1  29
HETATM   29  C13 UNL     1      47.372  -2.579  10.752  1.00  0.00     0.241 C 
HETATM   30  O3  UNL     1      47.534  -3.653  11.378  1.00  0.00    -0.271 OA
HETATM   31  N8  UNL     1      48.401  -2.107   9.917  1.00  0.00    -0.347 N 
ATOM     32  H8  UNL     1      48.279  -1.231   9.409  1.00  0.00     0.163 HD
BRANCH  31  33
HETATM   33  C14 UNL     1      49.670  -2.879   9.771  1.00  0.00     0.159 C 
BRANCH  33  34
HETATM   34  C15 UNL     1      50.399  -2.359   8.586  1.00  0.00     0.029 C 
HETATM   35  C16 UNL     1      49.883  -2.844   7.265  1.00  0.00     0.007 C 
ENDBRANCH  33  34
BRANCH  33  36
HETATM   36  C17 UNL     1      50.421  -2.790  11.025  1.00  0.00     0.141 C 
BRANCH  36  37
HETATM   37  O4  UNL     1      51.105  -3.906  11.335  1.00  0.00    -0.348 OA
ATOM     38  H4  UNL     1      50.918  -4.246  12.202  1.00  0.00     0.219 HD
ENDBRANCH  36  37
BRANCH  36  39
HETATM   39  N9  UNL     1      50.600  -1.803  11.970  1.00  0.00    -0.338 N 
HETATM   40  C18 UNL     1      51.952  -1.103  11.810  1.00  0.00     0.158 C 
BRANCH  39  41
HETATM   41  C19 UNL     1      49.868  -1.275  13.077  1.00  0.00     0.013 C 
BRANCH  41  42
HETATM   42  C20 UNL     1      49.584  -2.269  14.086  1.00  0.00     0.028 C 
HETATM   43  C21 UNL     1      50.296  -2.971  14.912  1.00  0.00    -0.078 C 
HETATM   44  C22 UNL     1      49.675  -3.971  15.888  1.00  0.00     0.034 C 
HETATM   45  C25 UNL     1      51.734  -3.127  15.233  1.00  0.00     0.034 C 
HETATM   46  C23 UNL     1      50.346  -3.555  17.170  1.00  0.00     0.005 C 
HETATM   47  C24 UNL     1      51.723  -3.029  16.763  1.00  0.00     0.005 C 
ENDBRANCH  41  42
BRANCH  41  48
HETATM   48  C26 UNL     1      50.301   0.087  13.444  1.00  0.00     0.057 C 
BRANCH  48  49
HETATM   49  C27 UNL     1      49.354   0.915  14.252  1.00  0.00     0.010 C 
BRANCH  49  50
HETATM   50  C28 UNL     1      49.704   1.055  15.691  1.00  0.00    -0.014 C 
HETATM   51  C29 UNL     1      51.065   0.559  16.036  1.00  0.00     0.004 C 
HETATM   52  C30 UNL     1      51.424   0.975  17.457  1.00  0.00     0.000 C 
HETATM   53  C31 UNL     1      50.214   0.829  18.371  1.00  0.00     0.000 C 
HETATM   54  C32 UNL     1      49.348  -0.268  17.785  1.00  0.00     0.000 C 
HETATM   55  C33 UNL     1      48.715   0.201  16.493  1.00  0.00     0.004 C 
ENDBRANCH  49  50
ENDBRANCH  48  49
ENDBRANCH  41  48
ENDBRANCH  39  41
ENDBRANCH  36  39
ENDBRANCH  33  36
ENDBRANCH  31  33
ENDBRANCH   1  29
TORSDOF 19
ENDMDL
MODEL 4
REMARK VINA RESULT: -8.228888362      4.433      8.949
REMARK  19 active torsions:
REMARK  status: ('A' for Active; 'I' for Inactive)
REMARK    1  A    between atoms: C2_2  and  C3_3 
REMARK    2  A    between atoms: C3_3  and  N1_4 
REMARK    3  A    between atoms: C3_3  and  C4_8 
REMARK       I    between atoms: C4_8  and  N2_10 
REMARK       I    between atoms: N3_13  and  C7_14 
REMARK       I    between atoms: C7_14  and  N4_16 
REMARK    4  A    between atoms: N4_16  and  C8_18 
REMARK    5  A    between atoms: C8_18  and  C9_19 
REMARK    6  A    between atoms: C8_18  and  C13_27 
REMARK    7  A    between atoms: C9_19  and  C10_20 
REMARK    8  A    between atoms: C10_20  and  C11_21 
REMARK    9  A    between atoms: C11_21  and  N5_22 
REMARK       I    between atoms: N5_22  and  C12_24 
REMARK       I    between atoms: C13_27  and  N8_29 
REMARK   10  A    between atoms: N8_29  and  C14_31 
REMARK   11  A    between atoms: C14_31  and  C15_32 
REMARK   12  A    between atoms: C14_31  and  C17_34 
REMARK   13  A    between atoms: C17_34  and  O4_35 
REMARK   14  A    between atoms: C17_34  and  N9_37 
REMARK   15  A    between atoms: N9_37  and  C19_39 
REMARK   16  A    between atoms: C19_39  and  C20_40 
REMARK   17  A    between atoms: C19_39  and  C26_46 
REMARK   18  A    between atoms: C26_46  and  C27_47 
REMARK   19  A    between atoms: C27_47  and  C28_48 
ROOT
HETATM    1  C8  UNL     1      39.311  -5.897  11.987  1.00  0.00     0.178 C 
ENDROOT
BRANCH   1   2
HETATM    2  N4  UNL     1      39.166  -4.833  12.940  1.00  0.00    -0.330 N 
HETATM    3  C7  UNL     1      38.052  -3.933  13.015  1.00  0.00     0.319 C 
HETATM    4  N3  UNL     1      38.007  -2.916  13.993  1.00  0.00    -0.331 N 
HETATM    5  O2  UNL     1      37.093  -4.019  12.223  1.00  0.00    -0.247 OA
HETATM    6  C6  UNL     1      36.867  -2.032  14.058  1.00  0.00     0.147 C 
HETATM    7  C34 UNL     1      39.081  -2.707  14.959  1.00  0.00     0.147 C 
HETATM    8  C5  UNL     1      36.461  -1.720  15.466  1.00  0.00     0.145 C 
HETATM    9  N2  UNL     1      37.635  -1.158  16.157  1.00  0.00    -0.347 N 
HETATM   10  C4  UNL     1      37.450  -0.508  17.389  1.00  0.00     0.250 C 
HETATM   11  C35 UNL     1      38.938  -1.314  15.578  1.00  0.00     0.145 C 
HETATM   12  O1  UNL     1      36.267  -0.482  17.852  1.00  0.00    -0.271 OA
ATOM     13  H4  UNL     1      39.916  -4.707  13.619  1.00  0.00     0.165 HD
BRANCH  10  14
HETATM   14  C3  UNL     1      38.485   0.139  18.192  1.00  0.00     0.274 C 
BRANCH  14  15
HETATM   15  C2  UNL     1      37.946   0.923  19.383  1.00  0.00     0.038 C 
HETATM   16  C1  UNL     1      38.591   0.586  20.681  1.00  0.00     0.007 C 
ENDBRANCH  14  15
BRANCH  14  17
HETATM   17  N1  UNL     1      39.278  -0.936  18.848  1.00  0.00    -0.067 N 
ATOM     18  H13 UNL     1      39.996  -0.606  19.493  1.00  0.00     0.275 HD
ATOM     19  H12 UNL     1      38.767  -1.485  19.541  1.00  0.00     0.275 HD
ATOM     20  H11 UNL     1      39.628  -1.469  18.052  1.00  0.00     0.275 HD
ENDBRANCH  14  17
ENDBRANCH  10  14
ENDBRANCH   1   2
BRANCH   1  21
HETATM   21  C9  UNL     1      38.345  -5.923  10.868  1.00  0.00     0.036 C 
BRANCH  21  22
HETATM   22  C10 UNL     1      37.540  -7.179  10.812  1.00  0.00     0.022 C 
BRANCH  22  23
HETATM   23  C11 UNL     1      36.138  -6.848  10.353  1.00  0.00     0.122 C 
BRANCH  23  24
HETATM   24  N5  UNL     1      36.115  -5.628   9.564  1.00  0.00    -0.367 N 
HETATM   25  C12 UNL     1      35.039  -5.017   9.229  1.00  0.00     0.196 C 
HETATM   26  N6  UNL     1      33.730  -5.448   9.583  1.00  0.00    -0.067 NA
HETATM   27  N7  UNL     1      35.156  -3.834   8.452  1.00  0.00    -0.067 NA
ATOM     28  H5  UNL     1      37.005  -5.235   9.259  1.00  0.00     0.161 HD
ENDBRANCH  23  24
ENDBRANCH  22  23
ENDBRANCH  21  22
ENDBRANCH   1  21
BRANCH   1  29
HETATM   29  C13 UNL     1      40.716  -5.908  11.431  1.00  0.00     0.241 C 
HETATM   30  O3  UNL     1      41.478  -6.856  11.736  1.00  0.00    -0.271 OA
HETATM   31  N8  UNL     1      41.189  -4.889  10.585  1.00  0.00    -0.347 N 
ATOM     32  H8  UNL     1      40.578  -4.112  10.337  1.00  0.00     0.163 HD
BRANCH  31  33
HETATM   33  C14 UNL     1      42.582  -4.938  10.047  1.00  0.00     0.159 C 
BRANCH  33  34
HETATM   34  C15 UNL     1      42.588  -5.809   8.844  1.00  0.00     0.029 C 
HETATM   35  C16 UNL     1      41.230  -6.162   8.314  1.00  0.00     0.007 C 
ENDBRANCH  33  34
BRANCH  33  36
HETATM   36  C17 UNL     1      43.038  -3.569   9.800  1.00  0.00     0.141 C 
BRANCH  36  37
HETATM   37  O4  UNL     1      42.806  -3.131   8.550  1.00  0.00    -0.348 OA
ATOM     38  H4  UNL     1      43.590  -3.041   8.021  1.00  0.00     0.219 HD
ENDBRANCH  36  37
BRANCH  36  39
HETATM   39  N9  UNL     1      43.650  -2.605  10.574  1.00  0.00    -0.338 N 
HETATM   40  C18 UNL     1      42.868  -2.332  11.861  1.00  0.00     0.158 C 
BRANCH  39  41
HETATM   41  C19 UNL     1      44.809  -1.776  10.481  1.00  0.00     0.013 C 
BRANCH  41  42
HETATM   42  C20 UNL     1      44.617  -0.477  11.082  1.00  0.00     0.028 C 
HETATM   43  C21 UNL     1      45.363   0.349  11.747  1.00  0.00    -0.078 C 
HETATM   44  C22 UNL     1      44.845   1.692  12.262  1.00  0.00     0.034 C 
HETATM   45  C25 UNL     1      46.760   0.382  12.240  1.00  0.00     0.034 C 
HETATM   46  C23 UNL     1      45.934   2.610  11.773  1.00  0.00     0.005 C 
HETATM   47  C24 UNL     1      47.215   1.775  11.787  1.00  0.00     0.005 C 
ENDBRANCH  41  42
BRANCH  41  48
HETATM   48  C26 UNL     1      46.062  -2.532  10.673  1.00  0.00     0.057 C 
BRANCH  48  49
HETATM   49  C27 UNL     1      46.837  -2.899   9.449  1.00  0.00     0.010 C 
BRANCH  49  50
HETATM   50  C28 UNL     1      48.317  -2.849   9.599  1.00  0.00    -0.014 C 
HETATM   51  C29 UNL     1      49.039  -2.434   8.364  1.00  0.00     0.004 C 
HETATM   52  C30 UNL     1      50.504  -2.167   8.686  1.00  0.00     0.000 C 
HETATM   53  C31 UNL     1      51.030  -3.213   9.660  1.00  0.00     0.000 C 
HETATM   54  C32 UNL     1      50.215  -4.472   9.437  1.00  0.00     0.000 C 
HETATM   55  C33 UNL     1      48.797  -4.269   9.924  1.00  0.00     0.004 C 
ENDBRANCH  49  50
ENDBRANCH  48  49
ENDBRANCH  41  48
ENDBRANCH  39  41
ENDBRANCH  36  39
ENDBRANCH  33  36
ENDBRANCH  31  33
ENDBRANCH   1  29
TORSDOF 19
ENDMDL
MODEL 5
REMARK VINA RESULT: -8.157378673      2.105      4.432
REMARK  19 active torsions:
REMARK  status: ('A' for Active; 'I' for Inactive)
REMARK    1  A    between atoms: C2_2  and  C3_3 
REMARK    2  A    between atoms: C3_3  and  N1_4 
REMARK    3  A    between atoms: C3_3  and  C4_8 
REMARK       I    between atoms: C4_8  and  N2_10 
REMARK       I    between atoms: N3_13  and  C7_14 
REMARK       I    between atoms: C7_14  and  N4_16 
REMARK    4  A    between atoms: N4_16  and  C8_18 
REMARK    5  A    between atoms: C8_18  and  C9_19 
REMARK    6  A    between atoms: C8_18  and  C13_27 
REMARK    7  A    between atoms: C9_19  and  C10_20 
REMARK    8  A    between atoms: C10_20  and  C11_21 
REMARK    9  A    between atoms: C11_21  and  N5_22 
REMARK       I    between atoms: N5_22  and  C12_24 
REMARK       I    between atoms: C13_27  and  N8_29 
REMARK   10  A    between atoms: N8_29  and  C14_31 
REMARK   11  A    between atoms: C14_31  and  C15_32 
REMARK   12  A    between atoms: C14_31  and  C17_34 
REMARK   13  A    between atoms: C17_34  and  O4_35 
REMARK   14  A    between atoms: C17_34  and  N9_37 
REMARK   15  A    between atoms: N9_37  and  C19_39 
REMARK   16  A    between atoms: C19_39  and  C20_40 
REMARK   17  A    between atoms: C19_39  and  C26_46 
REMARK   18  A    between atoms: C26_46  and  C27_47 
REMARK   19  A    between atoms: C27_47  and  C28_48 
ROOT
HETATM    1  C8  UNL     1      46.438  -1.828  10.923  1.00  0.00     0.178 C 
ENDROOT
BRANCH   1   2
HETATM    2  N4  UNL     1      45.307  -2.708  11.016  1.00  0.00    -0.330 N 
HETATM    3  C7  UNL     1      44.402  -3.010   9.947  1.00  0.00     0.319 C 
HETATM    4  N3  UNL     1      43.316  -3.890  10.144  1.00  0.00    -0.331 N 
HETATM    5  O2  UNL     1      44.544  -2.509   8.813  1.00  0.00    -0.247 OA
HETATM    6  C6  UNL     1      42.427  -4.192   9.045  1.00  0.00     0.147 C 
HETATM    7  C34 UNL     1      43.038  -4.519  11.431  1.00  0.00     0.147 C 
HETATM    8  C5  UNL     1      42.012  -5.631   9.021  1.00  0.00     0.145 C 
HETATM    9  N2  UNL     1      41.403  -5.945  10.326  1.00  0.00    -0.347 N 
HETATM   10  C4  UNL     1      40.664  -7.132  10.462  1.00  0.00     0.250 C 
HETATM   11  C35 UNL     1      41.604  -5.053  11.432  1.00  0.00     0.145 C 
HETATM   12  O1  UNL     1      40.602  -7.888   9.443  1.00  0.00    -0.271 OA
ATOM     13  H4  UNL     1      45.133  -3.152  11.917  1.00  0.00     0.165 HD
BRANCH  10  14
HETATM   14  C3  UNL     1      39.962  -7.583  11.661  1.00  0.00     0.274 C 
BRANCH  14  15
HETATM   15  C2  UNL     1      38.602  -8.213  11.382  1.00  0.00     0.038 C 
HETATM   16  C1  UNL     1      37.554  -7.245  10.958  1.00  0.00     0.007 C 
ENDBRANCH  14  15
BRANCH  14  17
HETATM   17  N1  UNL     1      40.733  -8.723  12.228  1.00  0.00    -0.067 N 
ATOM     18  H13 UNL     1      40.479  -9.639  11.858  1.00  0.00     0.275 HD
ATOM     19  H12 UNL     1      41.710  -8.767  11.938  1.00  0.00     0.275 HD
ATOM     20  H11 UNL     1      40.588  -8.609  13.231  1.00  0.00     0.275 HD
ENDBRANCH  14  17
ENDBRANCH  10  14
ENDBRANCH   1   2
BRANCH   1  21
HETATM   21  C9  UNL     1      46.708  -0.966  12.093  1.00  0.00     0.036 C 
BRANCH  21  22
HETATM   22  C10 UNL     1      46.429   0.479  11.838  1.00  0.00     0.022 C 
BRANCH  22  23
HETATM   23  C11 UNL     1      45.182   0.600  10.990  1.00  0.00     0.122 C 
BRANCH  23  24
HETATM   24  N5  UNL     1      44.057   1.084  11.772  1.00  0.00    -0.367 N 
HETATM   25  C12 UNL     1      43.087   0.341  12.158  1.00  0.00     0.196 C 
HETATM   26  N6  UNL     1      42.981  -1.050  11.877  1.00  0.00    -0.067 NA
HETATM   27  N7  UNL     1      42.046   0.942  12.916  1.00  0.00    -0.067 NA
ATOM     28  H5  UNL     1      44.038   2.071  12.028  1.00  0.00     0.161 HD
ENDBRANCH  23  24
ENDBRANCH  22  23
ENDBRANCH  21  22
ENDBRANCH   1  21
BRANCH   1  29
HETATM   29  C13 UNL     1      47.684  -2.617  10.591  1.00  0.00     0.241 C 
HETATM   30  O3  UNL     1      47.648  -3.868  10.682  1.00  0.00    -0.271 OA
HETATM   31  N8  UNL     1      48.876  -1.991  10.185  1.00  0.00    -0.347 N 
ATOM     32  H8  UNL     1      48.915  -0.975  10.113  1.00  0.00     0.163 HD
BRANCH  31  33
HETATM   33  C14 UNL     1      50.084  -2.804   9.857  1.00  0.00     0.159 C 
BRANCH  33  34
HETATM   34  C15 UNL     1      50.191  -2.909   8.380  1.00  0.00     0.029 C 
HETATM   35  C16 UNL     1      49.871  -4.262   7.818  1.00  0.00     0.007 C 
ENDBRANCH  33  34
BRANCH  33  36
HETATM   36  C17 UNL     1      51.250  -2.194  10.502  1.00  0.00     0.141 C 
BRANCH  36  37
HETATM   37  O4  UNL     1      52.402  -2.375   9.834  1.00  0.00    -0.348 OA
ATOM     38  H4  UNL     1      52.945  -3.073  10.180  1.00  0.00     0.219 HD
ENDBRANCH  36  37
BRANCH  36  39
HETATM   39  N9  UNL     1      51.435  -1.455  11.650  1.00  0.00    -0.338 N 
HETATM   40  C18 UNL     1      52.542  -0.412  11.481  1.00  0.00     0.158 C 
BRANCH  39  41
HETATM   41  C19 UNL     1      50.883  -1.420  12.967  1.00  0.00     0.013 C 
BRANCH  41  42
HETATM   42  C20 UNL     1      50.184  -0.187  13.249  1.00  0.00     0.028 C 
HETATM   43  C21 UNL     1      50.104   0.614  14.265  1.00  0.00    -0.078 C 
HETATM   44  C22 UNL     1      49.250   1.882  14.246  1.00  0.00     0.034 C 
HETATM   45  C25 UNL     1      50.659   0.673  15.638  1.00  0.00     0.034 C 
HETATM   46  C23 UNL     1      50.247   2.890  14.756  1.00  0.00     0.005 C 
HETATM   47  C24 UNL     1      51.164   2.119  15.707  1.00  0.00     0.005 C 
ENDBRANCH  41  42
BRANCH  41  48
HETATM   48  C26 UNL     1      50.333  -2.724  13.385  1.00  0.00     0.057 C 
BRANCH  48  49
HETATM   49  C27 UNL     1      49.081  -2.712  14.202  1.00  0.00     0.010 C 
BRANCH  49  50
HETATM   50  C28 UNL     1      49.285  -2.782  15.674  1.00  0.00    -0.014 C 
HETATM   51  C29 UNL     1      49.348  -4.168  16.215  1.00  0.00     0.004 C 
HETATM   52  C30 UNL     1      49.811  -4.138  17.666  1.00  0.00     0.000 C 
HETATM   53  C31 UNL     1      49.162  -2.973  18.402  1.00  0.00     0.000 C 
HETATM   54  C32 UNL     1      47.840  -2.697  17.715  1.00  0.00     0.000 C 
HETATM   55  C33 UNL     1      48.078  -2.111  16.340  1.00  0.00     0.004 C 
ENDBRANCH  49  50
ENDBRANCH  48  49
ENDBRANCH  41  48
ENDBRANCH  39  41
ENDBRANCH  36  39
ENDBRANCH  33  36
ENDBRANCH  31  33
ENDBRANCH   1  29
TORSDOF 19
ENDMDL
