MODEL 1
REMARK VINA RESULT: -8.295272016      0.000      0.000
REMARK  16 active torsions:
REMARK  status: ('A' for Active; 'I' for Inactive)
REMARK    1  A    between atoms: C2_2  and  C3_3 
REMARK       I    between atoms: N1_8  and  C8_9 
REMARK    2  A    between atoms: C8_9  and  C9_11 
REMARK    3  A    between atoms: C9_11  and  C10_12 
REMARK    4  A    between atoms: C9_11  and  N2_16 
REMARK    5  A    between atoms: C10_12  and  C11_13 
REMARK    6  A    between atoms: C11_13  and  C12_14 
REMARK    7  A    between atoms: N2_16  and  S1_18 
REMARK    8  A    between atoms: S1_18  and  C14_21 
REMARK    9  A    between atoms: C14_21  and  C15_22 
REMARK       I    between atoms: N3_26  and  C19_27 
REMARK   10  A    between atoms: C19_27  and  C20_29 
REMARK   11  A    between atoms: C20_29  and  C21_30 
REMARK   12  A    between atoms: C20_29  and  N7_40 
REMARK   13  A    between atoms: C21_30  and  C22_31 
REMARK   14  A    between atoms: C22_31  and  C23_32 
REMARK   15  A    between atoms: C23_32  and  N4_33 
REMARK       I    between atoms: N4_33  and  C24_35 
REMARK       I    between atoms: N7_40  and  C25_42 
REMARK   16  A    between atoms: C25_42  and  C26_44 
ROOT
HETATM    1  C15 UNL     1      47.544  -2.171  10.212  1.00  0.00     0.102 C 
HETATM    2  C16 UNL     1      48.353  -2.114   8.968  1.00  0.00     0.028 C 
HETATM    3  C17 UNL     1      49.530  -3.055   9.160  1.00  0.00     0.022 C 
HETATM    4  C18 UNL     1      49.269  -3.602  10.561  1.00  0.00     0.126 C 
HETATM    5  N3  UNL     1      48.565  -2.464  11.198  1.00  0.00    -0.345 N 
HETATM    6  C19 UNL     1      48.951  -1.859  12.408  1.00  0.00     0.243 C 
HETATM    7  O4  UNL     1      49.895  -2.459  13.058  1.00  0.00    -0.271 OA
ENDROOT
BRANCH   1   8
HETATM    8  C14 UNL     1      46.430  -3.121  10.309  1.00  0.00     0.188 C 
BRANCH   8   9
HETATM    9  S1  UNL     1      44.797  -2.562  10.433  1.00  0.00     0.229 S 
HETATM   10  O2  UNL     1      44.761  -1.100   9.898  1.00  0.00    -0.206 OA
HETATM   11  O3  UNL     1      44.570  -2.291  11.952  1.00  0.00    -0.206 OA
BRANCH   9  12
HETATM   12  N2  UNL     1      43.548  -3.434   9.792  1.00  0.00    -0.306 N 
ATOM     13  H2  UNL     1      43.354  -3.426   8.790  1.00  0.00     0.173 HD
BRANCH  12  14
HETATM   14  C9  UNL     1      42.721  -4.228  10.733  1.00  0.00     0.184 C 
BRANCH  14  15
HETATM   15  C8  UNL     1      42.310  -5.467  10.103  1.00  0.00     0.243 C 
HETATM   16  N1  UNL     1      41.480  -6.463  10.742  1.00  0.00    -0.342 N 
HETATM   17  C3  UNL     1      41.061  -7.728  10.174  1.00  0.00     0.113 C 
HETATM   18  C7  UNL     1      40.925  -6.382  12.067  1.00  0.00     0.131 C 
HETATM   19  C4  UNL     1      40.036  -8.335  11.075  1.00  0.00     0.018 A 
HETATM   20  C5  UNL     1      40.388  -8.873  12.429  1.00  0.00     0.014 A 
HETATM   21  C6  UNL     1      39.925  -7.471  12.252  1.00  0.00     0.010 A 
HETATM   22  O1  UNL     1      42.663  -5.788   8.916  1.00  0.00    -0.271 OA
BRANCH  17  23
HETATM   23  C2  UNL     1      40.485  -7.506   8.838  1.00  0.00    -0.012 C 
HETATM   24  C1  UNL     1      39.195  -7.387   8.616  1.00  0.00     0.009 C 
ENDBRANCH  17  23
ENDBRANCH  14  15
BRANCH  14  25
HETATM   25  C10 UNL     1      41.633  -3.289  11.196  1.00  0.00     0.035 C 
BRANCH  25  26
HETATM   26  C11 UNL     1      41.354  -3.016  12.596  1.00  0.00     0.002 C 
BRANCH  26  27
HETATM   27  C12 UNL     1      39.970  -2.920  13.101  1.00  0.00    -0.004 C 
HETATM   28  C13 UNL     1      39.843  -2.089  14.362  1.00  0.00     0.005 C 
ENDBRANCH  26  27
ENDBRANCH  25  26
ENDBRANCH  14  25
ENDBRANCH  12  14
ENDBRANCH   9  12
ENDBRANCH   8   9
ENDBRANCH   1   8
BRANCH   6  29
HETATM   29  C20 UNL     1      48.422  -0.633  13.010  1.00  0.00     0.176 C 
BRANCH  29  30
HETATM   30  C21 UNL     1      47.267  -0.058  12.271  1.00  0.00     0.036 C 
BRANCH  30  31
HETATM   31  C22 UNL     1      47.007   1.383  12.366  1.00  0.00     0.022 C 
BRANCH  31  32
HETATM   32  C23 UNL     1      45.609   1.648  11.793  1.00  0.00     0.122 C 
BRANCH  32  33
HETATM   33  N4  UNL     1      44.622   0.833  12.475  1.00  0.00    -0.365 N 
HETATM   34  C24 UNL     1      43.251   0.841  12.080  1.00  0.00     0.181 C 
HETATM   35  N5  UNL     1      43.005   1.177  10.858  1.00  0.00    -0.374 N 
HETATM   36  N6  UNL     1      42.265   0.494  13.023  1.00  0.00    -0.064 NA
ATOM     37  H52 UNL     1      43.720   1.428  10.175  1.00  0.00     0.158 HD
ATOM     38  H51 UNL     1      42.025   1.183  10.575  1.00  0.00     0.158 HD
ATOM     39  H4  UNL     1      44.915   0.241  13.252  1.00  0.00     0.162 HD
ENDBRANCH  32  33
ENDBRANCH  31  32
ENDBRANCH  30  31
ENDBRANCH  29  30
BRANCH  29  40
HETATM   40  N7  UNL     1      47.825  -0.958  14.345  1.00  0.00    -0.347 N 
HETATM   41  C25 UNL     1      48.247  -0.256  15.501  1.00  0.00     0.227 C 
HETATM   42  O5  UNL     1      49.129   0.625  15.376  1.00  0.00    -0.273 OA
ATOM     43  H7  UNL     1      47.114  -1.685  14.423  1.00  0.00     0.163 HD
BRANCH  41  44
HETATM   44  C26 UNL     1      47.694  -0.512  16.842  1.00  0.00     0.042 C 
HETATM   45  C27 UNL     1      46.381   0.161  17.058  1.00  0.00     0.024 C 
HETATM   46  C28 UNL     1      45.878  -0.037  18.461  1.00  0.00    -0.013 C 
HETATM   47  C29 UNL     1      46.919   0.337  19.518  1.00  0.00     0.010 C 
HETATM   48  C33 UNL     1      45.806  -1.549  18.723  1.00  0.00     0.010 C 
HETATM   49  C30 UNL     1      48.021  -0.667  19.150  1.00  0.00    -0.009 C 
HETATM   50  C31 UNL     1      48.683  -0.058  17.931  1.00  0.00     0.024 C 
HETATM   51  C32 UNL     1      47.290  -1.894  18.666  1.00  0.00    -0.009 C 
HETATM   52  C34 UNL     1      47.625  -1.987  17.169  1.00  0.00     0.024 C 
ENDBRANCH  41  44
ENDBRANCH  29  40
ENDBRANCH   6  29
TORSDOF 16
ENDMDL
MODEL 2
REMARK VINA RESULT: -8.234010147      3.078      9.587
REMARK  16 active torsions:
REMARK  status: ('A' for Active; 'I' for Inactive)
REMARK    1  A    between atoms: C2_2  and  C3_3 
REMARK       I    between atoms: N1_8  and  C8_9 
REMARK    2  A    between atoms: C8_9  and  C9_11 
REMARK    3  A    between atoms: C9_11  and  C10_12 
REMARK    4  A    between atoms: C9_11  and  N2_16 
REMARK    5  A    between atoms: C10_12  and  C11_13 
REMARK    6  A    between atoms: C11_13  and  C12_14 
REMARK    7  A    between atoms: N2_16  and  S1_18 
REMARK    8  A    between atoms: S1_18  and  C14_21 
REMARK    9  A    between atoms: C14_21  and  C15_22 
REMARK       I    between atoms: N3_26  and  C19_27 
REMARK   10  A    between atoms: C19_27  and  C20_29 
REMARK   11  A    between atoms: C20_29  and  C21_30 
REMARK   12  A    between atoms: C20_29  and  N7_40 
REMARK   13  A    between atoms: C21_30  and  C22_31 
REMARK   14  A    between atoms: C22_31  and  C23_32 
REMARK   15  A    between atoms: C23_32  and  N4_33 
REMARK       I    between atoms: N4_33  and  C24_35 
REMARK       I    between atoms: N7_40  and  C25_42 
REMARK   16  A    between atoms: C25_42  and  C26_44 
ROOT
HETATM    1  C15 UNL     1      47.250   0.467  12.815  1.00  0.00     0.102 C 
HETATM    2  C16 UNL     1      47.921   1.469  11.948  1.00  0.00     0.028 C 
HETATM    3  C17 UNL     1      46.862   2.475  11.532  1.00  0.00     0.022 C 
HETATM    4  C18 UNL     1      45.623   1.940  12.243  1.00  0.00     0.126 C 
HETATM    5  N3  UNL     1      45.904   0.485  12.277  1.00  0.00    -0.345 N 
HETATM    6  C19 UNL     1      45.037  -0.510  11.792  1.00  0.00     0.243 C 
HETATM    7  O4  UNL     1      43.860  -0.105  11.442  1.00  0.00    -0.271 OA
ENDROOT
BRANCH   1   8
HETATM    8  C14 UNL     1      47.239   0.659  14.270  1.00  0.00     0.188 C 
BRANCH   8   9
HETATM    9  S1  UNL     1      48.152  -0.380  15.309  1.00  0.00     0.229 S 
HETATM   10  O2  UNL     1      47.146  -1.085  16.266  1.00  0.00    -0.206 OA
HETATM   11  O3  UNL     1      48.858   0.571  16.323  1.00  0.00    -0.206 OA
BRANCH   9  12
HETATM   12  N2  UNL     1      49.215  -1.482  14.689  1.00  0.00    -0.306 N 
ATOM     13  H2  UNL     1      48.916  -2.189  14.017  1.00  0.00     0.173 HD
BRANCH  12  14
HETATM   14  C9  UNL     1      50.623  -1.402  15.149  1.00  0.00     0.184 C 
BRANCH  14  15
HETATM   15  C8  UNL     1      51.497  -1.156  14.020  1.00  0.00     0.243 C 
HETATM   16  N1  UNL     1      51.773   0.157  13.480  1.00  0.00    -0.342 N 
HETATM   17  C3  UNL     1      52.615   0.460  12.340  1.00  0.00     0.113 C 
HETATM   18  C7  UNL     1      51.253   1.403  13.973  1.00  0.00     0.131 C 
HETATM   19  C4  UNL     1      52.804   1.940  12.273  1.00  0.00     0.018 A 
HETATM   20  C5  UNL     1      51.686   2.867  11.902  1.00  0.00     0.014 A 
HETATM   21  C6  UNL     1      51.974   2.533  13.322  1.00  0.00     0.010 A 
HETATM   22  O1  UNL     1      52.097  -2.097  13.393  1.00  0.00    -0.271 OA
BRANCH  17  23
HETATM   23  C2  UNL     1      53.918  -0.206  12.494  1.00  0.00    -0.012 C 
HETATM   24  C1  UNL     1      54.694  -0.523  11.481  1.00  0.00     0.009 C 
ENDBRANCH  17  23
ENDBRANCH  14  15
BRANCH  14  25
HETATM   25  C10 UNL     1      50.854  -2.663  15.946  1.00  0.00     0.035 C 
BRANCH  25  26
HETATM   26  C11 UNL     1      49.942  -3.795  15.935  1.00  0.00     0.002 C 
BRANCH  26  27
HETATM   27  C12 UNL     1      49.163  -4.167  17.134  1.00  0.00    -0.004 C 
HETATM   28  C13 UNL     1      49.808  -5.266  17.955  1.00  0.00     0.005 C 
ENDBRANCH  26  27
ENDBRANCH  25  26
ENDBRANCH  14  25
ENDBRANCH  12  14
ENDBRANCH   9  12
ENDBRANCH   8   9
ENDBRANCH   1   8
BRANCH   6  29
HETATM   29  C20 UNL     1      45.310  -1.940  11.628  1.00  0.00     0.176 C 
BRANCH  29  30
HETATM   30  C21 UNL     1      44.193  -2.691  10.997  1.00  0.00     0.036 C 
BRANCH  30  31
HETATM   31  C22 UNL     1      44.316  -3.102   9.594  1.00  0.00     0.022 C 
BRANCH  31  32
HETATM   32  C23 UNL     1      42.907  -3.399   9.065  1.00  0.00     0.122 C 
BRANCH  32  33
HETATM   33  N4  UNL     1      42.752  -4.819   8.816  1.00  0.00    -0.365 N 
HETATM   34  C24 UNL     1      42.088  -5.669   9.750  1.00  0.00     0.181 C 
HETATM   35  N5  UNL     1      41.232  -5.105  10.534  1.00  0.00    -0.374 N 
HETATM   36  N6  UNL     1      42.398  -7.043   9.767  1.00  0.00    -0.064 NA
ATOM     37  H52 UNL     1      41.007  -4.110  10.521  1.00  0.00     0.158 HD
ATOM     38  H51 UNL     1      40.756  -5.712  11.202  1.00  0.00     0.158 HD
ATOM     39  H4  UNL     1      43.127  -5.219   7.955  1.00  0.00     0.162 HD
ENDBRANCH  32  33
ENDBRANCH  31  32
ENDBRANCH  30  31
ENDBRANCH  29  30
BRANCH  29  40
HETATM   40  N7  UNL     1      46.423  -2.119  10.641  1.00  0.00    -0.347 N 
HETATM   41  C25 UNL     1      47.674  -2.630  11.065  1.00  0.00     0.227 C 
HETATM   42  O5  UNL     1      47.822  -2.916  12.276  1.00  0.00    -0.273 OA
ATOM     43  H7  UNL     1      46.280  -1.871   9.661  1.00  0.00     0.163 HD
BRANCH  41  44
HETATM   44  C26 UNL     1      48.806  -2.846  10.148  1.00  0.00     0.042 C 
HETATM   45  C27 UNL     1      48.643  -2.119   8.856  1.00  0.00     0.024 C 
HETATM   46  C28 UNL     1      49.763  -2.424   7.900  1.00  0.00    -0.013 C 
HETATM   47  C29 UNL     1      49.985  -3.926   7.714  1.00  0.00     0.010 C 
HETATM   48  C33 UNL     1      51.084  -2.074   8.601  1.00  0.00     0.010 C 
HETATM   49  C30 UNL     1      50.336  -4.308   9.160  1.00  0.00    -0.009 C 
HETATM   50  C31 UNL     1      48.996  -4.347   9.866  1.00  0.00     0.024 C 
HETATM   51  C32 UNL     1      51.072  -3.115   9.714  1.00  0.00    -0.009 C 
HETATM   52  C34 UNL     1      50.140  -2.543  10.793  1.00  0.00     0.024 C 
ENDBRANCH  41  44
ENDBRANCH  29  40
ENDBRANCH   6  29
TORSDOF 16
ENDMDL
MODEL 3
REMARK VINA RESULT: -8.206143553      2.559      5.801
REMARK  16 active torsions:
REMARK  status: ('A' for Active; 'I' for Inactive)
REMARK    1  A    between atoms: C2_2  and  C3_3 
REMARK       I    between atoms: N1_8  and  C8_9 
REMARK    2  A    between atoms: C8_9  and  C9_11 
REMARK    3  A    between atoms: C9_11  and  C10_12 
REMARK    4  A    between atoms: C9_11  and  N2_16 
REMARK    5  A    between atoms: C10_12  and  C11_13 
REMARK    6  A    between atoms: C11_13  and  C12_14 
REMARK    7  A    between atoms: N2_16  and  S1_18 
REMARK    8  A    between atoms: S1_18  and  C14_21 
REMARK    9  A    between atoms: C14_21  and  C15_22 
REMARK       I    between atoms: N3_26  and  C19_27 
REMARK   10  A    between atoms: C19_27  and  C20_29 
REMARK   11  A    between atoms: C20_29  and  C21_30 
REMARK   12  A    between atoms: C20_29  and  N7_40 
REMARK   13  A    between atoms: C21_30  and  C22_31 
REMARK   14  A    between atoms: C22_31  and  C23_32 
REMARK   15  A    between atoms: C23_32  and  N4_33 
REMARK       I    between atoms: N4_33  and  C24_35 
REMARK       I    between atoms: N7_40  and  C25_42 
REMARK   16  A    between atoms: C25_42  and  C26_44 
ROOT
HETATM    1  C15 UNL     1      44.714  -2.702  10.856  1.00  0.00     0.102 C 
HETATM    2  C16 UNL     1      44.058  -1.651  11.677  1.00  0.00     0.028 C 
HETATM    3  C17 UNL     1      44.376  -0.317  11.026  1.00  0.00     0.022 C 
HETATM    4  C18 UNL     1      45.215  -0.743   9.826  1.00  0.00     0.126 C 
HETATM    5  N3  UNL     1      45.857  -1.978  10.336  1.00  0.00    -0.345 N 
HETATM    6  C19 UNL     1      47.243  -2.218  10.339  1.00  0.00     0.243 C 
HETATM    7  O4  UNL     1      47.963  -1.350   9.706  1.00  0.00    -0.271 OA
ENDROOT
BRANCH   1   8
HETATM    8  C14 UNL     1      43.963  -3.349   9.774  1.00  0.00     0.188 C 
BRANCH   8   9
HETATM    9  S1  UNL     1      42.373  -3.973  10.049  1.00  0.00     0.229 S 
HETATM   10  O2  UNL     1      42.061  -4.979   8.902  1.00  0.00    -0.206 OA
HETATM   11  O3  UNL     1      41.405  -2.816   9.654  1.00  0.00    -0.206 OA
BRANCH   9  12
HETATM   12  N2  UNL     1      41.955  -4.625  11.508  1.00  0.00    -0.306 N 
ATOM     13  H2  UNL     1      42.639  -5.112  12.088  1.00  0.00     0.173 HD
BRANCH  12  14
HETATM   14  C9  UNL     1      40.544  -4.475  11.940  1.00  0.00     0.184 C 
BRANCH  14  15
HETATM   15  C8  UNL     1      40.464  -3.540  13.045  1.00  0.00     0.243 C 
HETATM   16  N1  UNL     1      39.224  -3.105  13.649  1.00  0.00    -0.342 N 
HETATM   17  C3  UNL     1      39.081  -2.156  14.735  1.00  0.00     0.113 C 
HETATM   18  C7  UNL     1      37.903  -3.532  13.274  1.00  0.00     0.131 C 
HETATM   19  C4  UNL     1      37.661  -2.174  15.194  1.00  0.00     0.018 A 
HETATM   20  C5  UNL     1      36.547  -1.628  14.352  1.00  0.00     0.014 A 
HETATM   21  C6  UNL     1      36.924  -3.066  14.297  1.00  0.00     0.010 A 
HETATM   22  O1  UNL     1      41.499  -3.009  13.577  1.00  0.00    -0.271 OA
BRANCH  17  23
HETATM   23  C2  UNL     1      39.972  -2.533  15.844  1.00  0.00    -0.012 C 
HETATM   24  C1  UNL     1      39.546  -2.781  17.063  1.00  0.00     0.009 C 
ENDBRANCH  17  23
ENDBRANCH  14  15
BRANCH  14  25
HETATM   25  C10 UNL     1      40.050  -5.881  12.182  1.00  0.00     0.035 C 
BRANCH  25  26
HETATM   26  C11 UNL     1      40.445  -7.019  11.368  1.00  0.00     0.002 C 
BRANCH  26  27
HETATM   27  C12 UNL     1      39.615  -7.481  10.237  1.00  0.00    -0.004 C 
HETATM   28  C13 UNL     1      40.406  -8.205   9.165  1.00  0.00     0.005 C 
ENDBRANCH  26  27
ENDBRANCH  25  26
ENDBRANCH  14  25
ENDBRANCH  12  14
ENDBRANCH   9  12
ENDBRANCH   8   9
ENDBRANCH   1   8
BRANCH   6  29
HETATM   29  C20 UNL     1      47.964  -3.323  10.977  1.00  0.00     0.176 C 
BRANCH  29  30
HETATM   30  C21 UNL     1      48.818  -4.098  10.039  1.00  0.00     0.036 C 
BRANCH  30  31
HETATM   31  C22 UNL     1      50.276  -3.981  10.142  1.00  0.00     0.022 C 
BRANCH  31  32
HETATM   32  C23 UNL     1      50.782  -3.260   8.886  1.00  0.00     0.122 C 
BRANCH  32  33
HETATM   33  N4  UNL     1      50.993  -1.852   9.165  1.00  0.00    -0.365 N 
HETATM   34  C24 UNL     1      52.295  -1.338   9.443  1.00  0.00     0.181 C 
HETATM   35  N5  UNL     1      53.293  -2.008   8.972  1.00  0.00    -0.374 N 
HETATM   36  N6  UNL     1      52.417  -0.157  10.200  1.00  0.00    -0.064 NA
ATOM     37  H52 UNL     1      53.204  -2.863   8.423  1.00  0.00     0.158 HD
ATOM     38  H51 UNL     1      54.223  -1.641   9.170  1.00  0.00     0.158 HD
ATOM     39  H4  UNL     1      50.195  -1.217   9.162  1.00  0.00     0.162 HD
ENDBRANCH  32  33
ENDBRANCH  31  32
ENDBRANCH  30  31
ENDBRANCH  29  30
BRANCH  29  40
HETATM   40  N7  UNL     1      48.965  -2.765  11.943  1.00  0.00    -0.347 N 
HETATM   41  C25 UNL     1      48.527  -2.117  13.124  1.00  0.00     0.227 C 
HETATM   42  O5  UNL     1      47.294  -2.019  13.329  1.00  0.00    -0.273 OA
ATOM     43  H7  UNL     1      49.963  -2.851  11.749  1.00  0.00     0.163 HD
BRANCH  41  44
HETATM   44  C26 UNL     1      49.453  -1.559  14.124  1.00  0.00     0.042 C 
HETATM   45  C27 UNL     1      50.491  -0.679  13.515  1.00  0.00     0.024 C 
HETATM   46  C28 UNL     1      51.480  -0.193  14.538  1.00  0.00    -0.013 C 
HETATM   47  C29 UNL     1      52.076  -1.331  15.367  1.00  0.00     0.010 C 
HETATM   48  C33 UNL     1      50.692   0.521  15.647  1.00  0.00     0.010 C 
HETATM   49  C30 UNL     1      50.791  -1.871  16.012  1.00  0.00    -0.009 C 
HETATM   50  C31 UNL     1      50.142  -2.686  14.914  1.00  0.00     0.024 C 
HETATM   51  C32 UNL     1      49.915  -0.661  16.216  1.00  0.00    -0.009 C 
HETATM   52  C34 UNL     1      48.732  -0.866  15.259  1.00  0.00     0.024 C 
ENDBRANCH  41  44
ENDBRANCH  29  40
ENDBRANCH   6  29
TORSDOF 16
ENDMDL
MODEL 4
REMARK VINA RESULT: -8.186592389      3.435      8.491
REMARK  16 active torsions:
REMARK  status: ('A' for Active; 'I' for Inactive)
REMARK    1  A    between atoms: C2_2  and  C3_3 
REMARK       I    between atoms: N1_8  and  C8_9 
REMARK    2  A    between atoms: C8_9  and  C9_11 
REMARK    3  A    between atoms: C9_11  and  C10_12 
REMARK    4  A    between atoms: C9_11  and  N2_16 
REMARK    5  A    between atoms: C10_12  and  C11_13 
REMARK    6  A    between atoms: C11_13  and  C12_14 
REMARK    7  A    between atoms: N2_16  and  S1_18 
REMARK    8  A    between atoms: S1_18  and  C14_21 
REMARK    9  A    between atoms: C14_21  and  C15_22 
REMARK       I    between atoms: N3_26  and  C19_27 
REMARK   10  A    between atoms: C19_27  and  C20_29 
REMARK   11  A    between atoms: C20_29  and  C21_30 
REMARK   12  A    between atoms: C20_29  and  N7_40 
REMARK   13  A    between atoms: C21_30  and  C22_31 
REMARK   14  A    between atoms: C22_31  and  C23_32 
REMARK   15  A    between atoms: C23_32  and  N4_33 
REMARK       I    between atoms: N4_33  and  C24_35 
REMARK       I    between atoms: N7_40  and  C25_42 
REMARK   16  A    between atoms: C25_42  and  C26_44 
ROOT
HETATM    1  C15 UNL     1      49.507   0.138  13.922  1.00  0.00     0.102 C 
HETATM    2  C16 UNL     1      50.822   0.564  13.378  1.00  0.00     0.028 C 
HETATM    3  C17 UNL     1      50.723   2.053  13.096  1.00  0.00     0.022 C 
HETATM    4  C18 UNL     1      49.296   2.364  13.538  1.00  0.00     0.126 C 
HETATM    5  N3  UNL     1      48.615   1.075  13.269  1.00  0.00    -0.345 N 
HETATM    6  C19 UNL     1      47.456   0.929  12.485  1.00  0.00     0.243 C 
HETATM    7  O4  UNL     1      46.886   2.030  12.117  1.00  0.00    -0.271 OA
ENDROOT
BRANCH   1   8
HETATM    8  C14 UNL     1      49.292   0.130  15.374  1.00  0.00     0.188 C 
BRANCH   8   9
HETATM    9  S1  UNL     1      47.976  -0.751  16.071  1.00  0.00     0.229 S 
HETATM   10  O2  UNL     1      47.534  -1.827  15.035  1.00  0.00    -0.206 OA
HETATM   11  O3  UNL     1      46.751   0.211  15.990  1.00  0.00    -0.206 OA
BRANCH   9  12
HETATM   12  N2  UNL     1      48.104  -1.424  17.574  1.00  0.00    -0.306 N 
ATOM     13  H2  UNL     1      47.999  -0.862  18.419  1.00  0.00     0.173 HD
BRANCH  12  14
HETATM   14  C9  UNL     1      48.377  -2.880  17.645  1.00  0.00     0.184 C 
BRANCH  14  15
HETATM   15  C8  UNL     1      47.411  -3.522  18.513  1.00  0.00     0.243 C 
HETATM   16  N1  UNL     1      47.268  -4.954  18.647  1.00  0.00    -0.342 N 
HETATM   17  C3  UNL     1      46.305  -5.651  19.476  1.00  0.00     0.113 C 
HETATM   18  C7  UNL     1      48.053  -5.952  17.971  1.00  0.00     0.131 C 
HETATM   19  C4  UNL     1      46.657  -7.102  19.492  1.00  0.00     0.018 A 
HETATM   20  C5  UNL     1      46.491  -7.972  18.283  1.00  0.00     0.014 A 
HETATM   21  C6  UNL     1      47.779  -7.288  18.570  1.00  0.00     0.010 A 
HETATM   22  O1  UNL     1      46.586  -2.862  19.236  1.00  0.00    -0.271 OA
BRANCH  17  23
HETATM   23  C2  UNL     1      46.346  -5.110  20.844  1.00  0.00    -0.012 C 
HETATM   24  C1  UNL     1      47.231  -5.480  21.743  1.00  0.00     0.009 C 
ENDBRANCH  17  23
ENDBRANCH  14  15
BRANCH  14  25
HETATM   25  C10 UNL     1      49.834  -2.993  18.023  1.00  0.00     0.035 C 
BRANCH  25  26
HETATM   26  C11 UNL     1      50.842  -3.583  17.157  1.00  0.00     0.002 C 
BRANCH  26  27
HETATM   27  C12 UNL     1      51.471  -2.808  16.069  1.00  0.00    -0.004 C 
HETATM   28  C13 UNL     1      50.934  -3.152  14.694  1.00  0.00     0.005 C 
ENDBRANCH  26  27
ENDBRANCH  25  26
ENDBRANCH  14  25
ENDBRANCH  12  14
ENDBRANCH   9  12
ENDBRANCH   8   9
ENDBRANCH   1   8
BRANCH   6  29
HETATM   29  C20 UNL     1      46.828  -0.314  12.030  1.00  0.00     0.176 C 
BRANCH  29  30
HETATM   30  C21 UNL     1      45.525  -0.106  11.345  1.00  0.00     0.036 C 
BRANCH  30  31
HETATM   31  C22 UNL     1      45.146  -1.003  10.248  1.00  0.00     0.022 C 
BRANCH  31  32
HETATM   32  C23 UNL     1      44.243  -2.101  10.827  1.00  0.00     0.122 C 
BRANCH  32  33
HETATM   33  N4  UNL     1      43.895  -3.060   9.796  1.00  0.00    -0.365 N 
HETATM   34  C24 UNL     1      42.580  -3.607   9.705  1.00  0.00     0.181 C 
HETATM   35  N5  UNL     1      41.625  -2.899  10.207  1.00  0.00    -0.374 N 
HETATM   36  N6  UNL     1      42.402  -4.861   9.090  1.00  0.00    -0.064 NA
ATOM     37  H52 UNL     1      41.755  -1.990  10.652  1.00  0.00     0.158 HD
ATOM     38  H51 UNL     1      40.685  -3.289  10.142  1.00  0.00     0.158 HD
ATOM     39  H4  UNL     1      44.605  -3.350   9.123  1.00  0.00     0.162 HD
ENDBRANCH  32  33
ENDBRANCH  31  32
ENDBRANCH  30  31
ENDBRANCH  29  30
BRANCH  29  40
HETATM   40  N7  UNL     1      47.670  -0.924  10.950  1.00  0.00    -0.347 N 
HETATM   41  C25 UNL     1      48.279  -2.187  11.153  1.00  0.00     0.227 C 
HETATM   42  O5  UNL     1      48.102  -2.765  12.250  1.00  0.00    -0.273 OA
ATOM     43  H7  UNL     1      47.805  -0.429  10.068  1.00  0.00     0.163 HD
BRANCH  41  44
HETATM   44  C26 UNL     1      49.105  -2.852  10.132  1.00  0.00     0.042 C 
HETATM   45  C27 UNL     1      48.733  -4.283   9.937  1.00  0.00     0.024 C 
HETATM   46  C28 UNL     1      49.647  -4.968   8.959  1.00  0.00    -0.013 C 
HETATM   47  C29 UNL     1      51.126  -4.780   9.303  1.00  0.00     0.010 C 
HETATM   48  C33 UNL     1      49.605  -4.174   7.646  1.00  0.00     0.010 C 
HETATM   49  C30 UNL     1      51.212  -3.250   9.204  1.00  0.00    -0.009 C 
HETATM   50  C31 UNL     1      50.597  -2.761  10.500  1.00  0.00     0.024 C 
HETATM   51  C32 UNL     1      50.248  -2.871   8.109  1.00  0.00    -0.009 C 
HETATM   52  C34 UNL     1      49.126  -2.099   8.821  1.00  0.00     0.024 C 
ENDBRANCH  41  44
ENDBRANCH  29  40
ENDBRANCH   6  29
TORSDOF 16
ENDMDL
MODEL 5
REMARK VINA RESULT: -8.147501258      3.587      8.529
REMARK  16 active torsions:
REMARK  status: ('A' for Active; 'I' for Inactive)
REMARK    1  A    between atoms: C2_2  and  C3_3 
REMARK       I    between atoms: N1_8  and  C8_9 
REMARK    2  A    between atoms: C8_9  and  C9_11 
REMARK    3  A    between atoms: C9_11  and  C10_12 
REMARK    4  A    between atoms: C9_11  and  N2_16 
REMARK    5  A    between atoms: C10_12  and  C11_13 
REMARK    6  A    between atoms: C11_13  and  C12_14 
REMARK    7  A    between atoms: N2_16  and  S1_18 
REMARK    8  A    between atoms: S1_18  and  C14_21 
REMARK    9  A    between atoms: C14_21  and  C15_22 
REMARK       I    between atoms: N3_26  and  C19_27 
REMARK   10  A    between atoms: C19_27  and  C20_29 
REMARK   11  A    between atoms: C20_29  and  C21_30 
REMARK   12  A    between atoms: C20_29  and  N7_40 
REMARK   13  A    between atoms: C21_30  and  C22_31 
REMARK   14  A    between atoms: C22_31  and  C23_32 
REMARK   15  A    between atoms: C23_32  and  N4_33 
REMARK       I    between atoms: N4_33  and  C24_35 
REMARK       I    between atoms: N7_40  and  C25_42 
REMARK   16  A    between atoms: C25_42  and  C26_44 
ROOT
HETATM    1  C15 UNL     1      49.760   0.123  13.823  1.00  0.00     0.102 C 
HETATM    2  C16 UNL     1      50.994   0.714  13.245  1.00  0.00     0.028 C 
HETATM    3  C17 UNL     1      50.899   2.217  13.440  1.00  0.00     0.022 C 
HETATM    4  C18 UNL     1      49.560   2.357  14.158  1.00  0.00     0.126 C 
HETATM    5  N3  UNL     1      48.810   1.198  13.619  1.00  0.00    -0.345 N 
HETATM    6  C19 UNL     1      47.546   1.276  13.006  1.00  0.00     0.243 C 
HETATM    7  O4  UNL     1      46.961   2.427  13.073  1.00  0.00    -0.271 OA
ENDROOT
BRANCH   1   8
HETATM    8  C14 UNL     1      49.757  -0.324  15.221  1.00  0.00     0.188 C 
BRANCH   8   9
HETATM    9  S1  UNL     1      49.159  -1.891  15.650  1.00  0.00     0.229 S 
HETATM   10  O2  UNL     1      49.496  -2.857  14.476  1.00  0.00    -0.206 OA
HETATM   11  O3  UNL     1      47.612  -1.799  15.479  1.00  0.00    -0.206 OA
BRANCH   9  12
HETATM   12  N2  UNL     1      49.558  -2.588  17.094  1.00  0.00    -0.306 N 
ATOM     13  H2  UNL     1      49.888  -2.028  17.880  1.00  0.00     0.173 HD
BRANCH  12  14
HETATM   14  C9  UNL     1      49.415  -4.060  17.200  1.00  0.00     0.184 C 
BRANCH  14  15
HETATM   15  C8  UNL     1      48.539  -4.392  18.305  1.00  0.00     0.243 C 
HETATM   16  N1  UNL     1      47.873  -5.667  18.455  1.00  0.00    -0.342 N 
HETATM   17  C3  UNL     1      46.968  -6.046  19.521  1.00  0.00     0.113 C 
HETATM   18  C7  UNL     1      47.984  -6.791  17.565  1.00  0.00     0.131 C 
HETATM   19  C4  UNL     1      46.698  -7.511  19.413  1.00  0.00     0.018 A 
HETATM   20  C5  UNL     1      45.884  -8.088  18.295  1.00  0.00     0.014 A 
HETATM   21  C6  UNL     1      47.364  -7.989  18.201  1.00  0.00     0.010 A 
HETATM   22  O1  UNL     1      48.271  -3.568  19.246  1.00  0.00    -0.271 OA
BRANCH  17  23
HETATM   23  C2  UNL     1      47.581  -5.743  20.824  1.00  0.00    -0.012 C 
HETATM   24  C1  UNL     1      47.701  -6.627  21.791  1.00  0.00     0.009 C 
ENDBRANCH  17  23
ENDBRANCH  14  15
BRANCH  14  25
HETATM   25  C10 UNL     1      50.827  -4.594  17.247  1.00  0.00     0.035 C 
BRANCH  25  26
HETATM   26  C11 UNL     1      51.411  -5.207  18.429  1.00  0.00     0.002 C 
BRANCH  26  27
HETATM   27  C12 UNL     1      51.618  -6.667  18.516  1.00  0.00    -0.004 C 
HETATM   28  C13 UNL     1      50.910  -7.308  19.694  1.00  0.00     0.005 C 
ENDBRANCH  26  27
ENDBRANCH  25  26
ENDBRANCH  14  25
ENDBRANCH  12  14
ENDBRANCH   9  12
ENDBRANCH   8   9
ENDBRANCH   1   8
BRANCH   6  29
HETATM   29  C20 UNL     1      46.823   0.218  12.296  1.00  0.00     0.176 C 
BRANCH  29  30
HETATM   30  C21 UNL     1      45.783   0.729  11.365  1.00  0.00     0.036 C 
BRANCH  30  31
HETATM   31  C22 UNL     1      44.424   0.183  11.448  1.00  0.00     0.022 C 
BRANCH  31  32
HETATM   32  C23 UNL     1      44.376  -1.095  10.600  1.00  0.00     0.122 C 
BRANCH  32  33
HETATM   33  N4  UNL     1      44.146  -2.250  11.445  1.00  0.00    -0.365 N 
HETATM   34  C24 UNL     1      42.901  -2.948  11.426  1.00  0.00     0.181 C 
HETATM   35  N5  UNL     1      42.203  -2.852  10.344  1.00  0.00    -0.374 N 
HETATM   36  N6  UNL     1      42.510  -3.682  12.562  1.00  0.00    -0.064 NA
ATOM     37  H52 UNL     1      42.487  -2.321   9.521  1.00  0.00     0.158 HD
ATOM     38  H51 UNL     1      41.313  -3.350  10.330  1.00  0.00     0.158 HD
ATOM     39  H4  UNL     1      44.889  -2.571  12.066  1.00  0.00     0.162 HD
ENDBRANCH  32  33
ENDBRANCH  31  32
ENDBRANCH  30  31
ENDBRANCH  29  30
BRANCH  29  40
HETATM   40  N7  UNL     1      47.768  -0.490  11.374  1.00  0.00    -0.347 N 
HETATM   41  C25 UNL     1      47.858  -1.904  11.396  1.00  0.00     0.227 C 
HETATM   42  O5  UNL     1      47.140  -2.534  12.207  1.00  0.00    -0.273 OA
ATOM     43  H7  UNL     1      48.348   0.047  10.728  1.00  0.00     0.163 HD
BRANCH  41  44
HETATM   44  C26 UNL     1      48.753  -2.666  10.509  1.00  0.00     0.042 C 
HETATM   45  C27 UNL     1      50.188  -2.532  10.890  1.00  0.00     0.024 C 
HETATM   46  C28 UNL     1      51.091  -3.241   9.919  1.00  0.00    -0.013 C 
HETATM   47  C29 UNL     1      50.821  -2.845   8.467  1.00  0.00     0.010 C 
HETATM   48  C33 UNL     1      50.643  -4.709   9.852  1.00  0.00     0.010 C 
HETATM   49  C30 UNL     1      49.362  -3.308   8.348  1.00  0.00    -0.009 C 
HETATM   50  C31 UNL     1      48.572  -2.221   9.046  1.00  0.00     0.024 C 
HETATM   51  C32 UNL     1      49.265  -4.531   9.223  1.00  0.00    -0.009 C 
HETATM   52  C34 UNL     1      48.344  -4.116  10.380  1.00  0.00     0.024 C 
ENDBRANCH  41  44
ENDBRANCH  29  40
ENDBRANCH   6  29
TORSDOF 16
ENDMDL
