MODEL 1
REMARK VINA RESULT: -8.090667383      0.000      0.000
REMARK  5 active torsions:
REMARK  status: ('A' for Active; 'I' for Inactive)
REMARK    1  A    between atoms: C2_2  and  C3_3 
REMARK    2  A    between atoms: C3_3  and  N1_5 
REMARK    3  A    between atoms: N1_5  and  C5_7 
REMARK    4  A    between atoms: C8_10  and  C9_11 
REMARK    5  A    between atoms: C16_23  and  C17_24 
ROOT
HETATM    1  C5  UNL     1      -8.209  -8.814 -15.440  1.00  0.00     0.101 A 
HETATM    2  C6  UNL     1      -7.199  -9.297 -16.235  1.00  0.00     0.049 A 
HETATM    3  C7  UNL     1      -6.397  -8.393 -16.898  1.00  0.00     0.018 A 
HETATM    4  C8  UNL     1      -6.605  -7.011 -16.765  1.00  0.00     0.000 A 
HETATM    5  C16 UNL     1      -7.611  -6.570 -15.968  1.00  0.00     0.025 A 
HETATM    6  N3  UNL     1      -8.385  -7.480 -15.329  1.00  0.00    -0.345 N 
ATOM      7  H3  UNL     1      -9.140  -7.139 -14.734  1.00  0.00     0.167 HD
ENDROOT
BRANCH   4   8
HETATM    8  C9  UNL     1      -5.729  -6.193 -17.587  1.00  0.00     0.017 A 
HETATM    9  C10 UNL     1      -6.059  -5.826 -18.866  1.00  0.00     0.054 A 
HETATM   10  C11 UNL     1      -5.180  -5.092 -19.662  1.00  0.00     0.101 A 
HETATM   11  C12 UNL     1      -3.952  -4.717 -19.181  1.00  0.00     0.068 A 
HETATM   12  O1  UNL     1      -5.290  -4.617 -20.952  1.00  0.00    -0.296 OA
HETATM   13  C13 UNL     1      -3.600  -5.082 -17.882  1.00  0.00     0.075 A 
HETATM   14  N2  UNL     1      -3.255  -3.985 -20.188  1.00  0.00    -0.336 N 
HETATM   15  C14 UNL     1      -4.494  -5.812 -17.110  1.00  0.00     0.129 A 
HETATM   16  F1  UNL     1      -4.123  -6.156 -15.841  1.00  0.00    -0.205 F 
HETATM   17  C15 UNL     1      -4.050  -4.092 -21.392  1.00  0.00     0.421 C 
ATOM     18  H2  UNL     1      -2.373  -3.484 -20.081  1.00  0.00     0.165 HD
HETATM   19  F2  UNL     1      -4.213  -2.819 -21.908  1.00  0.00    -0.195 F 
ENDBRANCH   4   8
BRANCH   5  20
HETATM   20  C17 UNL     1      -7.827  -5.124 -15.736  1.00  0.00     0.028 C 
HETATM   21  C18 UNL     1      -9.293  -4.842 -15.427  1.00  0.00     0.016 C 
HETATM   22  C19 UNL     1      -7.053  -4.685 -14.474  1.00  0.00     0.016 C 
ENDBRANCH   5  20
BRANCH   1  23
HETATM   23  N1  UNL     1      -8.966  -9.638 -14.814  1.00  0.00    -0.372 N 
ATOM     24  H1  UNL     1      -8.787  -9.815 -13.826  1.00  0.00     0.161 HD
BRANCH  23  25
HETATM   25  C3  UNL     1     -10.048 -10.317 -15.450  1.00  0.00     0.078 C 
HETATM   26  C4  UNL     1      -9.953 -11.837 -15.249  1.00  0.00     0.032 C 
BRANCH  25  27
HETATM   27  C2  UNL     1      -9.899 -10.022 -16.949  1.00  0.00     0.020 C 
HETATM   28  C1  UNL     1      -9.642 -11.253 -17.756  1.00  0.00     0.007 C 
ENDBRANCH  25  27
ENDBRANCH  23  25
ENDBRANCH   1  23
TORSDOF 5
ENDMDL
MODEL 2
REMARK VINA RESULT: -7.945698741      3.767      6.152
REMARK  5 active torsions:
REMARK  status: ('A' for Active; 'I' for Inactive)
REMARK    1  A    between atoms: C2_2  and  C3_3 
REMARK    2  A    between atoms: C3_3  and  N1_5 
REMARK    3  A    between atoms: N1_5  and  C5_7 
REMARK    4  A    between atoms: C8_10  and  C9_11 
REMARK    5  A    between atoms: C16_23  and  C17_24 
ROOT
HETATM    1  C5  UNL     1      -7.193 -11.069 -19.821  1.00  0.00     0.101 A 
HETATM    2  C6  UNL     1      -6.234 -10.099 -19.657  1.00  0.00     0.049 A 
HETATM    3  C7  UNL     1      -6.376  -9.206 -18.617  1.00  0.00     0.018 A 
HETATM    4  C8  UNL     1      -7.473  -9.283 -17.744  1.00  0.00     0.000 A 
HETATM    5  C16 UNL     1      -8.399 -10.256 -17.934  1.00  0.00     0.025 A 
HETATM    6  N3  UNL     1      -8.236 -11.121 -18.965  1.00  0.00    -0.345 N 
ATOM      7  H3  UNL     1      -8.938 -11.848 -19.102  1.00  0.00     0.167 HD
ENDROOT
BRANCH   4   8
HETATM    8  C9  UNL     1      -7.521  -8.225 -16.749  1.00  0.00     0.017 A 
HETATM    9  C10 UNL     1      -7.658  -8.486 -15.410  1.00  0.00     0.054 A 
HETATM   10  C11 UNL     1      -7.763  -7.457 -14.475  1.00  0.00     0.101 A 
HETATM   11  C12 UNL     1      -7.733  -6.146 -14.876  1.00  0.00     0.068 A 
HETATM   12  O1  UNL     1      -7.904  -7.474 -13.103  1.00  0.00    -0.296 OA
HETATM   13  C13 UNL     1      -7.595  -5.862 -16.234  1.00  0.00     0.075 A 
HETATM   14  N2  UNL     1      -7.861  -5.301 -13.733  1.00  0.00    -0.336 N 
HETATM   15  C14 UNL     1      -7.492  -6.906 -17.144  1.00  0.00     0.129 A 
HETATM   16  F1  UNL     1      -7.357  -6.599 -18.469  1.00  0.00    -0.205 F 
HETATM   17  C15 UNL     1      -8.163  -6.170 -12.617  1.00  0.00     0.421 C 
ATOM     18  H2  UNL     1      -7.758  -4.286 -13.708  1.00  0.00     0.165 HD
HETATM   19  F2  UNL     1      -7.300  -5.851 -11.585  1.00  0.00    -0.195 F 
ENDBRANCH   4   8
BRANCH   5  20
HETATM   20  C17 UNL     1      -9.535 -10.428 -17.000  1.00  0.00     0.028 C 
HETATM   21  C18 UNL     1     -10.853 -10.093 -17.689  1.00  0.00     0.016 C 
HETATM   22  C19 UNL     1      -9.650 -11.914 -16.599  1.00  0.00     0.016 C 
ENDBRANCH   5  20
BRANCH   1  23
HETATM   23  N1  UNL     1      -7.079 -11.910 -20.781  1.00  0.00    -0.372 N 
ATOM     24  H1  UNL     1      -6.288 -11.823 -21.418  1.00  0.00     0.161 HD
BRANCH  23  25
HETATM   25  C3  UNL     1      -8.020 -12.962 -20.993  1.00  0.00     0.078 C 
HETATM   26  C4  UNL     1      -7.324 -14.329 -21.079  1.00  0.00     0.032 C 
BRANCH  25  27
HETATM   27  C2  UNL     1      -8.670 -12.670 -22.352  1.00  0.00     0.020 C 
HETATM   28  C1  UNL     1      -7.748 -11.964 -23.293  1.00  0.00     0.007 C 
ENDBRANCH  25  27
ENDBRANCH  23  25
ENDBRANCH   1  23
TORSDOF 5
ENDMDL
MODEL 3
REMARK VINA RESULT: -7.772423670      4.193      6.197
REMARK  5 active torsions:
REMARK  status: ('A' for Active; 'I' for Inactive)
REMARK    1  A    between atoms: C2_2  and  C3_3 
REMARK    2  A    between atoms: C3_3  and  N1_5 
REMARK    3  A    between atoms: N1_5  and  C5_7 
REMARK    4  A    between atoms: C8_10  and  C9_11 
REMARK    5  A    between atoms: C16_23  and  C17_24 
ROOT
HETATM    1  C5  UNL     1      -7.513  -7.994 -15.295  1.00  0.00     0.101 A 
HETATM    2  C6  UNL     1      -6.621  -7.592 -16.260  1.00  0.00     0.049 A 
HETATM    3  C7  UNL     1      -6.650  -8.226 -17.484  1.00  0.00     0.018 A 
HETATM    4  C8  UNL     1      -7.568  -9.258 -17.741  1.00  0.00     0.000 A 
HETATM    5  C16 UNL     1      -8.436  -9.625 -16.765  1.00  0.00     0.025 A 
HETATM    6  N3  UNL     1      -8.386  -8.987 -15.571  1.00  0.00    -0.345 N 
ATOM      7  H3  UNL     1      -9.041  -9.271 -14.843  1.00  0.00     0.167 HD
ENDROOT
BRANCH   4   8
HETATM    8  C9  UNL     1      -7.421  -9.877 -19.048  1.00  0.00     0.017 A 
HETATM    9  C10 UNL     1      -7.421 -11.238 -19.215  1.00  0.00     0.054 A 
HETATM   10  C11 UNL     1      -7.217 -11.816 -20.468  1.00  0.00     0.101 A 
HETATM   11  C12 UNL     1      -7.008 -11.031 -21.572  1.00  0.00     0.068 A 
HETATM   12  O1  UNL     1      -7.177 -13.133 -20.874  1.00  0.00    -0.296 OA
HETATM   13  C13 UNL     1      -7.004  -9.645 -21.419  1.00  0.00     0.075 A 
HETATM   14  N2  UNL     1      -6.826 -11.865 -22.716  1.00  0.00    -0.336 N 
HETATM   15  C14 UNL     1      -7.210  -9.095 -20.161  1.00  0.00     0.129 A 
HETATM   16  F1  UNL     1      -7.202  -7.733 -20.040  1.00  0.00    -0.205 F 
HETATM   17  C15 UNL     1      -6.745 -13.222 -22.221  1.00  0.00     0.421 C 
ATOM     18  H2  UNL     1      -6.766 -11.565 -23.688  1.00  0.00     0.165 HD
HETATM   19  F2  UNL     1      -7.617 -13.997 -22.964  1.00  0.00    -0.195 F 
ENDBRANCH   4   8
BRANCH   5  20
HETATM   20  C17 UNL     1      -9.472 -10.655 -17.008  1.00  0.00     0.028 C 
HETATM   21  C18 UNL     1     -10.079 -11.128 -15.692  1.00  0.00     0.016 C 
HETATM   22  C19 UNL     1     -10.643 -10.030 -17.796  1.00  0.00     0.016 C 
ENDBRANCH   5  20
BRANCH   1  23
HETATM   23  N1  UNL     1      -7.503  -7.417 -14.151  1.00  0.00    -0.372 N 
ATOM     24  H1  UNL     1      -7.419  -7.991 -13.312  1.00  0.00     0.161 HD
BRANCH  23  25
HETATM   25  C3  UNL     1      -7.607  -6.001 -14.007  1.00  0.00     0.078 C 
HETATM   26  C4  UNL     1      -7.375  -5.565 -12.552  1.00  0.00     0.032 C 
BRANCH  25  27
HETATM   27  C2  UNL     1      -9.052  -5.650 -14.387  1.00  0.00     0.020 C 
HETATM   28  C1  UNL     1      -9.132  -4.553 -15.399  1.00  0.00     0.007 C 
ENDBRANCH  25  27
ENDBRANCH  23  25
ENDBRANCH   1  23
TORSDOF 5
ENDMDL
MODEL 4
REMARK VINA RESULT: -7.759121917      3.854      5.970
REMARK  5 active torsions:
REMARK  status: ('A' for Active; 'I' for Inactive)
REMARK    1  A    between atoms: C2_2  and  C3_3 
REMARK    2  A    between atoms: C3_3  and  N1_5 
REMARK    3  A    between atoms: N1_5  and  C5_7 
REMARK    4  A    between atoms: C8_10  and  C9_11 
REMARK    5  A    between atoms: C16_23  and  C17_24 
ROOT
HETATM    1  C5  UNL     1      -8.317  -8.314 -14.636  1.00  0.00     0.101 A 
HETATM    2  C6  UNL     1      -8.895  -9.550 -14.791  1.00  0.00     0.049 A 
HETATM    3  C7  UNL     1      -8.666 -10.239 -15.963  1.00  0.00     0.018 A 
HETATM    4  C8  UNL     1      -7.861  -9.692 -16.976  1.00  0.00     0.000 A 
HETATM    5  C16 UNL     1      -7.304  -8.469 -16.786  1.00  0.00     0.025 A 
HETATM    6  N3  UNL     1      -7.546  -7.813 -15.625  1.00  0.00    -0.345 N 
ATOM      7  H3  UNL     1      -7.125  -6.895 -15.492  1.00  0.00     0.167 HD
ENDROOT
BRANCH   4   8
HETATM    8  C9  UNL     1      -7.780 -10.503 -18.179  1.00  0.00     0.017 A 
HETATM    9  C10 UNL     1      -6.818 -10.299 -19.134  1.00  0.00     0.054 A 
HETATM   10  C11 UNL     1      -6.792 -11.047 -20.311  1.00  0.00     0.101 A 
HETATM   11  C12 UNL     1      -7.738 -12.013 -20.544  1.00  0.00     0.068 A 
HETATM   12  O1  UNL     1      -5.940 -11.024 -21.395  1.00  0.00    -0.296 OA
HETATM   13  C13 UNL     1      -8.723 -12.233 -19.583  1.00  0.00     0.075 A 
HETATM   14  N2  UNL     1      -7.487 -12.622 -21.810  1.00  0.00    -0.336 N 
HETATM   15  C14 UNL     1      -8.726 -11.474 -18.420  1.00  0.00     0.129 A 
HETATM   16  F1  UNL     1      -9.704 -11.711 -17.494  1.00  0.00    -0.205 F 
HETATM   17  C15 UNL     1      -6.439 -11.844 -22.435  1.00  0.00     0.421 C 
ATOM     18  H2  UNL     1      -7.953 -13.442 -22.197  1.00  0.00     0.165 HD
HETATM   19  F2  UNL     1      -5.466 -12.721 -22.877  1.00  0.00    -0.195 F 
ENDBRANCH   4   8
BRANCH   5  20
HETATM   20  C17 UNL     1      -6.389  -7.879 -17.789  1.00  0.00     0.028 C 
HETATM   21  C18 UNL     1      -7.011  -6.641 -18.423  1.00  0.00     0.016 C 
HETATM   22  C19 UNL     1      -5.109  -7.379 -17.086  1.00  0.00     0.016 C 
ENDBRANCH   5  20
BRANCH   1  23
HETATM   23  N1  UNL     1      -8.517  -7.658 -13.553  1.00  0.00    -0.372 N 
ATOM     24  H1  UNL     1      -8.926  -8.142 -12.754  1.00  0.00     0.161 HD
BRANCH  23  25
HETATM   25  C3  UNL     1      -8.189  -6.275 -13.424  1.00  0.00     0.078 C 
HETATM   26  C4  UNL     1      -8.062  -5.862 -11.950  1.00  0.00     0.032 C 
BRANCH  25  27
HETATM   27  C2  UNL     1      -9.372  -5.511 -14.035  1.00  0.00     0.020 C 
HETATM   28  C1  UNL     1      -8.967  -4.633 -15.174  1.00  0.00     0.007 C 
ENDBRANCH  25  27
ENDBRANCH  23  25
ENDBRANCH   1  23
TORSDOF 5
ENDMDL
MODEL 5
REMARK VINA RESULT: -7.694965385      1.782      2.113
REMARK  5 active torsions:
REMARK  status: ('A' for Active; 'I' for Inactive)
REMARK    1  A    between atoms: C2_2  and  C3_3 
REMARK    2  A    between atoms: C3_3  and  N1_5 
REMARK    3  A    between atoms: N1_5  and  C5_7 
REMARK    4  A    between atoms: C8_10  and  C9_11 
REMARK    5  A    between atoms: C16_23  and  C17_24 
ROOT
HETATM    1  C5  UNL     1      -7.847  -9.042 -15.844  1.00  0.00     0.101 A 
HETATM    2  C6  UNL     1      -6.979  -9.446 -16.828  1.00  0.00     0.049 A 
HETATM    3  C7  UNL     1      -6.153  -8.504 -17.402  1.00  0.00     0.018 A 
HETATM    4  C8  UNL     1      -6.196  -7.161 -16.992  1.00  0.00     0.000 A 
HETATM    5  C16 UNL     1      -7.064  -6.798 -16.014  1.00  0.00     0.025 A 
HETATM    6  N3  UNL     1      -7.866  -7.745 -15.468  1.00  0.00    -0.345 N 
ATOM      7  H3  UNL     1      -8.516  -7.463 -14.735  1.00  0.00     0.167 HD
ENDROOT
BRANCH   4   8
HETATM    8  C9  UNL     1      -5.322  -6.278 -17.746  1.00  0.00     0.017 A 
HETATM    9  C10 UNL     1      -4.016  -6.063 -17.388  1.00  0.00     0.054 A 
HETATM   10  C11 UNL     1      -3.209  -5.166 -18.087  1.00  0.00     0.101 A 
HETATM   11  C12 UNL     1      -3.707  -4.469 -19.157  1.00  0.00     0.068 A 
HETATM   12  O1  UNL     1      -1.892  -4.792 -17.917  1.00  0.00    -0.296 OA
HETATM   13  C13 UNL     1      -5.033  -4.674 -19.534  1.00  0.00     0.075 A 
HETATM   14  N2  UNL     1      -2.684  -3.624 -19.686  1.00  0.00    -0.336 N 
HETATM   15  C14 UNL     1      -5.815  -5.574 -18.822  1.00  0.00     0.129 A 
HETATM   16  F1  UNL     1      -7.112  -5.757 -19.213  1.00  0.00    -0.205 F 
HETATM   17  C15 UNL     1      -1.576  -3.699 -18.760  1.00  0.00     0.421 C 
ATOM     18  H2  UNL     1      -2.727  -3.078 -20.546  1.00  0.00     0.165 HD
HETATM   19  F2  UNL     1      -0.430  -3.958 -19.489  1.00  0.00    -0.195 F 
ENDBRANCH   4   8
BRANCH   5  20
HETATM   20  C17 UNL     1      -7.098  -5.413 -15.494  1.00  0.00     0.028 C 
HETATM   21  C18 UNL     1      -8.357  -4.693 -15.963  1.00  0.00     0.016 C 
HETATM   22  C19 UNL     1      -7.196  -5.445 -13.954  1.00  0.00     0.016 C 
ENDBRANCH   5  20
BRANCH   1  23
HETATM   23  N1  UNL     1      -8.623  -9.903 -15.297  1.00  0.00    -0.372 N 
ATOM     24  H1  UNL     1      -8.352 -10.309 -14.401  1.00  0.00     0.161 HD
BRANCH  23  25
HETATM   25  C3  UNL     1      -9.851 -10.315 -15.895  1.00  0.00     0.078 C 
HETATM   26  C4  UNL     1     -10.977 -10.416 -14.855  1.00  0.00     0.032 C 
BRANCH  25  27
HETATM   27  C2  UNL     1      -9.589 -11.721 -16.453  1.00  0.00     0.020 C 
HETATM   28  C1  UNL     1      -9.275 -11.712 -17.914  1.00  0.00     0.007 C 
ENDBRANCH  25  27
ENDBRANCH  23  25
ENDBRANCH   1  23
TORSDOF 5
ENDMDL
