MODEL 1
REMARK VINA RESULT: -8.553875580      0.000      0.000
REMARK  4 active torsions:
REMARK  status: ('A' for Active; 'I' for Inactive)
REMARK    1  A    between atoms: C9_9  and  N1_10 
REMARK    2  A    between atoms: C11_14  and  C12_15 
REMARK    3  A    between atoms: C12_15  and  C13_17 
REMARK    4  A    between atoms: C13_17  and  C14_18 
ROOT
HETATM    1  N1  UNL     1      -5.385  -4.753 -16.677  1.00  0.00    -0.271 N 
HETATM    2  N2  UNL     1      -4.754  -4.819 -15.520  1.00  0.00    -0.307 N 
ATOM      3  H2  UNL     1      -3.758  -4.645 -15.383  1.00  0.00     0.186 HD
HETATM    4  C10 UNL     1      -5.625  -5.153 -14.548  1.00  0.00     0.126 A 
HETATM    5  C11 UNL     1      -6.861  -5.308 -15.092  1.00  0.00     0.071 A 
HETATM    6  C19 UNL     1      -6.687  -5.046 -16.475  1.00  0.00     0.131 A 
HETATM    7  N3  UNL     1      -7.621  -5.126 -17.292  1.00  0.00    -0.383 N 
ATOM      8  H31 UNL     1      -8.604  -5.347 -17.140  1.00  0.00     0.157 HD
ATOM      9  H32 UNL     1      -7.495  -4.938 -18.287  1.00  0.00     0.157 HD
ENDROOT
BRANCH   5  10
HETATM   10  C12 UNL     1      -8.124  -5.637 -14.445  1.00  0.00     0.165 C 
HETATM   11  O1  UNL     1      -8.996  -4.756 -14.311  1.00  0.00    -0.292 OA
BRANCH  10  12
HETATM   12  C13 UNL     1      -8.352  -7.003 -13.957  1.00  0.00     0.089 C 
BRANCH  12  13
HETATM   13  C14 UNL     1      -8.615  -8.040 -14.974  1.00  0.00    -0.001 C 
HETATM   14  C15 UNL     1      -7.321  -8.616 -15.567  1.00  0.00     0.011 C 
HETATM   15  C16 UNL     1      -7.886  -9.688 -16.473  1.00  0.00     0.079 C 
HETATM   16  C17 UNL     1      -9.228 -10.106 -15.857  1.00  0.00     0.244 C 
HETATM   17  F1  UNL     1      -9.279 -11.449 -15.604  1.00  0.00    -0.206 F 
HETATM   18  F2  UNL     1     -10.258  -9.672 -16.651  1.00  0.00    -0.206 F 
HETATM   19  C18 UNL     1      -9.304  -9.284 -14.549  1.00  0.00     0.084 C 
ENDBRANCH  12  13
ENDBRANCH  10  12
ENDBRANCH   5  10
BRANCH   1  20
HETATM   20  C9  UNL     1      -4.689  -4.398 -17.904  1.00  0.00     0.118 C 
HETATM   21  C2  UNL     1      -4.507  -5.589 -18.800  1.00  0.00    -0.021 C 
HETATM   22  C1  UNL     1      -5.711  -5.772 -19.724  1.00  0.00     0.017 C 
HETATM   23  C3  UNL     1      -4.294  -6.823 -17.957  1.00  0.00     0.017 C 
HETATM   24  C4  UNL     1      -3.330  -5.408 -19.743  1.00  0.00    -0.004 C 
HETATM   25  C5  UNL     1      -3.303  -3.955 -20.187  1.00  0.00     0.010 C 
HETATM   26  C7  UNL     1      -2.052  -5.131 -18.994  1.00  0.00     0.010 C 
HETATM   27  C6  UNL     1      -2.552  -3.674 -18.935  1.00  0.00    -0.012 C 
HETATM   28  C8  UNL     1      -3.425  -3.658 -17.682  1.00  0.00     0.033 C 
ENDBRANCH   1  20
TORSDOF 4
ENDMDL
MODEL 2
REMARK VINA RESULT: -8.376290130      1.291      1.726
REMARK  4 active torsions:
REMARK  status: ('A' for Active; 'I' for Inactive)
REMARK    1  A    between atoms: C9_9  and  N1_10 
REMARK    2  A    between atoms: C11_14  and  C12_15 
REMARK    3  A    between atoms: C12_15  and  C13_17 
REMARK    4  A    between atoms: C13_17  and  C14_18 
ROOT
HETATM    1  N1  UNL     1      -4.467  -4.818 -16.954  1.00  0.00    -0.271 N 
HETATM    2  N2  UNL     1      -3.834  -5.761 -16.282  1.00  0.00    -0.307 N 
ATOM      3  H2  UNL     1      -2.986  -6.236 -16.592  1.00  0.00     0.186 HD
HETATM    4  C10 UNL     1      -4.478  -6.000 -15.123  1.00  0.00     0.126 A 
HETATM    5  C11 UNL     1      -5.563  -5.186 -15.041  1.00  0.00     0.071 A 
HETATM    6  C19 UNL     1      -5.542  -4.427 -16.239  1.00  0.00     0.131 A 
HETATM    7  N3  UNL     1      -6.419  -3.589 -16.514  1.00  0.00    -0.383 N 
ATOM      8  H31 UNL     1      -7.232  -3.294 -15.973  1.00  0.00     0.157 HD
ATOM      9  H32 UNL     1      -6.404  -3.044 -17.375  1.00  0.00     0.157 HD
ENDROOT
BRANCH   5  10
HETATM   10  C12 UNL     1      -6.547  -5.056 -13.973  1.00  0.00     0.165 C 
HETATM   11  O1  UNL     1      -6.241  -4.458 -12.924  1.00  0.00    -0.292 OA
BRANCH  10  12
HETATM   12  C13 UNL     1      -7.885  -5.634 -14.150  1.00  0.00     0.089 C 
BRANCH  12  13
HETATM   13  C14 UNL     1      -7.955  -7.081 -14.434  1.00  0.00    -0.001 C 
HETATM   14  C15 UNL     1      -9.067  -7.777 -13.636  1.00  0.00     0.011 C 
HETATM   15  C16 UNL     1      -8.967  -9.181 -14.191  1.00  0.00     0.079 C 
HETATM   16  C17 UNL     1      -8.399  -9.041 -15.610  1.00  0.00     0.244 C 
HETATM   17  F1  UNL     1      -9.215  -9.611 -16.547  1.00  0.00    -0.206 F 
HETATM   18  F2  UNL     1      -7.118  -9.531 -15.648  1.00  0.00    -0.206 F 
HETATM   19  C18 UNL     1      -8.292  -7.512 -15.814  1.00  0.00     0.084 C 
ENDBRANCH  12  13
ENDBRANCH  10  12
ENDBRANCH   5  10
BRANCH   1  20
HETATM   20  C9  UNL     1      -3.983  -4.347 -18.243  1.00  0.00     0.118 C 
HETATM   21  C2  UNL     1      -4.407  -5.259 -19.358  1.00  0.00    -0.021 C 
HETATM   22  C1  UNL     1      -5.777  -4.857 -19.905  1.00  0.00     0.017 C 
HETATM   23  C3  UNL     1      -4.431  -6.683 -18.861  1.00  0.00     0.017 C 
HETATM   24  C4  UNL     1      -3.476  -5.154 -20.554  1.00  0.00    -0.004 C 
HETATM   25  C5  UNL     1      -3.070  -3.697 -20.707  1.00  0.00     0.010 C 
HETATM   26  C7  UNL     1      -2.046  -5.440 -20.175  1.00  0.00     0.010 C 
HETATM   27  C6  UNL     1      -2.012  -3.973 -19.701  1.00  0.00    -0.012 C 
HETATM   28  C8  UNL     1      -2.530  -4.061 -18.267  1.00  0.00     0.033 C 
ENDBRANCH   1  20
TORSDOF 4
ENDMDL
MODEL 3
REMARK VINA RESULT: -8.312170407      1.211      1.289
REMARK  4 active torsions:
REMARK  status: ('A' for Active; 'I' for Inactive)
REMARK    1  A    between atoms: C9_9  and  N1_10 
REMARK    2  A    between atoms: C11_14  and  C12_15 
REMARK    3  A    between atoms: C12_15  and  C13_17 
REMARK    4  A    between atoms: C13_17  and  C14_18 
ROOT
HETATM    1  N1  UNL     1      -4.833  -5.547 -17.340  1.00  0.00    -0.271 N 
HETATM    2  N2  UNL     1      -4.265  -6.472 -16.590  1.00  0.00    -0.307 N 
ATOM      3  H2  UNL     1      -3.284  -6.747 -16.638  1.00  0.00     0.186 HD
HETATM    4  C10 UNL     1      -5.179  -6.998 -15.751  1.00  0.00     0.126 A 
HETATM    5  C11 UNL     1      -6.378  -6.395 -15.964  1.00  0.00     0.071 A 
HETATM    6  C19 UNL     1      -6.135  -5.456 -17.000  1.00  0.00     0.131 A 
HETATM    7  N3  UNL     1      -7.033  -4.738 -17.473  1.00  0.00    -0.383 N 
ATOM      8  H31 UNL     1      -8.018  -4.669 -17.216  1.00  0.00     0.157 HD
ATOM      9  H32 UNL     1      -6.859  -4.063 -18.218  1.00  0.00     0.157 HD
ENDROOT
BRANCH   5  10
HETATM   10  C12 UNL     1      -7.653  -6.600 -15.290  1.00  0.00     0.165 C 
HETATM   11  O1  UNL     1      -8.413  -5.631 -15.101  1.00  0.00    -0.292 OA
BRANCH  10  12
HETATM   12  C13 UNL     1      -8.022  -7.948 -14.839  1.00  0.00     0.089 C 
BRANCH  12  13
HETATM   13  C14 UNL     1      -8.661  -8.833 -15.833  1.00  0.00    -0.001 C 
HETATM   14  C15 UNL     1      -7.633  -9.594 -16.681  1.00  0.00     0.011 C 
HETATM   15  C16 UNL     1      -8.550 -10.465 -17.512  1.00  0.00     0.079 C 
HETATM   16  C17 UNL     1      -9.820 -10.670 -16.674  1.00  0.00     0.244 C 
HETATM   17  F1  UNL     1     -10.094 -11.994 -16.475  1.00  0.00    -0.206 F 
HETATM   18  F2  UNL     1     -10.865  -9.987 -17.242  1.00  0.00    -0.206 F 
HETATM   19  C18 UNL     1      -9.500  -9.954 -15.340  1.00  0.00     0.084 C 
ENDBRANCH  12  13
ENDBRANCH  10  12
ENDBRANCH   5  10
BRANCH   1  20
HETATM   20  C9  UNL     1      -4.074  -4.800 -18.332  1.00  0.00     0.118 C 
HETATM   21  C2  UNL     1      -4.262  -5.365 -19.710  1.00  0.00    -0.021 C 
HETATM   22  C1  UNL     1      -5.474  -4.740 -20.401  1.00  0.00     0.017 C 
HETATM   23  C3  UNL     1      -4.415  -6.864 -19.622  1.00  0.00     0.017 C 
HETATM   24  C4  UNL     1      -3.092  -5.027 -20.619  1.00  0.00    -0.004 C 
HETATM   25  C5  UNL     1      -2.639  -3.612 -20.297  1.00  0.00     0.010 C 
HETATM   26  C7  UNL     1      -1.782  -5.503 -20.045  1.00  0.00     0.010 C 
HETATM   27  C6  UNL     1      -1.828  -4.211 -19.204  1.00  0.00    -0.012 C 
HETATM   28  C8  UNL     1      -2.646  -4.622 -17.982  1.00  0.00     0.033 C 
ENDBRANCH   1  20
TORSDOF 4
ENDMDL
MODEL 4
REMARK VINA RESULT: -8.291493242      3.933      5.828
REMARK  4 active torsions:
REMARK  status: ('A' for Active; 'I' for Inactive)
REMARK    1  A    between atoms: C9_9  and  N1_10 
REMARK    2  A    between atoms: C11_14  and  C12_15 
REMARK    3  A    between atoms: C12_15  and  C13_17 
REMARK    4  A    between atoms: C13_17  and  C14_18 
ROOT
HETATM    1  N1  UNL     1      -8.121  -8.222 -14.842  1.00  0.00    -0.271 N 
HETATM    2  N2  UNL     1      -8.881  -8.980 -14.076  1.00  0.00    -0.307 N 
ATOM      3  H2  UNL     1      -8.954  -8.905 -13.061  1.00  0.00     0.186 HD
HETATM    4  C10 UNL     1      -9.548  -9.870 -14.838  1.00  0.00     0.126 A 
HETATM    5  C11 UNL     1      -9.209  -9.681 -16.140  1.00  0.00     0.071 A 
HETATM    6  C19 UNL     1      -8.281  -8.608 -16.125  1.00  0.00     0.131 A 
HETATM    7  N3  UNL     1      -7.735  -8.183 -17.158  1.00  0.00    -0.383 N 
ATOM      8  H31 UNL     1      -7.855  -8.476 -18.128  1.00  0.00     0.157 HD
ATOM      9  H32 UNL     1      -7.067  -7.413 -17.147  1.00  0.00     0.157 HD
ENDROOT
BRANCH   5  10
HETATM   10  C12 UNL     1      -9.684 -10.373 -17.332  1.00  0.00     0.165 C 
HETATM   11  O1  UNL     1     -10.690  -9.948 -17.931  1.00  0.00    -0.292 OA
BRANCH  10  12
HETATM   12  C13 UNL     1      -8.968 -11.564 -17.808  1.00  0.00     0.089 C 
BRANCH  12  13
HETATM   13  C14 UNL     1      -8.493 -11.544 -19.205  1.00  0.00    -0.001 C 
HETATM   14  C15 UNL     1      -7.150 -10.815 -19.353  1.00  0.00     0.011 C 
HETATM   15  C16 UNL     1      -6.877 -11.036 -20.824  1.00  0.00     0.079 C 
HETATM   16  C17 UNL     1      -7.597 -12.337 -21.203  1.00  0.00     0.244 C 
HETATM   17  F1  UNL     1      -6.745 -13.256 -21.748  1.00  0.00    -0.206 F 
HETATM   18  F2  UNL     1      -8.668 -12.055 -22.013  1.00  0.00    -0.206 F 
HETATM   19  C18 UNL     1      -8.181 -12.839 -19.861  1.00  0.00     0.084 C 
ENDBRANCH  12  13
ENDBRANCH  10  12
ENDBRANCH   5  10
BRANCH   1  20
HETATM   20  C9  UNL     1      -7.297  -7.161 -14.284  1.00  0.00     0.118 C 
HETATM   21  C2  UNL     1      -8.121  -5.963 -13.906  1.00  0.00    -0.021 C 
HETATM   22  C1  UNL     1      -8.648  -6.087 -12.477  1.00  0.00     0.017 C 
HETATM   23  C3  UNL     1      -9.263  -5.811 -14.881  1.00  0.00     0.017 C 
HETATM   24  C4  UNL     1      -7.290  -4.691 -13.895  1.00  0.00    -0.004 C 
HETATM   25  C5  UNL     1      -5.917  -5.032 -13.339  1.00  0.00     0.010 C 
HETATM   26  C7  UNL     1      -6.617  -4.451 -15.222  1.00  0.00     0.010 C 
HETATM   27  C6  UNL     1      -5.555  -5.450 -14.719  1.00  0.00    -0.012 C 
HETATM   28  C8  UNL     1      -6.132  -6.804 -15.126  1.00  0.00     0.033 C 
ENDBRANCH   1  20
TORSDOF 4
ENDMDL
MODEL 5
REMARK VINA RESULT: -8.277291575      3.783      5.725
REMARK  4 active torsions:
REMARK  status: ('A' for Active; 'I' for Inactive)
REMARK    1  A    between atoms: C9_9  and  N1_10 
REMARK    2  A    between atoms: C11_14  and  C12_15 
REMARK    3  A    between atoms: C12_15  and  C13_17 
REMARK    4  A    between atoms: C13_17  and  C14_18 
ROOT
HETATM    1  N1  UNL     1      -7.389  -7.633 -16.228  1.00  0.00    -0.271 N 
HETATM    2  N2  UNL     1      -6.896  -7.522 -17.447  1.00  0.00    -0.307 N 
ATOM      3  H2  UNL     1      -6.211  -6.826 -17.743  1.00  0.00     0.186 HD
HETATM    4  C10 UNL     1      -7.436  -8.467 -18.242  1.00  0.00     0.126 A 
HETATM    5  C11 UNL     1      -8.306  -9.216 -17.515  1.00  0.00     0.071 A 
HETATM    6  C19 UNL     1      -8.266  -8.660 -16.210  1.00  0.00     0.131 A 
HETATM    7  N3  UNL     1      -8.971  -9.088 -15.280  1.00  0.00    -0.383 N 
ATOM      8  H31 UNL     1      -9.633  -9.863 -15.266  1.00  0.00     0.157 HD
ATOM      9  H32 UNL     1      -8.942  -8.688 -14.342  1.00  0.00     0.157 HD
ENDROOT
BRANCH   5  10
HETATM   10  C12 UNL     1      -9.107 -10.363 -17.921  1.00  0.00     0.165 C 
HETATM   11  O1  UNL     1     -10.350 -10.289 -17.889  1.00  0.00    -0.292 OA
BRANCH  10  12
HETATM   12  C13 UNL     1      -8.435 -11.593 -18.359  1.00  0.00     0.089 C 
BRANCH  12  13
HETATM   13  C14 UNL     1      -8.235 -11.764 -19.812  1.00  0.00    -0.001 C 
HETATM   14  C15 UNL     1      -6.828 -11.343 -20.259  1.00  0.00     0.011 C 
HETATM   15  C16 UNL     1      -6.883 -11.712 -21.725  1.00  0.00     0.079 C 
HETATM   16  C17 UNL     1      -7.900 -12.855 -21.842  1.00  0.00     0.244 C 
HETATM   17  F1  UNL     1      -7.358 -13.965 -22.427  1.00  0.00    -0.206 F 
HETATM   18  F2  UNL     1      -9.028 -12.410 -22.482  1.00  0.00    -0.206 F 
HETATM   19  C18 UNL     1      -8.308 -13.135 -20.376  1.00  0.00     0.084 C 
ENDBRANCH  12  13
ENDBRANCH  10  12
ENDBRANCH   5  10
BRANCH   1  20
HETATM   20  C9  UNL     1      -6.971  -6.746 -15.154  1.00  0.00     0.118 C 
HETATM   21  C2  UNL     1      -7.852  -5.533 -15.067  1.00  0.00    -0.021 C 
HETATM   22  C1  UNL     1      -9.059  -5.793 -14.167  1.00  0.00     0.017 C 
HETATM   23  C3  UNL     1      -8.299  -5.136 -16.453  1.00  0.00     0.017 C 
HETATM   24  C4  UNL     1      -7.135  -4.365 -14.411  1.00  0.00    -0.004 C 
HETATM   25  C5  UNL     1      -6.272  -4.914 -13.287  1.00  0.00     0.010 C 
HETATM   26  C7  UNL     1      -5.857  -4.018 -15.130  1.00  0.00     0.010 C 
HETATM   27  C6  UNL     1      -5.239  -5.178 -14.323  1.00  0.00    -0.012 C 
HETATM   28  C8  UNL     1      -5.532  -6.400 -15.191  1.00  0.00     0.033 C 
ENDBRANCH   1  20
TORSDOF 4
ENDMDL
