MODEL 1
REMARK VINA RESULT: -7.217187801      0.000      0.000
REMARK  7 active torsions:
REMARK  status: ('A' for Active; 'I' for Inactive)
REMARK    1  A    between atoms: N1_2  and  C2_4 
REMARK    2  A    between atoms: C2_4  and  C3_5 
REMARK    3  A    between atoms: C3_5  and  C6_8 
REMARK    4  A    between atoms: C7_9  and  C8_10 
REMARK    5  A    between atoms: C12_14  and  C13_15 
REMARK    6  A    between atoms: C13_15  and  O1_16 
REMARK    7  A    between atoms: C13_15  and  C14_18 
ROOT
HETATM    1  C8  UNL     1      -8.104 -10.344 -17.862  1.00  0.00     0.059 A 
HETATM    2  C9  UNL     1      -7.505  -9.184 -17.465  1.00  0.00     0.041 A 
HETATM    3  C10 UNL     1      -7.909  -8.645 -16.291  1.00  0.00    -0.016 A 
HETATM    4  C11 UNL     1      -7.428  -7.458 -15.702  1.00  0.00     0.025 A 
HETATM    5  C12 UNL     1      -7.948  -7.043 -14.502  1.00  0.00     0.011 A 
HETATM    6  C15 UNL     1      -8.934  -7.708 -13.797  1.00  0.00     0.126 A 
HETATM    7  F1  UNL     1      -9.445  -7.313 -12.630  1.00  0.00    -0.205 F 
HETATM    8  C16 UNL     1      -9.400  -8.877 -14.388  1.00  0.00     0.062 A 
HETATM    9  C17 UNL     1      -8.883  -9.310 -15.604  1.00  0.00     0.019 A 
HETATM   10  S1  UNL     1      -9.209 -10.654 -16.597  1.00  0.00    -0.080 SA
ENDROOT
BRANCH   1  11
HETATM   11  C7  UNL     1      -7.849 -11.118 -19.075  1.00  0.00    -0.059 C 
HETATM   12  C6  UNL     1      -7.618 -11.764 -20.065  1.00  0.00    -0.089 C 
BRANCH  12  13
HETATM   13  C3  UNL     1      -7.297 -12.572 -21.277  1.00  0.00     0.032 C 
HETATM   14  C4  UNL     1      -5.856 -12.349 -21.562  1.00  0.00     0.030 C 
HETATM   15  C5  UNL     1      -7.507 -14.059 -20.952  1.00  0.00     0.030 C 
BRANCH  13  16
HETATM   16  C2  UNL     1      -8.271 -12.150 -22.311  1.00  0.00     0.135 C 
BRANCH  16  17
HETATM   17  N1  UNL     1      -9.117 -13.123 -22.886  1.00  0.00    -0.424 N 
HETATM   18  C1  UNL     1      -9.028 -13.356 -24.293  1.00  0.00     0.139 C 
ATOM     19  H1  UNL     1      -9.775 -13.647 -22.310  1.00  0.00     0.152 HD
ENDBRANCH  16  17
ENDBRANCH  13  16
ENDBRANCH  12  13
ENDBRANCH   1  11
BRANCH   5  20
HETATM   20  C13 UNL     1      -7.454  -5.778 -13.856  1.00  0.00     0.168 C 
BRANCH  20  21
HETATM   21  O1  UNL     1      -8.417  -4.798 -14.094  1.00  0.00    -0.390 OA
ATOM     22  H1  UNL     1      -8.067  -3.980 -13.762  1.00  0.00     0.210 HD
ENDBRANCH  20  21
BRANCH  20  23
HETATM   23  C14 UNL     1      -6.164  -5.308 -14.501  1.00  0.00     0.151 C 
HETATM   24 CL1  UNL     1      -6.568  -3.904 -15.517  1.00  0.00    -0.128 Cl
ENDBRANCH  20  23
ENDBRANCH   5  20
TORSDOF 7
ENDMDL
MODEL 2
REMARK VINA RESULT: -7.208461844      4.905      8.539
REMARK  7 active torsions:
REMARK  status: ('A' for Active; 'I' for Inactive)
REMARK    1  A    between atoms: N1_2  and  C2_4 
REMARK    2  A    between atoms: C2_4  and  C3_5 
REMARK    3  A    between atoms: C3_5  and  C6_8 
REMARK    4  A    between atoms: C7_9  and  C8_10 
REMARK    5  A    between atoms: C12_14  and  C13_15 
REMARK    6  A    between atoms: C13_15  and  O1_16 
REMARK    7  A    between atoms: C13_15  and  C14_18 
ROOT
HETATM    1  C8  UNL     1      -8.289  -9.051 -16.446  1.00  0.00     0.059 A 
HETATM    2  C9  UNL     1      -7.387  -9.119 -17.467  1.00  0.00     0.041 A 
HETATM    3  C10 UNL     1      -7.544 -10.117 -18.369  1.00  0.00    -0.016 A 
HETATM    4  C11 UNL     1      -6.728 -10.370 -19.491  1.00  0.00     0.025 A 
HETATM    5  C12 UNL     1      -7.021 -11.430 -20.311  1.00  0.00     0.011 A 
HETATM    6  C15 UNL     1      -8.080 -12.300 -20.128  1.00  0.00     0.126 A 
HETATM    7  F1  UNL     1      -8.374 -13.332 -20.920  1.00  0.00    -0.205 F 
HETATM    8  C16 UNL     1      -8.877 -12.040 -19.018  1.00  0.00     0.062 A 
HETATM    9  C17 UNL     1      -8.592 -10.970 -18.179  1.00  0.00     0.019 A 
HETATM   10  S1  UNL     1      -9.326 -10.370 -16.765  1.00  0.00    -0.080 SA
ENDROOT
BRANCH   1  11
HETATM   11  C7  UNL     1      -8.339  -8.080 -15.354  1.00  0.00    -0.059 C 
HETATM   12  C6  UNL     1      -8.392  -7.264 -14.469  1.00  0.00    -0.089 C 
BRANCH  12  13
HETATM   13  C3  UNL     1      -8.471  -6.229 -13.400  1.00  0.00     0.032 C 
HETATM   14  C4  UNL     1      -9.896  -6.161 -12.984  1.00  0.00     0.030 C 
HETATM   15  C5  UNL     1      -7.632  -6.690 -12.199  1.00  0.00     0.030 C 
BRANCH  13  16
HETATM   16  C2  UNL     1      -7.870  -5.004 -13.980  1.00  0.00     0.135 C 
BRANCH  16  17
HETATM   17  N1  UNL     1      -6.519  -4.710 -13.698  1.00  0.00    -0.424 N 
HETATM   18  C1  UNL     1      -5.608  -4.583 -14.792  1.00  0.00     0.139 C 
ATOM     19  H1  UNL     1      -6.201  -4.592 -12.737  1.00  0.00     0.152 HD
ENDBRANCH  16  17
ENDBRANCH  13  16
ENDBRANCH  12  13
ENDBRANCH   1  11
BRANCH   5  20
HETATM   20  C13 UNL     1      -6.164 -11.723 -21.511  1.00  0.00     0.168 C 
BRANCH  20  21
HETATM   21  O1  UNL     1      -4.849 -11.822 -21.057  1.00  0.00    -0.390 OA
ATOM     22  H1  UNL     1      -4.326 -11.239 -21.595  1.00  0.00     0.210 HD
ENDBRANCH  20  21
BRANCH  20  23
HETATM   23  C14 UNL     1      -6.212 -10.577 -22.504  1.00  0.00     0.151 C 
HETATM   24 CL1  UNL     1      -7.753 -10.712 -23.385  1.00  0.00    -0.128 Cl
ENDBRANCH  20  23
ENDBRANCH   5  20
TORSDOF 7
ENDMDL
MODEL 3
REMARK VINA RESULT: -7.175550553      0.658      1.048
REMARK  7 active torsions:
REMARK  status: ('A' for Active; 'I' for Inactive)
REMARK    1  A    between atoms: N1_2  and  C2_4 
REMARK    2  A    between atoms: C2_4  and  C3_5 
REMARK    3  A    between atoms: C3_5  and  C6_8 
REMARK    4  A    between atoms: C7_9  and  C8_10 
REMARK    5  A    between atoms: C12_14  and  C13_15 
REMARK    6  A    between atoms: C13_15  and  O1_16 
REMARK    7  A    between atoms: C13_15  and  C14_18 
ROOT
HETATM    1  C8  UNL     1      -8.046 -10.277 -17.870  1.00  0.00     0.059 A 
HETATM    2  C9  UNL     1      -7.419  -9.138 -17.457  1.00  0.00     0.041 A 
HETATM    3  C10 UNL     1      -7.810  -8.607 -16.274  1.00  0.00    -0.016 A 
HETATM    4  C11 UNL     1      -7.299  -7.440 -15.668  1.00  0.00     0.025 A 
HETATM    5  C12 UNL     1      -7.809  -7.031 -14.462  1.00  0.00     0.011 A 
HETATM    6  C15 UNL     1      -8.810  -7.682 -13.766  1.00  0.00     0.126 A 
HETATM    7  F1  UNL     1      -9.311  -7.293 -12.592  1.00  0.00    -0.205 F 
HETATM    8  C16 UNL     1      -9.305  -8.831 -14.374  1.00  0.00     0.062 A 
HETATM    9  C17 UNL     1      -8.799  -9.258 -15.596  1.00  0.00     0.019 A 
HETATM   10  S1  UNL     1      -9.157 -10.578 -16.609  1.00  0.00    -0.080 SA
ENDROOT
BRANCH   1  11
HETATM   11  C7  UNL     1      -7.810 -11.038 -19.095  1.00  0.00    -0.059 C 
HETATM   12  C6  UNL     1      -7.593 -11.671 -20.097  1.00  0.00    -0.089 C 
BRANCH  12  13
HETATM   13  C3  UNL     1      -7.287 -12.455 -21.328  1.00  0.00     0.032 C 
HETATM   14  C4  UNL     1      -7.844 -11.683 -22.469  1.00  0.00     0.030 C 
HETATM   15  C5  UNL     1      -5.762 -12.543 -21.494  1.00  0.00     0.030 C 
BRANCH  13  16
HETATM   16  C2  UNL     1      -7.835 -13.811 -21.087  1.00  0.00     0.135 C 
BRANCH  16  17
HETATM   17  N1  UNL     1      -8.723 -14.363 -22.035  1.00  0.00    -0.424 N 
HETATM   18  C1  UNL     1      -8.200 -15.264 -23.012  1.00  0.00     0.139 C 
ATOM     19  H1  UNL     1      -9.714 -14.124 -22.022  1.00  0.00     0.152 HD
ENDBRANCH  16  17
ENDBRANCH  13  16
ENDBRANCH  12  13
ENDBRANCH   1  11
BRANCH   5  20
HETATM   20  C13 UNL     1      -7.285  -5.788 -13.797  1.00  0.00     0.168 C 
BRANCH  20  21
HETATM   21  O1  UNL     1      -8.213  -4.775 -14.039  1.00  0.00    -0.390 OA
ATOM     22  H1  UNL     1      -8.978  -5.187 -14.424  1.00  0.00     0.210 HD
ENDBRANCH  20  21
BRANCH  20  23
HETATM   23  C14 UNL     1      -5.972  -5.353 -14.420  1.00  0.00     0.151 C 
HETATM   24 CL1  UNL     1      -6.271  -3.807 -15.248  1.00  0.00    -0.128 Cl
ENDBRANCH  20  23
ENDBRANCH   5  20
TORSDOF 7
ENDMDL
MODEL 4
REMARK VINA RESULT: -7.023898957      1.095      1.122
REMARK  7 active torsions:
REMARK  status: ('A' for Active; 'I' for Inactive)
REMARK    1  A    between atoms: N1_2  and  C2_4 
REMARK    2  A    between atoms: C2_4  and  C3_5 
REMARK    3  A    between atoms: C3_5  and  C6_8 
REMARK    4  A    between atoms: C7_9  and  C8_10 
REMARK    5  A    between atoms: C12_14  and  C13_15 
REMARK    6  A    between atoms: C13_15  and  O1_16 
REMARK    7  A    between atoms: C13_15  and  C14_18 
ROOT
HETATM    1  C8  UNL     1      -8.141 -10.879 -18.468  1.00  0.00     0.059 A 
HETATM    2  C9  UNL     1      -7.508  -9.766 -17.997  1.00  0.00     0.041 A 
HETATM    3  C10 UNL     1      -7.909  -9.283 -16.797  1.00  0.00    -0.016 A 
HETATM    4  C11 UNL     1      -7.395  -8.151 -16.133  1.00  0.00     0.025 A 
HETATM    5  C12 UNL     1      -7.917  -7.789 -14.918  1.00  0.00     0.011 A 
HETATM    6  C15 UNL     1      -8.935  -8.458 -14.265  1.00  0.00     0.126 A 
HETATM    7  F1  UNL     1      -9.447  -8.115 -13.081  1.00  0.00    -0.205 F 
HETATM    8  C16 UNL     1      -9.433  -9.574 -14.929  1.00  0.00     0.062 A 
HETATM    9  C17 UNL     1      -8.915  -9.952 -16.162  1.00  0.00     0.019 A 
HETATM   10  S1  UNL     1      -9.274 -11.223 -17.236  1.00  0.00    -0.080 SA
ENDROOT
BRANCH   1  11
HETATM   11  C7  UNL     1      -7.897 -11.589 -19.722  1.00  0.00    -0.059 C 
HETATM   12  C6  UNL     1      -7.679 -12.188 -20.744  1.00  0.00    -0.089 C 
BRANCH  12  13
HETATM   13  C3  UNL     1      -7.380 -12.948 -21.992  1.00  0.00     0.032 C 
HETATM   14  C4  UNL     1      -5.936 -12.741 -22.275  1.00  0.00     0.030 C 
HETATM   15  C5  UNL     1      -7.619 -14.443 -21.732  1.00  0.00     0.030 C 
BRANCH  13  16
HETATM   16  C2  UNL     1      -8.351 -12.461 -23.001  1.00  0.00     0.135 C 
BRANCH  16  17
HETATM   17  N1  UNL     1      -8.190 -11.163 -23.528  1.00  0.00    -0.424 N 
HETATM   18  C1  UNL     1      -7.837 -11.027 -24.907  1.00  0.00     0.139 C 
ATOM     19  H1  UNL     1      -8.322 -10.340 -22.940  1.00  0.00     0.152 HD
ENDBRANCH  16  17
ENDBRANCH  13  16
ENDBRANCH  12  13
ENDBRANCH   1  11
BRANCH   5  20
HETATM   20  C13 UNL     1      -7.389  -6.582 -14.192  1.00  0.00     0.168 C 
BRANCH  20  21
HETATM   21  O1  UNL     1      -8.341  -5.573 -14.334  1.00  0.00    -0.390 OA
ATOM     22  H1  UNL     1      -8.973  -5.688 -13.634  1.00  0.00     0.210 HD
ENDBRANCH  20  21
BRANCH  20  23
HETATM   23  C14 UNL     1      -6.106  -6.084 -14.831  1.00  0.00     0.151 C 
HETATM   24 CL1  UNL     1      -5.905  -4.384 -14.347  1.00  0.00    -0.128 Cl
ENDBRANCH  20  23
ENDBRANCH   5  20
TORSDOF 7
ENDMDL
MODEL 5
REMARK VINA RESULT: -7.012475909      1.146      1.192
REMARK  7 active torsions:
REMARK  status: ('A' for Active; 'I' for Inactive)
REMARK    1  A    between atoms: N1_2  and  C2_4 
REMARK    2  A    between atoms: C2_4  and  C3_5 
REMARK    3  A    between atoms: C3_5  and  C6_8 
REMARK    4  A    between atoms: C7_9  and  C8_10 
REMARK    5  A    between atoms: C12_14  and  C13_15 
REMARK    6  A    between atoms: C13_15  and  O1_16 
REMARK    7  A    between atoms: C13_15  and  C14_18 
ROOT
HETATM    1  C8  UNL     1      -7.828  -9.850 -18.041  1.00  0.00     0.059 A 
HETATM    2  C9  UNL     1      -7.439  -8.544 -17.983  1.00  0.00     0.041 A 
HETATM    3  C10 UNL     1      -7.754  -7.850 -16.864  1.00  0.00    -0.016 A 
HETATM    4  C11 UNL     1      -7.452  -6.498 -16.601  1.00  0.00     0.025 A 
HETATM    5  C12 UNL     1      -7.848  -5.939 -15.413  1.00  0.00     0.011 A 
HETATM    6  C15 UNL     1      -8.536  -6.606 -14.417  1.00  0.00     0.126 A 
HETATM    7  F1  UNL     1      -8.923  -6.072 -13.257  1.00  0.00    -0.205 F 
HETATM    8  C16 UNL     1      -8.827  -7.939 -14.687  1.00  0.00     0.062 A 
HETATM    9  C17 UNL     1      -8.434  -8.518 -15.888  1.00  0.00     0.019 A 
HETATM   10  S1  UNL     1      -8.618 -10.079 -16.544  1.00  0.00    -0.080 SA
ENDROOT
BRANCH   1  11
HETATM   11  C7  UNL     1      -7.613 -10.805 -19.127  1.00  0.00    -0.059 C 
HETATM   12  C6  UNL     1      -7.425 -11.573 -20.036  1.00  0.00    -0.089 C 
BRANCH  12  13
HETATM   13  C3  UNL     1      -7.184 -12.494 -21.183  1.00  0.00     0.032 C 
HETATM   14  C4  UNL     1      -5.729 -12.425 -21.479  1.00  0.00     0.030 C 
HETATM   15  C5  UNL     1      -7.528 -13.927 -20.750  1.00  0.00     0.030 C 
BRANCH  13  16
HETATM   16  C2  UNL     1      -8.119 -12.063 -22.249  1.00  0.00     0.135 C 
BRANCH  16  17
HETATM   17  N1  UNL     1      -9.036 -13.000 -22.769  1.00  0.00    -0.424 N 
HETATM   18  C1  UNL     1      -8.964 -13.323 -24.160  1.00  0.00     0.139 C 
ATOM     19  H1  UNL     1      -9.733 -13.437 -22.167  1.00  0.00     0.152 HD
ENDBRANCH  16  17
ENDBRANCH  13  16
ENDBRANCH  12  13
ENDBRANCH   1  11
BRANCH   5  20
HETATM   20  C13 UNL     1      -7.542  -4.497 -15.111  1.00  0.00     0.168 C 
BRANCH  20  21
HETATM   21  O1  UNL     1      -7.711  -3.789 -16.300  1.00  0.00    -0.390 OA
ATOM     22  H1  UNL     1      -8.565  -3.375 -16.256  1.00  0.00     0.210 HD
ENDBRANCH  20  21
BRANCH  20  23
HETATM   23  C14 UNL     1      -6.095  -4.328 -14.689  1.00  0.00     0.151 C 
HETATM   24 CL1  UNL     1      -5.999  -4.754 -12.964  1.00  0.00    -0.128 Cl
ENDBRANCH  20  23
ENDBRANCH   5  20
TORSDOF 7
ENDMDL
