MODEL 1
REMARK VINA RESULT: -7.745119032      0.000      0.000
REMARK  9 active torsions:
REMARK  status: ('A' for Active; 'I' for Inactive)
REMARK    1  A    between atoms: C2_2  and  O1_3 
REMARK    2  A    between atoms: N1_5  and  N2_7 
REMARK    3  A    between atoms: N2_7  and  C3_9 
REMARK    4  A    between atoms: C3_9  and  O2_10 
REMARK    5  A    between atoms: C3_9  and  N3_12 
REMARK    6  A    between atoms: N3_12  and  C4_13 
REMARK    7  A    between atoms: N3_12  and  C15_27 
REMARK    8  A    between atoms: C4_13  and  C5_14 
REMARK    9  A    between atoms: C5_14  and  C6_15 
ROOT
HETATM    1  N3  UNL     1      -6.685  -7.268 -18.449  1.00  0.00    -0.341 N 
ENDROOT
BRANCH   1   2
HETATM    2  C3  UNL     1      -6.175  -6.327 -19.355  1.00  0.00     0.234 C 
BRANCH   2   3
HETATM    3  N2  UNL     1      -5.360  -6.519 -20.475  1.00  0.00    -0.264 N 
ATOM      4  H2  UNL     1      -5.683  -7.095 -21.253  1.00  0.00     0.190 HD
BRANCH   3   5
HETATM    5  N1  UNL     1      -4.068  -5.900 -20.520  1.00  0.00    -0.281 N 
HETATM    6  C2  UNL     1      -3.878  -4.866 -21.265  1.00  0.00     0.126 C 
HETATM    7  C1  UNL     1      -2.538  -4.202 -21.328  1.00  0.00     0.098 C 
ATOM      8  H1  UNL     1      -3.301  -6.278 -19.964  1.00  0.00     0.189 HD
BRANCH   6   9
HETATM    9  O1  UNL     1      -4.931  -4.375 -22.007  1.00  0.00    -0.349 OA
ATOM     10  H1  UNL     1      -5.009  -4.594 -22.929  1.00  0.00     0.219 HD
ENDBRANCH   6   9
ENDBRANCH   3   5
ENDBRANCH   2   3
BRANCH   2  11
HETATM   11  O2  UNL     1      -6.474  -5.063 -19.177  1.00  0.00    -0.331 OA
ATOM     12  H2  UNL     1      -7.366  -4.868 -19.441  1.00  0.00     0.221 HD
ENDBRANCH   2  11
ENDBRANCH   1   2
BRANCH   1  13
HETATM   13  C4  UNL     1      -7.280  -6.728 -17.240  1.00  0.00     0.146 C 
BRANCH  13  14
HETATM   14  C5  UNL     1      -6.414  -6.305 -16.098  1.00  0.00     0.085 C 
HETATM   15  C7  UNL     1      -6.373  -4.813 -16.005  1.00  0.00     0.005 C 
HETATM   16  C8  UNL     1      -5.748  -4.217 -14.778  1.00  0.00     0.006 C 
HETATM   17  C14 UNL     1      -7.857  -4.412 -15.854  1.00  0.00     0.006 C 
HETATM   18  C9  UNL     1      -6.286  -4.750 -13.483  1.00  0.00     0.001 C 
HETATM   19  C10 UNL     1      -6.761  -6.171 -13.579  1.00  0.00     0.010 C 
HETATM   20  C11 UNL     1      -7.336  -6.568 -14.874  1.00  0.00    -0.026 C 
HETATM   21  C12 UNL     1      -7.943  -7.919 -14.843  1.00  0.00     0.016 C 
HETATM   22  C13 UNL     1      -8.458  -5.562 -15.162  1.00  0.00     0.011 C 
BRANCH  14  23
HETATM   23  C6  UNL     1      -5.133  -7.004 -15.931  1.00  0.00     0.398 C 
HETATM   24  F1  UNL     1      -5.271  -8.397 -15.832  1.00  0.00    -0.170 F 
HETATM   25  F2  UNL     1      -4.265  -6.897 -17.056  1.00  0.00    -0.170 F 
HETATM   26  F3  UNL     1      -4.282  -6.623 -14.938  1.00  0.00    -0.170 F 
ENDBRANCH  14  23
ENDBRANCH  13  14
ENDBRANCH   1  13
BRANCH   1  27
HETATM   27  C15 UNL     1      -6.598  -8.664 -18.676  1.00  0.00     0.088 A 
HETATM   28  C16 UNL     1      -7.392  -9.730 -18.025  1.00  0.00     0.027 A 
HETATM   29  C17 UNL     1      -7.591  -9.477 -19.440  1.00  0.00     0.027 A 
ENDBRANCH   1  27
TORSDOF 9
ENDMDL
MODEL 2
REMARK VINA RESULT: -7.642986650      1.783      3.626
REMARK  9 active torsions:
REMARK  status: ('A' for Active; 'I' for Inactive)
REMARK    1  A    between atoms: C2_2  and  O1_3 
REMARK    2  A    between atoms: N1_5  and  N2_7 
REMARK    3  A    between atoms: N2_7  and  C3_9 
REMARK    4  A    between atoms: C3_9  and  O2_10 
REMARK    5  A    between atoms: C3_9  and  N3_12 
REMARK    6  A    between atoms: N3_12  and  C4_13 
REMARK    7  A    between atoms: N3_12  and  C15_27 
REMARK    8  A    between atoms: C4_13  and  C5_14 
REMARK    9  A    between atoms: C5_14  and  C6_15 
ROOT
HETATM    1  N3  UNL     1      -6.408  -6.593 -18.880  1.00  0.00    -0.341 N 
ENDROOT
BRANCH   1   2
HETATM    2  C3  UNL     1      -6.435  -7.821 -19.556  1.00  0.00     0.234 C 
BRANCH   2   3
HETATM    3  N2  UNL     1      -6.050  -9.090 -19.114  1.00  0.00    -0.264 N 
ATOM      4  H2  UNL     1      -5.076  -9.386 -19.185  1.00  0.00     0.190 HD
BRANCH   3   5
HETATM    5  N1  UNL     1      -7.035  -9.972 -18.560  1.00  0.00    -0.281 N 
HETATM    6  C2  UNL     1      -7.616 -10.840 -19.314  1.00  0.00     0.126 C 
HETATM    7  C1  UNL     1      -8.647 -11.772 -18.758  1.00  0.00     0.098 C 
ATOM      8  H1  UNL     1      -7.275  -9.912 -17.570  1.00  0.00     0.189 HD
BRANCH   6   9
HETATM    9  O1  UNL     1      -7.274 -10.901 -20.649  1.00  0.00    -0.349 OA
ATOM     10  H1  UNL     1      -6.850 -10.161 -21.068  1.00  0.00     0.219 HD
ENDBRANCH   6   9
ENDBRANCH   3   5
ENDBRANCH   2   3
BRANCH   2  11
HETATM   11  O2  UNL     1      -6.878  -7.844 -20.790  1.00  0.00    -0.331 OA
ATOM     12  H2  UNL     1      -6.626  -7.065 -21.273  1.00  0.00     0.221 HD
ENDBRANCH   2  11
ENDBRANCH   1   2
BRANCH   1  13
HETATM   13  C4  UNL     1      -7.126  -6.545 -17.619  1.00  0.00     0.146 C 
BRANCH  13  14
HETATM   14  C5  UNL     1      -6.385  -6.347 -16.337  1.00  0.00     0.085 C 
HETATM   15  C7  UNL     1      -6.194  -4.888 -16.071  1.00  0.00     0.005 C 
HETATM   16  C8  UNL     1      -5.683  -4.498 -14.715  1.00  0.00     0.006 C 
HETATM   17  C14 UNL     1      -7.631  -4.322 -16.063  1.00  0.00     0.006 C 
HETATM   18  C9  UNL     1      -6.451  -5.083 -13.567  1.00  0.00     0.001 C 
HETATM   19  C10 UNL     1      -7.062  -6.417 -13.883  1.00  0.00     0.010 C 
HETATM   20  C11 UNL     1      -7.492  -6.611 -15.277  1.00  0.00    -0.026 C 
HETATM   21  C12 UNL     1      -8.243  -7.873 -15.476  1.00  0.00     0.016 C 
HETATM   22  C13 UNL     1      -8.445  -5.450 -15.588  1.00  0.00     0.011 C 
BRANCH  14  23
HETATM   23  C6  UNL     1      -5.226  -7.213 -16.090  1.00  0.00     0.398 C 
HETATM   24  F1  UNL     1      -5.566  -8.566 -15.942  1.00  0.00    -0.170 F 
HETATM   25  F2  UNL     1      -4.313  -7.282 -17.182  1.00  0.00    -0.170 F 
HETATM   26  F3  UNL     1      -4.363  -6.913 -15.079  1.00  0.00    -0.170 F 
ENDBRANCH  14  23
ENDBRANCH  13  14
ENDBRANCH   1  13
BRANCH   1  27
HETATM   27  C15 UNL     1      -5.751  -5.452 -19.405  1.00  0.00     0.088 A 
HETATM   28  C16 UNL     1      -4.419  -4.930 -19.025  1.00  0.00     0.027 A 
HETATM   29  C17 UNL     1      -4.599  -5.482 -20.355  1.00  0.00     0.027 A 
ENDBRANCH   1  27
TORSDOF 9
ENDMDL
MODEL 3
REMARK VINA RESULT: -7.603751431      2.552      3.679
REMARK  9 active torsions:
REMARK  status: ('A' for Active; 'I' for Inactive)
REMARK    1  A    between atoms: C2_2  and  O1_3 
REMARK    2  A    between atoms: N1_5  and  N2_7 
REMARK    3  A    between atoms: N2_7  and  C3_9 
REMARK    4  A    between atoms: C3_9  and  O2_10 
REMARK    5  A    between atoms: C3_9  and  N3_12 
REMARK    6  A    between atoms: N3_12  and  C4_13 
REMARK    7  A    between atoms: N3_12  and  C15_27 
REMARK    8  A    between atoms: C4_13  and  C5_14 
REMARK    9  A    between atoms: C5_14  and  C6_15 
ROOT
HETATM    1  N3  UNL     1      -7.131  -8.848 -18.916  1.00  0.00    -0.341 N 
ENDROOT
BRANCH   1   2
HETATM    2  C3  UNL     1      -6.512  -8.715 -20.167  1.00  0.00     0.234 C 
BRANCH   2   3
HETATM    3  N2  UNL     1      -5.219  -9.070 -20.564  1.00  0.00    -0.264 N 
ATOM      4  H2  UNL     1      -4.507  -8.351 -20.699  1.00  0.00     0.190 HD
BRANCH   3   5
HETATM    5  N1  UNL     1      -4.901 -10.451 -20.779  1.00  0.00    -0.281 N 
HETATM    6  C2  UNL     1      -5.112 -10.986 -21.932  1.00  0.00     0.126 C 
HETATM    7  C1  UNL     1      -4.788 -12.426 -22.181  1.00  0.00     0.098 C 
ATOM      8  H1  UNL     1      -4.509 -11.009 -20.020  1.00  0.00     0.189 HD
BRANCH   6   9
HETATM    9  O1  UNL     1      -5.643 -10.210 -22.941  1.00  0.00    -0.349 OA
ATOM     10  H1  UNL     1      -5.642  -9.263 -22.867  1.00  0.00     0.219 HD
ENDBRANCH   6   9
ENDBRANCH   3   5
ENDBRANCH   2   3
BRANCH   2  11
HETATM   11  O2  UNL     1      -7.200  -8.189 -21.151  1.00  0.00    -0.331 OA
ATOM     12  H2  UNL     1      -6.696  -8.147 -21.956  1.00  0.00     0.221 HD
ENDBRANCH   2  11
ENDBRANCH   1   2
BRANCH   1  13
HETATM   13  C4  UNL     1      -7.314  -7.619 -18.165  1.00  0.00     0.146 C 
BRANCH  13  14
HETATM   14  C5  UNL     1      -6.675  -7.454 -16.824  1.00  0.00     0.085 C 
HETATM   15  C7  UNL     1      -5.194  -7.639 -16.931  1.00  0.00     0.005 C 
HETATM   16  C8  UNL     1      -4.368  -7.274 -15.732  1.00  0.00     0.006 C 
HETATM   17  C14 UNL     1      -4.764  -6.580 -17.969  1.00  0.00     0.006 C 
HETATM   18  C9  UNL     1      -4.628  -5.899 -15.191  1.00  0.00     0.001 C 
HETATM   19  C10 UNL     1      -6.037  -5.431 -15.414  1.00  0.00     0.010 C 
HETATM   20  C11 UNL     1      -6.683  -5.909 -16.647  1.00  0.00    -0.026 C 
HETATM   21  C12 UNL     1      -7.997  -5.271 -16.891  1.00  0.00     0.016 C 
HETATM   22  C13 UNL     1      -5.749  -5.502 -17.795  1.00  0.00     0.011 C 
BRANCH  14  23
HETATM   23  C6  UNL     1      -7.333  -8.101 -15.682  1.00  0.00     0.398 C 
HETATM   24  F1  UNL     1      -8.718  -8.248 -15.850  1.00  0.00    -0.170 F 
HETATM   25  F2  UNL     1      -6.939  -9.456 -15.480  1.00  0.00    -0.170 F 
HETATM   26  F3  UNL     1      -7.140  -7.609 -14.426  1.00  0.00    -0.170 F 
ENDBRANCH  14  23
ENDBRANCH  13  14
ENDBRANCH   1  13
BRANCH   1  27
HETATM   27  C15 UNL     1      -7.525 -10.105 -18.394  1.00  0.00     0.088 A 
HETATM   28  C16 UNL     1      -8.903 -10.568 -18.115  1.00  0.00     0.027 A 
HETATM   29  C17 UNL     1      -8.155 -11.206 -19.182  1.00  0.00     0.027 A 
ENDBRANCH   1  27
TORSDOF 9
ENDMDL
MODEL 4
REMARK VINA RESULT: -7.603647810      2.129      4.223
REMARK  9 active torsions:
REMARK  status: ('A' for Active; 'I' for Inactive)
REMARK    1  A    between atoms: C2_2  and  O1_3 
REMARK    2  A    between atoms: N1_5  and  N2_7 
REMARK    3  A    between atoms: N2_7  and  C3_9 
REMARK    4  A    between atoms: C3_9  and  O2_10 
REMARK    5  A    between atoms: C3_9  and  N3_12 
REMARK    6  A    between atoms: N3_12  and  C4_13 
REMARK    7  A    between atoms: N3_12  and  C15_27 
REMARK    8  A    between atoms: C4_13  and  C5_14 
REMARK    9  A    between atoms: C5_14  and  C6_15 
ROOT
HETATM    1  N3  UNL     1      -6.763  -7.371 -18.689  1.00  0.00    -0.341 N 
ENDROOT
BRANCH   1   2
HETATM    2  C3  UNL     1      -6.965  -8.757 -18.772  1.00  0.00     0.234 C 
BRANCH   2   3
HETATM    3  N2  UNL     1      -8.154  -9.489 -18.708  1.00  0.00    -0.264 N 
ATOM      4  H2  UNL     1      -8.782  -9.522 -19.511  1.00  0.00     0.190 HD
BRANCH   3   5
HETATM    5  N1  UNL     1      -8.484 -10.193 -17.504  1.00  0.00    -0.281 N 
HETATM    6  C2  UNL     1      -9.700 -10.560 -17.287  1.00  0.00     0.126 C 
HETATM    7  C1  UNL     1     -10.068 -11.297 -16.037  1.00  0.00     0.098 C 
ATOM      8  H1  UNL     1      -7.757 -10.404 -16.820  1.00  0.00     0.189 HD
BRANCH   6   9
HETATM    9  O1  UNL     1     -10.665 -10.263 -18.226  1.00  0.00    -0.349 OA
ATOM     10  H1  UNL     1     -11.345  -9.630 -18.029  1.00  0.00     0.219 HD
ENDBRANCH   6   9
ENDBRANCH   3   5
ENDBRANCH   2   3
BRANCH   2  11
HETATM   11  O2  UNL     1      -5.920  -9.531 -18.936  1.00  0.00    -0.331 OA
ATOM     12  H2  UNL     1      -5.442  -9.320 -19.730  1.00  0.00     0.221 HD
ENDBRANCH   2  11
ENDBRANCH   1   2
BRANCH   1  13
HETATM   13  C4  UNL     1      -7.313  -6.718 -17.515  1.00  0.00     0.146 C 
BRANCH  13  14
HETATM   14  C5  UNL     1      -6.437  -6.409 -16.345  1.00  0.00     0.085 C 
HETATM   15  C7  UNL     1      -6.104  -4.951 -16.319  1.00  0.00     0.005 C 
HETATM   16  C8  UNL     1      -5.434  -4.420 -15.086  1.00  0.00     0.006 C 
HETATM   17  C14 UNL     1      -7.485  -4.258 -16.275  1.00  0.00     0.006 C 
HETATM   18  C9  UNL     1      -6.130  -4.761 -13.802  1.00  0.00     0.001 C 
HETATM   19  C10 UNL     1      -6.873  -6.064 -13.859  1.00  0.00     0.010 C 
HETATM   20  C11 UNL     1      -7.452  -6.415 -15.166  1.00  0.00    -0.026 C 
HETATM   21  C12 UNL     1      -8.317  -7.616 -15.109  1.00  0.00     0.016 C 
HETATM   22  C13 UNL     1      -8.335  -5.226 -15.567  1.00  0.00     0.011 C 
BRANCH  14  23
HETATM   23  C6  UNL     1      -5.331  -7.335 -16.070  1.00  0.00     0.398 C 
HETATM   24  F1  UNL     1      -5.751  -8.662 -15.894  1.00  0.00    -0.170 F 
HETATM   25  F2  UNL     1      -4.417  -7.481 -17.153  1.00  0.00    -0.170 F 
HETATM   26  F3  UNL     1      -4.459  -7.062 -15.060  1.00  0.00    -0.170 F 
ENDBRANCH  14  23
ENDBRANCH  13  14
ENDBRANCH   1  13
BRANCH   1  27
HETATM   27  C15 UNL     1      -6.094  -6.640 -19.702  1.00  0.00     0.088 A 
HETATM   28  C16 UNL     1      -5.585  -5.252 -19.619  1.00  0.00     0.027 A 
HETATM   29  C17 UNL     1      -4.631  -6.342 -19.725  1.00  0.00     0.027 A 
ENDBRANCH   1  27
TORSDOF 9
ENDMDL
MODEL 5
REMARK VINA RESULT: -7.540138413      1.378      1.943
REMARK  9 active torsions:
REMARK  status: ('A' for Active; 'I' for Inactive)
REMARK    1  A    between atoms: C2_2  and  O1_3 
REMARK    2  A    between atoms: N1_5  and  N2_7 
REMARK    3  A    between atoms: N2_7  and  C3_9 
REMARK    4  A    between atoms: C3_9  and  O2_10 
REMARK    5  A    between atoms: C3_9  and  N3_12 
REMARK    6  A    between atoms: N3_12  and  C4_13 
REMARK    7  A    between atoms: N3_12  and  C15_27 
REMARK    8  A    between atoms: C4_13  and  C5_14 
REMARK    9  A    between atoms: C5_14  and  C6_15 
ROOT
HETATM    1  N3  UNL     1      -6.969  -7.371 -18.834  1.00  0.00    -0.341 N 
ENDROOT
BRANCH   1   2
HETATM    2  C3  UNL     1      -5.800  -7.090 -19.557  1.00  0.00     0.234 C 
BRANCH   2   3
HETATM    3  N2  UNL     1      -5.541  -6.059 -20.466  1.00  0.00    -0.264 N 
ATOM      4  H2  UNL     1      -6.293  -5.679 -21.040  1.00  0.00     0.190 HD
BRANCH   3   5
HETATM    5  N1  UNL     1      -4.209  -5.543 -20.583  1.00  0.00    -0.281 N 
HETATM    6  C2  UNL     1      -3.944  -4.649 -21.473  1.00  0.00     0.126 C 
HETATM    7  C1  UNL     1      -2.561  -4.094 -21.614  1.00  0.00     0.098 C 
ATOM      8  H1  UNL     1      -3.473  -5.881 -19.963  1.00  0.00     0.189 HD
BRANCH   6   9
HETATM    9  O1  UNL     1      -4.956  -4.207 -22.298  1.00  0.00    -0.349 OA
ATOM     10  H1  UNL     1      -5.864  -4.360 -22.065  1.00  0.00     0.219 HD
ENDBRANCH   6   9
ENDBRANCH   3   5
ENDBRANCH   2   3
BRANCH   2  11
HETATM   11  O2  UNL     1      -4.764  -7.876 -19.397  1.00  0.00    -0.331 OA
ATOM     12  H2  UNL     1      -4.500  -8.288 -20.212  1.00  0.00     0.221 HD
ENDBRANCH   2  11
ENDBRANCH   1   2
BRANCH   1  13
HETATM   13  C4  UNL     1      -7.332  -6.405 -17.813  1.00  0.00     0.146 C 
BRANCH  13  14
HETATM   14  C5  UNL     1      -6.770  -6.521 -16.433  1.00  0.00     0.085 C 
HETATM   15  C7  UNL     1      -5.310  -6.196 -16.440  1.00  0.00     0.005 C 
HETATM   16  C8  UNL     1      -4.636  -6.029 -15.109  1.00  0.00     0.006 C 
HETATM   17  C14 UNL     1      -5.253  -4.768 -17.027  1.00  0.00     0.006 C 
HETATM   18  C9  UNL     1      -5.322  -5.071 -14.180  1.00  0.00     0.001 C 
HETATM   19  C10 UNL     1      -6.808  -5.011 -14.383  1.00  0.00     0.010 C 
HETATM   20  C11 UNL     1      -7.275  -5.211 -15.764  1.00  0.00    -0.026 C 
HETATM   21  C12 UNL     1      -8.727  -4.963 -15.922  1.00  0.00     0.016 C 
HETATM   22  C13 UNL     1      -6.531  -4.172 -16.614  1.00  0.00     0.011 C 
BRANCH  14  23
HETATM   23  C6  UNL     1      -7.174  -7.688 -15.639  1.00  0.00     0.398 C 
HETATM   24  F1  UNL     1      -8.425  -8.205 -16.010  1.00  0.00    -0.170 F 
HETATM   25  F2  UNL     1      -6.343  -8.830 -15.824  1.00  0.00    -0.170 F 
HETATM   26  F3  UNL     1      -7.171  -7.611 -14.279  1.00  0.00    -0.170 F 
ENDBRANCH  14  23
ENDBRANCH  13  14
ENDBRANCH   1  13
BRANCH   1  27
HETATM   27  C15 UNL     1      -7.735  -8.542 -19.057  1.00  0.00     0.088 A 
HETATM   28  C16 UNL     1      -7.457  -9.625 -20.028  1.00  0.00     0.027 A 
HETATM   29  C17 UNL     1      -7.358  -9.917 -18.610  1.00  0.00     0.027 A 
ENDBRANCH   1  27
TORSDOF 9
ENDMDL
