MODEL 1
REMARK VINA RESULT: -9.367018900      0.000      0.000
REMARK  4 active torsions:
REMARK  status: ('A' for Active; 'I' for Inactive)
REMARK    1  A    between atoms: C2_2  and  C3_3 
REMARK    2  A    between atoms: C3_3  and  C4_6 
REMARK    3  A    between atoms: C7_10  and  O1_11 
REMARK    4  A    between atoms: C8_13  and  C9_14 
ROOT
HETATM    1  C4  UNL     1      -5.857  -5.572 -16.400  1.00  0.00     0.058 A 
HETATM    2  C5  UNL     1      -5.940  -4.664 -17.464  1.00  0.00     0.131 A 
HETATM    3  F3  UNL     1      -6.018  -3.309 -17.255  1.00  0.00    -0.205 F 
HETATM    4  C6  UNL     1      -5.983  -5.058 -18.767  1.00  0.00     0.080 A 
HETATM    5  C7  UNL     1      -5.944  -6.404 -19.052  1.00  0.00     0.079 A 
HETATM    6  C8  UNL     1      -5.861  -7.355 -18.069  1.00  0.00     0.006 A 
HETATM    7  C18 UNL     1      -5.822  -6.909 -16.759  1.00  0.00    -0.034 A 
HETATM    8  C19 UNL     1      -5.769  -7.861 -15.615  1.00  0.00     0.050 C 
ENDROOT
BRANCH   6   9
HETATM    9  C9  UNL     1      -5.732  -8.747 -18.435  1.00  0.00     0.046 C 
HETATM   10  C10 UNL     1      -6.781  -9.677 -18.707  1.00  0.00     0.056 A 
HETATM   11  N1  UNL     1      -6.678 -10.354 -19.911  1.00  0.00    -0.297 N 
HETATM   12  C13 UNL     1      -7.833 -10.117 -17.962  1.00  0.00    -0.018 A 
HETATM   13  N2  UNL     1      -7.422 -11.288 -20.359  1.00  0.00    -0.266 N 
ATOM     14  H1  UNL     1      -5.908 -10.069 -20.517  1.00  0.00     0.187 HD
HETATM   15  C11 UNL     1      -8.459 -11.739 -19.648  1.00  0.00     0.266 A 
ATOM     16  H2  UNL     1      -7.223 -11.696 -21.272  1.00  0.00     0.190 HD
HETATM   17  O2  UNL     1      -9.193 -12.664 -20.092  1.00  0.00    -0.266 OA
HETATM   18  C12 UNL     1      -8.667 -11.144 -18.432  1.00  0.00     0.020 A 
HETATM   19  C17 UNL     1      -9.837 -11.650 -17.657  1.00  0.00     0.045 C 
HETATM   20  C16 UNL     1     -10.441 -10.490 -16.898  1.00  0.00     0.005 C 
HETATM   21  C15 UNL     1      -9.358  -9.984 -15.992  1.00  0.00     0.005 C 
HETATM   22  C14 UNL     1      -8.126  -9.491 -16.676  1.00  0.00     0.042 C 
ENDBRANCH   6   9
BRANCH   5  23
HETATM   23  O1  UNL     1      -6.010  -6.682 -20.436  1.00  0.00    -0.360 OA
ATOM     24  H1  UNL     1      -6.050  -7.611 -20.630  1.00  0.00     0.217 HD
ENDBRANCH   5  23
BRANCH   1  25
HETATM   25  C3  UNL     1      -5.771  -4.983 -15.072  1.00  0.00     0.274 C 
HETATM   26  F1  UNL     1      -5.411  -3.672 -14.961  1.00  0.00    -0.201 F 
HETATM   27  F2  UNL     1      -4.667  -5.639 -14.404  1.00  0.00    -0.201 F 
BRANCH  25  28
HETATM   28  C2  UNL     1      -6.928  -5.326 -14.141  1.00  0.00     0.080 C 
HETATM   29  C1  UNL     1      -8.263  -5.103 -14.803  1.00  0.00     0.011 C 
ENDBRANCH  25  28
ENDBRANCH   1  25
TORSDOF 4
ENDMDL
MODEL 2
REMARK VINA RESULT: -8.932167064      2.753      4.699
REMARK  4 active torsions:
REMARK  status: ('A' for Active; 'I' for Inactive)
REMARK    1  A    between atoms: C2_2  and  C3_3 
REMARK    2  A    between atoms: C3_3  and  C4_6 
REMARK    3  A    between atoms: C7_10  and  O1_11 
REMARK    4  A    between atoms: C8_13  and  C9_14 
ROOT
HETATM    1  C4  UNL     1      -7.912  -8.655 -16.523  1.00  0.00     0.058 A 
HETATM    2  C5  UNL     1      -8.456  -9.325 -15.420  1.00  0.00     0.131 A 
HETATM    3  F3  UNL     1      -8.203  -8.923 -14.130  1.00  0.00    -0.205 F 
HETATM    4  C6  UNL     1      -9.238 -10.433 -15.542  1.00  0.00     0.080 A 
HETATM    5  C7  UNL     1      -9.506 -10.917 -16.804  1.00  0.00     0.079 A 
HETATM    6  C8  UNL     1      -9.013 -10.317 -17.933  1.00  0.00     0.006 A 
HETATM    7  C18 UNL     1      -8.222  -9.195 -17.760  1.00  0.00    -0.034 A 
HETATM    8  C19 UNL     1      -7.607  -8.491 -18.919  1.00  0.00     0.050 C 
ENDROOT
BRANCH   6   9
HETATM    9  C9  UNL     1      -9.404 -10.817 -19.231  1.00  0.00     0.046 C 
HETATM   10  C10 UNL     1      -8.762 -11.833 -20.003  1.00  0.00     0.056 A 
HETATM   11  N1  UNL     1      -9.584 -12.860 -20.435  1.00  0.00    -0.297 N 
HETATM   12  C13 UNL     1      -7.497 -11.948 -20.496  1.00  0.00    -0.018 A 
HETATM   13  N2  UNL     1      -9.291 -13.838 -21.200  1.00  0.00    -0.266 N 
ATOM     14  H1  UNL     1     -10.547 -12.831 -20.099  1.00  0.00     0.187 HD
HETATM   15  C11 UNL     1      -8.059 -13.974 -21.699  1.00  0.00     0.266 A 
ATOM     16  H2  UNL     1     -10.007 -14.525 -21.435  1.00  0.00     0.190 HD
HETATM   17  O2  UNL     1      -7.772 -14.941 -22.456  1.00  0.00    -0.266 OA
HETATM   18  C12 UNL     1      -7.150 -13.014 -21.341  1.00  0.00     0.020 A 
HETATM   19  C17 UNL     1      -5.775 -13.189 -21.895  1.00  0.00     0.045 C 
HETATM   20  C16 UNL     1      -4.783 -12.704 -20.862  1.00  0.00     0.005 C 
HETATM   21  C15 UNL     1      -5.104 -11.257 -20.633  1.00  0.00     0.005 C 
HETATM   22  C14 UNL     1      -6.476 -10.977 -20.114  1.00  0.00     0.042 C 
ENDBRANCH   6   9
BRANCH   5  23
HETATM   23  O1  UNL     1     -10.313 -12.075 -16.795  1.00  0.00    -0.360 OA
ATOM     24  H1  UNL     1     -11.193 -11.916 -16.474  1.00  0.00     0.217 HD
ENDBRANCH   5  23
BRANCH   1  25
HETATM   25  C3  UNL     1      -7.139  -7.459 -16.218  1.00  0.00     0.274 C 
HETATM   26  F1  UNL     1      -6.362  -6.917 -17.199  1.00  0.00    -0.201 F 
HETATM   27  F2  UNL     1      -6.140  -7.854 -15.248  1.00  0.00    -0.201 F 
BRANCH  25  28
HETATM   28  C2  UNL     1      -7.896  -6.386 -15.446  1.00  0.00     0.080 C 
HETATM   29  C1  UNL     1      -8.184  -5.179 -16.300  1.00  0.00     0.011 C 
ENDBRANCH  25  28
ENDBRANCH   1  25
TORSDOF 4
ENDMDL
MODEL 3
REMARK VINA RESULT: -8.924897687      2.805      4.818
REMARK  4 active torsions:
REMARK  status: ('A' for Active; 'I' for Inactive)
REMARK    1  A    between atoms: C2_2  and  C3_3 
REMARK    2  A    between atoms: C3_3  and  C4_6 
REMARK    3  A    between atoms: C7_10  and  O1_11 
REMARK    4  A    between atoms: C8_13  and  C9_14 
ROOT
HETATM    1  C4  UNL     1      -7.778  -8.781 -16.441  1.00  0.00     0.058 A 
HETATM    2  C5  UNL     1      -8.411  -9.396 -15.353  1.00  0.00     0.131 A 
HETATM    3  F3  UNL     1      -8.161  -9.012 -14.058  1.00  0.00    -0.205 F 
HETATM    4  C6  UNL     1      -9.283 -10.431 -15.497  1.00  0.00     0.080 A 
HETATM    5  C7  UNL     1      -9.556 -10.894 -16.765  1.00  0.00     0.079 A 
HETATM    6  C8  UNL     1      -8.980 -10.345 -17.881  1.00  0.00     0.006 A 
HETATM    7  C18 UNL     1      -8.098  -9.296 -17.685  1.00  0.00    -0.034 A 
HETATM    8  C19 UNL     1      -7.390  -8.653 -18.828  1.00  0.00     0.050 C 
ENDROOT
BRANCH   6   9
HETATM    9  C9  UNL     1      -9.375 -10.814 -19.188  1.00  0.00     0.046 C 
HETATM   10  C10 UNL     1      -8.749 -11.827 -19.977  1.00  0.00     0.056 A 
HETATM   11  N1  UNL     1      -9.588 -12.830 -20.431  1.00  0.00    -0.297 N 
HETATM   12  C13 UNL     1      -7.485 -11.955 -20.469  1.00  0.00    -0.018 A 
HETATM   13  N2  UNL     1      -9.310 -13.799 -21.213  1.00  0.00    -0.266 N 
ATOM     14  H1  UNL     1     -10.551 -12.790 -20.097  1.00  0.00     0.187 HD
HETATM   15  C11 UNL     1      -8.080 -13.949 -21.710  1.00  0.00     0.266 A 
ATOM     16  H2  UNL     1     -10.038 -14.469 -21.462  1.00  0.00     0.190 HD
HETATM   17  O2  UNL     1      -7.808 -14.906 -22.485  1.00  0.00    -0.266 OA
HETATM   18  C12 UNL     1      -7.154 -13.012 -21.332  1.00  0.00     0.020 A 
HETATM   19  C17 UNL     1      -5.781 -13.202 -21.885  1.00  0.00     0.045 C 
HETATM   20  C16 UNL     1      -4.783 -12.753 -20.841  1.00  0.00     0.005 C 
HETATM   21  C15 UNL     1      -5.080 -11.305 -20.586  1.00  0.00     0.005 C 
HETATM   22  C14 UNL     1      -6.448 -11.010 -20.066  1.00  0.00     0.042 C 
ENDBRANCH   6   9
BRANCH   5  23
HETATM   23  O1  UNL     1     -10.462 -11.978 -16.778  1.00  0.00    -0.360 OA
ATOM     24  H1  UNL     1     -11.358 -11.719 -16.594  1.00  0.00     0.217 HD
ENDBRANCH   5  23
BRANCH   1  25
HETATM   25  C3  UNL     1      -6.912  -7.656 -16.115  1.00  0.00     0.274 C 
HETATM   26  F1  UNL     1      -7.214  -6.894 -15.026  1.00  0.00    -0.201 F 
HETATM   27  F2  UNL     1      -7.068  -6.696 -17.187  1.00  0.00    -0.201 F 
BRANCH  25  28
HETATM   28  C2  UNL     1      -5.419  -7.952 -16.196  1.00  0.00     0.080 C 
HETATM   29  C1  UNL     1      -4.590  -6.765 -15.780  1.00  0.00     0.011 C 
ENDBRANCH  25  28
ENDBRANCH   1  25
TORSDOF 4
ENDMDL
MODEL 4
REMARK VINA RESULT: -8.700862509      2.301      2.883
REMARK  4 active torsions:
REMARK  status: ('A' for Active; 'I' for Inactive)
REMARK    1  A    between atoms: C2_2  and  C3_3 
REMARK    2  A    between atoms: C3_3  and  C4_6 
REMARK    3  A    between atoms: C7_10  and  O1_11 
REMARK    4  A    between atoms: C8_13  and  C9_14 
ROOT
HETATM    1  C4  UNL     1      -7.851  -6.793 -15.321  1.00  0.00     0.058 A 
HETATM    2  C5  UNL     1      -8.181  -5.557 -15.892  1.00  0.00     0.131 A 
HETATM    3  F3  UNL     1      -8.977  -4.647 -15.240  1.00  0.00    -0.205 F 
HETATM    4  C6  UNL     1      -7.770  -5.187 -17.136  1.00  0.00     0.080 A 
HETATM    5  C7  UNL     1      -6.997  -6.064 -17.865  1.00  0.00     0.079 A 
HETATM    6  C8  UNL     1      -6.629  -7.290 -17.375  1.00  0.00     0.006 A 
HETATM    7  C18 UNL     1      -7.072  -7.624 -16.107  1.00  0.00    -0.034 A 
HETATM    8  C19 UNL     1      -6.760  -8.947 -15.498  1.00  0.00     0.050 C 
ENDROOT
BRANCH   6   9
HETATM    9  C9  UNL     1      -5.742  -8.127 -18.150  1.00  0.00     0.046 C 
HETATM   10  C10 UNL     1      -6.092  -9.035 -19.196  1.00  0.00     0.056 A 
HETATM   11  N1  UNL     1      -5.400  -8.869 -20.383  1.00  0.00    -0.297 N 
HETATM   12  C13 UNL     1      -6.917 -10.119 -19.231  1.00  0.00    -0.018 A 
HETATM   13  N2  UNL     1      -5.455  -9.587 -21.437  1.00  0.00    -0.266 N 
ATOM     14  H1  UNL     1      -4.764  -8.072 -20.420  1.00  0.00     0.187 HD
HETATM   15  C11 UNL     1      -6.254 -10.655 -21.498  1.00  0.00     0.266 A 
ATOM     16  H2  UNL     1      -4.881  -9.341 -22.243  1.00  0.00     0.190 HD
HETATM   17  O2  UNL     1      -6.305 -11.364 -22.540  1.00  0.00    -0.266 OA
HETATM   18  C12 UNL     1      -6.995 -10.924 -20.378  1.00  0.00     0.020 A 
HETATM   19  C17 UNL     1      -7.892 -12.113 -20.469  1.00  0.00     0.045 C 
HETATM   20  C16 UNL     1      -9.148 -11.821 -19.677  1.00  0.00     0.005 C 
HETATM   21  C15 UNL     1      -8.696 -11.578 -18.268  1.00  0.00     0.005 C 
HETATM   22  C14 UNL     1      -7.761 -10.428 -18.081  1.00  0.00     0.042 C 
ENDBRANCH   6   9
BRANCH   5  23
HETATM   23  O1  UNL     1      -6.649  -5.570 -19.141  1.00  0.00    -0.360 OA
ATOM     24  H1  UNL     1      -5.801  -5.142 -19.158  1.00  0.00     0.217 HD
ENDBRANCH   5  23
BRANCH   1  25
HETATM   25  C3  UNL     1      -8.331  -7.010 -13.963  1.00  0.00     0.274 C 
HETATM   26  F1  UNL     1      -8.295  -8.274 -13.452  1.00  0.00    -0.201 F 
HETATM   27  F2  UNL     1      -9.755  -6.751 -13.987  1.00  0.00    -0.201 F 
BRANCH  25  28
HETATM   28  C2  UNL     1      -7.858  -5.981 -12.944  1.00  0.00     0.080 C 
HETATM   29  C1  UNL     1      -7.512  -6.618 -11.623  1.00  0.00     0.011 C 
ENDBRANCH  25  28
ENDBRANCH   1  25
TORSDOF 4
ENDMDL
MODEL 5
REMARK VINA RESULT: -8.599846560      2.210      2.941
REMARK  4 active torsions:
REMARK  status: ('A' for Active; 'I' for Inactive)
REMARK    1  A    between atoms: C2_2  and  C3_3 
REMARK    2  A    between atoms: C3_3  and  C4_6 
REMARK    3  A    between atoms: C7_10  and  O1_11 
REMARK    4  A    between atoms: C8_13  and  C9_14 
ROOT
HETATM    1  C4  UNL     1      -4.662  -6.066 -18.131  1.00  0.00     0.058 A 
HETATM    2  C5  UNL     1      -5.028  -5.662 -19.422  1.00  0.00     0.131 A 
HETATM    3  F3  UNL     1      -4.606  -4.468 -19.954  1.00  0.00    -0.205 F 
HETATM    4  C6  UNL     1      -5.848  -6.399 -20.220  1.00  0.00     0.080 A 
HETATM    5  C7  UNL     1      -6.339  -7.593 -19.739  1.00  0.00     0.079 A 
HETATM    6  C8  UNL     1      -6.026  -8.059 -18.489  1.00  0.00     0.006 A 
HETATM    7  C18 UNL     1      -5.191  -7.275 -17.713  1.00  0.00    -0.034 A 
HETATM    8  C19 UNL     1      -4.819  -7.672 -16.326  1.00  0.00     0.050 C 
ENDROOT
BRANCH   6   9
HETATM    9  C9  UNL     1      -6.499  -9.361 -18.077  1.00  0.00     0.046 C 
HETATM   10  C10 UNL     1      -7.667  -9.662 -17.313  1.00  0.00     0.056 A 
HETATM   11  N1  UNL     1      -8.516 -10.602 -17.871  1.00  0.00    -0.297 N 
HETATM   12  C13 UNL     1      -8.074  -9.277 -16.071  1.00  0.00    -0.018 A 
HETATM   13  N2  UNL     1      -9.573 -11.110 -17.367  1.00  0.00    -0.266 N 
ATOM     14  H1  UNL     1      -8.266 -10.931 -18.803  1.00  0.00     0.187 HD
HETATM   15  C11 UNL     1      -9.994 -10.752 -16.151  1.00  0.00     0.266 A 
ATOM     16  H2  UNL     1     -10.103 -11.799 -17.900  1.00  0.00     0.190 HD
HETATM   17  O2  UNL     1     -11.038 -11.256 -15.655  1.00  0.00    -0.266 OA
HETATM   18  C12 UNL     1      -9.233  -9.822 -15.494  1.00  0.00     0.020 A 
HETATM   19  C17 UNL     1      -9.725  -9.423 -14.143  1.00  0.00     0.045 C 
HETATM   20  C16 UNL     1      -9.409  -7.958 -13.937  1.00  0.00     0.005 C 
HETATM   21  C15 UNL     1      -7.916  -7.843 -14.036  1.00  0.00     0.005 C 
HETATM   22  C14 UNL     1      -7.324  -8.259 -15.342  1.00  0.00     0.042 C 
ENDBRANCH   6   9
BRANCH   5  23
HETATM   23  O1  UNL     1      -7.188  -8.254 -20.655  1.00  0.00    -0.360 OA
ATOM     24  H1  UNL     1      -8.063  -7.884 -20.689  1.00  0.00     0.217 HD
ENDBRANCH   5  23
BRANCH   1  25
HETATM   25  C3  UNL     1      -3.738  -5.184 -17.431  1.00  0.00     0.274 C 
HETATM   26  F1  UNL     1      -2.460  -5.078 -17.893  1.00  0.00    -0.201 F 
HETATM   27  F2  UNL     1      -3.522  -5.772 -16.126  1.00  0.00    -0.201 F 
BRANCH  25  28
HETATM   28  C2  UNL     1      -4.312  -3.824 -17.054  1.00  0.00     0.080 C 
HETATM   29  C1  UNL     1      -5.455  -3.950 -16.079  1.00  0.00     0.011 C 
ENDBRANCH  25  28
ENDBRANCH   1  25
TORSDOF 4
ENDMDL
