MODEL 1
REMARK VINA RESULT: -8.711024546      0.000      0.000
REMARK  7 active torsions:
REMARK  status: ('A' for Active; 'I' for Inactive)
REMARK    1  A    between atoms: O1_1  and  C1_3 
REMARK    2  A    between atoms: C4_6  and  N1_7 
REMARK    3  A    between atoms: C7_10  and  O2_11 
REMARK    4  A    between atoms: C10_15  and  C11_16 
REMARK    5  A    between atoms: C11_16  and  C12_17 
REMARK    6  A    between atoms: N2_23  and  C15_24 
REMARK    7  A    between atoms: C15_24  and  C16_25 
ROOT
HETATM    1  C1  UNL     1      -6.113  -9.455 -20.508  1.00  0.00     0.073 A 
HETATM    2  C2  UNL     1      -6.099  -8.423 -19.561  1.00  0.00     0.039 A 
HETATM    3  C3  UNL     1      -6.851  -8.538 -18.419  1.00  0.00     0.032 A 
HETATM    4  C4  UNL     1      -7.619  -9.660 -18.195  1.00  0.00     0.030 A 
HETATM    5  C9  UNL     1      -7.602 -10.643 -19.153  1.00  0.00     0.040 A 
HETATM    6  C10 UNL     1      -6.849 -10.571 -20.337  1.00  0.00    -0.004 A 
ENDROOT
BRANCH   6   7
HETATM    7  C11 UNL     1      -6.969 -11.643 -21.346  1.00  0.00     0.105 C 
HETATM    8  C13 UNL     1      -7.989 -12.687 -20.881  1.00  0.00     0.045 C 
HETATM    9  C14 UNL     1      -8.555 -13.213 -22.208  1.00  0.00     0.123 C 
HETATM   10  N2  UNL     1      -8.365 -12.222 -23.168  1.00  0.00    -0.392 N 
HETATM   11  C21 UNL     1      -7.557 -11.171 -22.640  1.00  0.00     0.145 C 
BRANCH   7  12
HETATM   12  C12 UNL     1      -5.683 -12.376 -21.507  1.00  0.00     0.401 C 
HETATM   13  F1  UNL     1      -5.859 -13.758 -21.350  1.00  0.00    -0.170 F 
HETATM   14  F2  UNL     1      -4.647 -12.060 -20.692  1.00  0.00    -0.170 F 
HETATM   15  F3  UNL     1      -5.189 -12.219 -22.821  1.00  0.00    -0.170 F 
ENDBRANCH   7  12
BRANCH  10  16
HETATM   16  C15 UNL     1      -8.281 -12.519 -24.523  1.00  0.00     0.062 C 
BRANCH  16  17
HETATM   17  C16 UNL     1      -7.896 -11.487 -25.503  1.00  0.00     0.024 C 
HETATM   18  C17 UNL     1      -6.596 -11.681 -26.237  1.00  0.00     0.010 C 
HETATM   19  C18 UNL     1      -6.617 -10.374 -27.075  1.00  0.00     0.001 C 
HETATM   20  C19 UNL     1      -8.018 -10.500 -27.683  1.00  0.00     0.001 C 
HETATM   21  C20 UNL     1      -8.846 -11.291 -26.664  1.00  0.00     0.010 C 
ENDBRANCH  16  17
ENDBRANCH  10  16
ENDBRANCH   6   7
BRANCH   1  22
HETATM   22  O1  UNL     1      -5.305  -9.220 -21.610  1.00  0.00    -0.360 OA
ATOM     23  H1  UNL     1      -5.000 -10.009 -22.042  1.00  0.00     0.217 HD
ENDBRANCH   1  22
BRANCH   4  24
HETATM   24  N1  UNL     1      -8.405  -9.798 -17.013  1.00  0.00    -0.378 N 
HETATM   25  C5  UNL     1      -8.182  -9.046 -15.804  1.00  0.00     0.125 C 
HETATM   26  C6  UNL     1      -9.118  -9.617 -14.764  1.00  0.00     0.053 C 
HETATM   27  C7  UNL     1      -9.742 -10.856 -15.372  1.00  0.00     0.137 C 
HETATM   28  C8  UNL     1      -9.524 -10.698 -16.860  1.00  0.00     0.154 C 
BRANCH  27  29
HETATM   29  O2  UNL     1     -11.118 -10.891 -15.152  1.00  0.00    -0.394 OA
ATOM     30  H2  UNL     1     -11.318 -10.994 -14.229  1.00  0.00     0.210 HD
ENDBRANCH  27  29
ENDBRANCH   4  24
TORSDOF 7
ENDMDL
MODEL 2
REMARK VINA RESULT: -8.709824124      5.284      8.492
REMARK  7 active torsions:
REMARK  status: ('A' for Active; 'I' for Inactive)
REMARK    1  A    between atoms: O1_1  and  C1_3 
REMARK    2  A    between atoms: C4_6  and  N1_7 
REMARK    3  A    between atoms: C7_10  and  O2_11 
REMARK    4  A    between atoms: C10_15  and  C11_16 
REMARK    5  A    between atoms: C11_16  and  C12_17 
REMARK    6  A    between atoms: N2_23  and  C15_24 
REMARK    7  A    between atoms: C15_24  and  C16_25 
ROOT
HETATM    1  C1  UNL     1      -8.175  -7.505 -13.936  1.00  0.00     0.073 A 
HETATM    2  C2  UNL     1      -8.702  -8.789 -13.755  1.00  0.00     0.039 A 
HETATM    3  C3  UNL     1      -8.799  -9.642 -14.825  1.00  0.00     0.032 A 
HETATM    4  C4  UNL     1      -8.381  -9.245 -16.077  1.00  0.00     0.030 A 
HETATM    5  C9  UNL     1      -7.873  -7.976 -16.205  1.00  0.00     0.040 A 
HETATM    6  C10 UNL     1      -7.755  -7.068 -15.140  1.00  0.00    -0.004 A 
ENDROOT
BRANCH   6   7
HETATM    7  C11 UNL     1      -7.278  -5.694 -15.399  1.00  0.00     0.105 C 
HETATM    8  C13 UNL     1      -6.545  -5.154 -14.168  1.00  0.00     0.045 C 
HETATM    9  C14 UNL     1      -5.520  -4.193 -14.786  1.00  0.00     0.123 C 
HETATM   10  N2  UNL     1      -5.298  -4.602 -16.098  1.00  0.00    -0.392 N 
HETATM   11  C21 UNL     1      -6.222  -5.628 -16.459  1.00  0.00     0.145 C 
BRANCH   7  12
HETATM   12  C12 UNL     1      -8.417  -4.765 -15.632  1.00  0.00     0.401 C 
HETATM   13  F1  UNL     1      -8.811  -4.764 -16.977  1.00  0.00    -0.170 F 
HETATM   14  F2  UNL     1      -8.266  -3.456 -15.311  1.00  0.00    -0.170 F 
HETATM   15  F3  UNL     1      -9.557  -5.197 -14.919  1.00  0.00    -0.170 F 
ENDBRANCH   7  12
BRANCH  10  16
HETATM   16  C15 UNL     1      -4.856  -3.721 -17.078  1.00  0.00     0.062 C 
BRANCH  16  17
HETATM   17  C16 UNL     1      -4.044  -4.195 -18.214  1.00  0.00     0.024 C 
HETATM   18  C17 UNL     1      -3.057  -5.299 -17.945  1.00  0.00     0.010 C 
HETATM   19  C18 UNL     1      -2.449  -5.404 -19.370  1.00  0.00     0.001 C 
HETATM   20  C19 UNL     1      -3.746  -5.536 -20.176  1.00  0.00     0.001 C 
HETATM   21  C20 UNL     1      -4.815  -4.783 -19.375  1.00  0.00     0.010 C 
ENDBRANCH  16  17
ENDBRANCH  10  16
ENDBRANCH   6   7
BRANCH   1  22
HETATM   22  O1  UNL     1      -8.123  -6.747 -12.775  1.00  0.00    -0.360 OA
ATOM     23  H1  UNL     1      -8.414  -5.850 -12.885  1.00  0.00     0.217 HD
ENDBRANCH   1  22
BRANCH   4  24
HETATM   24  N1  UNL     1      -8.472 -10.118 -17.201  1.00  0.00    -0.378 N 
HETATM   25  C5  UNL     1      -9.462 -11.158 -17.337  1.00  0.00     0.125 C 
HETATM   26  C6  UNL     1      -9.095 -11.940 -18.578  1.00  0.00     0.053 C 
HETATM   27  C7  UNL     1      -7.745 -11.429 -19.033  1.00  0.00     0.137 C 
HETATM   28  C8  UNL     1      -7.598 -10.087 -18.350  1.00  0.00     0.154 C 
BRANCH  27  29
HETATM   29  O2  UNL     1      -7.725 -11.203 -20.408  1.00  0.00    -0.394 OA
ATOM     30  H2  UNL     1      -7.280 -10.391 -20.619  1.00  0.00     0.210 HD
ENDBRANCH  27  29
ENDBRANCH   4  24
TORSDOF 7
ENDMDL
MODEL 3
REMARK VINA RESULT: -8.676468544      4.964      8.707
REMARK  7 active torsions:
REMARK  status: ('A' for Active; 'I' for Inactive)
REMARK    1  A    between atoms: O1_1  and  C1_3 
REMARK    2  A    between atoms: C4_6  and  N1_7 
REMARK    3  A    between atoms: C7_10  and  O2_11 
REMARK    4  A    between atoms: C10_15  and  C11_16 
REMARK    5  A    between atoms: C11_16  and  C12_17 
REMARK    6  A    between atoms: N2_23  and  C15_24 
REMARK    7  A    between atoms: C15_24  and  C16_25 
ROOT
HETATM    1  C1  UNL     1      -8.785  -7.980 -14.086  1.00  0.00     0.073 A 
HETATM    2  C2  UNL     1      -9.418  -9.228 -14.153  1.00  0.00     0.039 A 
HETATM    3  C3  UNL     1      -9.310  -9.985 -15.291  1.00  0.00     0.032 A 
HETATM    4  C4  UNL     1      -8.583  -9.530 -16.369  1.00  0.00     0.030 A 
HETATM    5  C9  UNL     1      -7.982  -8.301 -16.257  1.00  0.00     0.040 A 
HETATM    6  C10 UNL     1      -8.065  -7.489 -15.114  1.00  0.00    -0.004 A 
ENDROOT
BRANCH   6   7
HETATM    7  C11 UNL     1      -7.456  -6.143 -15.126  1.00  0.00     0.105 C 
HETATM    8  C13 UNL     1      -7.074  -5.729 -13.702  1.00  0.00     0.045 C 
HETATM    9  C14 UNL     1      -5.863  -4.816 -13.934  1.00  0.00     0.123 C 
HETATM   10  N2  UNL     1      -5.299  -5.168 -15.158  1.00  0.00    -0.392 N 
HETATM   11  C21 UNL     1      -6.139  -6.100 -15.839  1.00  0.00     0.145 C 
BRANCH   7  12
HETATM   12  C12 UNL     1      -8.426  -5.119 -15.600  1.00  0.00     0.401 C 
HETATM   13  F1  UNL     1      -8.015  -3.825 -15.251  1.00  0.00    -0.170 F 
HETATM   14  F2  UNL     1      -9.714  -5.201 -15.186  1.00  0.00    -0.170 F 
HETATM   15  F3  UNL     1      -8.485  -5.114 -17.011  1.00  0.00    -0.170 F 
ENDBRANCH   7  12
BRANCH  10  16
HETATM   16  C15 UNL     1      -4.546  -4.271 -15.906  1.00  0.00     0.062 C 
BRANCH  16  17
HETATM   17  C16 UNL     1      -4.471  -4.383 -17.374  1.00  0.00     0.024 C 
HETATM   18  C17 UNL     1      -4.418  -3.102 -18.163  1.00  0.00     0.010 C 
HETATM   19  C18 UNL     1      -4.395  -3.720 -19.588  1.00  0.00     0.001 C 
HETATM   20  C19 UNL     1      -3.239  -4.708 -19.403  1.00  0.00     0.001 C 
HETATM   21  C20 UNL     1      -3.256  -5.099 -17.920  1.00  0.00     0.010 C 
ENDBRANCH  16  17
ENDBRANCH  10  16
ENDBRANCH   6   7
BRANCH   1  22
HETATM   22  O1  UNL     1      -8.964  -7.320 -12.879  1.00  0.00    -0.360 OA
ATOM     23  H1  UNL     1      -9.036  -6.377 -12.961  1.00  0.00     0.217 HD
ENDBRANCH   1  22
BRANCH   4  24
HETATM   24  N1  UNL     1      -8.458 -10.305 -17.561  1.00  0.00    -0.378 N 
HETATM   25  C5  UNL     1      -9.199 -11.515 -17.817  1.00  0.00     0.125 C 
HETATM   26  C6  UNL     1      -8.644 -12.094 -19.098  1.00  0.00     0.053 C 
HETATM   27  C7  UNL     1      -7.423 -11.272 -19.456  1.00  0.00     0.137 C 
HETATM   28  C8  UNL     1      -7.583  -9.993 -18.666  1.00  0.00     0.154 C 
BRANCH  27  29
HETATM   29  O2  UNL     1      -7.419 -10.933 -20.807  1.00  0.00    -0.394 OA
ATOM     30  H2  UNL     1      -7.136 -11.662 -21.347  1.00  0.00     0.210 HD
ENDBRANCH  27  29
ENDBRANCH   4  24
TORSDOF 7
ENDMDL
MODEL 4
REMARK VINA RESULT: -8.535270205      3.564      8.604
REMARK  7 active torsions:
REMARK  status: ('A' for Active; 'I' for Inactive)
REMARK    1  A    between atoms: O1_1  and  C1_3 
REMARK    2  A    between atoms: C4_6  and  N1_7 
REMARK    3  A    between atoms: C7_10  and  O2_11 
REMARK    4  A    between atoms: C10_15  and  C11_16 
REMARK    5  A    between atoms: C11_16  and  C12_17 
REMARK    6  A    between atoms: N2_23  and  C15_24 
REMARK    7  A    between atoms: C15_24  and  C16_25 
ROOT
HETATM    1  C1  UNL     1      -8.902  -9.784 -16.194  1.00  0.00     0.073 A 
HETATM    2  C2  UNL     1      -9.642 -10.944 -16.452  1.00  0.00     0.039 A 
HETATM    3  C3  UNL     1      -9.435 -11.639 -17.617  1.00  0.00     0.032 A 
HETATM    4  C4  UNL     1      -8.503 -11.205 -18.535  1.00  0.00     0.030 A 
HETATM    5  C9  UNL     1      -7.803 -10.062 -18.239  1.00  0.00     0.040 A 
HETATM    6  C10 UNL     1      -7.981  -9.317 -17.061  1.00  0.00    -0.004 A 
ENDROOT
BRANCH   6   7
HETATM    7  C11 UNL     1      -7.241  -8.052 -16.877  1.00  0.00     0.105 C 
HETATM    8  C13 UNL     1      -6.968  -7.404 -18.238  1.00  0.00     0.045 C 
HETATM    9  C14 UNL     1      -6.950  -5.908 -17.897  1.00  0.00     0.123 C 
HETATM   10  N2  UNL     1      -7.694  -5.733 -16.733  1.00  0.00    -0.392 N 
HETATM   11  C21 UNL     1      -8.041  -7.000 -16.174  1.00  0.00     0.145 C 
BRANCH   7  12
HETATM   12  C12 UNL     1      -5.905  -8.293 -16.268  1.00  0.00     0.401 C 
HETATM   13  F1  UNL     1      -5.816  -9.581 -15.722  1.00  0.00    -0.170 F 
HETATM   14  F2  UNL     1      -5.479  -7.465 -15.283  1.00  0.00    -0.170 F 
HETATM   15  F3  UNL     1      -4.898  -8.247 -17.258  1.00  0.00    -0.170 F 
ENDBRANCH   7  12
BRANCH  10  16
HETATM   16  C15 UNL     1      -7.482  -4.657 -15.880  1.00  0.00     0.062 C 
BRANCH  16  17
HETATM   17  C16 UNL     1      -7.641  -4.803 -14.421  1.00  0.00     0.024 C 
HETATM   18  C17 UNL     1      -8.460  -5.965 -13.927  1.00  0.00     0.010 C 
HETATM   19  C18 UNL     1      -8.371  -5.668 -12.406  1.00  0.00     0.001 C 
HETATM   20  C19 UNL     1      -6.851  -5.523 -12.277  1.00  0.00     0.001 C 
HETATM   21  C20 UNL     1      -6.364  -5.005 -13.635  1.00  0.00     0.010 C 
ENDBRANCH  16  17
ENDBRANCH  10  16
ENDBRANCH   6   7
BRANCH   1  22
HETATM   22  O1  UNL     1      -9.199  -9.183 -14.980  1.00  0.00    -0.360 OA
ATOM     23  H1  UNL     1      -8.489  -8.664 -14.621  1.00  0.00     0.217 HD
ENDBRANCH   1  22
BRANCH   4  24
HETATM   24  N1  UNL     1      -8.273 -11.915 -19.751  1.00  0.00    -0.378 N 
HETATM   25  C5  UNL     1      -7.206 -11.613 -20.672  1.00  0.00     0.125 C 
HETATM   26  C6  UNL     1      -7.430 -12.483 -21.888  1.00  0.00     0.053 C 
HETATM   27  C7  UNL     1      -8.778 -13.147 -21.707  1.00  0.00     0.137 C 
HETATM   28  C8  UNL     1      -9.066 -13.024 -20.228  1.00  0.00     0.154 C 
BRANCH  27  29
HETATM   29  O2  UNL     1      -8.719 -14.506 -22.010  1.00  0.00    -0.394 OA
ATOM     30  H2  UNL     1      -9.515 -14.954 -21.749  1.00  0.00     0.210 HD
ENDBRANCH  27  29
ENDBRANCH   4  24
TORSDOF 7
ENDMDL
MODEL 5
REMARK VINA RESULT: -8.523970418      1.104      1.547
REMARK  7 active torsions:
REMARK  status: ('A' for Active; 'I' for Inactive)
REMARK    1  A    between atoms: O1_1  and  C1_3 
REMARK    2  A    between atoms: C4_6  and  N1_7 
REMARK    3  A    between atoms: C7_10  and  O2_11 
REMARK    4  A    between atoms: C10_15  and  C11_16 
REMARK    5  A    between atoms: C11_16  and  C12_17 
REMARK    6  A    between atoms: N2_23  and  C15_24 
REMARK    7  A    between atoms: C15_24  and  C16_25 
ROOT
HETATM    1  C1  UNL     1      -6.803  -9.632 -20.943  1.00  0.00     0.073 A 
HETATM    2  C2  UNL     1      -6.954  -8.466 -20.182  1.00  0.00     0.039 A 
HETATM    3  C3  UNL     1      -7.568  -8.528 -18.957  1.00  0.00     0.032 A 
HETATM    4  C4  UNL     1      -8.038  -9.727 -18.468  1.00  0.00     0.030 A 
HETATM    5  C9  UNL     1      -7.869 -10.843 -19.251  1.00  0.00     0.040 A 
HETATM    6  C10 UNL     1      -7.248 -10.829 -20.510  1.00  0.00    -0.004 A 
ENDROOT
BRANCH   6   7
HETATM    7  C11 UNL     1      -7.195 -12.068 -21.313  1.00  0.00     0.105 C 
HETATM    8  C13 UNL     1      -7.917 -13.200 -20.575  1.00  0.00     0.045 C 
HETATM    9  C14 UNL     1      -8.445 -14.065 -21.728  1.00  0.00     0.123 C 
HETATM   10  N2  UNL     1      -8.554 -13.249 -22.852  1.00  0.00    -0.392 N 
HETATM   11  C21 UNL     1      -7.967 -11.973 -22.593  1.00  0.00     0.145 C 
BRANCH   7  12
HETATM   12  C12 UNL     1      -5.793 -12.533 -21.495  1.00  0.00     0.401 C 
HETATM   13  F1  UNL     1      -5.320 -12.245 -22.782  1.00  0.00    -0.170 F 
HETATM   14  F2  UNL     1      -5.512 -13.845 -21.304  1.00  0.00    -0.170 F 
HETATM   15  F3  UNL     1      -4.928 -11.834 -20.624  1.00  0.00    -0.170 F 
ENDBRANCH   7  12
BRANCH  10  16
HETATM   16  C15 UNL     1      -8.503 -13.763 -24.141  1.00  0.00     0.062 C 
BRANCH  16  17
HETATM   17  C16 UNL     1      -9.173 -13.073 -25.260  1.00  0.00     0.024 C 
HETATM   18  C17 UNL     1      -8.384 -12.883 -26.527  1.00  0.00     0.010 C 
HETATM   19  C18 UNL     1      -9.455 -12.107 -27.341  1.00  0.00     0.001 C 
HETATM   20  C19 UNL     1     -10.638 -13.064 -27.156  1.00  0.00     0.001 C 
HETATM   21  C20 UNL     1     -10.415 -13.747 -25.801  1.00  0.00     0.010 C 
ENDBRANCH  16  17
ENDBRANCH  10  16
ENDBRANCH   6   7
BRANCH   1  22
HETATM   22  O1  UNL     1      -6.159  -9.436 -22.155  1.00  0.00    -0.360 OA
ATOM     23  H1  UNL     1      -5.213  -9.511 -22.107  1.00  0.00     0.217 HD
ENDBRANCH   1  22
BRANCH   4  24
HETATM   24  N1  UNL     1      -8.677  -9.811 -17.196  1.00  0.00    -0.378 N 
HETATM   25  C5  UNL     1      -8.341  -8.979 -16.068  1.00  0.00     0.125 C 
HETATM   26  C6  UNL     1      -9.132  -9.508 -14.893  1.00  0.00     0.053 C 
HETATM   27  C7  UNL     1      -9.779 -10.798 -15.349  1.00  0.00     0.137 C 
HETATM   28  C8  UNL     1      -9.740 -10.729 -16.859  1.00  0.00     0.154 C 
BRANCH  27  29
HETATM   29  O2  UNL     1     -11.118 -10.856 -14.967  1.00  0.00    -0.394 OA
ATOM     30  H2  UNL     1     -11.218 -10.714 -14.034  1.00  0.00     0.210 HD
ENDBRANCH  27  29
ENDBRANCH   4  24
TORSDOF 7
ENDMDL
