MODEL 1
REMARK VINA RESULT: -8.132533027      0.000      0.000
REMARK  7 active torsions:
REMARK  status: ('A' for Active; 'I' for Inactive)
REMARK    1  A    between atoms: C2_2  and  C3_3 
REMARK    2  A    between atoms: C3_3  and  O1_4 
REMARK    3  A    between atoms: C3_3  and  N1_6 
REMARK    4  A    between atoms: C9_12  and  N2_13 
REMARK    5  A    between atoms: N2_13  and  C10_15 
REMARK    6  A    between atoms: C11_16  and  C12_17 
REMARK    7  A    between atoms: C15_24  and  C16_25 
ROOT
HETATM    1  N2  UNL     1      -6.681  -9.581 -17.069  1.00  0.00    -0.382 N 
ATOM      2  H2  UNL     1      -6.065 -10.218 -16.564  1.00  0.00     0.160 HD
ENDROOT
BRANCH   1   3
HETATM    3  C9  UNL     1      -6.163  -8.299 -17.245  1.00  0.00     0.082 C 
HETATM    4  C8  UNL     1      -7.125  -7.223 -17.658  1.00  0.00     0.026 C 
HETATM    5  C7  UNL     1      -6.353  -5.947 -17.933  1.00  0.00     0.013 C 
HETATM    6  C6  UNL     1      -5.654  -5.535 -16.671  1.00  0.00    -0.022 C 
HETATM    7  C5  UNL     1      -6.549  -5.291 -15.499  1.00  0.00     0.031 C 
HETATM    8  C18 UNL     1      -4.645  -6.619 -16.317  1.00  0.00     0.013 C 
HETATM    9  C19 UNL     1      -5.010  -4.230 -16.889  1.00  0.00     0.134 C 
HETATM   10  C4  UNL     1      -5.566  -4.444 -14.628  1.00  0.00     0.125 C 
HETATM   11  N1  UNL     1      -5.050  -3.497 -15.579  1.00  0.00    -0.361 N 
HETATM   12  C17 UNL     1      -5.346  -7.894 -16.006  1.00  0.00     0.026 C 
BRANCH  11  13
HETATM   13  C3  UNL     1      -4.559  -2.192 -15.502  1.00  0.00     0.137 C 
BRANCH  13  14
HETATM   14  C2  UNL     1      -3.769  -1.543 -16.483  1.00  0.00     0.045 C 
HETATM   15  C1  UNL     1      -2.815  -0.703 -16.314  1.00  0.00     0.015 C 
ENDBRANCH  13  14
BRANCH  13  16
HETATM   16  O1  UNL     1      -4.861  -1.519 -14.420  1.00  0.00    -0.346 OA
ATOM     17  H1  UNL     1      -4.386  -1.727 -13.624  1.00  0.00     0.219 HD
ENDBRANCH  13  16
ENDBRANCH  11  13
ENDBRANCH   1   3
BRANCH   1  18
HETATM   18  C10 UNL     1      -7.894 -10.148 -17.462  1.00  0.00     0.086 A 
HETATM   19  C11 UNL     1      -8.123 -10.696 -18.720  1.00  0.00     0.058 A 
HETATM   20  N3  UNL     1      -9.466 -11.006 -18.714  1.00  0.00    -0.302 N 
HETATM   21  N4  UNL     1      -9.984 -10.676 -17.559  1.00  0.00    -0.294 N 
ATOM     22  H3  UNL     1      -9.977 -11.427 -19.489  1.00  0.00     0.186 HD
HETATM   23  C15 UNL     1      -9.075 -10.130 -16.723  1.00  0.00     0.161 A 
ATOM     24  H4  UNL     1     -10.965 -10.815 -17.317  1.00  0.00     0.187 HD
BRANCH  19  25
HETATM   25  C12 UNL     1      -7.170 -11.064 -19.795  1.00  0.00     0.031 C 
HETATM   26  C13 UNL     1      -7.095  -9.870 -20.812  1.00  0.00     0.016 C 
HETATM   27  C14 UNL     1      -7.928 -12.108 -20.734  1.00  0.00     0.016 C 
ENDBRANCH  19  25
BRANCH  23  28
HETATM   28  C16 UNL     1      -9.296  -9.562 -15.384  1.00  0.00     0.436 C 
HETATM   29  F1  UNL     1      -8.490 -10.314 -14.492  1.00  0.00    -0.165 F 
HETATM   30  F2  UNL     1      -9.160  -8.231 -15.203  1.00  0.00    -0.165 F 
HETATM   31  F3  UNL     1     -10.603  -9.879 -14.941  1.00  0.00    -0.165 F 
ENDBRANCH  23  28
ENDBRANCH   1  18
TORSDOF 7
ENDMDL
MODEL 2
REMARK VINA RESULT: -8.062295986      2.119      3.333
REMARK  7 active torsions:
REMARK  status: ('A' for Active; 'I' for Inactive)
REMARK    1  A    between atoms: C2_2  and  C3_3 
REMARK    2  A    between atoms: C3_3  and  O1_4 
REMARK    3  A    between atoms: C3_3  and  N1_6 
REMARK    4  A    between atoms: C9_12  and  N2_13 
REMARK    5  A    between atoms: N2_13  and  C10_15 
REMARK    6  A    between atoms: C11_16  and  C12_17 
REMARK    7  A    between atoms: C15_24  and  C16_25 
ROOT
HETATM    1  N2  UNL     1      -6.123  -8.941 -17.214  1.00  0.00    -0.382 N 
ATOM      2  H2  UNL     1      -5.434  -9.687 -17.121  1.00  0.00     0.160 HD
ENDROOT
BRANCH   1   3
HETATM    3  C9  UNL     1      -5.573  -7.666 -17.343  1.00  0.00     0.082 C 
HETATM    4  C8  UNL     1      -6.450  -6.600 -17.935  1.00  0.00     0.026 C 
HETATM    5  C7  UNL     1      -5.634  -5.336 -18.121  1.00  0.00     0.013 C 
HETATM    6  C6  UNL     1      -5.140  -4.887 -16.778  1.00  0.00    -0.022 C 
HETATM    7  C5  UNL     1      -6.207  -4.605 -15.770  1.00  0.00     0.031 C 
HETATM    8  C18 UNL     1      -4.208  -5.963 -16.236  1.00  0.00     0.013 C 
HETATM    9  C19 UNL     1      -4.459  -3.591 -16.930  1.00  0.00     0.134 C 
HETATM   10  C4  UNL     1      -5.367  -3.735 -14.779  1.00  0.00     0.125 C 
HETATM   11  N1  UNL     1      -4.700  -2.819 -15.664  1.00  0.00    -0.361 N 
HETATM   12  C17 UNL     1      -4.960  -7.226 -16.003  1.00  0.00     0.026 C 
BRANCH  11  13
HETATM   13  C3  UNL     1      -4.217  -1.514 -15.549  1.00  0.00     0.137 C 
BRANCH  13  14
HETATM   14  C2  UNL     1      -3.261  -0.904 -16.399  1.00  0.00     0.045 C 
HETATM   15  C1  UNL     1      -2.407   0.009 -16.115  1.00  0.00     0.015 C 
ENDBRANCH  13  14
BRANCH  13  16
HETATM   16  O1  UNL     1      -4.697  -0.800 -14.561  1.00  0.00    -0.346 OA
ATOM     17  H1  UNL     1      -4.615  -1.151 -13.682  1.00  0.00     0.219 HD
ENDBRANCH  13  16
ENDBRANCH  11  13
ENDBRANCH   1   3
BRANCH   1  18
HETATM   18  C10 UNL     1      -7.448  -9.375 -17.189  1.00  0.00     0.086 A 
HETATM   19  C11 UNL     1      -8.260  -9.329 -16.060  1.00  0.00     0.058 A 
HETATM   20  N3  UNL     1      -9.415  -9.971 -16.447  1.00  0.00    -0.302 N 
HETATM   21  N4  UNL     1      -9.302 -10.359 -17.691  1.00  0.00    -0.294 N 
ATOM     22  H3  UNL     1     -10.232 -10.121 -15.856  1.00  0.00     0.186 HD
HETATM   23  C15 UNL     1      -8.106 -10.032 -18.226  1.00  0.00     0.161 A 
ATOM     24  H4  UNL     1     -10.035 -10.853 -18.200  1.00  0.00     0.187 HD
BRANCH  19  25
HETATM   25  C12 UNL     1      -8.072  -8.616 -14.772  1.00  0.00     0.031 C 
HETATM   26  C13 UNL     1      -9.145  -9.149 -13.758  1.00  0.00     0.016 C 
HETATM   27  C14 UNL     1      -8.668  -7.150 -14.976  1.00  0.00     0.016 C 
ENDBRANCH  19  25
BRANCH  23  28
HETATM   28  C16 UNL     1      -7.582 -10.373 -19.558  1.00  0.00     0.436 C 
HETATM   29  F1  UNL     1      -8.305 -11.511 -19.994  1.00  0.00    -0.165 F 
HETATM   30  F2  UNL     1      -7.514  -9.412 -20.504  1.00  0.00    -0.165 F 
HETATM   31  F3  UNL     1      -6.267 -10.886 -19.438  1.00  0.00    -0.165 F 
ENDBRANCH  23  28
ENDBRANCH   1  18
TORSDOF 7
ENDMDL
MODEL 3
REMARK VINA RESULT: -7.998522630      2.252      3.262
REMARK  7 active torsions:
REMARK  status: ('A' for Active; 'I' for Inactive)
REMARK    1  A    between atoms: C2_2  and  C3_3 
REMARK    2  A    between atoms: C3_3  and  O1_4 
REMARK    3  A    between atoms: C3_3  and  N1_6 
REMARK    4  A    between atoms: C9_12  and  N2_13 
REMARK    5  A    between atoms: N2_13  and  C10_15 
REMARK    6  A    between atoms: C11_16  and  C12_17 
REMARK    7  A    between atoms: C15_24  and  C16_25 
ROOT
HETATM    1  N2  UNL     1      -6.654  -9.682 -17.495  1.00  0.00    -0.382 N 
ATOM      2  H2  UNL     1      -6.032 -10.318 -16.996  1.00  0.00     0.160 HD
ENDROOT
BRANCH   1   3
HETATM    3  C9  UNL     1      -6.171  -8.379 -17.609  1.00  0.00     0.082 C 
HETATM    4  C8  UNL     1      -7.173  -7.302 -17.910  1.00  0.00     0.026 C 
HETATM    5  C7  UNL     1      -6.441  -5.993 -18.134  1.00  0.00     0.013 C 
HETATM    6  C6  UNL     1      -5.695  -5.646 -16.880  1.00  0.00    -0.022 C 
HETATM    7  C5  UNL     1      -6.543  -5.498 -15.657  1.00  0.00     0.031 C 
HETATM    8  C18 UNL     1      -4.649  -6.726 -16.640  1.00  0.00     0.013 C 
HETATM    9  C19 UNL     1      -5.090  -4.315 -17.040  1.00  0.00     0.134 C 
HETATM   10  C4  UNL     1      -5.540  -4.686 -14.776  1.00  0.00     0.125 C 
HETATM   11  N1  UNL     1      -5.087  -3.669 -15.684  1.00  0.00    -0.361 N 
HETATM   12  C17 UNL     1      -5.309  -8.034 -16.382  1.00  0.00     0.026 C 
BRANCH  11  13
HETATM   13  C3  UNL     1      -4.620  -2.360 -15.544  1.00  0.00     0.137 C 
BRANCH  13  14
HETATM   14  C2  UNL     1      -3.894  -1.628 -16.516  1.00  0.00     0.045 C 
HETATM   15  C1  UNL     1      -2.965  -0.763 -16.337  1.00  0.00     0.015 C 
ENDBRANCH  13  14
BRANCH  13  16
HETATM   16  O1  UNL     1      -4.882  -1.767 -14.406  1.00  0.00    -0.346 OA
ATOM     17  H1  UNL     1      -5.294  -0.912 -14.437  1.00  0.00     0.219 HD
ENDBRANCH  13  16
ENDBRANCH  11  13
ENDBRANCH   1   3
BRANCH   1  18
HETATM   18  C10 UNL     1      -7.838 -10.269 -17.942  1.00  0.00     0.086 A 
HETATM   19  C11 UNL     1      -9.005 -10.335 -17.187  1.00  0.00     0.058 A 
HETATM   20  N3  UNL     1      -9.858 -11.102 -17.950  1.00  0.00    -0.302 N 
HETATM   21  N4  UNL     1      -9.255 -11.455 -19.056  1.00  0.00    -0.294 N 
ATOM     22  H3  UNL     1     -10.811 -11.356 -17.693  1.00  0.00     0.186 HD
HETATM   23  C15 UNL     1      -7.992 -10.982 -19.128  1.00  0.00     0.161 A 
ATOM     24  H4  UNL     1      -9.690 -12.023 -19.783  1.00  0.00     0.187 HD
BRANCH  19  25
HETATM   25  C12 UNL     1      -9.383  -9.626 -15.940  1.00  0.00     0.031 C 
HETATM   26  C13 UNL     1      -8.301  -9.944 -14.849  1.00  0.00     0.016 C 
HETATM   27  C14 UNL     1     -10.592 -10.449 -15.302  1.00  0.00     0.016 C 
ENDBRANCH  19  25
BRANCH  23  28
HETATM   28  C16 UNL     1      -6.983 -11.239 -20.167  1.00  0.00     0.436 C 
HETATM   29  F1  UNL     1      -7.377 -10.486 -21.303  1.00  0.00    -0.165 F 
HETATM   30  F2  UNL     1      -5.676 -11.076 -19.871  1.00  0.00    -0.165 F 
HETATM   31  F3  UNL     1      -7.108 -12.569 -20.638  1.00  0.00    -0.165 F 
ENDBRANCH  23  28
ENDBRANCH   1  18
TORSDOF 7
ENDMDL
MODEL 4
REMARK VINA RESULT: -7.865866642      2.427      3.588
REMARK  7 active torsions:
REMARK  status: ('A' for Active; 'I' for Inactive)
REMARK    1  A    between atoms: C2_2  and  C3_3 
REMARK    2  A    between atoms: C3_3  and  O1_4 
REMARK    3  A    between atoms: C3_3  and  N1_6 
REMARK    4  A    between atoms: C9_12  and  N2_13 
REMARK    5  A    between atoms: N2_13  and  C10_15 
REMARK    6  A    between atoms: C11_16  and  C12_17 
REMARK    7  A    between atoms: C15_24  and  C16_25 
ROOT
HETATM    1  N2  UNL     1      -6.830  -9.358 -18.135  1.00  0.00    -0.382 N 
ATOM      2  H2  UNL     1      -6.007  -9.565 -18.700  1.00  0.00     0.160 HD
ENDROOT
BRANCH   1   3
HETATM    3  C9  UNL     1      -6.715  -8.211 -17.350  1.00  0.00     0.082 C 
HETATM    4  C8  UNL     1      -5.581  -8.168 -16.367  1.00  0.00     0.026 C 
HETATM    5  C7  UNL     1      -5.709  -6.917 -15.520  1.00  0.00     0.013 C 
HETATM    6  C6  UNL     1      -5.634  -5.721 -16.423  1.00  0.00    -0.022 C 
HETATM    7  C5  UNL     1      -4.378  -5.610 -17.226  1.00  0.00     0.031 C 
HETATM    8  C18 UNL     1      -6.830  -5.767 -17.365  1.00  0.00     0.013 C 
HETATM    9  C19 UNL     1      -5.624  -4.502 -15.600  1.00  0.00     0.134 C 
HETATM   10  C4  UNL     1      -4.469  -4.093 -17.591  1.00  0.00     0.125 C 
HETATM   11  N1  UNL     1      -4.784  -3.491 -16.325  1.00  0.00    -0.361 N 
HETATM   12  C17 UNL     1      -6.746  -6.962 -18.247  1.00  0.00     0.026 C 
BRANCH  11  13
HETATM   13  C3  UNL     1      -4.546  -2.245 -15.740  1.00  0.00     0.137 C 
BRANCH  13  14
HETATM   14  C2  UNL     1      -3.901  -1.146 -16.359  1.00  0.00     0.045 C 
HETATM   15  C1  UNL     1      -3.784   0.057 -15.932  1.00  0.00     0.015 C 
ENDBRANCH  13  14
BRANCH  13  16
HETATM   16  O1  UNL     1      -4.959  -2.092 -14.506  1.00  0.00    -0.346 OA
ATOM     17  H1  UNL     1      -5.186  -2.873 -14.016  1.00  0.00     0.219 HD
ENDBRANCH  13  16
ENDBRANCH  11  13
ENDBRANCH   1   3
BRANCH   1  18
HETATM   18  C10 UNL     1      -7.873 -10.273 -18.283  1.00  0.00     0.086 A 
HETATM   19  C11 UNL     1      -8.869 -10.475 -17.334  1.00  0.00     0.058 A 
HETATM   20  N3  UNL     1      -9.592 -11.541 -17.824  1.00  0.00    -0.302 N 
HETATM   21  N4  UNL     1      -9.075 -11.932 -18.960  1.00  0.00    -0.294 N 
ATOM     22  H3  UNL     1     -10.404 -11.960 -17.371  1.00  0.00     0.186 HD
HETATM   23  C15 UNL     1      -7.999 -11.199 -19.316  1.00  0.00     0.161 A 
ATOM     24  H4  UNL     1      -9.445 -12.704 -19.515  1.00  0.00     0.187 HD
BRANCH  19  25
HETATM   25  C12 UNL     1      -9.244  -9.667 -16.148  1.00  0.00     0.031 C 
HETATM   26  C13 UNL     1      -8.322 -10.097 -14.952  1.00  0.00     0.016 C 
HETATM   27  C14 UNL     1     -10.615 -10.274 -15.602  1.00  0.00     0.016 C 
ENDBRANCH  19  25
BRANCH  23  28
HETATM   28  C16 UNL     1      -7.110 -11.391 -20.472  1.00  0.00     0.436 C 
HETATM   29  F1  UNL     1      -7.404 -10.345 -21.383  1.00  0.00    -0.165 F 
HETATM   30  F2  UNL     1      -5.783 -11.535 -20.266  1.00  0.00    -0.165 F 
HETATM   31  F3  UNL     1      -7.512 -12.538 -21.199  1.00  0.00    -0.165 F 
ENDBRANCH  23  28
ENDBRANCH   1  18
TORSDOF 7
ENDMDL
MODEL 5
REMARK VINA RESULT: -7.859459956      1.393      1.599
REMARK  7 active torsions:
REMARK  status: ('A' for Active; 'I' for Inactive)
REMARK    1  A    between atoms: C2_2  and  C3_3 
REMARK    2  A    between atoms: C3_3  and  O1_4 
REMARK    3  A    between atoms: C3_3  and  N1_6 
REMARK    4  A    between atoms: C9_12  and  N2_13 
REMARK    5  A    between atoms: N2_13  and  C10_15 
REMARK    6  A    between atoms: C11_16  and  C12_17 
REMARK    7  A    between atoms: C15_24  and  C16_25 
ROOT
HETATM    1  N2  UNL     1      -6.392  -8.866 -16.181  1.00  0.00    -0.382 N 
ATOM      2  H2  UNL     1      -5.735  -9.468 -15.684  1.00  0.00     0.160 HD
ENDROOT
BRANCH   1   3
HETATM    3  C9  UNL     1      -5.835  -7.681 -16.659  1.00  0.00     0.082 C 
HETATM    4  C8  UNL     1      -6.772  -6.691 -17.288  1.00  0.00     0.026 C 
HETATM    5  C7  UNL     1      -5.965  -5.545 -17.867  1.00  0.00     0.013 C 
HETATM    6  C6  UNL     1      -5.214  -4.882 -16.750  1.00  0.00    -0.022 C 
HETATM    7  C5  UNL     1      -6.065  -4.339 -15.647  1.00  0.00     0.031 C 
HETATM    8  C18 UNL     1      -4.233  -5.895 -16.176  1.00  0.00     0.013 C 
HETATM    9  C19 UNL     1      -4.533  -3.689 -17.277  1.00  0.00     0.134 C 
HETATM   10  C4  UNL     1      -5.028  -3.354 -15.016  1.00  0.00     0.125 C 
HETATM   11  N1  UNL     1      -4.508  -2.674 -16.171  1.00  0.00    -0.361 N 
HETATM   12  C17 UNL     1      -4.968  -7.035 -15.564  1.00  0.00     0.026 C 
BRANCH  11  13
HETATM   13  C3  UNL     1      -3.970  -1.407 -16.408  1.00  0.00     0.137 C 
BRANCH  13  14
HETATM   14  C2  UNL     1      -4.517  -0.176 -15.967  1.00  0.00     0.045 C 
HETATM   15  C1  UNL     1      -4.044   1.006 -16.113  1.00  0.00     0.015 C 
ENDBRANCH  13  14
BRANCH  13  16
HETATM   16  O1  UNL     1      -2.862  -1.367 -17.105  1.00  0.00    -0.346 OA
ATOM     17  H1  UNL     1      -2.736  -2.028 -17.774  1.00  0.00     0.219 HD
ENDBRANCH  13  16
ENDBRANCH  11  13
ENDBRANCH   1   3
BRANCH   1  18
HETATM   18  C10 UNL     1      -7.688  -9.375 -16.261  1.00  0.00     0.086 A 
HETATM   19  C11 UNL     1      -8.196 -10.034 -17.375  1.00  0.00     0.058 A 
HETATM   20  N3  UNL     1      -9.525 -10.235 -17.073  1.00  0.00    -0.302 N 
HETATM   21  N4  UNL     1      -9.781  -9.744 -15.888  1.00  0.00    -0.294 N 
ATOM     22  H3  UNL     1     -10.204 -10.695 -17.679  1.00  0.00     0.186 HD
HETATM   23  C15 UNL     1      -8.693  -9.186 -15.315  1.00  0.00     0.161 A 
ATOM     24  H4  UNL     1     -10.699  -9.780 -15.445  1.00  0.00     0.187 HD
BRANCH  19  25
HETATM   25  C12 UNL     1      -7.500 -10.588 -18.563  1.00  0.00     0.031 C 
HETATM   26  C13 UNL     1      -7.510  -9.495 -19.689  1.00  0.00     0.016 C 
HETATM   27  C14 UNL     1      -8.515 -11.616 -19.242  1.00  0.00     0.016 C 
ENDBRANCH  19  25
BRANCH  23  28
HETATM   28  C16 UNL     1      -8.609  -8.463 -14.037  1.00  0.00     0.436 C 
HETATM   29  F1  UNL     1      -8.734  -9.438 -13.015  1.00  0.00    -0.165 F 
HETATM   30  F2  UNL     1      -7.573  -7.624 -13.822  1.00  0.00    -0.165 F 
HETATM   31  F3  UNL     1      -9.778  -7.686 -13.848  1.00  0.00    -0.165 F 
ENDBRANCH  23  28
ENDBRANCH   1  18
TORSDOF 7
ENDMDL
