MODEL 1
REMARK VINA RESULT: -7.674271988      0.000      0.000
REMARK  2 active torsions:
REMARK  status: ('A' for Active; 'I' for Inactive)
REMARK    1  A    between atoms: C8_8  and  O1_9 
REMARK    2  A    between atoms: C13_18  and  O2_19 
ROOT
HETATM    1  C1  UNL     1      85.381  49.094 -37.494  1.00  0.00     0.022 C 
HETATM    2  C2  UNL     1      84.120  48.798 -37.239  1.00  0.00    -0.031 C 
HETATM    3  C3  UNL     1      83.759  47.558 -36.547  1.00  0.00    -0.037 C 
HETATM    4  C4  UNL     1      82.652  47.592 -35.816  1.00  0.00    -0.013 C 
HETATM    5  C5  UNL     1      81.778  48.751 -35.649  1.00  0.00     0.053 C 
HETATM    6  C6  UNL     1      81.987  49.884 -36.575  1.00  0.00     0.019 C 
HETATM    7  C7  UNL     1      80.643  50.244 -37.223  1.00  0.00     0.013 C 
HETATM    8  C8  UNL     1      83.011  49.699 -37.634  1.00  0.00     0.155 C 
HETATM    9  S1  UNL     1      82.212  46.078 -34.970  1.00  0.00    -0.109 SA
HETATM   10  C9  UNL     1      83.743  45.174 -34.622  1.00  0.00     0.098 C 
HETATM   11  C10 UNL     1      84.929  45.753 -35.314  1.00  0.00     0.040 C 
HETATM   12  C11 UNL     1      84.595  46.354 -36.671  1.00  0.00     0.042 C 
HETATM   13  S2  UNL     1      83.991  45.274 -32.798  1.00  0.00    -0.073 SA
HETATM   14  S3  UNL     1      84.773  43.262 -32.658  1.00  0.00    -0.093 SA
HETATM   15  C12 UNL     1      84.655  42.900 -34.461  1.00  0.00     0.120 C 
HETATM   16  C13 UNL     1      83.499  43.729 -34.920  1.00  0.00     0.161 C 
ENDROOT
BRANCH  16  17
HETATM   17  O2  UNL     1      83.149  43.598 -36.212  1.00  0.00    -0.387 OA
HETATM   18  C14 UNL     1      82.746  42.366 -36.647  1.00  0.00     0.202 C 
ENDBRANCH  16  17
BRANCH   8  19
HETATM   19  O1  UNL     1      83.578  50.905 -38.062  1.00  0.00    -0.391 OA
ATOM     20  H1  UNL     1      82.977  51.603 -37.830  1.00  0.00     0.210 HD
ENDBRANCH   8  19
TORSDOF 2
ENDMDL
MODEL 2
REMARK VINA RESULT: -7.553470024      3.219      6.791
REMARK  2 active torsions:
REMARK  status: ('A' for Active; 'I' for Inactive)
REMARK    1  A    between atoms: C8_8  and  O1_9 
REMARK    2  A    between atoms: C13_18  and  O2_19 
ROOT
HETATM    1  C1  UNL     1      83.925  48.926 -38.182  1.00  0.00     0.022 C 
HETATM    2  C2  UNL     1      83.490  48.554 -36.993  1.00  0.00    -0.031 C 
HETATM    3  C3  UNL     1      82.321  49.192 -36.381  1.00  0.00    -0.037 C 
HETATM    4  C4  UNL     1      81.603  48.439 -35.558  1.00  0.00    -0.013 C 
HETATM    5  C5  UNL     1      81.881  47.045 -35.218  1.00  0.00     0.053 C 
HETATM    6  C6  UNL     1      83.206  46.516 -35.601  1.00  0.00     0.019 C 
HETATM    7  C7  UNL     1      83.858  45.883 -34.364  1.00  0.00     0.013 C 
HETATM    8  C8  UNL     1      84.153  47.477 -36.220  1.00  0.00     0.155 C 
HETATM    9  S1  UNL     1      80.175  49.219 -34.811  1.00  0.00    -0.109 SA
HETATM   10  C9  UNL     1      79.580  50.491 -35.955  1.00  0.00     0.098 C 
HETATM   11  C10 UNL     1      80.523  50.751 -37.077  1.00  0.00     0.040 C 
HETATM   12  C11 UNL     1      81.984  50.592 -36.679  1.00  0.00     0.042 C 
HETATM   13  S2  UNL     1      77.984  49.863 -36.632  1.00  0.00    -0.073 SA
HETATM   14  S3  UNL     1      77.066  51.821 -36.652  1.00  0.00    -0.093 SA
HETATM   15  C12 UNL     1      78.541  52.716 -36.005  1.00  0.00     0.120 C 
HETATM   16  C13 UNL     1      79.230  51.703 -35.149  1.00  0.00     0.161 C 
ENDROOT
BRANCH  16  17
HETATM   17  O2  UNL     1      80.324  52.125 -34.491  1.00  0.00    -0.387 OA
HETATM   18  C14 UNL     1      80.807  53.371 -34.781  1.00  0.00     0.202 C 
ENDBRANCH  16  17
BRANCH   8  19
HETATM   19  O1  UNL     1      85.082  46.859 -37.067  1.00  0.00    -0.391 OA
ATOM     20  H1  UNL     1      85.433  46.106 -36.607  1.00  0.00     0.210 HD
ENDBRANCH   8  19
TORSDOF 2
ENDMDL
MODEL 3
REMARK VINA RESULT: -7.299556183      2.429      3.445
REMARK  2 active torsions:
REMARK  status: ('A' for Active; 'I' for Inactive)
REMARK    1  A    between atoms: C8_8  and  O1_9 
REMARK    2  A    between atoms: C13_18  and  O2_19 
ROOT
HETATM    1  C1  UNL     1      79.166  47.032 -35.472  1.00  0.00     0.022 C 
HETATM    2  C2  UNL     1      80.224  47.821 -35.507  1.00  0.00    -0.031 C 
HETATM    3  C3  UNL     1      81.578  47.278 -35.360  1.00  0.00    -0.037 C 
HETATM    4  C4  UNL     1      82.548  47.942 -35.973  1.00  0.00    -0.013 C 
HETATM    5  C5  UNL     1      82.378  49.155 -36.771  1.00  0.00     0.053 C 
HETATM    6  C6  UNL     1      81.076  49.846 -36.665  1.00  0.00     0.019 C 
HETATM    7  C7  UNL     1      81.331  51.323 -36.335  1.00  0.00     0.013 C 
HETATM    8  C8  UNL     1      80.101  49.286 -35.696  1.00  0.00     0.155 C 
HETATM    9  S1  UNL     1      84.201  47.278 -35.794  1.00  0.00    -0.109 SA
HETATM   10  C9  UNL     1      84.055  45.487 -35.567  1.00  0.00     0.098 C 
HETATM   11  C10 UNL     1      82.652  45.043 -35.338  1.00  0.00     0.040 C 
HETATM   12  C11 UNL     1      81.820  46.061 -34.570  1.00  0.00     0.042 C 
HETATM   13  S2  UNL     1      84.692  44.722 -37.119  1.00  0.00    -0.073 SA
HETATM   14  S3  UNL     1      85.622  43.068 -36.081  1.00  0.00    -0.093 SA
HETATM   15  C12 UNL     1      85.091  43.593 -34.397  1.00  0.00     0.120 C 
HETATM   16  C13 UNL     1      85.014  45.083 -34.492  1.00  0.00     0.161 C 
ENDROOT
BRANCH  16  17
HETATM   17  O2  UNL     1      84.704  45.736 -33.357  1.00  0.00    -0.387 OA
HETATM   18  C14 UNL     1      84.479  44.994 -32.231  1.00  0.00     0.202 C 
ENDBRANCH  16  17
BRANCH   8  19
HETATM   19  O1  UNL     1      78.772  49.557 -36.041  1.00  0.00    -0.391 OA
ATOM     20  H1  UNL     1      78.717  50.477 -36.271  1.00  0.00     0.210 HD
ENDBRANCH   8  19
TORSDOF 2
ENDMDL
MODEL 4
REMARK VINA RESULT: -7.066675070      2.194      3.425
REMARK  2 active torsions:
REMARK  status: ('A' for Active; 'I' for Inactive)
REMARK    1  A    between atoms: C8_8  and  O1_9 
REMARK    2  A    between atoms: C13_18  and  O2_19 
ROOT
HETATM    1  C1  UNL     1      80.972  47.768 -35.800  1.00  0.00     0.022 C 
HETATM    2  C2  UNL     1      82.271  47.557 -35.908  1.00  0.00    -0.031 C 
HETATM    3  C3  UNL     1      82.844  46.230 -35.670  1.00  0.00    -0.037 C 
HETATM    4  C4  UNL     1      83.951  45.938 -36.340  1.00  0.00    -0.013 C 
HETATM    5  C5  UNL     1      84.635  46.823 -37.282  1.00  0.00     0.053 C 
HETATM    6  C6  UNL     1      84.221  48.242 -37.285  1.00  0.00     0.019 C 
HETATM    7  C7  UNL     1      85.472  49.118 -37.131  1.00  0.00     0.013 C 
HETATM    8  C8  UNL     1      83.210  48.643 -36.274  1.00  0.00     0.155 C 
HETATM    9  S1  UNL     1      84.651  44.316 -36.050  1.00  0.00    -0.109 SA
HETATM   10  C9  UNL     1      83.293  43.200 -35.611  1.00  0.00     0.098 C 
HETATM   11  C10 UNL     1      82.012  43.915 -35.358  1.00  0.00     0.040 C 
HETATM   12  C11 UNL     1      82.207  45.290 -34.735  1.00  0.00     0.042 C 
HETATM   13  S2  UNL     1      83.084  42.062 -37.047  1.00  0.00    -0.073 SA
HETATM   14  S3  UNL     1      82.637  40.353 -35.800  1.00  0.00    -0.093 SA
HETATM   15  C12 UNL     1      82.760  41.261 -34.202  1.00  0.00     0.120 C 
HETATM   16  C13 UNL     1      83.756  42.341 -34.477  1.00  0.00     0.161 C 
ENDROOT
BRANCH  16  17
HETATM   17  O2  UNL     1      84.085  43.127 -33.436  1.00  0.00    -0.387 OA
HETATM   18  C14 UNL     1      85.083  42.703 -32.603  1.00  0.00     0.202 C 
ENDBRANCH  16  17
BRANCH   8  19
HETATM   19  O1  UNL     1      82.447  49.746 -36.676  1.00  0.00    -0.391 OA
ATOM     20  H1  UNL     1      82.822  50.518 -36.269  1.00  0.00     0.210 HD
ENDBRANCH   8  19
TORSDOF 2
ENDMDL
MODEL 5
REMARK VINA RESULT: -6.982790702      1.368      1.790
REMARK  2 active torsions:
REMARK  status: ('A' for Active; 'I' for Inactive)
REMARK    1  A    between atoms: C8_8  and  O1_9 
REMARK    2  A    between atoms: C13_18  and  O2_19 
ROOT
HETATM    1  C1  UNL     1      83.107  49.860 -37.207  1.00  0.00     0.022 C 
HETATM    2  C2  UNL     1      81.998  49.324 -36.732  1.00  0.00    -0.031 C 
HETATM    3  C3  UNL     1      82.023  48.050 -36.008  1.00  0.00    -0.037 C 
HETATM    4  C4  UNL     1      81.082  47.877 -35.089  1.00  0.00    -0.013 C 
HETATM    5  C5  UNL     1      80.038  48.841 -34.746  1.00  0.00     0.053 C 
HETATM    6  C6  UNL     1      79.847  49.975 -35.675  1.00  0.00     0.019 C 
HETATM    7  C7  UNL     1      78.363  50.047 -36.062  1.00  0.00     0.013 C 
HETATM    8  C8  UNL     1      80.678  49.977 -36.905  1.00  0.00     0.155 C 
HETATM    9  S1  UNL     1      81.114  46.322 -34.203  1.00  0.00    -0.109 SA
HETATM   10  C9  UNL     1      82.831  45.749 -34.154  1.00  0.00     0.098 C 
HETATM   11  C10 UNL     1      83.733  46.539 -35.039  1.00  0.00     0.040 C 
HETATM   12  C11 UNL     1      83.045  47.035 -36.303  1.00  0.00     0.042 C 
HETATM   13  S2  UNL     1      83.380  45.932 -32.403  1.00  0.00    -0.073 SA
HETATM   14  S3  UNL     1      84.560  44.119 -32.443  1.00  0.00    -0.093 SA
HETATM   15  C12 UNL     1      84.193  43.706 -34.201  1.00  0.00     0.120 C 
HETATM   16  C13 UNL     1      82.831  44.278 -34.429  1.00  0.00     0.161 C 
ENDROOT
BRANCH  16  17
HETATM   17  O2  UNL     1      82.287  44.056 -35.638  1.00  0.00    -0.387 OA
HETATM   18  C14 UNL     1      82.690  42.946 -36.329  1.00  0.00     0.202 C 
ENDBRANCH  16  17
BRANCH   8  19
HETATM   19  O1  UNL     1      80.906  51.265 -37.407  1.00  0.00    -0.391 OA
ATOM     20  H1  UNL     1      80.188  51.475 -37.992  1.00  0.00     0.210 HD
ENDBRANCH   8  19
TORSDOF 2
ENDMDL
