MODEL 1
REMARK VINA RESULT: -8.186394967      0.000      0.000
REMARK  1 active torsions:
REMARK  status: ('A' for Active; 'I' for Inactive)
REMARK    1  A    between atoms: C11_13  and  C12_14 
ROOT
HETATM    1  C1  UNL     1      78.367  50.669 -36.417  1.00  0.00     0.010 C 
HETATM    2  C2  UNL     1      79.196  49.405 -36.300  1.00  0.00    -0.018 C 
HETATM    3  C3  UNL     1      78.643  48.607 -35.153  1.00  0.00     0.010 C 
HETATM    4  C4  UNL     1      79.474  47.399 -34.818  1.00  0.00     0.075 C 
HETATM    5  C5  UNL     1      80.942  47.699 -34.760  1.00  0.00     0.230 C 
HETATM    6  C6  UNL     1      81.093  49.214 -34.768  1.00  0.00     0.075 C 
HETATM    7  C7  UNL     1      80.621  49.810 -36.072  1.00  0.00     0.010 C 
HETATM    8  O1  UNL     1      81.535  47.128 -35.885  1.00  0.00    -0.195 OA
HETATM    9  O2  UNL     1      82.792  46.901 -35.591  1.00  0.00    -0.195 OA
HETATM   10  C8  UNL     1      82.920  45.803 -34.715  1.00  0.00     0.230 C 
HETATM   11  C9  UNL     1      84.345  45.802 -34.249  1.00  0.00     0.075 C 
HETATM   12  C10 UNL     1      84.746  44.576 -33.501  1.00  0.00     0.011 C 
HETATM   13  C11 UNL     1      83.969  43.357 -33.805  1.00  0.00     0.005 C 
HETATM   14  C15 UNL     1      83.284  43.352 -35.136  1.00  0.00     0.011 C 
HETATM   15  C16 UNL     1      82.517  44.574 -35.456  1.00  0.00     0.075 C 
HETATM   16  O3  UNL     1      82.006  46.024 -33.691  1.00  0.00    -0.195 OA
HETATM   17  O4  UNL     1      81.570  47.237 -33.629  1.00  0.00    -0.195 OA
ENDROOT
BRANCH  13  18
HETATM   18  C12 UNL     1      84.848  42.102 -33.755  1.00  0.00     0.015 C 
HETATM   19  C13 UNL     1      84.045  40.850 -33.650  1.00  0.00     0.028 C 
HETATM   20  C14 UNL     1      85.833  42.186 -32.606  1.00  0.00     0.028 C 
HETATM   21  S1  UNL     1      85.735  42.064 -35.356  1.00  0.00    -0.087 SA
ENDBRANCH  13  18
TORSDOF 1
ENDMDL
MODEL 2
REMARK VINA RESULT: -8.139166064      0.793      1.044
REMARK  1 active torsions:
REMARK  status: ('A' for Active; 'I' for Inactive)
REMARK    1  A    between atoms: C11_13  and  C12_14 
ROOT
HETATM    1  C1  UNL     1      78.390  50.837 -36.445  1.00  0.00     0.010 C 
HETATM    2  C2  UNL     1      79.175  49.546 -36.322  1.00  0.00    -0.018 C 
HETATM    3  C3  UNL     1      78.623  48.792 -35.144  1.00  0.00     0.010 C 
HETATM    4  C4  UNL     1      79.417  47.562 -34.804  1.00  0.00     0.075 C 
HETATM    5  C5  UNL     1      80.896  47.808 -34.789  1.00  0.00     0.230 C 
HETATM    6  C6  UNL     1      81.103  49.315 -34.834  1.00  0.00     0.075 C 
HETATM    7  C7  UNL     1      80.619  49.902 -36.138  1.00  0.00     0.010 C 
HETATM    8  O1  UNL     1      81.438  47.192 -35.917  1.00  0.00    -0.195 OA
HETATM    9  O2  UNL     1      82.694  46.924 -35.649  1.00  0.00    -0.195 OA
HETATM   10  C8  UNL     1      82.804  45.841 -34.753  1.00  0.00     0.230 C 
HETATM   11  C9  UNL     1      84.239  45.795 -34.323  1.00  0.00     0.075 C 
HETATM   12  C10 UNL     1      84.614  44.571 -33.558  1.00  0.00     0.011 C 
HETATM   13  C11 UNL     1      83.785  43.376 -33.817  1.00  0.00     0.005 C 
HETATM   14  C15 UNL     1      83.066  43.369 -35.130  1.00  0.00     0.011 C 
HETATM   15  C16 UNL     1      82.336  44.612 -35.457  1.00  0.00     0.075 C 
HETATM   16  O3  UNL     1      81.925  46.117 -33.712  1.00  0.00    -0.195 OA
HETATM   17  O4  UNL     1      81.536  47.346 -33.664  1.00  0.00    -0.195 OA
ENDROOT
BRANCH  13  18
HETATM   18  C12 UNL     1      84.618  42.090 -33.761  1.00  0.00     0.015 C 
HETATM   19  C13 UNL     1      85.568  41.980 -34.905  1.00  0.00     0.028 C 
HETATM   20  C14 UNL     1      83.717  40.873 -33.715  1.00  0.00     0.028 C 
HETATM   21  S1  UNL     1      85.605  42.214 -32.225  1.00  0.00    -0.087 SA
ENDBRANCH  13  18
TORSDOF 1
ENDMDL
MODEL 3
REMARK VINA RESULT: -8.129142537      2.719      7.248
REMARK  1 active torsions:
REMARK  status: ('A' for Active; 'I' for Inactive)
REMARK    1  A    between atoms: C11_13  and  C12_14 
ROOT
HETATM    1  C1  UNL     1      85.911  41.019 -34.527  1.00  0.00     0.010 C 
HETATM    2  C2  UNL     1      85.275  42.348 -34.886  1.00  0.00    -0.018 C 
HETATM    3  C3  UNL     1      85.533  43.295 -33.748  1.00  0.00     0.010 C 
HETATM    4  C4  UNL     1      84.816  44.609 -33.899  1.00  0.00     0.075 C 
HETATM    5  C5  UNL     1      83.382  44.448 -34.304  1.00  0.00     0.230 C 
HETATM    6  C6  UNL     1      83.030  42.975 -34.143  1.00  0.00     0.075 C 
HETATM    7  C7  UNL     1      83.811  42.112 -35.104  1.00  0.00     0.010 C 
HETATM    8  O1  UNL     1      83.272  44.849 -35.635  1.00  0.00    -0.195 OA
HETATM    9  O2  UNL     1      82.031  45.230 -35.825  1.00  0.00    -0.195 OA
HETATM   10  C8  UNL     1      81.783  46.477 -35.216  1.00  0.00     0.230 C 
HETATM   11  C9  UNL     1      80.299  46.684 -35.272  1.00  0.00     0.075 C 
HETATM   12  C10 UNL     1      79.853  48.055 -34.893  1.00  0.00     0.011 C 
HETATM   13  C11 UNL     1      80.850  49.129 -35.087  1.00  0.00     0.005 C 
HETATM   14  C15 UNL     1      81.923  48.831 -36.089  1.00  0.00     0.011 C 
HETATM   15  C16 UNL     1      82.572  47.512 -35.945  1.00  0.00     0.075 C 
HETATM   16  O3  UNL     1      82.275  46.373 -33.920  1.00  0.00    -0.195 OA
HETATM   17  O4  UNL     1      82.493  45.161 -33.537  1.00  0.00    -0.195 OA
ENDROOT
BRANCH  13  18
HETATM   18  C12 UNL     1      80.188  50.440 -35.524  1.00  0.00     0.015 C 
HETATM   19  C13 UNL     1      80.882  51.066 -36.685  1.00  0.00     0.028 C 
HETATM   20  C14 UNL     1      80.124  51.416 -34.368  1.00  0.00     0.028 C 
HETATM   21  S1  UNL     1      78.501  49.978 -36.065  1.00  0.00    -0.087 SA
ENDBRANCH  13  18
TORSDOF 1
ENDMDL
MODEL 4
REMARK VINA RESULT: -7.950100224      1.588      2.841
REMARK  1 active torsions:
REMARK  status: ('A' for Active; 'I' for Inactive)
REMARK    1  A    between atoms: C11_13  and  C12_14 
ROOT
HETATM    1  C1  UNL     1      77.952  53.079 -35.995  1.00  0.00     0.010 C 
HETATM    2  C2  UNL     1      78.688  51.887 -35.418  1.00  0.00    -0.018 C 
HETATM    3  C3  UNL     1      80.161  52.155 -35.556  1.00  0.00     0.010 C 
HETATM    4  C4  UNL     1      81.015  50.980 -35.168  1.00  0.00     0.075 C 
HETATM    5  C5  UNL     1      80.528  49.687 -35.752  1.00  0.00     0.230 C 
HETATM    6  C6  UNL     1      79.482  50.033 -36.803  1.00  0.00     0.075 C 
HETATM    7  C7  UNL     1      78.262  50.669 -36.181  1.00  0.00     0.010 C 
HETATM    8  O1  UNL     1      79.972  48.939 -34.716  1.00  0.00    -0.195 OA
HETATM    9  O2  UNL     1      80.050  47.676 -35.061  1.00  0.00    -0.195 OA
HETATM   10  C8  UNL     1      81.375  47.203 -34.964  1.00  0.00     0.230 C 
HETATM   11  C9  UNL     1      81.389  45.855 -35.621  1.00  0.00     0.075 C 
HETATM   12  C10 UNL     1      82.647  45.082 -35.412  1.00  0.00     0.011 C 
HETATM   13  C11 UNL     1      83.414  45.423 -34.196  1.00  0.00     0.005 C 
HETATM   14  C15 UNL     1      82.622  46.066 -33.100  1.00  0.00     0.011 C 
HETATM   15  C16 UNL     1      81.754  47.186 -33.522  1.00  0.00     0.075 C 
HETATM   16  O3  UNL     1      82.163  48.143 -35.619  1.00  0.00    -0.195 OA
HETATM   17  O4  UNL     1      81.500  48.947 -36.380  1.00  0.00    -0.195 OA
ENDROOT
BRANCH  13  18
HETATM   18  C12 UNL     1      84.086  44.187 -33.589  1.00  0.00     0.015 C 
HETATM   19  C13 UNL     1      83.264  42.954 -33.758  1.00  0.00     0.028 C 
HETATM   20  C14 UNL     1      84.390  44.412 -32.122  1.00  0.00     0.028 C 
HETATM   21  S1  UNL     1      85.636  43.959 -34.536  1.00  0.00    -0.087 SA
ENDBRANCH  13  18
TORSDOF 1
ENDMDL
MODEL 5
REMARK VINA RESULT: -7.887901755      1.821      2.834
REMARK  1 active torsions:
REMARK  status: ('A' for Active; 'I' for Inactive)
REMARK    1  A    between atoms: C11_13  and  C12_14 
ROOT
HETATM    1  C1  UNL     1      79.350  53.611 -35.852  1.00  0.00     0.010 C 
HETATM    2  C2  UNL     1      80.211  52.363 -35.855  1.00  0.00    -0.018 C 
HETATM    3  C3  UNL     1      79.805  51.538 -37.044  1.00  0.00     0.010 C 
HETATM    4  C4  UNL     1      80.467  50.189 -37.081  1.00  0.00     0.075 C 
HETATM    5  C5  UNL     1      80.437  49.487 -35.756  1.00  0.00     0.230 C 
HETATM    6  C6  UNL     1      79.471  50.253 -34.862  1.00  0.00     0.075 C 
HETATM    7  C7  UNL     1      79.979  51.643 -34.562  1.00  0.00     0.010 C 
HETATM    8  O1  UNL     1      81.730  49.511 -35.236  1.00  0.00    -0.195 OA
HETATM    9  O2  UNL     1      81.840  48.492 -34.418  1.00  0.00    -0.195 OA
HETATM   10  C8  UNL     1      81.929  47.277 -35.127  1.00  0.00     0.230 C 
HETATM   11  C9  UNL     1      81.788  46.185 -34.110  1.00  0.00     0.075 C 
HETATM   12  C10 UNL     1      82.094  44.820 -34.625  1.00  0.00     0.011 C 
HETATM   13  C11 UNL     1      83.009  44.763 -35.785  1.00  0.00     0.005 C 
HETATM   14  C15 UNL     1      83.901  45.953 -35.953  1.00  0.00     0.011 C 
HETATM   15  C16 UNL     1      83.228  47.266 -35.861  1.00  0.00     0.075 C 
HETATM   16  O3  UNL     1      80.895  47.301 -36.055  1.00  0.00    -0.195 OA
HETATM   17  O4  UNL     1      79.991  48.189 -35.812  1.00  0.00    -0.195 OA
ENDROOT
BRANCH  13  18
HETATM   18  C12 UNL     1      83.920  43.532 -35.723  1.00  0.00     0.015 C 
HETATM   19  C13 UNL     1      84.184  42.954 -37.072  1.00  0.00     0.028 C 
HETATM   20  C14 UNL     1      83.329  42.476 -34.811  1.00  0.00     0.028 C 
HETATM   21  S1  UNL     1      85.513  44.137 -35.053  1.00  0.00    -0.087 SA
ENDBRANCH  13  18
TORSDOF 1
ENDMDL
