MODEL 1
REMARK VINA RESULT: -9.586763722      0.000      0.000
REMARK  2 active torsions:
REMARK  status: ('A' for Active; 'I' for Inactive)
REMARK    1  A    between atoms: O1_2  and  C2_3 
REMARK    2  A    between atoms: C16_20  and  O5_21 
ROOT
HETATM    1  C2  UNL     1      79.093  49.943 -35.937  1.00  0.00     0.299 C 
HETATM    2  O2  UNL     1      78.339  48.852 -35.608  1.00  0.00    -0.356 OA
HETATM    3  C3  UNL     1      78.991  47.658 -35.529  1.00  0.00     0.180 C 
HETATM    4  C4  UNL     1      80.352  47.754 -34.812  1.00  0.00     0.048 C 
HETATM    5  C5  UNL     1      80.797  46.349 -34.624  1.00  0.00     0.011 C 
HETATM    6  C6  UNL     1      82.247  46.307 -34.285  1.00  0.00     0.004 C 
HETATM    7  C7  UNL     1      82.947  45.631 -35.439  1.00  0.00     0.038 C 
HETATM    8  C8  UNL     1      83.994  46.518 -35.994  1.00  0.00     0.070 C 
HETATM    9  C9  UNL     1      84.551  46.056 -37.315  1.00  0.00     0.038 C 
HETATM   10  C10 UNL     1      84.822  44.611 -37.416  1.00  0.00     0.003 C 
HETATM   11  C11 UNL     1      86.326  44.353 -37.298  1.00  0.00     0.000 C 
HETATM   12  C12 UNL     1      86.929  45.204 -36.214  1.00  0.00     0.000 C 
HETATM   13  C13 UNL     1      85.957  45.248 -35.060  1.00  0.00     0.003 C 
HETATM   14  C14 UNL     1      85.173  46.543 -35.018  1.00  0.00     0.038 C 
HETATM   15  O3  UNL     1      83.560  47.823 -36.133  1.00  0.00    -0.319 OA
HETATM   16  C15 UNL     1      82.450  48.617 -36.289  1.00  0.00     0.196 A 
HETATM   17  O4  UNL     1      82.504  49.662 -37.092  1.00  0.00    -0.263 OA
HETATM   18  C16 UNL     1      81.371  50.302 -37.121  1.00  0.00     0.197 A 
HETATM   19  C17 UNL     1      80.510  49.639 -36.283  1.00  0.00     0.066 A 
HETATM   20  C18 UNL     1      81.201  48.554 -35.746  1.00  0.00     0.022 A 
ENDROOT
BRANCH  18  21
HETATM   21  O5  UNL     1      81.058  51.460 -37.863  1.00  0.00    -0.340 OA
ATOM     22  H5  UNL     1      80.627  51.506 -38.708  1.00  0.00     0.220 HD
ENDBRANCH  18  21
BRANCH   1  23
HETATM   23  O1  UNL     1      78.478  50.587 -37.001  1.00  0.00    -0.362 OA
HETATM   24  C1  UNL     1      77.675  51.609 -36.522  1.00  0.00     0.205 C 
ENDBRANCH   1  23
TORSDOF 2
ENDMDL
MODEL 2
REMARK VINA RESULT: -9.391302098      1.685      6.610
REMARK  2 active torsions:
REMARK  status: ('A' for Active; 'I' for Inactive)
REMARK    1  A    between atoms: O1_2  and  C2_3 
REMARK    2  A    between atoms: C16_20  and  O5_21 
ROOT
HETATM    1  C2  UNL     1      85.248  45.589 -35.869  1.00  0.00     0.299 C 
HETATM    2  O2  UNL     1      84.746  44.985 -34.751  1.00  0.00    -0.356 OA
HETATM    3  C3  UNL     1      83.630  45.542 -34.203  1.00  0.00     0.180 C 
HETATM    4  C4  UNL     1      82.578  45.958 -35.250  1.00  0.00     0.048 C 
HETATM    5  C5  UNL     1      81.369  46.324 -34.469  1.00  0.00     0.011 C 
HETATM    6  C6  UNL     1      80.416  47.088 -35.321  1.00  0.00     0.004 C 
HETATM    7  C7  UNL     1      80.343  48.484 -34.751  1.00  0.00     0.038 C 
HETATM    8  C8  UNL     1      80.708  49.480 -35.784  1.00  0.00     0.070 C 
HETATM    9  C9  UNL     1      80.940  50.866 -35.243  1.00  0.00     0.038 C 
HETATM   10  C10 UNL     1      79.967  51.323 -34.235  1.00  0.00     0.003 C 
HETATM   11  C11 UNL     1      78.985  52.313 -34.869  1.00  0.00     0.000 C 
HETATM   12  C12 UNL     1      78.561  51.841 -36.233  1.00  0.00     0.000 C 
HETATM   13  C13 UNL     1      78.376  50.344 -36.173  1.00  0.00     0.003 C 
HETATM   14  C14 UNL     1      79.547  49.596 -36.774  1.00  0.00     0.038 C 
HETATM   15  O3  UNL     1      81.821  49.100 -36.511  1.00  0.00    -0.319 OA
HETATM   16  C15 UNL     1      82.962  48.337 -36.484  1.00  0.00     0.196 A 
HETATM   17  O4  UNL     1      84.070  48.802 -37.028  1.00  0.00    -0.263 OA
HETATM   18  C16 UNL     1      85.051  47.953 -36.915  1.00  0.00     0.197 A 
HETATM   19  C17 UNL     1      84.562  46.854 -36.255  1.00  0.00     0.066 A 
HETATM   20  C18 UNL     1      83.218  47.098 -35.975  1.00  0.00     0.022 A 
ENDROOT
BRANCH  18  21
HETATM   21  O5  UNL     1      86.376  48.106 -37.374  1.00  0.00    -0.340 OA
ATOM     22  H5  UNL     1      86.664  48.256 -38.267  1.00  0.00     0.220 HD
ENDBRANCH  18  21
BRANCH   1  23
HETATM   23  O1  UNL     1      86.598  45.833 -35.658  1.00  0.00    -0.362 OA
HETATM   24  C1  UNL     1      87.315  44.663 -35.848  1.00  0.00     0.205 C 
ENDBRANCH   1  23
TORSDOF 2
ENDMDL
MODEL 3
REMARK VINA RESULT: -8.998644502      1.339      1.636
REMARK  2 active torsions:
REMARK  status: ('A' for Active; 'I' for Inactive)
REMARK    1  A    between atoms: O1_2  and  C2_3 
REMARK    2  A    between atoms: C16_20  and  O5_21 
ROOT
HETATM    1  C2  UNL     1      80.915  50.042 -36.261  1.00  0.00     0.299 C 
HETATM    2  O2  UNL     1      79.909  49.221 -35.835  1.00  0.00    -0.356 OA
HETATM    3  C3  UNL     1      80.206  47.896 -35.722  1.00  0.00     0.180 C 
HETATM    4  C4  UNL     1      81.582  47.632 -35.081  1.00  0.00     0.048 C 
HETATM    5  C5  UNL     1      81.629  46.167 -34.838  1.00  0.00     0.011 C 
HETATM    6  C6  UNL     1      83.028  45.731 -34.571  1.00  0.00     0.004 C 
HETATM    7  C7  UNL     1      83.436  44.842 -35.720  1.00  0.00     0.038 C 
HETATM    8  C8  UNL     1      84.652  45.375 -36.375  1.00  0.00     0.070 C 
HETATM    9  C9  UNL     1      84.972  44.724 -37.695  1.00  0.00     0.038 C 
HETATM   10  C10 UNL     1      84.822  43.258 -37.730  1.00  0.00     0.003 C 
HETATM   11  C11 UNL     1      86.199  42.592 -37.674  1.00  0.00     0.000 C 
HETATM   12  C12 UNL     1      87.083  43.280 -36.670  1.00  0.00     0.000 C 
HETATM   13  C13 UNL     1      86.238  43.640 -35.473  1.00  0.00     0.003 C 
HETATM   14  C14 UNL     1      85.850  45.105 -35.463  1.00  0.00     0.038 C 
HETATM   15  O3  UNL     1      84.591  46.743 -36.564  1.00  0.00    -0.319 OA
HETATM   16  C15 UNL     1      83.740  47.811 -36.708  1.00  0.00     0.196 A 
HETATM   17  O4  UNL     1      84.032  48.767 -37.568  1.00  0.00    -0.263 OA
HETATM   18  C16 UNL     1      83.122  49.699 -37.576  1.00  0.00     0.197 A 
HETATM   19  C17 UNL     1      82.166  49.338 -36.661  1.00  0.00     0.066 A 
HETATM   20  C18 UNL     1      82.559  48.124 -36.100  1.00  0.00     0.022 A 
ENDROOT
BRANCH  18  21
HETATM   21  O5  UNL     1      83.098  50.868 -38.364  1.00  0.00    -0.340 OA
ATOM     22  H5  UNL     1      82.970  51.762 -38.069  1.00  0.00     0.220 HD
ENDBRANCH  18  21
BRANCH   1  23
HETATM   23  O1  UNL     1      80.437  50.791 -37.326  1.00  0.00    -0.362 OA
HETATM   24  C1  UNL     1      79.886  51.971 -36.853  1.00  0.00     0.205 C 
ENDBRANCH   1  23
TORSDOF 2
ENDMDL
MODEL 4
REMARK VINA RESULT: -8.858193767      1.812      6.624
REMARK  2 active torsions:
REMARK  status: ('A' for Active; 'I' for Inactive)
REMARK    1  A    between atoms: O1_2  and  C2_3 
REMARK    2  A    between atoms: C16_20  and  O5_21 
ROOT
HETATM    1  C2  UNL     1      84.077  45.026 -34.556  1.00  0.00     0.299 C 
HETATM    2  O2  UNL     1      83.684  44.999 -33.247  1.00  0.00    -0.356 OA
HETATM    3  C3  UNL     1      82.810  45.966 -32.850  1.00  0.00     0.180 C 
HETATM    4  C4  UNL     1      81.681  46.224 -33.867  1.00  0.00     0.048 C 
HETATM    5  C5  UNL     1      80.724  47.123 -33.173  1.00  0.00     0.011 C 
HETATM    6  C6  UNL     1      79.791  47.741 -34.156  1.00  0.00     0.004 C 
HETATM    7  C7  UNL     1      80.084  49.222 -34.166  1.00  0.00     0.038 C 
HETATM    8  C8  UNL     1      80.434  49.667 -35.534  1.00  0.00     0.070 C 
HETATM    9  C9  UNL     1      81.014  51.055 -35.598  1.00  0.00     0.038 C 
HETATM   10  C10 UNL     1      80.344  52.060 -34.754  1.00  0.00     0.003 C 
HETATM   11  C11 UNL     1      79.465  52.965 -35.621  1.00  0.00     0.000 C 
HETATM   12  C12 UNL     1      78.718  52.157 -36.647  1.00  0.00     0.000 C 
HETATM   13  C13 UNL     1      78.272  50.872 -35.995  1.00  0.00     0.003 C 
HETATM   14  C14 UNL     1      79.154  49.699 -36.372  1.00  0.00     0.038 C 
HETATM   15  O3  UNL     1      81.305  48.797 -36.164  1.00  0.00    -0.319 OA
HETATM   16  C15 UNL     1      82.269  47.842 -35.956  1.00  0.00     0.196 A 
HETATM   17  O4  UNL     1      83.326  47.801 -36.744  1.00  0.00    -0.263 OA
HETATM   18  C16 UNL     1      84.136  46.838 -36.409  1.00  0.00     0.197 A 
HETATM   19  C17 UNL     1      83.579  46.198 -35.331  1.00  0.00     0.066 A 
HETATM   20  C18 UNL     1      82.378  46.842 -35.036  1.00  0.00     0.022 A 
ENDROOT
BRANCH  18  21
HETATM   21  O5  UNL     1      85.359  46.494 -37.021  1.00  0.00    -0.340 OA
ATOM     22  H5  UNL     1      86.068  45.981 -36.648  1.00  0.00     0.220 HD
ENDBRANCH  18  21
BRANCH   1  23
HETATM   23  O1  UNL     1      85.464  44.996 -34.590  1.00  0.00    -0.362 OA
HETATM   24  C1  UNL     1      85.892  43.710 -34.875  1.00  0.00     0.205 C 
ENDBRANCH   1  23
TORSDOF 2
ENDMDL
MODEL 5
REMARK VINA RESULT: -8.738838938      1.681      3.248
REMARK  2 active torsions:
REMARK  status: ('A' for Active; 'I' for Inactive)
REMARK    1  A    between atoms: O1_2  and  C2_3 
REMARK    2  A    between atoms: C16_20  and  O5_21 
ROOT
HETATM    1  C2  UNL     1      79.853  50.243 -36.628  1.00  0.00     0.299 C 
HETATM    2  O2  UNL     1      80.974  51.024 -36.637  1.00  0.00    -0.356 OA
HETATM    3  C3  UNL     1      82.135  50.434 -36.236  1.00  0.00     0.180 C 
HETATM    4  C4  UNL     1      82.323  49.012 -36.800  1.00  0.00     0.048 C 
HETATM    5  C5  UNL     1      83.715  48.631 -36.449  1.00  0.00     0.011 C 
HETATM    6  C6  UNL     1      83.903  47.161 -36.604  1.00  0.00     0.004 C 
HETATM    7  C7  UNL     1      84.152  46.604 -35.223  1.00  0.00     0.038 C 
HETATM    8  C8  UNL     1      83.151  45.563 -34.902  1.00  0.00     0.070 C 
HETATM    9  C9  UNL     1      83.138  45.150 -33.454  1.00  0.00     0.038 C 
HETATM   10  C10 UNL     1      84.464  44.970 -32.836  1.00  0.00     0.003 C 
HETATM   11  C11 UNL     1      84.779  43.478 -32.705  1.00  0.00     0.000 C 
HETATM   12  C12 UNL     1      84.369  42.736 -33.948  1.00  0.00     0.000 C 
HETATM   13  C13 UNL     1      84.708  43.598 -35.139  1.00  0.00     0.003 C 
HETATM   14  C14 UNL     1      83.491  44.303 -35.702  1.00  0.00     0.038 C 
HETATM   15  O3  UNL     1      81.869  45.935 -35.264  1.00  0.00    -0.319 OA
HETATM   16  C15 UNL     1      81.047  47.008 -35.503  1.00  0.00     0.196 A 
HETATM   17  O4  UNL     1      79.789  46.967 -35.107  1.00  0.00    -0.263 OA
HETATM   18  C16 UNL     1      79.155  48.061 -35.414  1.00  0.00     0.197 A 
HETATM   19  C17 UNL     1      80.048  48.880 -36.057  1.00  0.00     0.066 A 
HETATM   20  C18 UNL     1      81.267  48.206 -36.116  1.00  0.00     0.022 A 
ENDROOT
BRANCH  18  21
HETATM   21  O5  UNL     1      77.805  48.374 -35.150  1.00  0.00    -0.340 OA
ATOM     22  H5  UNL     1      77.372  49.211 -35.267  1.00  0.00     0.220 HD
ENDBRANCH  18  21
BRANCH   1  23
HETATM   23  O1  UNL     1      78.867  50.912 -35.918  1.00  0.00    -0.362 OA
HETATM   24  C1  UNL     1      79.083  52.278 -36.001  1.00  0.00     0.205 C 
ENDBRANCH   1  23
TORSDOF 2
ENDMDL
