MODEL 1
REMARK VINA RESULT: -7.773165355      0.000      0.000
REMARK  1 active torsions:
REMARK  status: ('A' for Active; 'I' for Inactive)
REMARK    1  A    between atoms: N1_9  and  O2_11 
ROOT
HETATM    1  C1  UNL     1      85.429  45.575 -39.452  1.00  0.00     0.022 C 
HETATM    2  C2  UNL     1      85.835  46.162 -38.352  1.00  0.00    -0.002 C 
HETATM    3  C3  UNL     1      87.053  46.580 -37.632  1.00  0.00     0.211 C 
HETATM    4  O1  UNL     1      86.334  46.633 -36.440  1.00  0.00    -0.345 OA
HETATM    5  C4  UNL     1      85.160  46.753 -37.168  1.00  0.00     0.223 C 
HETATM    6  C5  UNL     1      84.702  48.146 -37.449  1.00  0.00     0.083 C 
HETATM    7  C6  UNL     1      84.092  48.743 -36.226  1.00  0.00     0.065 C 
HETATM    8  C7  UNL     1      82.637  49.094 -36.395  1.00  0.00     0.032 C 
HETATM    9  N1  UNL     1      82.400  49.874 -37.393  1.00  0.00    -0.273 N 
ATOM     10  H1  UNL     1      83.214  50.154 -37.941  1.00  0.00     0.193 HD
HETATM   11  C8  UNL     1      81.571  48.642 -35.523  1.00  0.00     0.029 C 
HETATM   12  C9  UNL     1      81.196  47.402 -35.311  1.00  0.00    -0.079 C 
HETATM   13  C10 UNL     1      80.053  47.191 -34.348  1.00  0.00     0.043 C 
HETATM   14  C11 UNL     1      81.750  46.183 -35.934  1.00  0.00     0.075 C 
HETATM   15  C12 UNL     1      82.747  45.436 -35.110  1.00  0.00     0.100 C 
HETATM   16  C13 UNL     1      82.631  43.969 -35.468  1.00  0.00     0.041 C 
HETATM   17  C14 UNL     1      82.776  43.058 -34.299  1.00  0.00     0.004 C 
HETATM   18  C15 UNL     1      83.789  43.514 -33.280  1.00  0.00     0.004 C 
HETATM   19  C16 UNL     1      83.598  44.916 -32.814  1.00  0.00    -0.016 C 
HETATM   20  C17 UNL     1      84.908  45.668 -32.784  1.00  0.00     0.010 C 
HETATM   21  C18 UNL     1      82.549  45.655 -33.623  1.00  0.00     0.045 C 
HETATM   22  O3  UNL     1      84.024  45.822 -35.471  1.00  0.00    -0.226 OA
HETATM   23  O4  UNL     1      84.117  45.944 -36.748  1.00  0.00    -0.195 OA
ENDROOT
BRANCH   9  24
HETATM   24  O2  UNL     1      81.220  50.366 -37.807  1.00  0.00    -0.290 OA
ATOM     25  H2  UNL     1      80.558  49.944 -38.342  1.00  0.00     0.244 HD
ENDBRANCH   9  24
TORSDOF 1
ENDMDL
MODEL 2
REMARK VINA RESULT: -7.648563852      2.905      5.353
REMARK  1 active torsions:
REMARK  status: ('A' for Active; 'I' for Inactive)
REMARK    1  A    between atoms: N1_9  and  O2_11 
ROOT
HETATM    1  C1  UNL     1      85.931  43.587 -38.411  1.00  0.00     0.022 C 
HETATM    2  C2  UNL     1      84.808  43.124 -37.918  1.00  0.00    -0.002 C 
HETATM    3  C3  UNL     1      83.639  42.290 -38.258  1.00  0.00     0.211 C 
HETATM    4  O1  UNL     1      82.915  42.878 -37.223  1.00  0.00    -0.345 OA
HETATM    5  C4  UNL     1      84.106  43.245 -36.615  1.00  0.00     0.223 C 
HETATM    6  C5  UNL     1      84.655  42.280 -35.616  1.00  0.00     0.083 C 
HETATM    7  C6  UNL     1      83.889  42.371 -34.340  1.00  0.00     0.065 C 
HETATM    8  C7  UNL     1      84.728  42.814 -33.169  1.00  0.00     0.032 C 
HETATM    9  N1  UNL     1      85.772  42.086 -32.969  1.00  0.00    -0.273 N 
ATOM     10  H1  UNL     1      85.903  41.310 -33.618  1.00  0.00     0.193 HD
HETATM   11  C8  UNL     1      84.414  43.933 -32.304  1.00  0.00     0.029 C 
HETATM   12  C9  UNL     1      84.317  45.196 -32.648  1.00  0.00    -0.079 C 
HETATM   13  C10 UNL     1      83.973  46.177 -31.554  1.00  0.00     0.043 C 
HETATM   14  C11 UNL     1      84.537  45.774 -33.989  1.00  0.00     0.075 C 
HETATM   15  C12 UNL     1      83.302  46.038 -34.786  1.00  0.00     0.100 C 
HETATM   16  C13 UNL     1      83.577  47.229 -35.679  1.00  0.00     0.041 C 
HETATM   17  C14 UNL     1      82.416  48.151 -35.818  1.00  0.00     0.004 C 
HETATM   18  C15 UNL     1      81.077  47.458 -35.866  1.00  0.00     0.004 C 
HETATM   19  C16 UNL     1      80.842  46.505 -34.746  1.00  0.00    -0.016 C 
HETATM   20  C17 UNL     1      80.265  45.201 -35.246  1.00  0.00     0.010 C 
HETATM   21  C18 UNL     1      82.088  46.278 -33.910  1.00  0.00     0.045 C 
HETATM   22  O3  UNL     1      83.061  44.971 -35.631  1.00  0.00    -0.226 OA
HETATM   23  O4  UNL     1      84.159  44.549 -36.152  1.00  0.00    -0.195 OA
ENDROOT
BRANCH   9  24
HETATM   24  O2  UNL     1      86.711  42.214 -32.017  1.00  0.00    -0.290 OA
ATOM     25  H2  UNL     1      87.542  41.760 -31.941  1.00  0.00     0.244 HD
ENDBRANCH   9  24
TORSDOF 1
ENDMDL
MODEL 3
REMARK VINA RESULT: -7.582917645      2.298      3.060
REMARK  1 active torsions:
REMARK  status: ('A' for Active; 'I' for Inactive)
REMARK    1  A    between atoms: N1_9  and  O2_11 
ROOT
HETATM    1  C1  UNL     1      85.067  42.459 -40.252  1.00  0.00     0.022 C 
HETATM    2  C2  UNL     1      85.902  42.669 -39.264  1.00  0.00    -0.002 C 
HETATM    3  C3  UNL     1      87.238  42.293 -38.764  1.00  0.00     0.211 C 
HETATM    4  O1  UNL     1      86.876  42.701 -37.482  1.00  0.00    -0.345 OA
HETATM    5  C4  UNL     1      85.879  43.494 -38.029  1.00  0.00     0.223 C 
HETATM    6  C5  UNL     1      86.253  44.910 -38.320  1.00  0.00     0.083 C 
HETATM    7  C6  UNL     1      86.292  45.701 -37.056  1.00  0.00     0.065 C 
HETATM    8  C7  UNL     1      85.287  46.823 -37.023  1.00  0.00     0.032 C 
HETATM    9  N1  UNL     1      85.378  47.636 -38.018  1.00  0.00    -0.273 N 
ATOM     10  H1  UNL     1      86.108  47.425 -38.699  1.00  0.00     0.193 HD
HETATM   11  C8  UNL     1      84.307  47.024 -35.973  1.00  0.00     0.029 C 
HETATM   12  C9  UNL     1      83.335  46.210 -35.633  1.00  0.00    -0.079 C 
HETATM   13  C10 UNL     1      82.444  46.650 -34.497  1.00  0.00     0.043 C 
HETATM   14  C11 UNL     1      82.994  44.917 -36.259  1.00  0.00     0.075 C 
HETATM   15  C12 UNL     1      83.508  43.705 -35.554  1.00  0.00     0.100 C 
HETATM   16  C13 UNL     1      82.527  42.579 -35.802  1.00  0.00     0.041 C 
HETATM   17  C14 UNL     1      82.313  41.703 -34.617  1.00  0.00     0.004 C 
HETATM   18  C15 UNL     1      83.553  41.463 -33.791  1.00  0.00     0.004 C 
HETATM   19  C16 UNL     1      84.266  42.707 -33.386  1.00  0.00    -0.016 C 
HETATM   20  C17 UNL     1      85.756  42.580 -33.600  1.00  0.00     0.010 C 
HETATM   21  C18 UNL     1      83.708  43.942 -34.069  1.00  0.00     0.045 C 
HETATM   22  O3  UNL     1      84.702  43.310 -36.126  1.00  0.00    -0.226 OA
HETATM   23  O4  UNL     1      84.644  43.406 -37.408  1.00  0.00    -0.195 OA
ENDROOT
BRANCH   9  24
HETATM   24  O2  UNL     1      84.638  48.727 -38.277  1.00  0.00    -0.290 OA
ATOM     25  H2  UNL     1      84.892  49.519 -38.736  1.00  0.00     0.244 HD
ENDBRANCH   9  24
TORSDOF 1
ENDMDL
MODEL 4
REMARK VINA RESULT: -7.157803246      2.753      5.423
REMARK  1 active torsions:
REMARK  status: ('A' for Active; 'I' for Inactive)
REMARK    1  A    between atoms: N1_9  and  O2_11 
ROOT
HETATM    1  C1  UNL     1      80.130  46.499 -34.994  1.00  0.00     0.022 C 
HETATM    2  C2  UNL     1      81.372  46.768 -35.317  1.00  0.00    -0.002 C 
HETATM    3  C3  UNL     1      82.208  47.761 -36.018  1.00  0.00     0.211 C 
HETATM    4  O1  UNL     1      83.225  46.818 -36.148  1.00  0.00    -0.345 OA
HETATM    5  C4  UNL     1      82.682  46.105 -35.091  1.00  0.00     0.223 C 
HETATM    6  C5  UNL     1      83.222  46.428 -33.736  1.00  0.00     0.083 C 
HETATM    7  C6  UNL     1      84.568  45.809 -33.560  1.00  0.00     0.065 C 
HETATM    8  C7  UNL     1      84.617  44.793 -32.449  1.00  0.00     0.032 C 
HETATM    9  N1  UNL     1      84.221  45.245 -31.309  1.00  0.00    -0.273 N 
ATOM     10  H1  UNL     1      83.926  46.222 -31.297  1.00  0.00     0.193 HD
HETATM   11  C8  UNL     1      85.085  43.429 -32.596  1.00  0.00     0.029 C 
HETATM   12  C9  UNL     1      84.569  42.494 -33.360  1.00  0.00    -0.079 C 
HETATM   13  C10 UNL     1      85.246  41.146 -33.340  1.00  0.00     0.043 C 
HETATM   14  C11 UNL     1      83.375  42.606 -34.222  1.00  0.00     0.075 C 
HETATM   15  C12 UNL     1      83.647  42.860 -35.668  1.00  0.00     0.100 C 
HETATM   16  C13 UNL     1      82.532  42.217 -36.466  1.00  0.00     0.041 C 
HETATM   17  C14 UNL     1      82.995  41.576 -37.728  1.00  0.00     0.004 C 
HETATM   18  C15 UNL     1      84.101  42.322 -38.432  1.00  0.00     0.004 C 
HETATM   19  C16 UNL     1      85.268  42.646 -37.565  1.00  0.00    -0.016 C 
HETATM   20  C17 UNL     1      85.718  44.075 -37.760  1.00  0.00     0.010 C 
HETATM   21  C18 UNL     1      85.003  42.339 -36.102  1.00  0.00     0.045 C 
HETATM   22  O3  UNL     1      83.568  44.217 -35.921  1.00  0.00    -0.226 OA
HETATM   23  O4  UNL     1      82.576  44.738 -35.289  1.00  0.00    -0.195 OA
ENDROOT
BRANCH   9  24
HETATM   24  O2  UNL     1      84.147  44.599 -30.133  1.00  0.00    -0.290 OA
ATOM     25  H2  UNL     1      84.324  44.934 -29.262  1.00  0.00     0.244 HD
ENDBRANCH   9  24
TORSDOF 1
ENDMDL
MODEL 5
REMARK VINA RESULT: -7.081792548      1.938      4.563
REMARK  1 active torsions:
REMARK  status: ('A' for Active; 'I' for Inactive)
REMARK    1  A    between atoms: N1_9  and  O2_11 
ROOT
HETATM    1  C1  UNL     1      81.159  48.066 -32.869  1.00  0.00     0.022 C 
HETATM    2  C2  UNL     1      81.006  47.349 -33.956  1.00  0.00    -0.002 C 
HETATM    3  C3  UNL     1      79.975  46.772 -34.839  1.00  0.00     0.211 C 
HETATM    4  O1  UNL     1      80.907  45.863 -35.338  1.00  0.00    -0.345 OA
HETATM    5  C4  UNL     1      81.929  46.704 -34.925  1.00  0.00     0.223 C 
HETATM    6  C5  UNL     1      82.419  47.687 -35.937  1.00  0.00     0.083 C 
HETATM    7  C6  UNL     1      83.286  47.002 -36.939  1.00  0.00     0.065 C 
HETATM    8  C7  UNL     1      84.704  47.510 -36.948  1.00  0.00     0.032 C 
HETATM    9  N1  UNL     1      84.803  48.783 -37.124  1.00  0.00    -0.273 N 
ATOM     10  H1  UNL     1      83.921  49.285 -37.232  1.00  0.00     0.193 HD
HETATM   11  C8  UNL     1      85.882  46.677 -36.804  1.00  0.00     0.029 C 
HETATM   12  C9  UNL     1      86.206  45.939 -35.768  1.00  0.00    -0.079 C 
HETATM   13  C10 UNL     1      87.492  45.155 -35.865  1.00  0.00     0.043 C 
HETATM   14  C11 UNL     1      85.464  45.810 -34.498  1.00  0.00     0.075 C 
HETATM   15  C12 UNL     1      84.591  44.604 -34.382  1.00  0.00     0.100 C 
HETATM   16  C13 UNL     1      84.538  44.213 -32.920  1.00  0.00     0.041 C 
HETATM   17  C14 UNL     1      84.553  42.741 -32.696  1.00  0.00     0.004 C 
HETATM   18  C15 UNL     1      83.782  41.949 -33.723  1.00  0.00     0.004 C 
HETATM   19  C16 UNL     1      84.152  42.256 -35.133  1.00  0.00    -0.016 C 
HETATM   20  C17 UNL     1      82.924  42.425 -35.998  1.00  0.00     0.010 C 
HETATM   21  C18 UNL     1      85.078  43.453 -35.241  1.00  0.00     0.045 C 
HETATM   22  O3  UNL     1      83.297  44.935 -34.740  1.00  0.00    -0.226 OA
HETATM   23  O4  UNL     1      82.976  46.085 -34.262  1.00  0.00    -0.195 OA
ENDROOT
BRANCH   9  24
HETATM   24  O2  UNL     1      85.914  49.535 -37.182  1.00  0.00    -0.290 OA
ATOM     25  H2  UNL     1      86.406  49.804 -37.949  1.00  0.00     0.244 HD
ENDBRANCH   9  24
TORSDOF 1
ENDMDL
