MODEL 1
REMARK VINA RESULT: -8.510872319      0.000      0.000
REMARK  2 active torsions:
REMARK  status: ('A' for Active; 'I' for Inactive)
REMARK    1  A    between atoms: C6_6  and  C7_7 
REMARK    2  A    between atoms: C7_7  and  C8_8 
ROOT
HETATM    1  C1  UNL     1      42.214  11.131  18.884  1.00  0.00     0.085 C 
HETATM    2  C2  UNL     1      41.326  11.951  17.958  1.00  0.00     0.226 C 
HETATM    3  C3  UNL     1      40.003  12.227  18.618  1.00  0.00     0.074 C 
HETATM    4  C4  UNL     1      38.896  12.129  17.600  1.00  0.00     0.018 C 
HETATM    5  C5  UNL     1      39.037  13.209  16.586  1.00  0.00     0.076 C 
HETATM    6  C6  UNL     1      38.906  14.616  17.122  1.00  0.00     0.086 C 
HETATM    7  N1  UNL     1      39.138  15.539  16.081  1.00  0.00    -0.416 N 
ATOM      8  H1  UNL     1      39.179  16.543  16.259  1.00  0.00     0.153 HD
HETATM    9  C16 UNL     1      39.315  15.003  14.760  1.00  0.00     0.119 C 
HETATM   10  C17 UNL     1      40.357  13.915  14.692  1.00  0.00     0.094 C 
HETATM   11  C18 UNL     1      40.455  13.145  15.992  1.00  0.00     0.236 C 
HETATM   12  O1  UNL     1      40.869  11.859  15.761  1.00  0.00    -0.194 OA
HETATM   13  O2  UNL     1      41.108  11.176  16.831  1.00  0.00    -0.195 OA
HETATM   14  O3  UNL     1      41.303  13.860  16.833  1.00  0.00    -0.194 OA
HETATM   15  O4  UNL     1      42.023  13.085  17.590  1.00  0.00    -0.195 OA
ENDROOT
BRANCH   6  16
HETATM   16  C7  UNL     1      37.680  14.727  17.923  1.00  0.00     0.029 C 
BRANCH  16  17
HETATM   17  C8  UNL     1      36.569  15.593  17.373  1.00  0.00    -0.013 C 
HETATM   18  C9  UNL     1      36.916  17.001  17.799  1.00  0.00     0.005 C 
HETATM   19  C10 UNL     1      36.226  18.071  17.045  1.00  0.00     0.000 C 
HETATM   20  C11 UNL     1      35.607  17.657  15.742  1.00  0.00     0.000 C 
HETATM   21  C12 UNL     1      34.333  16.910  15.827  1.00  0.00     0.000 C 
HETATM   22  C13 UNL     1      33.637  16.899  17.136  1.00  0.00     0.000 C 
HETATM   23  C14 UNL     1      34.288  16.228  18.272  1.00  0.00     0.000 C 
HETATM   24  C15 UNL     1      35.263  15.128  17.953  1.00  0.00     0.005 C 
ENDBRANCH  16  17
ENDBRANCH   6  16
TORSDOF 2
ENDMDL
MODEL 2
REMARK VINA RESULT: -8.280564878      2.703      6.427
REMARK  2 active torsions:
REMARK  status: ('A' for Active; 'I' for Inactive)
REMARK    1  A    between atoms: C6_6  and  C7_7 
REMARK    2  A    between atoms: C7_7  and  C8_8 
ROOT
HETATM    1  C1  UNL     1      41.942  18.368  14.347  1.00  0.00     0.085 C 
HETATM    2  C2  UNL     1      40.737  17.590  14.858  1.00  0.00     0.226 C 
HETATM    3  C3  UNL     1      40.893  16.128  14.543  1.00  0.00     0.074 C 
HETATM    4  C4  UNL     1      39.562  15.551  14.137  1.00  0.00     0.018 C 
HETATM    5  C5  UNL     1      38.617  15.584  15.286  1.00  0.00     0.076 C 
HETATM    6  C6  UNL     1      39.022  14.745  16.476  1.00  0.00     0.086 C 
HETATM    7  N1  UNL     1      38.090  14.927  17.519  1.00  0.00    -0.416 N 
ATOM      8  H1  UNL     1      38.233  14.511  18.439  1.00  0.00     0.153 HD
HETATM    9  C16 UNL     1      36.931  15.723  17.227  1.00  0.00     0.119 C 
HETATM   10  C17 UNL     1      37.265  17.067  16.628  1.00  0.00     0.094 C 
HETATM   11  C18 UNL     1      38.549  17.024  15.826  1.00  0.00     0.236 C 
HETATM   12  O1  UNL     1      38.522  17.958  14.824  1.00  0.00    -0.194 OA
HETATM   13  O2  UNL     1      39.634  18.078  14.177  1.00  0.00    -0.195 OA
HETATM   14  O3  UNL     1      39.601  17.195  16.719  1.00  0.00    -0.194 OA
HETATM   15  O4  UNL     1      40.588  17.867  16.203  1.00  0.00    -0.195 OA
ENDROOT
BRANCH   6  16
HETATM   16  C7  UNL     1      39.349  13.384  16.031  1.00  0.00     0.029 C 
BRANCH  16  17
HETATM   17  C8  UNL     1      40.295  12.581  16.897  1.00  0.00    -0.013 C 
HETATM   18  C9  UNL     1      41.462  13.503  17.169  1.00  0.00     0.005 C 
HETATM   19  C10 UNL     1      42.311  13.115  18.318  1.00  0.00     0.000 C 
HETATM   20  C11 UNL     1      41.706  12.129  19.275  1.00  0.00     0.000 C 
HETATM   21  C12 UNL     1      41.673  10.718  18.833  1.00  0.00     0.000 C 
HETATM   22  C13 UNL     1      42.494  10.356  17.653  1.00  0.00     0.000 C 
HETATM   23  C14 UNL     1      42.140  10.935  16.347  1.00  0.00     0.000 C 
HETATM   24  C15 UNL     1      40.707  11.348  16.144  1.00  0.00     0.005 C 
ENDBRANCH  16  17
ENDBRANCH   6  16
TORSDOF 2
ENDMDL
MODEL 3
REMARK VINA RESULT: -8.170857136      3.112      5.173
REMARK  2 active torsions:
REMARK  status: ('A' for Active; 'I' for Inactive)
REMARK    1  A    between atoms: C6_6  and  C7_7 
REMARK    2  A    between atoms: C7_7  and  C8_8 
ROOT
HETATM    1  C1  UNL     1      42.847   9.794  16.454  1.00  0.00     0.085 C 
HETATM    2  C2  UNL     1      41.905  10.898  16.916  1.00  0.00     0.226 C 
HETATM    3  C3  UNL     1      42.688  12.017  17.547  1.00  0.00     0.074 C 
HETATM    4  C4  UNL     1      41.940  12.550  18.741  1.00  0.00     0.018 C 
HETATM    5  C5  UNL     1      40.668  13.188  18.306  1.00  0.00     0.076 C 
HETATM    6  C6  UNL     1      40.827  14.397  17.414  1.00  0.00     0.086 C 
HETATM    7  N1  UNL     1      39.555  14.854  17.010  1.00  0.00    -0.416 N 
ATOM      8  H1  UNL     1      39.451  15.611  16.335  1.00  0.00     0.153 HD
HETATM    9  C16 UNL     1      38.413  14.205  17.592  1.00  0.00     0.119 C 
HETATM   10  C17 UNL     1      38.456  12.702  17.472  1.00  0.00     0.094 C 
HETATM   11  C18 UNL     1      39.876  12.176  17.459  1.00  0.00     0.236 C 
HETATM   12  O1  UNL     1      39.924  10.908  17.975  1.00  0.00    -0.194 OA
HETATM   13  O2  UNL     1      41.079  10.336  17.876  1.00  0.00    -0.195 OA
HETATM   14  O3  UNL     1      40.337  12.262  16.149  1.00  0.00    -0.194 OA
HETATM   15  O4  UNL     1      41.135  11.284  15.837  1.00  0.00    -0.195 OA
ENDROOT
BRANCH   6  16
HETATM   16  C7  UNL     1      41.770  15.342  18.027  1.00  0.00     0.029 C 
BRANCH  16  17
HETATM   17  C8  UNL     1      42.501  16.289  17.102  1.00  0.00    -0.013 C 
HETATM   18  C9  UNL     1      42.266  17.667  17.678  1.00  0.00     0.005 C 
HETATM   19  C10 UNL     1      43.205  18.710  17.210  1.00  0.00     0.000 C 
HETATM   20  C11 UNL     1      44.466  18.213  16.565  1.00  0.00     0.000 C 
HETATM   21  C12 UNL     1      44.343  17.713  15.178  1.00  0.00     0.000 C 
HETATM   22  C13 UNL     1      43.087  18.021  14.454  1.00  0.00     0.000 C 
HETATM   23  C14 UNL     1      41.831  17.431  14.943  1.00  0.00     0.000 C 
HETATM   24  C15 UNL     1      41.932  16.146  15.719  1.00  0.00     0.005 C 
ENDBRANCH  16  17
ENDBRANCH   6  16
TORSDOF 2
ENDMDL
MODEL 4
REMARK VINA RESULT: -7.942693556      3.021      4.763
REMARK  2 active torsions:
REMARK  status: ('A' for Active; 'I' for Inactive)
REMARK    1  A    between atoms: C6_6  and  C7_7 
REMARK    2  A    between atoms: C7_7  and  C8_8 
ROOT
HETATM    1  C1  UNL     1      42.678   9.876  16.293  1.00  0.00     0.085 C 
HETATM    2  C2  UNL     1      41.753  10.977  16.793  1.00  0.00     0.226 C 
HETATM    3  C3  UNL     1      42.558  12.141  17.301  1.00  0.00     0.074 C 
HETATM    4  C4  UNL     1      41.908  12.710  18.536  1.00  0.00     0.018 C 
HETATM    5  C5  UNL     1      40.585  13.297  18.193  1.00  0.00     0.076 C 
HETATM    6  C6  UNL     1      40.629  14.469  17.240  1.00  0.00     0.086 C 
HETATM    7  N1  UNL     1      39.313  14.877  16.936  1.00  0.00    -0.416 N 
ATOM      8  H1  UNL     1      39.127  15.601  16.242  1.00  0.00     0.153 HD
HETATM    9  C16 UNL     1      38.247  14.228  17.647  1.00  0.00     0.119 C 
HETATM   10  C17 UNL     1      38.319  12.723  17.587  1.00  0.00     0.094 C 
HETATM   11  C18 UNL     1      39.746  12.230  17.466  1.00  0.00     0.236 C 
HETATM   12  O1  UNL     1      39.877  10.988  18.028  1.00  0.00    -0.194 OA
HETATM   13  O2  UNL     1      41.033  10.440  17.847  1.00  0.00    -0.195 OA
HETATM   14  O3  UNL     1      40.084  12.269  16.116  1.00  0.00    -0.194 OA
HETATM   15  O4  UNL     1      40.877  11.296  15.774  1.00  0.00    -0.195 OA
ENDROOT
BRANCH   6  16
HETATM   16  C7  UNL     1      41.598  15.461  17.723  1.00  0.00     0.029 C 
BRANCH  16  17
HETATM   17  C8  UNL     1      41.628  16.800  17.019  1.00  0.00    -0.013 C 
HETATM   18  C9  UNL     1      42.397  16.557  15.740  1.00  0.00     0.005 C 
HETATM   19  C10 UNL     1      42.209  17.586  14.692  1.00  0.00     0.000 C 
HETATM   20  C11 UNL     1      41.021  18.486  14.866  1.00  0.00     0.000 C 
HETATM   21  C12 UNL     1      41.147  19.555  15.880  1.00  0.00     0.000 C 
HETATM   22  C13 UNL     1      42.505  19.835  16.406  1.00  0.00     0.000 C 
HETATM   23  C14 UNL     1      43.181  18.793  17.194  1.00  0.00     0.000 C 
HETATM   24  C15 UNL     1      42.308  17.799  17.911  1.00  0.00     0.005 C 
ENDBRANCH  16  17
ENDBRANCH   6  16
TORSDOF 2
ENDMDL
MODEL 5
REMARK VINA RESULT: -7.883391811      1.066      1.676
REMARK  2 active torsions:
REMARK  status: ('A' for Active; 'I' for Inactive)
REMARK    1  A    between atoms: C6_6  and  C7_7 
REMARK    2  A    between atoms: C7_7  and  C8_8 
ROOT
HETATM    1  C1  UNL     1      42.017  11.435  19.474  1.00  0.00     0.085 C 
HETATM    2  C2  UNL     1      41.303  12.074  18.291  1.00  0.00     0.226 C 
HETATM    3  C3  UNL     1      39.943  12.562  18.708  1.00  0.00     0.074 C 
HETATM    4  C4  UNL     1      38.949  12.299  17.607  1.00  0.00     0.018 C 
HETATM    5  C5  UNL     1      39.284  13.115  16.409  1.00  0.00     0.076 C 
HETATM    6  C6  UNL     1      39.209  14.612  16.608  1.00  0.00     0.086 C 
HETATM    7  N1  UNL     1      39.626  15.265  15.429  1.00  0.00    -0.416 N 
ATOM      8  H1  UNL     1      39.727  16.279  15.390  1.00  0.00     0.153 HD
HETATM    9  C16 UNL     1      39.900  14.438  14.287  1.00  0.00     0.119 C 
HETATM   10  C17 UNL     1      40.853  13.307  14.584  1.00  0.00     0.094 C 
HETATM   11  C18 UNL     1      40.749  12.844  16.022  1.00  0.00     0.236 C 
HETATM   12  O1  UNL     1      41.081  11.519  16.126  1.00  0.00    -0.194 OA
HETATM   13  O2  UNL     1      41.147  11.080  17.340  1.00  0.00    -0.195 OA
HETATM   14  O3  UNL     1      41.555  13.681  16.786  1.00  0.00    -0.194 OA
HETATM   15  O4  UNL     1      42.124  13.058  17.775  1.00  0.00    -0.195 OA
ENDROOT
BRANCH   6  16
HETATM   16  C7  UNL     1      37.916  14.965  17.209  1.00  0.00     0.029 C 
BRANCH  16  17
HETATM   17  C8  UNL     1      37.426  16.383  17.014  1.00  0.00    -0.013 C 
HETATM   18  C9  UNL     1      36.281  16.544  17.988  1.00  0.00     0.005 C 
HETATM   19  C10 UNL     1      35.908  17.944  18.290  1.00  0.00     0.000 C 
HETATM   20  C11 UNL     1      36.927  18.984  17.926  1.00  0.00     0.000 C 
HETATM   21  C12 UNL     1      37.030  19.331  16.492  1.00  0.00     0.000 C 
HETATM   22  C13 UNL     1      35.942  18.863  15.600  1.00  0.00     0.000 C 
HETATM   23  C14 UNL     1      35.773  17.416  15.398  1.00  0.00     0.000 C 
HETATM   24  C15 UNL     1      36.988  16.549  15.587  1.00  0.00     0.005 C 
ENDBRANCH  16  17
ENDBRANCH   6  16
TORSDOF 2
ENDMDL
