MODEL 1
REMARK VINA RESULT: -7.054560786      0.000      0.000
REMARK  3 active torsions:
REMARK  status: ('A' for Active; 'I' for Inactive)
REMARK    1  A    between atoms: N1_5  and  N2_7 
REMARK    2  A    between atoms: N2_7  and  C4_9 
REMARK    3  A    between atoms: C5_12  and  C6_13 
ROOT
HETATM    1  O1  UNL     1      38.543  11.060  17.679  1.00  0.00    -0.296 OA
HETATM    2  C1  UNL     1      39.129  12.122  17.573  1.00  0.00     0.152 C 
HETATM    3  C2  UNL     1      38.544  13.501  17.601  1.00  0.00     0.146 C 
HETATM    4  C3  UNL     1      39.102  14.257  16.488  1.00  0.00     0.070 C 
HETATM    5  N1  UNL     1      38.536  15.108  15.770  1.00  0.00    -0.296 N 
ATOM      6  H1  UNL     1      37.559  15.296  15.994  1.00  0.00     0.187 HD
HETATM    7  S2  UNL     1      40.774  13.707  16.360  1.00  0.00    -0.097 SA
HETATM    8  C10 UNL     1      40.613  12.188  17.386  1.00  0.00     0.075 C 
HETATM    9  C11 UNL     1      41.365  12.298  18.662  1.00  0.00     0.029 C 
HETATM   10  C12 UNL     1      41.845  10.892  19.037  1.00  0.00     0.002 C 
HETATM   11  C13 UNL     1      42.845  10.455  18.017  1.00  0.00     0.000 C 
HETATM   12  C14 UNL     1      42.529  10.889  16.619  1.00  0.00     0.002 C 
HETATM   13  C15 UNL     1      41.028  11.050  16.511  1.00  0.00     0.029 C 
ENDROOT
BRANCH   5  14
HETATM   14  N2  UNL     1      39.053  15.824  14.720  1.00  0.00    -0.279 N 
ATOM     15  H2  UNL     1      38.933  15.512  13.757  1.00  0.00     0.189 HD
BRANCH  14  16
HETATM   16  C4  UNL     1      39.710  16.926  15.004  1.00  0.00     0.163 A 
HETATM   17  N3  UNL     1      40.996  17.200  14.812  1.00  0.00    -0.338 N 
HETATM   18  C5  UNL     1      41.453  18.372  15.169  1.00  0.00     0.022 A 
ATOM     19  H3  UNL     1      41.616  16.507  14.393  1.00  0.00     0.168 HD
HETATM   20  C9  UNL     1      40.554  19.254  15.727  1.00  0.00     0.078 A 
HETATM   21  S1  UNL     1      39.108  18.358  15.709  1.00  0.00    -0.062 SA
BRANCH  18  22
HETATM   22  C6  UNL     1      42.899  18.815  15.008  1.00  0.00     0.036 A 
HETATM   23  C7  UNL     1      43.910  17.754  14.744  1.00  0.00     0.011 A 
HETATM   24  C8  UNL     1      43.492  18.744  13.648  1.00  0.00     0.011 A 
ENDBRANCH  18  22
ENDBRANCH  14  16
ENDBRANCH   5  14
TORSDOF 3
ENDMDL
MODEL 2
REMARK VINA RESULT: -7.052414194      4.053      6.148
REMARK  3 active torsions:
REMARK  status: ('A' for Active; 'I' for Inactive)
REMARK    1  A    between atoms: N1_5  and  N2_7 
REMARK    2  A    between atoms: N2_7  and  C4_9 
REMARK    3  A    between atoms: C5_12  and  C6_13 
ROOT
HETATM    1  O1  UNL     1      41.932  14.544  16.523  1.00  0.00    -0.296 OA
HETATM    2  C1  UNL     1      40.834  14.019  16.570  1.00  0.00     0.152 C 
HETATM    3  C2  UNL     1      39.551  14.517  15.977  1.00  0.00     0.146 C 
HETATM    4  C3  UNL     1      38.508  14.412  16.989  1.00  0.00     0.070 C 
HETATM    5  N1  UNL     1      37.555  15.190  17.201  1.00  0.00    -0.296 N 
ATOM      6  H1  UNL     1      37.502  16.002  16.587  1.00  0.00     0.187 HD
HETATM    7  S2  UNL     1      38.881  12.929  17.869  1.00  0.00    -0.097 SA
HETATM    8  C10 UNL     1      40.611  12.719  17.277  1.00  0.00     0.075 C 
HETATM    9  C11 UNL     1      40.755  11.534  16.395  1.00  0.00     0.029 C 
HETATM   10  C12 UNL     1      42.169  10.978  16.595  1.00  0.00     0.002 C 
HETATM   11  C13 UNL     1      42.269  10.454  17.991  1.00  0.00     0.000 C 
HETATM   12  C14 UNL     1      41.535  11.271  19.009  1.00  0.00     0.002 C 
HETATM   13  C15 UNL     1      41.469  12.696  18.501  1.00  0.00     0.029 C 
ENDROOT
BRANCH   5  14
HETATM   14  N2  UNL     1      36.569  15.098  18.151  1.00  0.00    -0.279 N 
ATOM     15  H2  UNL     1      36.684  14.511  18.977  1.00  0.00     0.189 HD
BRANCH  14  16
HETATM   16  C4  UNL     1      35.472  15.795  17.956  1.00  0.00     0.163 A 
HETATM   17  N3  UNL     1      34.245  15.357  17.698  1.00  0.00    -0.338 N 
HETATM   18  C5  UNL     1      33.284  16.228  17.536  1.00  0.00     0.022 A 
ATOM     19  H3  UNL     1      34.055  14.357  17.627  1.00  0.00     0.168 HD
HETATM   20  C9  UNL     1      33.617  17.560  17.646  1.00  0.00     0.078 A 
HETATM   21  S1  UNL     1      35.285  17.490  17.975  1.00  0.00    -0.062 SA
BRANCH  18  22
HETATM   22  C6  UNL     1      31.837  15.866  17.236  1.00  0.00     0.036 A 
HETATM   23  C7  UNL     1      31.397  15.948  15.816  1.00  0.00     0.011 A 
HETATM   24  C8  UNL     1      31.584  14.593  16.513  1.00  0.00     0.011 A 
ENDBRANCH  18  22
ENDBRANCH  14  16
ENDBRANCH   5  14
TORSDOF 3
ENDMDL
MODEL 3
REMARK VINA RESULT: -7.016114817      1.384      2.428
REMARK  3 active torsions:
REMARK  status: ('A' for Active; 'I' for Inactive)
REMARK    1  A    between atoms: N1_5  and  N2_7 
REMARK    2  A    between atoms: N2_7  and  C4_9 
REMARK    3  A    between atoms: C5_12  and  C6_13 
ROOT
HETATM    1  O1  UNL     1      38.659  10.990  17.650  1.00  0.00    -0.296 OA
HETATM    2  C1  UNL     1      39.187  12.087  17.617  1.00  0.00     0.152 C 
HETATM    3  C2  UNL     1      38.518  13.428  17.637  1.00  0.00     0.146 C 
HETATM    4  C3  UNL     1      39.111  14.249  16.590  1.00  0.00     0.070 C 
HETATM    5  N1  UNL     1      38.550  15.088  15.854  1.00  0.00    -0.296 N 
ATOM      6  H1  UNL     1      37.549  15.211  16.008  1.00  0.00     0.187 HD
HETATM    7  S2  UNL     1      40.818  13.802  16.577  1.00  0.00    -0.097 SA
HETATM    8  C10 UNL     1      40.673  12.246  17.547  1.00  0.00     0.075 C 
HETATM    9  C11 UNL     1      41.319  12.359  18.879  1.00  0.00     0.029 C 
HETATM   10  C12 UNL     1      41.854  10.973  19.252  1.00  0.00     0.002 C 
HETATM   11  C13 UNL     1      42.953  10.627  18.301  1.00  0.00     0.000 C 
HETATM   12  C14 UNL     1      42.717  11.085  16.895  1.00  0.00     0.002 C 
HETATM   13  C15 UNL     1      41.221  11.161  16.676  1.00  0.00     0.029 C 
ENDROOT
BRANCH   5  14
HETATM   14  N2  UNL     1      39.100  15.865  14.866  1.00  0.00    -0.279 N 
ATOM     15  H2  UNL     1      39.137  15.543  13.899  1.00  0.00     0.189 HD
BRANCH  14  16
HETATM   16  C4  UNL     1      39.577  17.039  15.214  1.00  0.00     0.163 A 
HETATM   17  N3  UNL     1      39.192  17.831  16.208  1.00  0.00    -0.338 N 
HETATM   18  C5  UNL     1      39.808  18.971  16.383  1.00  0.00     0.022 A 
ATOM     19  H3  UNL     1      38.428  17.555  16.825  1.00  0.00     0.168 HD
HETATM   20  C9  UNL     1      40.829  19.274  15.510  1.00  0.00     0.078 A 
HETATM   21  S1  UNL     1      40.851  17.912  14.490  1.00  0.00    -0.062 SA
BRANCH  18  22
HETATM   22  C6  UNL     1      39.469  19.971  17.478  1.00  0.00     0.036 A 
HETATM   23  C7  UNL     1      39.141  21.359  17.052  1.00  0.00     0.011 A 
HETATM   24  C8  UNL     1      38.056  20.415  17.589  1.00  0.00     0.011 A 
ENDBRANCH  18  22
ENDBRANCH  14  16
ENDBRANCH   5  14
TORSDOF 3
ENDMDL
MODEL 4
REMARK VINA RESULT: -6.872089720      2.319      3.628
REMARK  3 active torsions:
REMARK  status: ('A' for Active; 'I' for Inactive)
REMARK    1  A    between atoms: N1_5  and  N2_7 
REMARK    2  A    between atoms: N2_7  and  C4_9 
REMARK    3  A    between atoms: C5_12  and  C6_13 
ROOT
HETATM    1  O1  UNL     1      38.893  10.967  17.629  1.00  0.00    -0.296 OA
HETATM    2  C1  UNL     1      39.386  12.078  17.545  1.00  0.00     0.152 C 
HETATM    3  C2  UNL     1      38.675  13.387  17.390  1.00  0.00     0.146 C 
HETATM    4  C3  UNL     1      39.331  14.140  16.329  1.00  0.00     0.070 C 
HETATM    5  N1  UNL     1      38.811  14.890  15.476  1.00  0.00    -0.296 N 
ATOM      6  H1  UNL     1      37.797  14.985  15.532  1.00  0.00     0.187 HD
HETATM    7  S2  UNL     1      41.047  13.763  16.501  1.00  0.00    -0.097 SA
HETATM    8  C10 UNL     1      40.866  12.289  17.589  1.00  0.00     0.075 C 
HETATM    9  C11 UNL     1      41.387  12.542  18.956  1.00  0.00     0.029 C 
HETATM   10  C12 UNL     1      41.932  11.215  19.495  1.00  0.00     0.002 C 
HETATM   11  C13 UNL     1      43.121  10.833  18.676  1.00  0.00     0.000 C 
HETATM   12  C14 UNL     1      42.997  11.161  17.220  1.00  0.00     0.002 C 
HETATM   13  C15 UNL     1      41.525  11.158  16.868  1.00  0.00     0.029 C 
ENDROOT
BRANCH   5  14
HETATM   14  N2  UNL     1      39.421  15.601  14.475  1.00  0.00    -0.279 N 
ATOM     15  H2  UNL     1      40.299  15.287  14.061  1.00  0.00     0.189 HD
BRANCH  14  16
HETATM   16  C4  UNL     1      38.833  16.704  14.069  1.00  0.00     0.163 A 
HETATM   17  N3  UNL     1      37.542  16.921  13.841  1.00  0.00    -0.338 N 
HETATM   18  C5  UNL     1      37.162  18.105  13.437  1.00  0.00     0.022 A 
ATOM     19  H3  UNL     1      36.859  16.176  13.978  1.00  0.00     0.168 HD
HETATM   20  C9  UNL     1      38.142  19.059  13.274  1.00  0.00     0.078 A 
HETATM   21  S1  UNL     1      39.551  18.208  13.708  1.00  0.00    -0.062 SA
BRANCH  18  22
HETATM   22  C6  UNL     1      35.720  18.489  13.139  1.00  0.00     0.036 A 
HETATM   23  C7  UNL     1      34.840  17.433  12.567  1.00  0.00     0.011 A 
HETATM   24  C8  UNL     1      34.663  17.918  14.012  1.00  0.00     0.011 A 
ENDBRANCH  18  22
ENDBRANCH  14  16
ENDBRANCH   5  14
TORSDOF 3
ENDMDL
MODEL 5
REMARK VINA RESULT: -6.808868842      4.026      7.580
REMARK  3 active torsions:
REMARK  status: ('A' for Active; 'I' for Inactive)
REMARK    1  A    between atoms: N1_5  and  N2_7 
REMARK    2  A    between atoms: N2_7  and  C4_9 
REMARK    3  A    between atoms: C5_12  and  C6_13 
ROOT
HETATM    1  O1  UNL     1      35.822  17.446  14.865  1.00  0.00    -0.296 OA
HETATM    2  C1  UNL     1      36.361  17.077  15.893  1.00  0.00     0.152 C 
HETATM    3  C2  UNL     1      37.787  16.661  16.083  1.00  0.00     0.146 C 
HETATM    4  C3  UNL     1      37.802  15.417  16.843  1.00  0.00     0.070 C 
HETATM    5  N1  UNL     1      38.575  14.444  16.719  1.00  0.00    -0.296 N 
ATOM      6  H1  UNL     1      39.285  14.534  15.993  1.00  0.00     0.187 HD
HETATM    7  S2  UNL     1      36.475  15.575  17.995  1.00  0.00    -0.097 SA
HETATM    8  C10 UNL     1      35.613  16.986  17.186  1.00  0.00     0.075 C 
HETATM    9  C11 UNL     1      35.689  18.224  18.001  1.00  0.00     0.029 C 
HETATM   10  C12 UNL     1      34.409  19.026  17.743  1.00  0.00     0.002 C 
HETATM   11  C13 UNL     1      33.256  18.252  18.293  1.00  0.00     0.000 C 
HETATM   12  C14 UNL     1      33.368  16.770  18.115  1.00  0.00     0.002 C 
HETATM   13  C15 UNL     1      34.225  16.512  16.894  1.00  0.00     0.029 C 
ENDROOT
BRANCH   5  14
HETATM   14  N2  UNL     1      38.596  13.271  17.430  1.00  0.00    -0.279 N 
ATOM     15  H2  UNL     1      37.780  12.955  17.954  1.00  0.00     0.189 HD
BRANCH  14  16
HETATM   16  C4  UNL     1      39.708  12.570  17.410  1.00  0.00     0.163 A 
HETATM   17  N3  UNL     1      40.445  12.152  18.433  1.00  0.00    -0.338 N 
HETATM   18  C5  UNL     1      41.526  11.459  18.192  1.00  0.00     0.022 A 
ATOM     19  H3  UNL     1      40.171  12.368  19.392  1.00  0.00     0.168 HD
HETATM   20  C9  UNL     1      41.830  11.207  16.872  1.00  0.00     0.078 A 
HETATM   21  S1  UNL     1      40.552  11.975  16.053  1.00  0.00    -0.062 SA
BRANCH  18  22
HETATM   22  C6  UNL     1      42.460  10.921  19.266  1.00  0.00     0.036 A 
HETATM   23  C7  UNL     1      43.684  11.714  19.561  1.00  0.00     0.011 A 
HETATM   24  C8  UNL     1      42.517  11.654  20.556  1.00  0.00     0.011 A 
ENDBRANCH  18  22
ENDBRANCH  14  16
ENDBRANCH   5  14
TORSDOF 3
ENDMDL
