MODEL 1
REMARK VINA RESULT: -7.570143323      0.000      0.000
REMARK  2 active torsions:
REMARK  status: ('A' for Active; 'I' for Inactive)
REMARK    1  A    between atoms: C3_3  and  C4_4 
REMARK    2  A    between atoms: C7_12  and  C8_13 
ROOT
HETATM    1  C4  UNL     1      41.634  16.457  15.839  1.00  0.00     0.083 A 
HETATM    2  N1  UNL     1      42.594  16.835  15.021  1.00  0.00    -0.345 N 
ATOM      3  H1  UNL     1      43.157  16.132  14.542  1.00  0.00     0.166 HD
HETATM    4  C5  UNL     1      42.831  18.101  14.818  1.00  0.00     0.136 A 
HETATM    5  C6  UNL     1      43.819  18.652  13.975  1.00  0.00     0.276 A 
HETATM    6  O1  UNL     1      44.597  17.918  13.313  1.00  0.00    -0.266 OA
HETATM    7  N2  UNL     1      43.910  19.977  13.896  1.00  0.00    -0.311 N 
ATOM      8  H2  UNL     1      44.633  20.349  13.280  1.00  0.00     0.170 HD
HETATM    9  C7  UNL     1      43.158  20.867  14.536  1.00  0.00     0.089 A 
HETATM   10  N3  UNL     1      42.205  20.354  15.348  1.00  0.00    -0.338 N 
ATOM     11  H3  UNL     1      41.594  20.984  15.867  1.00  0.00     0.168 HD
HETATM   12  C11 UNL     1      42.052  19.009  15.481  1.00  0.00     0.110 A 
HETATM   13  S1  UNL     1      41.011  17.966  16.368  1.00  0.00    -0.054 SA
ENDROOT
BRANCH   1  14
HETATM   14  C3  UNL     1      41.246  15.064  16.170  1.00  0.00     0.183 C 
HETATM   15  C2  UNL     1      40.675  14.443  14.905  1.00  0.00     0.024 C 
HETATM   16  C1  UNL     1      39.691  15.362  14.220  1.00  0.00     0.013 C 
HETATM   17  C17 UNL     1      39.809  13.354  15.568  1.00  0.00     0.021 C 
HETATM   18  C12 UNL     1      39.239  14.186  16.702  1.00  0.00     0.127 C 
HETATM   19  C16 UNL     1      40.752  12.287  16.026  1.00  0.00     0.007 C 
HETATM   20  O2  UNL     1      40.250  15.001  17.124  1.00  0.00    -0.373 OA
HETATM   21  C13 UNL     1      38.588  13.382  17.770  1.00  0.00     0.032 C 
HETATM   22  C14 UNL     1      38.937  11.933  17.603  1.00  0.00     0.002 C 
HETATM   23  C15 UNL     1      40.444  11.792  17.420  1.00  0.00     0.001 C 
ENDBRANCH   1  14
BRANCH   9  24
HETATM   24  C8  UNL     1      43.315  22.335  14.400  1.00  0.00     0.053 A 
HETATM   25  C9  UNL     1      44.683  22.928  14.248  1.00  0.00     0.013 A 
HETATM   26  C10 UNL     1      43.936  23.121  15.517  1.00  0.00     0.013 A 
ENDBRANCH   9  24
TORSDOF 2
ENDMDL
MODEL 2
REMARK VINA RESULT: -7.539779289      0.764      1.035
REMARK  2 active torsions:
REMARK  status: ('A' for Active; 'I' for Inactive)
REMARK    1  A    between atoms: C3_3  and  C4_4 
REMARK    2  A    between atoms: C7_12  and  C8_13 
ROOT
HETATM    1  C4  UNL     1      41.408  16.744  15.623  1.00  0.00     0.083 A 
HETATM    2  N1  UNL     1      42.398  17.121  14.840  1.00  0.00    -0.345 N 
ATOM      3  H1  UNL     1      43.035  16.422  14.457  1.00  0.00     0.166 HD
HETATM    4  C5  UNL     1      42.569  18.381  14.552  1.00  0.00     0.136 A 
HETATM    5  C6  UNL     1      43.578  18.931  13.732  1.00  0.00     0.276 A 
HETATM    6  O1  UNL     1      44.443  18.202  13.183  1.00  0.00    -0.266 OA
HETATM    7  N2  UNL     1      43.593  20.249  13.554  1.00  0.00    -0.311 N 
ATOM      8  H2  UNL     1      44.333  20.620  12.957  1.00  0.00     0.170 HD
HETATM    9  C7  UNL     1      42.745  21.133  14.070  1.00  0.00     0.089 A 
HETATM   10  N3  UNL     1      41.772  20.622  14.858  1.00  0.00    -0.338 N 
ATOM     11  H3  UNL     1      41.089  21.247  15.284  1.00  0.00     0.168 HD
HETATM   12  C11 UNL     1      41.692  19.283  15.088  1.00  0.00     0.110 A 
HETATM   13  S1  UNL     1      40.658  18.244  15.988  1.00  0.00    -0.054 SA
ENDROOT
BRANCH   1  14
HETATM   14  C3  UNL     1      41.084  15.357  16.040  1.00  0.00     0.183 C 
HETATM   15  C2  UNL     1      40.569  14.626  14.810  1.00  0.00     0.024 C 
HETATM   16  C1  UNL     1      39.553  15.447  14.050  1.00  0.00     0.013 C 
HETATM   17  C17 UNL     1      39.747  13.540  15.530  1.00  0.00     0.021 C 
HETATM   18  C12 UNL     1      39.114  14.415  16.598  1.00  0.00     0.127 C 
HETATM   19  C16 UNL     1      40.733  12.555  16.072  1.00  0.00     0.007 C 
HETATM   20  O2  UNL     1      40.075  15.306  16.980  1.00  0.00    -0.373 OA
HETATM   21  C13 UNL     1      38.484  13.649  17.706  1.00  0.00     0.032 C 
HETATM   22  C14 UNL     1      38.908  12.213  17.641  1.00  0.00     0.002 C 
HETATM   23  C15 UNL     1      40.424  12.137  17.491  1.00  0.00     0.001 C 
ENDBRANCH   1  14
BRANCH   9  24
HETATM   24  C8  UNL     1      42.821  22.594  13.826  1.00  0.00     0.053 A 
HETATM   25  C9  UNL     1      41.735  23.491  14.335  1.00  0.00     0.013 A 
HETATM   26  C10 UNL     1      41.855  23.238  12.877  1.00  0.00     0.013 A 
ENDBRANCH   9  24
TORSDOF 2
ENDMDL
MODEL 3
REMARK VINA RESULT: -7.442923166      5.210      7.015
REMARK  2 active torsions:
REMARK  status: ('A' for Active; 'I' for Inactive)
REMARK    1  A    between atoms: C3_3  and  C4_4 
REMARK    2  A    between atoms: C7_12  and  C8_13 
ROOT
HETATM    1  C4  UNL     1      38.602  14.140  17.456  1.00  0.00     0.083 A 
HETATM    2  N1  UNL     1      37.521  14.444  18.142  1.00  0.00    -0.345 N 
ATOM      3  H1  UNL     1      37.308  13.938  19.002  1.00  0.00     0.166 HD
HETATM    4  C5  UNL     1      36.721  15.388  17.731  1.00  0.00     0.136 A 
HETATM    5  C6  UNL     1      35.533  15.822  18.358  1.00  0.00     0.276 A 
HETATM    6  O1  UNL     1      35.130  15.299  19.429  1.00  0.00    -0.266 OA
HETATM    7  N2  UNL     1      34.844  16.805  17.785  1.00  0.00    -0.311 N 
ATOM      8  H2  UNL     1      33.990  17.099  18.259  1.00  0.00     0.170 HD
HETATM    9  C7  UNL     1      35.151  17.444  16.661  1.00  0.00     0.089 A 
HETATM   10  N3  UNL     1      36.287  17.040  16.048  1.00  0.00    -0.338 N 
ATOM     11  H3  UNL     1      36.580  17.491  15.182  1.00  0.00     0.168 HD
HETATM   12  C11 UNL     1      37.045  16.039  16.574  1.00  0.00     0.110 A 
HETATM   13  S1  UNL     1      38.507  15.240  16.143  1.00  0.00    -0.054 SA
ENDROOT
BRANCH   1  14
HETATM   14  C3  UNL     1      39.605  13.098  17.793  1.00  0.00     0.183 C 
HETATM   15  C2  UNL     1      40.880  13.817  18.205  1.00  0.00     0.024 C 
HETATM   16  C1  UNL     1      41.235  14.930  17.248  1.00  0.00     0.013 C 
HETATM   17  C17 UNL     1      41.879  12.687  17.892  1.00  0.00     0.021 C 
HETATM   18  C12 UNL     1      41.288  12.231  16.569  1.00  0.00     0.127 C 
HETATM   19  C16 UNL     1      41.734  11.680  18.989  1.00  0.00     0.007 C 
HETATM   20  O2  UNL     1      39.933  12.305  16.711  1.00  0.00    -0.373 OA
HETATM   21  C13 UNL     1      41.805  10.918  16.101  1.00  0.00     0.032 C 
HETATM   22  C14 UNL     1      42.546  10.235  17.212  1.00  0.00     0.002 C 
HETATM   23  C15 UNL     1      41.697  10.258  18.478  1.00  0.00     0.001 C 
ENDBRANCH   1  14
BRANCH   9  24
HETATM   24  C8  UNL     1      34.334  18.536  16.079  1.00  0.00     0.053 A 
HETATM   25  C9  UNL     1      32.967  18.816  16.624  1.00  0.00     0.013 A 
HETATM   26  C10 UNL     1      33.109  18.199  15.281  1.00  0.00     0.013 A 
ENDBRANCH   9  24
TORSDOF 2
ENDMDL
MODEL 4
REMARK VINA RESULT: -7.357571403      5.711      7.065
REMARK  2 active torsions:
REMARK  status: ('A' for Active; 'I' for Inactive)
REMARK    1  A    between atoms: C3_3  and  C4_4 
REMARK    2  A    between atoms: C7_12  and  C8_13 
ROOT
HETATM    1  C4  UNL     1      38.829  14.358  17.069  1.00  0.00     0.083 A 
HETATM    2  N1  UNL     1      37.825  14.464  17.915  1.00  0.00    -0.345 N 
ATOM      3  H1  UNL     1      37.755  13.819  18.702  1.00  0.00     0.166 HD
HETATM    4  C5  UNL     1      36.919  15.388  17.753  1.00  0.00     0.136 A 
HETATM    5  C6  UNL     1      35.794  15.622  18.573  1.00  0.00     0.276 A 
HETATM    6  O1  UNL     1      35.565  14.912  19.586  1.00  0.00    -0.266 OA
HETATM    7  N2  UNL     1      34.976  16.618  18.247  1.00  0.00    -0.311 N 
ATOM      8  H2  UNL     1      34.171  16.765  18.856  1.00  0.00     0.170 HD
HETATM    9  C7  UNL     1      35.096  17.443  17.212  1.00  0.00     0.089 A 
HETATM   10  N3  UNL     1      36.170  17.232  16.416  1.00  0.00    -0.338 N 
ATOM     11  H3  UNL     1      36.321  17.831  15.605  1.00  0.00     0.168 HD
HETATM   12  C11 UNL     1      37.052  16.232  16.685  1.00  0.00     0.110 A 
HETATM   13  S1  UNL     1      38.497  15.632  15.968  1.00  0.00    -0.054 SA
ENDROOT
BRANCH   1  14
HETATM   14  C3  UNL     1      39.931  13.366  17.119  1.00  0.00     0.183 C 
HETATM   15  C2  UNL     1      39.296  11.985  17.081  1.00  0.00     0.024 C 
HETATM   16  C1  UNL     1      38.131  11.873  18.037  1.00  0.00     0.013 C 
HETATM   17  C17 UNL     1      40.439  11.200  17.753  1.00  0.00     0.021 C 
HETATM   18  C12 UNL     1      40.773  12.194  18.851  1.00  0.00     0.127 C 
HETATM   19  C16 UNL     1      41.517  11.062  16.724  1.00  0.00     0.007 C 
HETATM   20  O2  UNL     1      40.656  13.434  18.293  1.00  0.00    -0.373 OA
HETATM   21  C13 UNL     1      42.068  11.926  19.530  1.00  0.00     0.032 C 
HETATM   22  C14 UNL     1      42.860  10.923  18.744  1.00  0.00     0.002 C 
HETATM   23  C15 UNL     1      42.895  11.340  17.278  1.00  0.00     0.001 C 
ENDBRANCH   1  14
BRANCH   9  24
HETATM   24  C8  UNL     1      34.143  18.537  16.908  1.00  0.00     0.053 A 
HETATM   25  C9  UNL     1      33.176  18.995  17.956  1.00  0.00     0.013 A 
HETATM   26  C10 UNL     1      32.680  18.231  16.784  1.00  0.00     0.013 A 
ENDBRANCH   9  24
TORSDOF 2
ENDMDL
MODEL 5
REMARK VINA RESULT: -7.354221742      2.059      2.431
REMARK  2 active torsions:
REMARK  status: ('A' for Active; 'I' for Inactive)
REMARK    1  A    between atoms: C3_3  and  C4_4 
REMARK    2  A    between atoms: C7_12  and  C8_13 
ROOT
HETATM    1  C4  UNL     1      40.995  15.926  15.629  1.00  0.00     0.083 A 
HETATM    2  N1  UNL     1      40.728  16.446  14.450  1.00  0.00    -0.345 N 
ATOM      3  H1  UNL     1      40.565  15.832  13.651  1.00  0.00     0.166 HD
HETATM    4  C5  UNL     1      40.673  17.739  14.294  1.00  0.00     0.136 A 
HETATM    5  C6  UNL     1      40.400  18.436  13.098  1.00  0.00     0.276 A 
HETATM    6  O1  UNL     1      40.175  17.825  12.022  1.00  0.00    -0.266 OA
HETATM    7  N2  UNL     1      40.386  19.766  13.135  1.00  0.00    -0.311 N 
ATOM      8  H2  UNL     1      40.186  20.244  12.256  1.00  0.00     0.170 HD
HETATM    9  C7  UNL     1      40.605  20.536  14.195  1.00  0.00     0.089 A 
HETATM   10  N3  UNL     1      40.867  19.883  15.351  1.00  0.00    -0.338 N 
ATOM     11  H3  UNL     1      41.044  20.416  16.202  1.00  0.00     0.168 HD
HETATM   12  C11 UNL     1      40.899  18.523  15.391  1.00  0.00     0.110 A 
HETATM   13  S1  UNL     1      41.182  17.330  16.598  1.00  0.00    -0.054 SA
ENDROOT
BRANCH   1  14
HETATM   14  C3  UNL     1      41.091  14.483  15.963  1.00  0.00     0.183 C 
HETATM   15  C2  UNL     1      39.703  13.887  15.789  1.00  0.00     0.024 C 
HETATM   16  C1  UNL     1      38.636  14.744  16.429  1.00  0.00     0.013 C 
HETATM   17  C17 UNL     1      39.863  12.679  16.732  1.00  0.00     0.021 C 
HETATM   18  C12 UNL     1      40.592  13.380  17.865  1.00  0.00     0.127 C 
HETATM   19  C16 UNL     1      40.710  11.684  16.003  1.00  0.00     0.007 C 
HETATM   20  O2  UNL     1      41.451  14.263  17.278  1.00  0.00    -0.373 OA
HETATM   21  C13 UNL     1      41.212  12.451  18.846  1.00  0.00     0.032 C 
HETATM   22  C14 UNL     1      41.223  11.057  18.293  1.00  0.00     0.002 C 
HETATM   23  C15 UNL     1      41.783  11.077  16.875  1.00  0.00     0.001 C 
ENDBRANCH   1  14
BRANCH   9  24
HETATM   24  C8  UNL     1      40.573  22.018  14.164  1.00  0.00     0.053 A 
HETATM   25  C9  UNL     1      40.635  22.738  12.851  1.00  0.00     0.013 A 
HETATM   26  C10 UNL     1      41.804  22.778  13.766  1.00  0.00     0.013 A 
ENDBRANCH   9  24
TORSDOF 2
ENDMDL
