MODEL 1
REMARK VINA RESULT: -7.139623758      0.000      0.000
REMARK  5 active torsions:
REMARK  status: ('A' for Active; 'I' for Inactive)
REMARK    1  A    between atoms: O1_1  and  C1_3 
REMARK    2  A    between atoms: C1_3  and  C2_4 
REMARK    3  A    between atoms: C2_4  and  N1_5 
REMARK    4  A    between atoms: C5_13  and  C6_14 
REMARK    5  A    between atoms: C6_14  and  C7_15 
ROOT
HETATM    1  N1  UNL     1     -28.385 -35.222   8.538  1.00  0.00    -0.306 N 
HETATM    2  C3  UNL     1     -28.118 -36.510   9.044  1.00  0.00     0.194 A 
HETATM    3  S1  UNL     1     -29.066 -37.839   9.087  1.00  0.00    -0.039 SA
HETATM    4  N2  UNL     1     -26.779 -36.464   9.553  1.00  0.00    -0.274 N 
ATOM      5  H2  UNL     1     -26.277 -37.237   9.990  1.00  0.00     0.189 HD
HETATM    6  N3  UNL     1     -26.280 -35.168   9.344  1.00  0.00    -0.283 N 
ATOM      7  H3  UNL     1     -25.346 -34.858   9.613  1.00  0.00     0.188 HD
HETATM    8  C4  UNL     1     -27.249 -34.345   8.709  1.00  0.00     0.120 A 
HETATM    9  C5  UNL     1     -27.165 -33.083   8.343  1.00  0.00     0.024 C 
ENDROOT
BRANCH   1  10
HETATM   10  C2  UNL     1     -29.625 -34.819   7.920  1.00  0.00     0.159 C 
BRANCH  10  11
HETATM   11  C1  UNL     1     -29.488 -35.110   6.420  1.00  0.00     0.184 C 
BRANCH  11  12
HETATM   12  O1  UNL     1     -29.878 -33.978   5.681  1.00  0.00    -0.399 OA
ATOM     13  H1  UNL     1     -29.171 -33.715   5.104  1.00  0.00     0.209 HD
ENDBRANCH  11  12
ENDBRANCH  10  11
ENDBRANCH   1  10
BRANCH   9  14
HETATM   14  C6  UNL     1     -25.949 -32.323   8.581  1.00  0.00     0.035 C 
BRANCH  14  15
HETATM   15  C7  UNL     1     -25.963 -30.919   8.080  1.00  0.00    -0.011 C 
HETATM   16  C8  UNL     1     -27.294 -30.275   7.941  1.00  0.00     0.005 C 
HETATM   17  C9  UNL     1     -27.144 -29.133   6.930  1.00  0.00     0.000 C 
HETATM   18  C10 UNL     1     -26.840 -27.820   7.561  1.00  0.00     0.000 C 
HETATM   19  C11 UNL     1     -25.695 -27.779   8.501  1.00  0.00     0.000 C 
HETATM   20  C12 UNL     1     -24.655 -28.832   8.330  1.00  0.00     0.000 C 
HETATM   21  C13 UNL     1     -25.126 -30.081   9.053  1.00  0.00     0.005 C 
ENDBRANCH  14  15
ENDBRANCH   9  14
TORSDOF 5
ENDMDL
MODEL 2
REMARK VINA RESULT: -7.099040343      5.183      7.310
REMARK  5 active torsions:
REMARK  status: ('A' for Active; 'I' for Inactive)
REMARK    1  A    between atoms: O1_1  and  C1_3 
REMARK    2  A    between atoms: C1_3  and  C2_4 
REMARK    3  A    between atoms: C2_4  and  N1_5 
REMARK    4  A    between atoms: C5_13  and  C6_14 
REMARK    5  A    between atoms: C6_14  and  C7_15 
ROOT
HETATM    1  N1  UNL     1     -27.546 -27.132   7.151  1.00  0.00    -0.306 N 
HETATM    2  C3  UNL     1     -27.496 -26.455   5.916  1.00  0.00     0.194 A 
HETATM    3  S1  UNL     1     -28.023 -24.962   5.515  1.00  0.00    -0.039 SA
HETATM    4  N2  UNL     1     -26.859 -27.353   4.999  1.00  0.00    -0.274 N 
ATOM      5  H2  UNL     1     -26.666 -27.168   4.014  1.00  0.00     0.189 HD
HETATM    6  N3  UNL     1     -26.545 -28.532   5.694  1.00  0.00    -0.283 N 
ATOM      7  H3  UNL     1     -26.084 -29.342   5.279  1.00  0.00     0.188 HD
HETATM    8  C4  UNL     1     -26.955 -28.448   7.052  1.00  0.00     0.120 A 
HETATM    9  C5  UNL     1     -26.838 -29.334   8.018  1.00  0.00     0.024 C 
ENDROOT
BRANCH   1  10
HETATM   10  C2  UNL     1     -28.104 -26.592   8.367  1.00  0.00     0.159 C 
BRANCH  10  11
HETATM   11  C1  UNL     1     -29.596 -26.950   8.367  1.00  0.00     0.184 C 
BRANCH  11  12
HETATM   12  O1  UNL     1     -30.221 -26.370   9.487  1.00  0.00    -0.399 OA
ATOM     13  H1  UNL     1     -30.742 -25.625   9.210  1.00  0.00     0.209 HD
ENDBRANCH  11  12
ENDBRANCH  10  11
ENDBRANCH   1  10
BRANCH   9  14
HETATM   14  C6  UNL     1     -26.216 -30.624   7.768  1.00  0.00     0.035 C 
BRANCH  14  15
HETATM   15  C7  UNL     1     -27.059 -31.812   8.082  1.00  0.00    -0.011 C 
HETATM   16  C8  UNL     1     -27.618 -32.558   6.925  1.00  0.00     0.005 C 
HETATM   17  C9  UNL     1     -28.843 -33.329   7.428  1.00  0.00     0.000 C 
HETATM   18  C10 UNL     1     -28.531 -34.716   7.866  1.00  0.00     0.000 C 
HETATM   19  C11 UNL     1     -27.430 -34.877   8.845  1.00  0.00     0.000 C 
HETATM   20  C12 UNL     1     -27.114 -33.693   9.692  1.00  0.00     0.000 C 
HETATM   21  C13 UNL     1     -26.195 -32.779   8.901  1.00  0.00     0.005 C 
ENDBRANCH  14  15
ENDBRANCH   9  14
TORSDOF 5
ENDMDL
MODEL 3
REMARK VINA RESULT: -7.057326972      0.734      1.553
REMARK  5 active torsions:
REMARK  status: ('A' for Active; 'I' for Inactive)
REMARK    1  A    between atoms: O1_1  and  C1_3 
REMARK    2  A    between atoms: C1_3  and  C2_4 
REMARK    3  A    between atoms: C2_4  and  N1_5 
REMARK    4  A    between atoms: C5_13  and  C6_14 
REMARK    5  A    between atoms: C6_14  and  C7_15 
ROOT
HETATM    1  N1  UNL     1     -28.190 -35.828   8.775  1.00  0.00    -0.306 N 
HETATM    2  C3  UNL     1     -27.759 -37.136   9.075  1.00  0.00     0.194 A 
HETATM    3  S1  UNL     1     -28.579 -38.548   9.036  1.00  0.00    -0.039 SA
HETATM    4  N2  UNL     1     -26.379 -37.021   9.446  1.00  0.00    -0.274 N 
ATOM      5  H2  UNL     1     -25.767 -37.789   9.722  1.00  0.00     0.189 HD
HETATM    6  N3  UNL     1     -26.020 -35.667   9.363  1.00  0.00    -0.283 N 
ATOM      7  H3  UNL     1     -25.090 -35.302   9.573  1.00  0.00     0.188 HD
HETATM    8  C4  UNL     1     -27.120 -34.871   8.945  1.00  0.00     0.120 A 
HETATM    9  C5  UNL     1     -27.186 -33.571   8.745  1.00  0.00     0.024 C 
ENDROOT
BRANCH   1  10
HETATM   10  C2  UNL     1     -29.522 -35.477   8.346  1.00  0.00     0.159 C 
BRANCH  10  11
HETATM   11  C1  UNL     1     -29.506 -35.468   6.812  1.00  0.00     0.184 C 
BRANCH  11  12
HETATM   12  O1  UNL     1     -29.937 -34.213   6.342  1.00  0.00    -0.399 OA
ATOM     13  H1  UNL     1     -29.992 -34.230   5.393  1.00  0.00     0.209 HD
ENDBRANCH  11  12
ENDBRANCH  10  11
ENDBRANCH   1  10
BRANCH   9  14
HETATM   14  C6  UNL     1     -26.020 -32.730   8.957  1.00  0.00     0.035 C 
BRANCH  14  15
HETATM   15  C7  UNL     1     -26.235 -31.272   8.739  1.00  0.00    -0.011 C 
HETATM   16  C8  UNL     1     -25.025 -30.451   8.481  1.00  0.00     0.005 C 
HETATM   17  C9  UNL     1     -25.370 -29.003   8.846  1.00  0.00     0.000 C 
HETATM   18  C10 UNL     1     -25.865 -28.204   7.692  1.00  0.00     0.000 C 
HETATM   19  C11 UNL     1     -26.985 -28.780   6.911  1.00  0.00     0.000 C 
HETATM   20  C12 UNL     1     -27.850 -29.767   7.617  1.00  0.00     0.000 C 
HETATM   21  C13 UNL     1     -27.176 -31.126   7.537  1.00  0.00     0.005 C 
ENDBRANCH  14  15
ENDBRANCH   9  14
TORSDOF 5
ENDMDL
MODEL 4
REMARK VINA RESULT: -6.865102163      5.949      8.048
REMARK  5 active torsions:
REMARK  status: ('A' for Active; 'I' for Inactive)
REMARK    1  A    between atoms: O1_1  and  C1_3 
REMARK    2  A    between atoms: C1_3  and  C2_4 
REMARK    3  A    between atoms: C2_4  and  N1_5 
REMARK    4  A    between atoms: C5_13  and  C6_14 
REMARK    5  A    between atoms: C6_14  and  C7_15 
ROOT
HETATM    1  N1  UNL     1     -27.259 -26.511   4.014  1.00  0.00    -0.306 N 
HETATM    2  C3  UNL     1     -28.298 -26.391   3.071  1.00  0.00     0.194 A 
HETATM    3  S1  UNL     1     -28.315 -25.654   1.613  1.00  0.00    -0.039 SA
HETATM    4  N2  UNL     1     -29.426 -27.071   3.637  1.00  0.00    -0.274 N 
ATOM      5  H2  UNL     1     -30.345 -27.171   3.206  1.00  0.00     0.189 HD
HETATM    6  N3  UNL     1     -29.042 -27.577   4.890  1.00  0.00    -0.283 N 
ATOM      7  H3  UNL     1     -29.654 -28.107   5.511  1.00  0.00     0.188 HD
HETATM    8  C4  UNL     1     -27.689 -27.254   5.178  1.00  0.00     0.120 A 
HETATM    9  C5  UNL     1     -26.965 -27.548   6.237  1.00  0.00     0.024 C 
ENDROOT
BRANCH   1  10
HETATM   10  C2  UNL     1     -25.929 -25.974   3.851  1.00  0.00     0.159 C 
BRANCH  10  11
HETATM   11  C1  UNL     1     -25.097 -27.056   3.152  1.00  0.00     0.184 C 
BRANCH  11  12
HETATM   12  O1  UNL     1     -23.760 -26.977   3.584  1.00  0.00    -0.399 OA
ATOM     13  H1  UNL     1     -23.313 -27.792   3.387  1.00  0.00     0.209 HD
ENDBRANCH  11  12
ENDBRANCH  10  11
ENDBRANCH   1  10
BRANCH   9  14
HETATM   14  C6  UNL     1     -27.537 -28.308   7.336  1.00  0.00     0.035 C 
BRANCH  14  15
HETATM   15  C7  UNL     1     -27.012 -29.694   7.497  1.00  0.00    -0.011 C 
HETATM   16  C8  UNL     1     -26.021 -29.909   8.582  1.00  0.00     0.005 C 
HETATM   17  C9  UNL     1     -25.223 -31.169   8.228  1.00  0.00     0.000 C 
HETATM   18  C10 UNL     1     -25.786 -32.412   8.821  1.00  0.00     0.000 C 
HETATM   19  C11 UNL     1     -27.225 -32.675   8.583  1.00  0.00     0.000 C 
HETATM   20  C12 UNL     1     -27.830 -32.028   7.384  1.00  0.00     0.000 C 
HETATM   21  C13 UNL     1     -28.215 -30.608   7.760  1.00  0.00     0.005 C 
ENDBRANCH  14  15
ENDBRANCH   9  14
TORSDOF 5
ENDMDL
MODEL 5
REMARK VINA RESULT: -6.813991461      4.435      6.848
REMARK  5 active torsions:
REMARK  status: ('A' for Active; 'I' for Inactive)
REMARK    1  A    between atoms: O1_1  and  C1_3 
REMARK    2  A    between atoms: C1_3  and  C2_4 
REMARK    3  A    between atoms: C2_4  and  N1_5 
REMARK    4  A    between atoms: C5_13  and  C6_14 
REMARK    5  A    between atoms: C6_14  and  C7_15 
ROOT
HETATM    1  N1  UNL     1     -28.281 -28.331   7.455  1.00  0.00    -0.306 N 
HETATM    2  C3  UNL     1     -27.663 -27.095   7.732  1.00  0.00     0.194 A 
HETATM    3  S1  UNL     1     -28.231 -25.574   7.556  1.00  0.00    -0.039 SA
HETATM    4  N2  UNL     1     -26.357 -27.410   8.231  1.00  0.00    -0.274 N 
ATOM      5  H2  UNL     1     -25.649 -26.737   8.527  1.00  0.00     0.189 HD
HETATM    6  N3  UNL     1     -26.222 -28.807   8.243  1.00  0.00    -0.283 N 
ATOM      7  H3  UNL     1     -25.387 -29.305   8.554  1.00  0.00     0.188 HD
HETATM    8  C4  UNL     1     -27.403 -29.437   7.765  1.00  0.00     0.120 A 
HETATM    9  C5  UNL     1     -27.671 -30.719   7.628  1.00  0.00     0.024 C 
ENDROOT
BRANCH   1  10
HETATM   10  C2  UNL     1     -29.618 -28.488   6.938  1.00  0.00     0.159 C 
BRANCH  10  11
HETATM   11  C1  UNL     1     -29.537 -28.263   5.423  1.00  0.00     0.184 C 
BRANCH  11  12
HETATM   12  O1  UNL     1     -30.257 -29.272   4.755  1.00  0.00    -0.399 OA
ATOM     13  H1  UNL     1     -31.170 -29.238   5.017  1.00  0.00     0.209 HD
ENDBRANCH  11  12
ENDBRANCH  10  11
ENDBRANCH   1  10
BRANCH   9  14
HETATM   14  C6  UNL     1     -26.683 -31.724   7.984  1.00  0.00     0.035 C 
BRANCH  14  15
HETATM   15  C7  UNL     1     -27.187 -33.125   8.039  1.00  0.00    -0.011 C 
HETATM   16  C8  UNL     1     -27.253 -33.757   9.381  1.00  0.00     0.005 C 
HETATM   17  C9  UNL     1     -27.235 -35.275   9.172  1.00  0.00     0.000 C 
HETATM   18  C10 UNL     1     -28.593 -35.877   9.086  1.00  0.00     0.000 C 
HETATM   19  C11 UNL     1     -29.533 -35.272   8.113  1.00  0.00     0.000 C 
HETATM   20  C12 UNL     1     -28.923 -34.531   6.971  1.00  0.00     0.000 C 
HETATM   21  C13 UNL     1     -28.599 -33.125   7.442  1.00  0.00     0.005 C 
ENDBRANCH  14  15
ENDBRANCH   9  14
TORSDOF 5
ENDMDL
