MODEL 1
REMARK VINA RESULT: -6.727899750      0.000      0.000
REMARK  5 active torsions:
REMARK  status: ('A' for Active; 'I' for Inactive)
REMARK    1  A    between atoms: C2_2  and  N1_5 
REMARK    2  A    between atoms: N1_5  and  C5_8 
REMARK    3  A    between atoms: C5_8  and  C6_9 
REMARK    4  A    between atoms: C6_9  and  N2_10 
REMARK    5  A    between atoms: N2_10  and  C7_12 
ROOT
HETATM    1  C6  UNL     1     -26.505 -28.355   7.216  1.00  0.00     0.049 C 
HETATM    2  C12 UNL     1     -25.132 -28.454   7.899  1.00  0.00     0.032 C 
HETATM    3  C13 UNL     1     -25.063 -29.523   8.934  1.00  0.00     0.002 C 
HETATM    4  C14 UNL     1     -25.391 -30.901   8.409  1.00  0.00     0.000 C 
HETATM    5  C15 UNL     1     -26.532 -30.844   7.441  1.00  0.00     0.002 C 
HETATM    6  C16 UNL     1     -27.280 -29.545   7.730  1.00  0.00     0.032 C 
ENDROOT
BRANCH   1   7
HETATM    7  C5  UNL     1     -27.109 -27.080   7.746  1.00  0.00     0.263 C 
BRANCH   7   8
HETATM    8  N1  UNL     1     -28.476 -27.259   8.196  1.00  0.00    -0.065 N 
ATOM      9  H12 UNL     1     -28.588 -27.148   9.204  1.00  0.00     0.278 HD
ATOM     10  H11 UNL     1     -28.797 -28.225   8.138  1.00  0.00     0.278 HD
BRANCH   8  11
HETATM   11  C2  UNL     1     -29.300 -26.322   7.410  1.00  0.00     0.115 C 
HETATM   12  C1  UNL     1     -30.440 -25.905   8.304  1.00  0.00     0.045 C 
HETATM   13  C3  UNL     1     -28.516 -25.166   6.900  1.00  0.00     0.045 C 
HETATM   14  C4  UNL     1     -29.880 -27.128   6.243  1.00  0.00     0.045 C 
ENDBRANCH   8  11
ENDBRANCH   7   8
ENDBRANCH   1   7
BRANCH   1  15
HETATM   15  N2  UNL     1     -26.282 -28.421   5.851  1.00  0.00    -0.407 N 
ATOM     16  H2  UNL     1     -26.241 -29.363   5.465  1.00  0.00     0.154 HD
BRANCH  15  17
HETATM   17  C7  UNL     1     -26.112 -27.425   4.954  1.00  0.00     0.080 C 
HETATM   18  C8  UNL     1     -27.116 -26.990   3.970  1.00  0.00     0.052 C 
HETATM   19  C9  UNL     1     -26.435 -26.211   2.859  1.00  0.00     0.234 C 
HETATM   20  N3  UNL     1     -25.225 -25.552   3.295  1.00  0.00    -0.075 N 
HETATM   21  C10 UNL     1     -24.202 -26.509   3.595  1.00  0.00     0.234 C 
ATOM     22  H32 UNL     1     -24.908 -24.860   2.617  1.00  0.00     0.277 HD
ATOM     23  H31 UNL     1     -25.400 -24.928   4.083  1.00  0.00     0.277 HD
HETATM   24  C11 UNL     1     -24.842 -27.744   4.130  1.00  0.00     0.052 C 
ENDBRANCH  15  17
ENDBRANCH   1  15
TORSDOF 5
ENDMDL
MODEL 2
REMARK VINA RESULT: -6.508316661      2.457      4.890
REMARK  5 active torsions:
REMARK  status: ('A' for Active; 'I' for Inactive)
REMARK    1  A    between atoms: C2_2  and  N1_5 
REMARK    2  A    between atoms: N1_5  and  C5_8 
REMARK    3  A    between atoms: C5_8  and  C6_9 
REMARK    4  A    between atoms: C6_9  and  N2_10 
REMARK    5  A    between atoms: N2_10  and  C7_12 
ROOT
HETATM    1  C6  UNL     1     -28.502 -26.281   4.590  1.00  0.00     0.049 C 
HETATM    2  C12 UNL     1     -29.108 -27.668   4.326  1.00  0.00     0.032 C 
HETATM    3  C13 UNL     1     -30.413 -27.881   5.008  1.00  0.00     0.002 C 
HETATM    4  C14 UNL     1     -31.468 -26.866   4.637  1.00  0.00     0.000 C 
HETATM    5  C15 UNL     1     -30.874 -25.496   4.532  1.00  0.00     0.002 C 
HETATM    6  C16 UNL     1     -29.576 -25.524   5.335  1.00  0.00     0.032 C 
ENDROOT
BRANCH   1   7
HETATM    7  C5  UNL     1     -27.328 -26.538   5.500  1.00  0.00     0.263 C 
BRANCH   7   8
HETATM    8  N1  UNL     1     -27.703 -26.541   6.901  1.00  0.00    -0.065 N 
ATOM      9  H12 UNL     1     -28.712 -26.559   7.050  1.00  0.00     0.278 HD
ATOM     10  H11 UNL     1     -27.521 -25.653   7.369  1.00  0.00     0.278 HD
BRANCH   8  11
HETATM   11  C2  UNL     1     -27.002 -27.681   7.519  1.00  0.00     0.115 C 
HETATM   12  C1  UNL     1     -25.947 -28.116   6.533  1.00  0.00     0.045 C 
HETATM   13  C3  UNL     1     -26.439 -27.348   8.854  1.00  0.00     0.045 C 
HETATM   14  C4  UNL     1     -28.033 -28.809   7.641  1.00  0.00     0.045 C 
ENDBRANCH   8  11
ENDBRANCH   7   8
ENDBRANCH   1   7
BRANCH   1  15
HETATM   15  N2  UNL     1     -28.223 -25.720   3.355  1.00  0.00    -0.407 N 
ATOM     16  H2  UNL     1     -28.054 -24.715   3.364  1.00  0.00     0.154 HD
BRANCH  15  17
HETATM   17  C7  UNL     1     -28.142 -26.303   2.139  1.00  0.00     0.080 C 
HETATM   18  C8  UNL     1     -26.917 -26.413   1.331  1.00  0.00     0.052 C 
HETATM   19  C9  UNL     1     -27.285 -26.683  -0.117  1.00  0.00     0.234 C 
HETATM   20  N3  UNL     1     -28.545 -27.376  -0.255  1.00  0.00    -0.075 N 
HETATM   21  C10 UNL     1     -29.638 -26.531   0.127  1.00  0.00     0.234 C 
ATOM     22  H32 UNL     1     -28.668 -27.748  -1.197  1.00  0.00     0.277 HD
ATOM     23  H31 UNL     1     -28.550 -28.255   0.260  1.00  0.00     0.277 HD
HETATM   24  C11 UNL     1     -29.182 -25.623   1.218  1.00  0.00     0.052 C 
ENDBRANCH  15  17
ENDBRANCH   1  15
TORSDOF 5
ENDMDL
MODEL 3
REMARK VINA RESULT: -6.488577436      2.423      4.862
REMARK  5 active torsions:
REMARK  status: ('A' for Active; 'I' for Inactive)
REMARK    1  A    between atoms: C2_2  and  N1_5 
REMARK    2  A    between atoms: N1_5  and  C5_8 
REMARK    3  A    between atoms: C5_8  and  C6_9 
REMARK    4  A    between atoms: C6_9  and  N2_10 
REMARK    5  A    between atoms: N2_10  and  C7_12 
ROOT
HETATM    1  C6  UNL     1     -28.435 -26.328   4.609  1.00  0.00     0.049 C 
HETATM    2  C12 UNL     1     -29.046 -27.709   4.323  1.00  0.00     0.032 C 
HETATM    3  C13 UNL     1     -30.356 -27.925   4.996  1.00  0.00     0.002 C 
HETATM    4  C14 UNL     1     -31.404 -26.900   4.634  1.00  0.00     0.000 C 
HETATM    5  C15 UNL     1     -30.803 -25.531   4.551  1.00  0.00     0.002 C 
HETATM    6  C16 UNL     1     -29.509 -25.577   5.359  1.00  0.00     0.032 C 
ENDROOT
BRANCH   1   7
HETATM    7  C5  UNL     1     -27.267 -26.604   5.520  1.00  0.00     0.263 C 
BRANCH   7   8
HETATM    8  N1  UNL     1     -27.643 -26.600   6.921  1.00  0.00    -0.065 N 
ATOM      9  H12 UNL     1     -28.653 -26.564   7.069  1.00  0.00     0.278 HD
ATOM     10  H11 UNL     1     -27.415 -25.728   7.398  1.00  0.00     0.278 HD
BRANCH   8  11
HETATM   11  C2  UNL     1     -27.006 -27.782   7.528  1.00  0.00     0.115 C 
HETATM   12  C1  UNL     1     -26.474 -27.339   8.868  1.00  0.00     0.045 C 
HETATM   13  C3  UNL     1     -27.934 -28.939   7.632  1.00  0.00     0.045 C 
HETATM   14  C4  UNL     1     -25.811 -28.137   6.635  1.00  0.00     0.045 C 
ENDBRANCH   8  11
ENDBRANCH   7   8
ENDBRANCH   1   7
BRANCH   1  15
HETATM   15  N2  UNL     1     -28.148 -25.752   3.383  1.00  0.00    -0.407 N 
ATOM     16  H2  UNL     1     -27.953 -24.751   3.410  1.00  0.00     0.154 HD
BRANCH  15  17
HETATM   17  C7  UNL     1     -28.087 -26.314   2.156  1.00  0.00     0.080 C 
HETATM   18  C8  UNL     1     -26.877 -26.401   1.323  1.00  0.00     0.052 C 
HETATM   19  C9  UNL     1     -27.272 -26.649  -0.122  1.00  0.00     0.234 C 
HETATM   20  N3  UNL     1     -28.530 -27.349  -0.248  1.00  0.00    -0.075 N 
HETATM   21  C10 UNL     1     -29.620 -26.520   0.171  1.00  0.00     0.234 C 
ATOM     22  H32 UNL     1     -28.669 -27.707  -1.192  1.00  0.00     0.277 HD
ATOM     23  H31 UNL     1     -28.518 -28.238   0.253  1.00  0.00     0.277 HD
HETATM   24  C11 UNL     1     -29.150 -25.626   1.267  1.00  0.00     0.052 C 
ENDBRANCH  15  17
ENDBRANCH   1  15
TORSDOF 5
ENDMDL
MODEL 4
REMARK VINA RESULT: -6.407258303      1.569      5.367
REMARK  5 active torsions:
REMARK  status: ('A' for Active; 'I' for Inactive)
REMARK    1  A    between atoms: C2_2  and  N1_5 
REMARK    2  A    between atoms: N1_5  and  C5_8 
REMARK    3  A    between atoms: C5_8  and  C6_9 
REMARK    4  A    between atoms: C6_9  and  N2_10 
REMARK    5  A    between atoms: N2_10  and  C7_12 
ROOT
HETATM    1  C6  UNL     1     -28.133 -27.103   5.482  1.00  0.00     0.049 C 
HETATM    2  C12 UNL     1     -28.942 -25.902   5.996  1.00  0.00     0.032 C 
HETATM    3  C13 UNL     1     -30.125 -25.582   5.151  1.00  0.00     0.002 C 
HETATM    4  C14 UNL     1     -31.095 -26.730   5.000  1.00  0.00     0.000 C 
HETATM    5  C15 UNL     1     -30.364 -28.026   4.835  1.00  0.00     0.002 C 
HETATM    6  C16 UNL     1     -28.959 -27.672   4.353  1.00  0.00     0.032 C 
ENDROOT
BRANCH   1   7
HETATM    7  C5  UNL     1     -26.860 -26.506   4.939  1.00  0.00     0.263 C 
BRANCH   7   8
HETATM    8  N1  UNL     1     -26.459 -27.107   3.681  1.00  0.00    -0.065 N 
ATOM      9  H12 UNL     1     -27.247 -27.359   3.084  1.00  0.00     0.278 HD
ATOM     10  H11 UNL     1     -26.073 -28.045   3.786  1.00  0.00     0.278 HD
BRANCH   8  11
HETATM   11  C2  UNL     1     -25.525 -26.159   3.045  1.00  0.00     0.115 C 
HETATM   12  C1  UNL     1     -25.910 -24.788   3.538  1.00  0.00     0.045 C 
HETATM   13  C3  UNL     1     -24.102 -26.492   3.321  1.00  0.00     0.045 C 
HETATM   14  C4  UNL     1     -25.803 -26.220   1.539  1.00  0.00     0.045 C 
ENDBRANCH   8  11
ENDBRANCH   7   8
ENDBRANCH   1   7
BRANCH   1  15
HETATM   15  N2  UNL     1     -28.007 -27.988   6.540  1.00  0.00    -0.407 N 
ATOM     16  H2  UNL     1     -28.887 -28.311   6.940  1.00  0.00     0.154 HD
BRANCH  15  17
HETATM   17  C7  UNL     1     -26.895 -28.488   7.121  1.00  0.00     0.080 C 
HETATM   18  C8  UNL     1     -26.691 -29.899   7.486  1.00  0.00     0.052 C 
HETATM   19  C9  UNL     1     -25.575 -30.002   8.511  1.00  0.00     0.234 C 
HETATM   20  N3  UNL     1     -24.613 -28.929   8.402  1.00  0.00    -0.075 N 
HETATM   21  C10 UNL     1     -25.195 -27.680   8.792  1.00  0.00     0.234 C 
ATOM     22  H32 UNL     1     -23.764 -29.131   8.930  1.00  0.00     0.277 HD
ATOM     23  H31 UNL     1     -24.206 -28.881   7.468  1.00  0.00     0.277 HD
HETATM   24  C11 UNL     1     -26.638 -27.686   8.419  1.00  0.00     0.052 C 
ENDBRANCH  15  17
ENDBRANCH   1  15
TORSDOF 5
ENDMDL
MODEL 5
REMARK VINA RESULT: -6.357767569      1.626      2.676
REMARK  5 active torsions:
REMARK  status: ('A' for Active; 'I' for Inactive)
REMARK    1  A    between atoms: C2_2  and  N1_5 
REMARK    2  A    between atoms: N1_5  and  C5_8 
REMARK    3  A    between atoms: C5_8  and  C6_9 
REMARK    4  A    between atoms: C6_9  and  N2_10 
REMARK    5  A    between atoms: N2_10  and  C7_12 
ROOT
HETATM    1  C6  UNL     1     -27.907 -27.954   6.321  1.00  0.00     0.049 C 
HETATM    2  C12 UNL     1     -27.712 -26.562   6.944  1.00  0.00     0.032 C 
HETATM    3  C13 UNL     1     -27.544 -26.596   8.422  1.00  0.00     0.002 C 
HETATM    4  C14 UNL     1     -26.386 -27.448   8.885  1.00  0.00     0.000 C 
HETATM    5  C15 UNL     1     -26.292 -28.704   8.076  1.00  0.00     0.002 C 
HETATM    6  C16 UNL     1     -27.670 -28.922   7.456  1.00  0.00     0.032 C 
ENDROOT
BRANCH   1   7
HETATM    7  C5  UNL     1     -29.356 -27.992   5.906  1.00  0.00     0.263 C 
BRANCH   7   8
HETATM    8  N1  UNL     1     -29.880 -26.674   5.602  1.00  0.00    -0.065 N 
ATOM      9  H12 UNL     1     -29.153 -25.974   5.454  1.00  0.00     0.278 HD
ATOM     10  H11 UNL     1     -30.329 -26.224   6.400  1.00  0.00     0.278 HD
BRANCH   8  11
HETATM   11  C2  UNL     1     -30.777 -26.839   4.443  1.00  0.00     0.115 C 
HETATM   12  C1  UNL     1     -30.203 -25.990   3.337  1.00  0.00     0.045 C 
HETATM   13  C3  UNL     1     -30.941 -28.263   4.049  1.00  0.00     0.045 C 
HETATM   14  C4  UNL     1     -32.127 -26.240   4.851  1.00  0.00     0.045 C 
ENDBRANCH   8  11
ENDBRANCH   7   8
ENDBRANCH   1   7
BRANCH   1  15
HETATM   15  N2  UNL     1     -26.965 -28.082   5.315  1.00  0.00    -0.407 N 
ATOM     16  H2  UNL     1     -26.643 -29.033   5.142  1.00  0.00     0.154 HD
BRANCH  15  17
HETATM   17  C7  UNL     1     -26.409 -27.136   4.526  1.00  0.00     0.080 C 
HETATM   18  C8  UNL     1     -27.042 -26.546   3.336  1.00  0.00     0.052 C 
HETATM   19  C9  UNL     1     -25.980 -25.902   2.462  1.00  0.00     0.234 C 
HETATM   20  N3  UNL     1     -24.831 -25.452   3.215  1.00  0.00    -0.075 N 
HETATM   21  C10 UNL     1     -24.090 -26.564   3.731  1.00  0.00     0.234 C 
ATOM     22  H32 UNL     1     -24.241 -24.828   2.664  1.00  0.00     0.277 HD
ATOM     23  H31 UNL     1     -25.097 -24.801   3.953  1.00  0.00     0.277 HD
HETATM   24  C11 UNL     1     -25.041 -27.670   4.041  1.00  0.00     0.052 C 
ENDBRANCH  15  17
ENDBRANCH   1  15
TORSDOF 5
ENDMDL
