MODEL 1
REMARK VINA RESULT: -8.642902547      0.000      0.000
REMARK  4 active torsions:
REMARK  status: ('A' for Active; 'I' for Inactive)
REMARK    1  A    between atoms: C2_2  and  C3_3 
REMARK    2  A    between atoms: C2_2  and  C10_10 
REMARK    3  A    between atoms: C4_4  and  C5_5 
REMARK    4  A    between atoms: N2_15  and  N3_17 
REMARK       I    between atoms: N3_17  and  C13_19 
ROOT
HETATM    1  C10 UNL     1     -27.137 -27.463   6.244  1.00  0.00    -0.010 C 
HETATM    2  N1  UNL     1     -26.464 -27.723   5.187  1.00  0.00    -0.390 N 
ATOM      3  H1  UNL     1     -25.653 -28.339   5.245  1.00  0.00     0.159 HD
HETATM    4  C11 UNL     1     -26.840 -27.156   3.917  1.00  0.00     0.173 C 
HETATM    5  C12 UNL     1     -27.144 -25.727   4.165  1.00  0.00     0.021 C 
HETATM    6  N2  UNL     1     -26.799 -24.851   3.291  1.00  0.00    -0.305 N 
ATOM      7  H2  UNL     1     -27.006 -23.867   3.460  1.00  0.00     0.186 HD
HETATM    8  C14 UNL     1     -27.837 -25.302   5.404  1.00  0.00     0.061 C 
HETATM    9  C15 UNL     1     -28.312 -26.561   6.107  1.00  0.00     0.058 C 
ENDROOT
BRANCH   1  10
HETATM   10  C2  UNL     1     -26.734 -28.058   7.546  1.00  0.00     0.049 C 
HETATM   11  C1  UNL     1     -27.340 -27.315   8.715  1.00  0.00     0.020 C 
BRANCH  10  12
HETATM   12  C3  UNL     1     -27.122 -29.483   7.543  1.00  0.00    -0.020 C 
HETATM   13  C4  UNL     1     -26.206 -30.416   7.562  1.00  0.00    -0.025 C 
BRANCH  13  14
HETATM   14  C5  UNL     1     -26.493 -31.874   7.562  1.00  0.00     0.008 C 
HETATM   15  C6  UNL     1     -27.957 -32.189   7.724  1.00  0.00     0.008 C 
HETATM   16  C7  UNL     1     -27.869 -33.599   8.327  1.00  0.00     0.001 C 
HETATM   17  C8  UNL     1     -26.882 -33.370   9.439  1.00  0.00     0.001 C 
HETATM   18  C9  UNL     1     -25.840 -32.489   8.797  1.00  0.00     0.008 C 
ENDBRANCH  13  14
ENDBRANCH  10  12
ENDBRANCH   1  10
BRANCH   6  19
HETATM   19  N3  UNL     1     -26.144 -25.223   2.113  1.00  0.00    -0.274 N 
HETATM   20  C13 UNL     1     -26.862 -25.527   0.944  1.00  0.00     0.200 C 
HETATM   21  N4  UNL     1     -27.823 -24.794   0.525  1.00  0.00    -0.372 N 
HETATM   22  N5  UNL     1     -26.534 -26.686   0.173  1.00  0.00    -0.062 NA
ATOM     23  H42 UNL     1     -28.056 -23.968   1.075  1.00  0.00     0.158 HD
ATOM     24  H41 UNL     1     -28.344 -25.016  -0.323  1.00  0.00     0.158 HD
ATOM     25  H3  UNL     1     -25.126 -25.273   2.102  1.00  0.00     0.189 HD
ENDBRANCH   6  19
TORSDOF 4
ENDMDL
MODEL 2
REMARK VINA RESULT: -8.629407928      1.137      1.243
REMARK  4 active torsions:
REMARK  status: ('A' for Active; 'I' for Inactive)
REMARK    1  A    between atoms: C2_2  and  C3_3 
REMARK    2  A    between atoms: C2_2  and  C10_10 
REMARK    3  A    between atoms: C4_4  and  C5_5 
REMARK    4  A    between atoms: N2_15  and  N3_17 
REMARK       I    between atoms: N3_17  and  C13_19 
ROOT
HETATM    1  C10 UNL     1     -26.789 -27.550   6.694  1.00  0.00    -0.010 C 
HETATM    2  N1  UNL     1     -26.415 -27.517   5.471  1.00  0.00    -0.390 N 
ATOM      3  H1  UNL     1     -25.464 -27.794   5.226  1.00  0.00     0.159 HD
HETATM    4  C11 UNL     1     -27.323 -27.091   4.436  1.00  0.00     0.173 C 
HETATM    5  C12 UNL     1     -28.008 -25.880   4.944  1.00  0.00     0.021 C 
HETATM    6  N2  UNL     1     -28.260 -24.915   4.135  1.00  0.00    -0.305 N 
ATOM      7  H2  UNL     1     -28.731 -24.080   4.483  1.00  0.00     0.186 HD
HETATM    8  C14 UNL     1     -28.402 -25.773   6.369  1.00  0.00     0.061 C 
HETATM    9  C15 UNL     1     -28.186 -27.137   6.999  1.00  0.00     0.058 C 
ENDROOT
BRANCH   1  10
HETATM   10  C2  UNL     1     -25.838 -27.992   7.749  1.00  0.00     0.049 C 
HETATM   11  C1  UNL     1     -26.288 -27.561   9.127  1.00  0.00     0.020 C 
BRANCH  10  12
HETATM   12  C3  UNL     1     -25.692 -29.458   7.655  1.00  0.00    -0.020 C 
HETATM   13  C4  UNL     1     -26.751 -30.226   7.627  1.00  0.00    -0.025 C 
BRANCH  13  14
HETATM   14  C5  UNL     1     -26.711 -31.708   7.533  1.00  0.00     0.008 C 
HETATM   15  C6  UNL     1     -28.059 -32.350   7.730  1.00  0.00     0.008 C 
HETATM   16  C7  UNL     1     -27.632 -33.739   8.225  1.00  0.00     0.001 C 
HETATM   17  C8  UNL     1     -26.660 -33.365   9.311  1.00  0.00     0.001 C 
HETATM   18  C9  UNL     1     -25.874 -32.237   8.693  1.00  0.00     0.008 C 
ENDBRANCH  13  14
ENDBRANCH  10  12
ENDBRANCH   1  10
BRANCH   6  19
HETATM   19  N3  UNL     1     -27.901 -24.989   2.786  1.00  0.00    -0.274 N 
HETATM   20  C13 UNL     1     -28.773 -25.530   1.827  1.00  0.00     0.200 C 
HETATM   21  N4  UNL     1     -30.013 -25.219   1.781  1.00  0.00    -0.372 N 
HETATM   22  N5  UNL     1     -28.293 -26.461   0.854  1.00  0.00    -0.062 NA
ATOM     23  H42 UNL     1     -30.355 -24.554   2.475  1.00  0.00     0.158 HD
ATOM     24  H41 UNL     1     -30.646 -25.612   1.086  1.00  0.00     0.158 HD
ATOM     25  H3  UNL     1     -26.988 -24.642   2.493  1.00  0.00     0.189 HD
ENDBRANCH   6  19
TORSDOF 4
ENDMDL
MODEL 3
REMARK VINA RESULT: -8.350015306      2.044      2.327
REMARK  4 active torsions:
REMARK  status: ('A' for Active; 'I' for Inactive)
REMARK    1  A    between atoms: C2_2  and  C3_3 
REMARK    2  A    between atoms: C2_2  and  C10_10 
REMARK    3  A    between atoms: C4_4  and  C5_5 
REMARK    4  A    between atoms: N2_15  and  N3_17 
REMARK       I    between atoms: N3_17  and  C13_19 
ROOT
HETATM    1  C10 UNL     1     -28.054 -27.121   6.609  1.00  0.00    -0.010 C 
HETATM    2  N1  UNL     1     -28.892 -27.767   5.890  1.00  0.00    -0.390 N 
ATOM      3  H1  UNL     1     -28.800 -28.778   5.794  1.00  0.00     0.159 HD
HETATM    4  C11 UNL     1     -29.965 -27.081   5.215  1.00  0.00     0.173 C 
HETATM    5  C12 UNL     1     -29.374 -25.870   4.601  1.00  0.00     0.021 C 
HETATM    6  N2  UNL     1     -29.779 -25.491   3.443  1.00  0.00    -0.305 N 
ATOM      7  H2  UNL     1     -29.373 -24.658   3.018  1.00  0.00     0.186 HD
HETATM    8  C14 UNL     1     -28.324 -25.097   5.306  1.00  0.00     0.061 C 
HETATM    9  C15 UNL     1     -28.233 -25.647   6.718  1.00  0.00     0.058 C 
ENDROOT
BRANCH   1  10
HETATM   10  C2  UNL     1     -26.954 -27.846   7.298  1.00  0.00     0.049 C 
HETATM   11  C1  UNL     1     -26.865 -27.473   8.761  1.00  0.00     0.020 C 
BRANCH  10  12
HETATM   12  C3  UNL     1     -27.169 -29.295   7.115  1.00  0.00    -0.020 C 
HETATM   13  C4  UNL     1     -26.388 -30.158   7.710  1.00  0.00    -0.025 C 
BRANCH  13  14
HETATM   14  C5  UNL     1     -26.521 -31.633   7.592  1.00  0.00     0.008 C 
HETATM   15  C6  UNL     1     -27.940 -32.114   7.754  1.00  0.00     0.008 C 
HETATM   16  C7  UNL     1     -27.689 -33.551   8.232  1.00  0.00     0.001 C 
HETATM   17  C8  UNL     1     -26.701 -33.312   9.341  1.00  0.00     0.001 C 
HETATM   18  C9  UNL     1     -25.775 -32.275   8.757  1.00  0.00     0.008 C 
ENDBRANCH  13  14
ENDBRANCH  10  12
ENDBRANCH   1  10
BRANCH   6  19
HETATM   19  N3  UNL     1     -30.768 -26.200   2.754  1.00  0.00    -0.274 N 
HETATM   20  C13 UNL     1     -30.509 -26.784   1.503  1.00  0.00     0.200 C 
HETATM   21  N4  UNL     1     -29.451 -27.465   1.275  1.00  0.00    -0.372 N 
HETATM   22  N5  UNL     1     -31.438 -26.634   0.426  1.00  0.00    -0.062 NA
ATOM     23  H42 UNL     1     -28.788 -27.572   2.042  1.00  0.00     0.158 HD
ATOM     24  H41 UNL     1     -29.263 -27.888   0.367  1.00  0.00     0.158 HD
ATOM     25  H3  UNL     1     -31.695 -26.296   3.169  1.00  0.00     0.189 HD
ENDBRANCH   6  19
TORSDOF 4
ENDMDL
MODEL 4
REMARK VINA RESULT: -8.339344000      2.854      4.110
REMARK  4 active torsions:
REMARK  status: ('A' for Active; 'I' for Inactive)
REMARK    1  A    between atoms: C2_2  and  C3_3 
REMARK    2  A    between atoms: C2_2  and  C10_10 
REMARK    3  A    between atoms: C4_4  and  C5_5 
REMARK    4  A    between atoms: N2_15  and  N3_17 
REMARK       I    between atoms: N3_17  and  C13_19 
ROOT
HETATM    1  C10 UNL     1     -27.120 -29.881   7.691  1.00  0.00    -0.010 C 
HETATM    2  N1  UNL     1     -28.359 -29.967   7.384  1.00  0.00    -0.390 N 
ATOM      3  H1  UNL     1     -28.771 -30.881   7.202  1.00  0.00     0.159 HD
HETATM    4  C11 UNL     1     -29.177 -28.783   7.294  1.00  0.00     0.173 C 
HETATM    5  C12 UNL     1     -28.385 -27.777   6.549  1.00  0.00     0.021 C 
HETATM    6  N2  UNL     1     -28.980 -27.004   5.714  1.00  0.00    -0.305 N 
ATOM      7  H2  UNL     1     -28.438 -26.310   5.199  1.00  0.00     0.186 HD
HETATM    8  C14 UNL     1     -26.923 -27.655   6.757  1.00  0.00     0.061 C 
HETATM    9  C15 UNL     1     -26.565 -28.524   7.949  1.00  0.00     0.058 C 
ENDROOT
BRANCH   1  10
HETATM   10  C2  UNL     1     -26.291 -31.113   7.780  1.00  0.00     0.049 C 
HETATM   11  C1  UNL     1     -25.150 -30.954   8.760  1.00  0.00     0.020 C 
BRANCH  10  12
HETATM   12  C3  UNL     1     -27.173 -32.238   8.147  1.00  0.00    -0.020 C 
HETATM   13  C4  UNL     1     -26.726 -33.209   8.901  1.00  0.00    -0.025 C 
BRANCH  13  14
HETATM   14  C5  UNL     1     -27.531 -34.382   9.325  1.00  0.00     0.008 C 
HETATM   15  C6  UNL     1     -26.711 -35.635   9.492  1.00  0.00     0.008 C 
HETATM   16  C7  UNL     1     -27.792 -36.702   9.270  1.00  0.00     0.001 C 
HETATM   17  C8  UNL     1     -28.414 -36.212   7.991  1.00  0.00     0.001 C 
HETATM   18  C9  UNL     1     -28.507 -34.723   8.203  1.00  0.00     0.008 C 
ENDBRANCH  13  14
ENDBRANCH  10  12
ENDBRANCH   1  10
BRANCH   6  19
HETATM   19  N3  UNL     1     -30.358 -27.095   5.497  1.00  0.00    -0.274 N 
HETATM   20  C13 UNL     1     -31.050 -26.110   4.773  1.00  0.00     0.200 C 
HETATM   21  N4  UNL     1     -30.612 -25.645   3.665  1.00  0.00    -0.372 N 
HETATM   22  N5  UNL     1     -32.288 -25.587   5.261  1.00  0.00    -0.062 NA
ATOM     23  H42 UNL     1     -29.729 -26.018   3.318  1.00  0.00     0.158 HD
ATOM     24  H41 UNL     1     -31.113 -24.929   3.140  1.00  0.00     0.158 HD
ATOM     25  H3  UNL     1     -30.871 -27.893   5.871  1.00  0.00     0.189 HD
ENDBRANCH   6  19
TORSDOF 4
ENDMDL
MODEL 5
REMARK VINA RESULT: -8.303846884      2.220      2.591
REMARK  4 active torsions:
REMARK  status: ('A' for Active; 'I' for Inactive)
REMARK    1  A    between atoms: C2_2  and  C3_3 
REMARK    2  A    between atoms: C2_2  and  C10_10 
REMARK    3  A    between atoms: C4_4  and  C5_5 
REMARK    4  A    between atoms: N2_15  and  N3_17 
REMARK       I    between atoms: N3_17  and  C13_19 
ROOT
HETATM    1  C10 UNL     1     -27.867 -27.383   7.135  1.00  0.00    -0.010 C 
HETATM    2  N1  UNL     1     -28.682 -27.841   6.261  1.00  0.00    -0.390 N 
ATOM      3  H1  UNL     1     -28.475 -28.722   5.792  1.00  0.00     0.159 HD
HETATM    4  C11 UNL     1     -29.888 -27.124   5.934  1.00  0.00     0.173 C 
HETATM    5  C12 UNL     1     -29.509 -25.698   5.793  1.00  0.00     0.021 C 
HETATM    6  N2  UNL     1     -30.063 -24.990   4.876  1.00  0.00    -0.305 N 
ATOM      7  H2  UNL     1     -29.804 -24.008   4.777  1.00  0.00     0.186 HD
HETATM    8  C14 UNL     1     -28.502 -25.088   6.693  1.00  0.00     0.061 C 
HETATM    9  C15 UNL     1     -28.215 -26.094   7.793  1.00  0.00     0.058 C 
ENDROOT
BRANCH   1  10
HETATM   10  C2  UNL     1     -26.627 -28.137   7.460  1.00  0.00     0.049 C 
HETATM   11  C1  UNL     1     -26.172 -27.886   8.881  1.00  0.00     0.020 C 
BRANCH  10  12
HETATM   12  C3  UNL     1     -26.879 -29.570   7.212  1.00  0.00    -0.020 C 
HETATM   13  C4  UNL     1     -26.266 -30.480   7.924  1.00  0.00    -0.025 C 
BRANCH  13  14
HETATM   14  C5  UNL     1     -26.450 -31.944   7.753  1.00  0.00     0.008 C 
HETATM   15  C6  UNL     1     -27.898 -32.356   7.699  1.00  0.00     0.008 C 
HETATM   16  C7  UNL     1     -27.788 -33.812   8.175  1.00  0.00     0.001 C 
HETATM   17  C8  UNL     1     -26.960 -33.640   9.419  1.00  0.00     0.001 C 
HETATM   18  C9  UNL     1     -25.911 -32.642   8.999  1.00  0.00     0.008 C 
ENDBRANCH  13  14
ENDBRANCH  10  12
ENDBRANCH   1  10
BRANCH   6  19
HETATM   19  N3  UNL     1     -31.016 -25.538   4.013  1.00  0.00    -0.274 N 
HETATM   20  C13 UNL     1     -30.741 -25.727   2.648  1.00  0.00     0.200 C 
HETATM   21  N4  UNL     1     -29.645 -26.246   2.240  1.00  0.00    -0.372 N 
HETATM   22  N5  UNL     1     -31.694 -25.340   1.656  1.00  0.00    -0.062 NA
ATOM     23  H42 UNL     1     -28.965 -26.522   2.947  1.00  0.00     0.158 HD
ATOM     24  H41 UNL     1     -29.445 -26.383   1.249  1.00  0.00     0.158 HD
ATOM     25  H3  UNL     1     -31.928 -25.807   4.381  1.00  0.00     0.189 HD
ENDBRANCH   6  19
TORSDOF 4
ENDMDL
