MODEL 1
REMARK VINA RESULT: -6.974480912      0.000      0.000
REMARK  5 active torsions:
REMARK  status: ('A' for Active; 'I' for Inactive)
REMARK    1  A    between atoms: N1_1  and  C1_4 
REMARK    2  A    between atoms: C2_7  and  N3_8 
REMARK    3  A    between atoms: N3_8  and  C3_10 
REMARK    4  A    between atoms: C7_14  and  S1_15 
REMARK    5  A    between atoms: S1_15  and  C8_16 
ROOT
HETATM    1  C1  UNL     1     -28.536 -25.042   5.170  1.00  0.00     0.678 A 
HETATM    2  N2  UNL     1     -28.201 -24.812   3.890  1.00  0.00    -0.177 N 
ATOM      3  H2  UNL     1     -28.678 -24.069   3.379  1.00  0.00     0.185 HD
HETATM    4  C2  UNL     1     -27.260 -25.532   3.267  1.00  0.00     0.119 A 
HETATM    5  C6  UNL     1     -26.593 -26.546   3.920  1.00  0.00     0.086 A 
HETATM    6  C7  UNL     1     -26.945 -26.782   5.248  1.00  0.00     0.090 A 
HETATM    7  N4  UNL     1     -27.892 -26.034   5.824  1.00  0.00    -0.186 N 
ATOM      8  H4  UNL     1     -28.138 -26.220   6.797  1.00  0.00     0.185 HD
ENDROOT
BRANCH   6   9
HETATM    9  S1  UNL     1     -26.082 -28.087   6.082  1.00  0.00    -0.107 SA
BRANCH   9  10
HETATM   10  C8  UNL     1     -26.978 -28.489   7.610  1.00  0.00     0.054 C 
HETATM   11  C9  UNL     1     -28.084 -29.455   7.313  1.00  0.00     0.015 C 
HETATM   12  C10 UNL     1     -27.812 -30.802   7.995  1.00  0.00     0.001 C 
HETATM   13  C11 UNL     1     -26.400 -31.191   7.631  1.00  0.00     0.000 C 
HETATM   14  C12 UNL     1     -25.429 -30.308   8.397  1.00  0.00     0.001 C 
HETATM   15  C13 UNL     1     -26.009 -28.945   8.650  1.00  0.00     0.015 C 
ENDBRANCH   9  10
ENDBRANCH   6   9
BRANCH   4  16
HETATM   16  N3  UNL     1     -26.956 -25.233   1.906  1.00  0.00    -0.371 N 
ATOM     17  H3  UNL     1     -27.187 -24.312   1.533  1.00  0.00     0.161 HD
BRANCH  16  18
HETATM   18  C3  UNL     1     -26.332 -26.200   1.050  1.00  0.00     0.083 A 
HETATM   19  C4  UNL     1     -25.761 -25.662  -0.256  1.00  0.00     0.027 A 
HETATM   20  C5  UNL     1     -26.891 -26.590  -0.256  1.00  0.00     0.027 A 
ENDBRANCH  16  18
ENDBRANCH   4  16
BRANCH   1  21
HETATM   21  N1  UNL     1     -29.444 -24.335   5.744  1.00  0.00    -0.234 N 
ATOM     22  H12 UNL     1     -30.038 -24.722   6.478  1.00  0.00     0.174 HD
ATOM     23  H11 UNL     1     -29.592 -23.363   5.472  1.00  0.00     0.174 HD
ENDBRANCH   1  21
TORSDOF 5
ENDMDL
MODEL 2
REMARK VINA RESULT: -6.837284703      3.413      7.052
REMARK  5 active torsions:
REMARK  status: ('A' for Active; 'I' for Inactive)
REMARK    1  A    between atoms: N1_1  and  C1_4 
REMARK    2  A    between atoms: C2_7  and  N3_8 
REMARK    3  A    between atoms: N3_8  and  C3_10 
REMARK    4  A    between atoms: C7_14  and  S1_15 
REMARK    5  A    between atoms: S1_15  and  C8_16 
ROOT
HETATM    1  C1  UNL     1     -25.280 -28.528   8.175  1.00  0.00     0.678 A 
HETATM    2  N2  UNL     1     -25.346 -29.869   8.155  1.00  0.00    -0.177 N 
ATOM      3  H2  UNL     1     -24.502 -30.409   8.346  1.00  0.00     0.185 HD
HETATM    4  C2  UNL     1     -26.487 -30.517   7.892  1.00  0.00     0.119 A 
HETATM    5  C6  UNL     1     -27.650 -29.826   7.627  1.00  0.00     0.086 A 
HETATM    6  C7  UNL     1     -27.578 -28.434   7.647  1.00  0.00     0.090 A 
HETATM    7  N4  UNL     1     -26.413 -27.837   7.916  1.00  0.00    -0.186 N 
ATOM      8  H4  UNL     1     -26.376 -26.817   7.927  1.00  0.00     0.185 HD
ENDROOT
BRANCH   6   9
HETATM    9  S1  UNL     1     -29.078 -27.552   7.308  1.00  0.00    -0.107 SA
BRANCH   9  10
HETATM   10  C8  UNL     1     -28.839 -26.563   5.803  1.00  0.00     0.054 C 
HETATM   11  C9  UNL     1     -28.313 -27.430   4.701  1.00  0.00     0.015 C 
HETATM   12  C10 UNL     1     -29.346 -27.541   3.573  1.00  0.00     0.001 C 
HETATM   13  C11 UNL     1     -30.655 -27.920   4.223  1.00  0.00     0.000 C 
HETATM   14  C12 UNL     1     -31.206 -26.715   4.965  1.00  0.00     0.001 C 
HETATM   15  C13 UNL     1     -30.102 -25.835   5.481  1.00  0.00     0.015 C 
ENDBRANCH   9  10
ENDBRANCH   6   9
BRANCH   4  16
HETATM   16  N3  UNL     1     -26.483 -31.943   7.887  1.00  0.00    -0.371 N 
ATOM     17  H3  UNL     1     -25.714 -32.438   7.436  1.00  0.00     0.161 HD
BRANCH  16  18
HETATM   18  C3  UNL     1     -27.537 -32.696   8.503  1.00  0.00     0.083 A 
HETATM   19  C4  UNL     1     -27.098 -33.758   9.504  1.00  0.00     0.027 A 
HETATM   20  C5  UNL     1     -27.747 -34.132   8.249  1.00  0.00     0.027 A 
ENDBRANCH  16  18
ENDBRANCH   4  16
BRANCH   1  21
HETATM   21  N1  UNL     1     -24.170 -27.933   8.431  1.00  0.00    -0.234 N 
ATOM     22  H12 UNL     1     -23.595 -28.196   9.232  1.00  0.00     0.174 HD
ATOM     23  H11 UNL     1     -23.839 -27.176   7.833  1.00  0.00     0.174 HD
ENDBRANCH   1  21
TORSDOF 5
ENDMDL
MODEL 3
REMARK VINA RESULT: -6.733217981      2.248      6.250
REMARK  5 active torsions:
REMARK  status: ('A' for Active; 'I' for Inactive)
REMARK    1  A    between atoms: N1_1  and  C1_4 
REMARK    2  A    between atoms: C2_7  and  N3_8 
REMARK    3  A    between atoms: N3_8  and  C3_10 
REMARK    4  A    between atoms: C7_14  and  S1_15 
REMARK    5  A    between atoms: S1_15  and  C8_16 
ROOT
HETATM    1  C1  UNL     1     -29.039 -26.878   7.819  1.00  0.00     0.678 A 
HETATM    2  N2  UNL     1     -28.081 -27.787   8.057  1.00  0.00    -0.177 N 
ATOM      3  H2  UNL     1     -27.840 -28.012   9.022  1.00  0.00     0.185 HD
HETATM    4  C2  UNL     1     -27.433 -28.407   7.062  1.00  0.00     0.119 A 
HETATM    5  C6  UNL     1     -27.726 -28.131   5.744  1.00  0.00     0.086 A 
HETATM    6  C7  UNL     1     -28.721 -27.186   5.501  1.00  0.00     0.090 A 
HETATM    7  N4  UNL     1     -29.338 -26.596   6.531  1.00  0.00    -0.186 N 
ATOM      8  H4  UNL     1     -30.064 -25.906   6.337  1.00  0.00     0.185 HD
ENDROOT
BRANCH   6   9
HETATM    9  S1  UNL     1     -29.094 -26.838   3.804  1.00  0.00    -0.107 SA
BRANCH   9  10
HETATM   10  C8  UNL     1     -28.175 -25.354   3.301  1.00  0.00     0.054 C 
HETATM   11  C9  UNL     1     -26.990 -25.161   4.197  1.00  0.00     0.015 C 
HETATM   12  C10 UNL     1     -25.689 -25.333   3.401  1.00  0.00     0.001 C 
HETATM   13  C11 UNL     1     -25.816 -26.633   2.645  1.00  0.00     0.000 C 
HETATM   14  C12 UNL     1     -26.799 -26.448   1.502  1.00  0.00     0.001 C 
HETATM   15  C13 UNL     1     -27.856 -25.436   1.845  1.00  0.00     0.015 C 
ENDBRANCH   9  10
ENDBRANCH   6   9
BRANCH   4  16
HETATM   16  N3  UNL     1     -26.425 -29.361   7.388  1.00  0.00    -0.371 N 
ATOM     17  H3  UNL     1     -25.458 -29.180   7.116  1.00  0.00     0.161 HD
BRANCH  16  18
HETATM   18  C3  UNL     1     -26.740 -30.571   8.092  1.00  0.00     0.083 A 
HETATM   19  C4  UNL     1     -25.555 -31.458   8.452  1.00  0.00     0.027 A 
HETATM   20  C5  UNL     1     -26.568 -31.908   7.498  1.00  0.00     0.027 A 
ENDBRANCH  16  18
ENDBRANCH   4  16
BRANCH   1  21
HETATM   21  N1  UNL     1     -29.646 -26.299   8.794  1.00  0.00    -0.234 N 
ATOM     22  H12 UNL     1     -29.391 -25.359   9.099  1.00  0.00     0.174 HD
ATOM     23  H11 UNL     1     -30.401 -26.773   9.288  1.00  0.00     0.174 HD
ENDBRANCH   1  21
TORSDOF 5
ENDMDL
MODEL 4
REMARK VINA RESULT: -6.720846829      3.608      7.215
REMARK  5 active torsions:
REMARK  status: ('A' for Active; 'I' for Inactive)
REMARK    1  A    between atoms: N1_1  and  C1_4 
REMARK    2  A    between atoms: C2_7  and  N3_8 
REMARK    3  A    between atoms: N3_8  and  C3_10 
REMARK    4  A    between atoms: C7_14  and  S1_15 
REMARK    5  A    between atoms: S1_15  and  C8_16 
ROOT
HETATM    1  C1  UNL     1     -25.257 -28.769   8.164  1.00  0.00     0.678 A 
HETATM    2  N2  UNL     1     -25.305 -30.111   8.182  1.00  0.00    -0.177 N 
ATOM      3  H2  UNL     1     -24.453 -30.634   8.380  1.00  0.00     0.185 HD
HETATM    4  C2  UNL     1     -26.440 -30.780   7.946  1.00  0.00     0.119 A 
HETATM    5  C6  UNL     1     -27.614 -30.111   7.671  1.00  0.00     0.086 A 
HETATM    6  C7  UNL     1     -27.560 -28.719   7.653  1.00  0.00     0.090 A 
HETATM    7  N4  UNL     1     -26.400 -28.099   7.896  1.00  0.00    -0.186 N 
ATOM      8  H4  UNL     1     -26.377 -27.079   7.879  1.00  0.00     0.185 HD
ENDROOT
BRANCH   6   9
HETATM    9  S1  UNL     1     -29.073 -27.865   7.302  1.00  0.00    -0.107 SA
BRANCH   9  10
HETATM   10  C8  UNL     1     -29.089 -27.415   5.542  1.00  0.00     0.054 C 
HETATM   11  C9  UNL     1     -30.502 -27.292   5.060  1.00  0.00     0.015 C 
HETATM   12  C10 UNL     1     -30.807 -25.840   4.673  1.00  0.00     0.001 C 
HETATM   13  C11 UNL     1     -30.367 -24.983   5.835  1.00  0.00     0.000 C 
HETATM   14  C12 UNL     1     -28.849 -24.931   5.866  1.00  0.00     0.001 C 
HETATM   15  C13 UNL     1     -28.246 -26.200   5.332  1.00  0.00     0.015 C 
ENDBRANCH   9  10
ENDBRANCH   6   9
BRANCH   4  16
HETATM   16  N3  UNL     1     -26.418 -32.205   7.979  1.00  0.00    -0.371 N 
ATOM     17  H3  UNL     1     -25.669 -32.704   7.497  1.00  0.00     0.161 HD
BRANCH  16  18
HETATM   18  C3  UNL     1     -27.424 -32.952   8.676  1.00  0.00     0.083 A 
HETATM   19  C4  UNL     1     -26.937 -34.192   9.418  1.00  0.00     0.027 A 
HETATM   20  C5  UNL     1     -27.837 -34.307   8.271  1.00  0.00     0.027 A 
ENDBRANCH  16  18
ENDBRANCH   4  16
BRANCH   1  21
HETATM   21  N1  UNL     1     -24.153 -28.152   8.395  1.00  0.00    -0.234 N 
ATOM     22  H12 UNL     1     -23.326 -28.301   7.816  1.00  0.00     0.174 HD
ATOM     23  H11 UNL     1     -24.079 -27.496   9.172  1.00  0.00     0.174 HD
ENDBRANCH   1  21
TORSDOF 5
ENDMDL
MODEL 5
REMARK VINA RESULT: -6.689653050      1.304      1.676
REMARK  5 active torsions:
REMARK  status: ('A' for Active; 'I' for Inactive)
REMARK    1  A    between atoms: N1_1  and  C1_4 
REMARK    2  A    between atoms: C2_7  and  N3_8 
REMARK    3  A    between atoms: N3_8  and  C3_10 
REMARK    4  A    between atoms: C7_14  and  S1_15 
REMARK    5  A    between atoms: S1_15  and  C8_16 
ROOT
HETATM    1  C1  UNL     1     -29.602 -25.634   5.475  1.00  0.00     0.678 A 
HETATM    2  N2  UNL     1     -29.354 -25.055   4.290  1.00  0.00    -0.177 N 
ATOM      3  H2  UNL     1     -30.011 -24.364   3.928  1.00  0.00     0.185 HD
HETATM    4  C2  UNL     1     -28.268 -25.360   3.569  1.00  0.00     0.119 A 
HETATM    5  C6  UNL     1     -27.355 -26.289   4.019  1.00  0.00     0.086 A 
HETATM    6  C7  UNL     1     -27.617 -26.888   5.250  1.00  0.00     0.090 A 
HETATM    7  N4  UNL     1     -28.716 -26.548   5.930  1.00  0.00    -0.186 N 
ATOM      8  H4  UNL     1     -28.894 -26.996   6.830  1.00  0.00     0.185 HD
ENDROOT
BRANCH   6   9
HETATM    9  S1  UNL     1     -26.438 -28.081   5.824  1.00  0.00    -0.107 SA
BRANCH   9  10
HETATM   10  C8  UNL     1     -26.975 -28.691   7.448  1.00  0.00     0.054 C 
HETATM   11  C9  UNL     1     -26.499 -30.098   7.647  1.00  0.00     0.015 C 
HETATM   12  C10 UNL     1     -25.476 -30.157   8.788  1.00  0.00     0.001 C 
HETATM   13  C11 UNL     1     -24.452 -29.085   8.505  1.00  0.00     0.000 C 
HETATM   14  C12 UNL     1     -25.071 -27.724   8.777  1.00  0.00     0.001 C 
HETATM   15  C13 UNL     1     -26.549 -27.729   8.507  1.00  0.00     0.015 C 
ENDBRANCH   9  10
ENDBRANCH   6   9
BRANCH   4  16
HETATM   16  N3  UNL     1     -28.068 -24.707   2.317  1.00  0.00    -0.371 N 
ATOM     17  H3  UNL     1     -27.748 -23.738   2.304  1.00  0.00     0.161 HD
BRANCH  16  18
HETATM   18  C3  UNL     1     -28.309 -25.382   1.075  1.00  0.00     0.083 A 
HETATM   19  C4  UNL     1     -27.136 -25.421   0.102  1.00  0.00     0.027 A 
HETATM   20  C5  UNL     1     -28.355 -24.681  -0.220  1.00  0.00     0.027 A 
ENDBRANCH  16  18
ENDBRANCH   4  16
BRANCH   1  21
HETATM   21  N1  UNL     1     -30.653 -25.321   6.147  1.00  0.00    -0.234 N 
ATOM     22  H12 UNL     1     -31.078 -24.396   6.075  1.00  0.00     0.174 HD
ATOM     23  H11 UNL     1     -31.088 -25.999   6.772  1.00  0.00     0.174 HD
ENDBRANCH   1  21
TORSDOF 5
ENDMDL
