MODEL 1
REMARK VINA RESULT: -4.356867080      0.000      0.000
REMARK  4 active torsions:
REMARK  status: ('A' for Active; 'I' for Inactive)
REMARK    1  A    between atoms: N1_1  and  C1_4 
REMARK    2  A    between atoms: C2_7  and  O1_8 
REMARK    3  A    between atoms: N2_10  and  C3_11 
REMARK    4  A    between atoms: C3_11  and  C4_12 
ROOT
HETATM    1  C1  UNL     1     -10.899  -2.138 -21.654  1.00  0.00     0.153 A 
HETATM    2  S1  UNL     1     -11.108  -0.954 -22.912  1.00  0.00    -0.013 SA
HETATM    3  S2  UNL     1     -13.009  -0.433 -22.291  1.00  0.00    -0.006 SA
HETATM    4  C2  UNL     1     -13.017  -1.528 -20.995  1.00  0.00     0.195 A 
HETATM    5  N2  UNL     1     -11.922  -2.274 -20.828  1.00  0.00    -0.301 N 
ENDROOT
BRANCH   1   6
HETATM    6  N1  UNL     1      -9.760  -2.824 -21.637  1.00  0.00    -0.379 N 
ATOM      7  H12 UNL     1      -8.920  -2.607 -21.101  1.00  0.00     0.158 HD
ATOM      8  H11 UNL     1      -9.712  -3.674 -22.198  1.00  0.00     0.158 HD
ENDBRANCH   1   6
BRANCH   5   9
HETATM    9  C3  UNL     1     -11.821  -3.223 -19.693  1.00  0.00     0.144 C 
BRANCH   9  10
HETATM   10  C4  UNL     1     -12.372  -4.564 -19.964  1.00  0.00     0.106 C 
HETATM   11  S3  UNL     1     -11.998  -5.797 -18.705  1.00  0.00    -0.096 SA
ENDBRANCH   9  10
ENDBRANCH   5   9
BRANCH   4  12
HETATM   12  O1  UNL     1     -14.079  -1.585 -20.238  1.00  0.00    -0.340 OA
ATOM     13  H1  UNL     1     -13.969  -1.805 -19.321  1.00  0.00     0.220 HD
ENDBRANCH   4  12
TORSDOF 4
ENDMDL
MODEL 2
REMARK VINA RESULT: -4.235399623      2.232      2.929
REMARK  4 active torsions:
REMARK  status: ('A' for Active; 'I' for Inactive)
REMARK    1  A    between atoms: N1_1  and  C1_4 
REMARK    2  A    between atoms: C2_7  and  O1_8 
REMARK    3  A    between atoms: N2_10  and  C3_11 
REMARK    4  A    between atoms: C3_11  and  C4_12 
ROOT
HETATM    1  C1  UNL     1     -11.382  -1.906 -21.593  1.00  0.00     0.153 A 
HETATM    2  S1  UNL     1     -10.755  -1.243 -23.075  1.00  0.00    -0.013 SA
HETATM    3  S2  UNL     1      -8.925  -2.182 -22.878  1.00  0.00    -0.006 SA
HETATM    4  C2  UNL     1      -9.332  -2.934 -21.412  1.00  0.00     0.195 A 
HETATM    5  N2  UNL     1     -10.555  -2.696 -20.932  1.00  0.00    -0.301 N 
ENDROOT
BRANCH   1   6
HETATM    6  N1  UNL     1     -12.611  -1.551 -21.232  1.00  0.00    -0.379 N 
ATOM      7  H12 UNL     1     -13.489  -1.882 -21.630  1.00  0.00     0.158 HD
ATOM      8  H11 UNL     1     -12.704  -0.893 -20.458  1.00  0.00     0.158 HD
ENDBRANCH   1   6
BRANCH   5   9
HETATM    9  C3  UNL     1     -11.014  -3.349 -19.682  1.00  0.00     0.144 C 
BRANCH   9  10
HETATM   10  C4  UNL     1     -11.990  -4.438 -19.882  1.00  0.00     0.106 C 
HETATM   11  S3  UNL     1     -11.935  -5.733 -18.631  1.00  0.00    -0.096 SA
ENDBRANCH   9  10
ENDBRANCH   5   9
BRANCH   4  12
HETATM   12  O1  UNL     1      -8.441  -3.696 -20.838  1.00  0.00    -0.340 OA
ATOM     13  H1  UNL     1      -8.168  -3.484 -19.954  1.00  0.00     0.220 HD
ENDBRANCH   4  12
TORSDOF 4
ENDMDL
MODEL 3
REMARK VINA RESULT: -4.233113466      4.380      5.853
REMARK  4 active torsions:
REMARK  status: ('A' for Active; 'I' for Inactive)
REMARK    1  A    between atoms: N1_1  and  C1_4 
REMARK    2  A    between atoms: C2_7  and  O1_8 
REMARK    3  A    between atoms: N2_10  and  C3_11 
REMARK    4  A    between atoms: C3_11  and  C4_12 
ROOT
HETATM    1  C1  UNL     1     -14.216   0.282 -21.391  1.00  0.00     0.153 A 
HETATM    2  S1  UNL     1     -13.019  -0.923 -21.768  1.00  0.00    -0.013 SA
HETATM    3  S2  UNL     1     -11.920   0.351 -22.968  1.00  0.00    -0.006 SA
HETATM    4  C2  UNL     1     -12.963   1.668 -22.734  1.00  0.00     0.195 A 
HETATM    5  N2  UNL     1     -14.022   1.466 -21.946  1.00  0.00    -0.301 N 
ENDROOT
BRANCH   1   6
HETATM    6  N1  UNL     1     -15.231  -0.081 -20.613  1.00  0.00    -0.379 N 
ATOM      7  H12 UNL     1     -16.090  -0.547 -20.902  1.00  0.00     0.158 HD
ATOM      8  H11 UNL     1     -15.147   0.098 -19.613  1.00  0.00     0.158 HD
ENDBRANCH   1   6
BRANCH   5   9
HETATM    9  C3  UNL     1     -14.961   2.574 -21.646  1.00  0.00     0.144 C 
BRANCH   9  10
HETATM   10  C4  UNL     1     -14.660   3.314 -20.406  1.00  0.00     0.106 C 
HETATM   11  S3  UNL     1     -16.033   3.423 -19.246  1.00  0.00    -0.096 SA
ENDBRANCH   9  10
ENDBRANCH   5   9
BRANCH   4  12
HETATM   12  O1  UNL     1     -12.681   2.795 -23.329  1.00  0.00    -0.340 OA
ATOM     13  H1  UNL     1     -12.591   3.576 -22.796  1.00  0.00     0.220 HD
ENDBRANCH   4  12
TORSDOF 4
ENDMDL
MODEL 4
REMARK VINA RESULT: -4.166483427      2.991      4.636
REMARK  4 active torsions:
REMARK  status: ('A' for Active; 'I' for Inactive)
REMARK    1  A    between atoms: N1_1  and  C1_4 
REMARK    2  A    between atoms: C2_7  and  O1_8 
REMARK    3  A    between atoms: N2_10  and  C3_11 
REMARK    4  A    between atoms: C3_11  and  C4_12 
ROOT
HETATM    1  C1  UNL     1     -11.549  -1.987 -21.611  1.00  0.00     0.153 A 
HETATM    2  S1  UNL     1     -12.366  -2.868 -20.352  1.00  0.00    -0.013 SA
HETATM    3  S2  UNL     1     -10.662  -3.884 -19.773  1.00  0.00    -0.006 SA
HETATM    4  C2  UNL     1      -9.675  -3.139 -20.935  1.00  0.00     0.195 A 
HETATM    5  N2  UNL     1     -10.260  -2.249 -21.740  1.00  0.00    -0.301 N 
ENDROOT
BRANCH   1   6
HETATM    6  N1  UNL     1     -12.276  -1.155 -22.351  1.00  0.00    -0.379 N 
ATOM      7  H12 UNL     1     -12.676  -1.342 -23.270  1.00  0.00     0.158 HD
ATOM      8  H11 UNL     1     -12.483  -0.235 -21.962  1.00  0.00     0.158 HD
ENDBRANCH   1   6
BRANCH   5   9
HETATM    9  C3  UNL     1      -9.465  -1.512 -22.753  1.00  0.00     0.144 C 
BRANCH   9  10
HETATM   10  C4  UNL     1      -9.335  -2.201 -24.051  1.00  0.00     0.106 C 
HETATM   11  S3  UNL     1      -7.647  -2.336 -24.663  1.00  0.00    -0.096 SA
ENDBRANCH   9  10
ENDBRANCH   5   9
BRANCH   4  12
HETATM   12  O1  UNL     1      -8.414  -3.469 -20.980  1.00  0.00    -0.340 OA
ATOM     13  H1  UNL     1      -7.811  -2.889 -21.431  1.00  0.00     0.220 HD
ENDBRANCH   4  12
TORSDOF 4
ENDMDL
MODEL 5
REMARK VINA RESULT: -4.135978329      1.888      3.758
REMARK  4 active torsions:
REMARK  status: ('A' for Active; 'I' for Inactive)
REMARK    1  A    between atoms: N1_1  and  C1_4 
REMARK    2  A    between atoms: C2_7  and  O1_8 
REMARK    3  A    between atoms: N2_10  and  C3_11 
REMARK    4  A    between atoms: C3_11  and  C4_12 
ROOT
HETATM    1  C1  UNL     1     -10.097  -2.373 -21.539  1.00  0.00     0.153 A 
HETATM    2  S1  UNL     1      -9.579  -3.419 -20.249  1.00  0.00    -0.013 SA
HETATM    3  S2  UNL     1     -11.494  -3.699 -19.526  1.00  0.00    -0.006 SA
HETATM    4  C2  UNL     1     -12.214  -2.711 -20.702  1.00  0.00     0.195 A 
HETATM    5  N2  UNL     1     -11.399  -2.149 -21.598  1.00  0.00    -0.301 N 
ENDROOT
BRANCH   1   6
HETATM    6  N1  UNL     1      -9.160  -1.865 -22.333  1.00  0.00    -0.379 N 
ATOM      7  H12 UNL     1      -8.163  -2.078 -22.321  1.00  0.00     0.158 HD
ATOM      8  H11 UNL     1      -9.458  -1.207 -23.053  1.00  0.00     0.158 HD
ENDBRANCH   1   6
BRANCH   5   9
HETATM    9  C3  UNL     1     -11.944  -1.310 -22.692  1.00  0.00     0.144 C 
BRANCH   9  10
HETATM   10  C4  UNL     1     -12.084   0.120 -22.357  1.00  0.00     0.106 C 
HETATM   11  S3  UNL     1     -13.785   0.697 -22.223  1.00  0.00    -0.096 SA
ENDBRANCH   9  10
ENDBRANCH   5   9
BRANCH   4  12
HETATM   12  O1  UNL     1     -13.509  -2.555 -20.672  1.00  0.00    -0.340 OA
ATOM     13  H1  UNL     1     -13.904  -1.941 -21.280  1.00  0.00     0.220 HD
ENDBRANCH   4  12
TORSDOF 4
ENDMDL
