MODEL 1
REMARK VINA RESULT: -6.181025320      0.000      0.000
REMARK  3 active torsions:
REMARK  status: ('A' for Active; 'I' for Inactive)
REMARK    1  A    between atoms: O1_1  and  C1_3 
REMARK    2  A    between atoms: C3_6  and  N1_7 
REMARK    3  A    between atoms: C6_14  and  O4_15 
ROOT
HETATM    1  C1  UNL     1      -7.886  -1.631 -23.196  1.00  0.00     0.175 C 
HETATM    2  C2  UNL     1      -8.454  -0.251 -22.973  1.00  0.00     0.205 C 
HETATM    3  O2  UNL     1      -9.762  -0.377 -22.603  1.00  0.00    -0.359 OA
HETATM    4  C3  UNL     1     -10.157  -1.681 -22.712  1.00  0.00     0.278 C 
HETATM    5  C6  UNL     1      -8.897  -2.460 -22.395  1.00  0.00     0.199 C 
ENDROOT
BRANCH   4   6
HETATM    6  N1  UNL     1     -11.167  -2.050 -21.700  1.00  0.00    -0.227 N 
HETATM    7  N2  UNL     1     -11.093  -3.016 -20.818  1.00  0.00    -0.283 N 
HETATM    8  C4  UNL     1     -12.212  -3.018 -20.089  1.00  0.00     0.253 A 
ATOM      9  H2  UNL     1     -10.310  -3.660 -20.706  1.00  0.00     0.188 HD
HETATM   10  O3  UNL     1     -12.953  -2.039 -20.548  1.00  0.00    -0.277 OA
HETATM   11  C5  UNL     1     -12.343  -1.430 -21.531  1.00  0.00     0.239 A 
HETATM   12  S1  UNL     1     -12.906  -0.144 -22.403  1.00  0.00    -0.031 SA
ENDBRANCH   4   6
BRANCH   5  13
HETATM   13  O4  UNL     1      -8.614  -2.254 -21.055  1.00  0.00    -0.388 OA
ATOM     14  H4  UNL     1      -7.756  -2.625 -20.893  1.00  0.00     0.210 HD
ENDBRANCH   5  13
BRANCH   1  15
HETATM   15  O1  UNL     1      -6.607  -1.754 -22.704  1.00  0.00    -0.391 OA
ATOM     16  H1  UNL     1      -6.016  -1.108 -23.072  1.00  0.00     0.210 HD
ENDBRANCH   1  15
TORSDOF 3
ENDMDL
MODEL 2
REMARK VINA RESULT: -5.857818002      2.060      2.675
REMARK  3 active torsions:
REMARK  status: ('A' for Active; 'I' for Inactive)
REMARK    1  A    between atoms: O1_1  and  C1_3 
REMARK    2  A    between atoms: C3_6  and  N1_7 
REMARK    3  A    between atoms: C6_14  and  O4_15 
ROOT
HETATM    1  C1  UNL     1      -8.202  -2.421 -23.083  1.00  0.00     0.175 C 
HETATM    2  C2  UNL     1      -8.531  -2.158 -24.532  1.00  0.00     0.205 C 
HETATM    3  O2  UNL     1      -9.784  -1.623 -24.600  1.00  0.00    -0.359 OA
HETATM    4  C3  UNL     1     -10.375  -1.651 -23.367  1.00  0.00     0.278 C 
HETATM    5  C6  UNL     1      -9.210  -1.480 -22.414  1.00  0.00     0.199 C 
ENDROOT
BRANCH   4   6
HETATM    6  N1  UNL     1     -11.289  -0.512 -23.154  1.00  0.00    -0.227 N 
HETATM    7  N2  UNL     1     -11.271   0.648 -23.764  1.00  0.00    -0.283 N 
HETATM    8  C4  UNL     1     -12.264   1.400 -23.284  1.00  0.00     0.253 A 
ATOM      9  H2  UNL     1     -10.607   0.929 -24.486  1.00  0.00     0.188 HD
HETATM   10  O3  UNL     1     -12.875   0.673 -22.382  1.00  0.00    -0.277 OA
HETATM   11  C5  UNL     1     -12.304  -0.498 -22.279  1.00  0.00     0.239 A 
HETATM   12  S1  UNL     1     -12.742  -1.731 -21.268  1.00  0.00    -0.031 SA
ENDBRANCH   4   6
BRANCH   5  13
HETATM   13  O4  UNL     1      -8.731  -0.191 -22.580  1.00  0.00    -0.388 OA
ATOM     14  H4  UNL     1      -9.418   0.398 -22.294  1.00  0.00     0.210 HD
ENDBRANCH   5  13
BRANCH   1  15
HETATM   15  O1  UNL     1      -6.902  -2.092 -22.775  1.00  0.00    -0.391 OA
ATOM     16  H1  UNL     1      -6.828  -1.217 -22.413  1.00  0.00     0.210 HD
ENDBRANCH   1  15
TORSDOF 3
ENDMDL
MODEL 3
REMARK VINA RESULT: -5.797477912      1.507      1.581
REMARK  3 active torsions:
REMARK  status: ('A' for Active; 'I' for Inactive)
REMARK    1  A    between atoms: O1_1  and  C1_3 
REMARK    2  A    between atoms: C3_6  and  N1_7 
REMARK    3  A    between atoms: C6_14  and  O4_15 
ROOT
HETATM    1  C1  UNL     1      -7.857  -1.601 -24.522  1.00  0.00     0.175 C 
HETATM    2  C2  UNL     1      -7.152  -1.227 -23.240  1.00  0.00     0.205 C 
HETATM    3  O2  UNL     1      -8.076  -1.183 -22.237  1.00  0.00    -0.359 OA
HETATM    4  C3  UNL     1      -9.334  -1.334 -22.749  1.00  0.00     0.278 C 
HETATM    5  C6  UNL     1      -9.123  -2.242 -23.943  1.00  0.00     0.199 C 
ENDROOT
BRANCH   4   6
HETATM    6  N1  UNL     1     -10.242  -2.033 -21.819  1.00  0.00    -0.227 N 
HETATM    7  N2  UNL     1      -9.931  -2.975 -20.962  1.00  0.00    -0.283 N 
HETATM    8  C4  UNL     1     -11.037  -3.343 -20.310  1.00  0.00     0.253 A 
ATOM      9  H2  UNL     1      -8.999  -3.361 -20.816  1.00  0.00     0.188 HD
HETATM   10  O3  UNL     1     -12.010  -2.608 -20.790  1.00  0.00    -0.277 OA
HETATM   11  C5  UNL     1     -11.557  -1.800 -21.711  1.00  0.00     0.239 A 
HETATM   12  S1  UNL     1     -12.430  -0.698 -22.582  1.00  0.00    -0.031 SA
ENDBRANCH   4   6
BRANCH   5  13
HETATM   13  O4  UNL     1      -8.758  -3.485 -23.452  1.00  0.00    -0.388 OA
ATOM     14  H4  UNL     1      -9.488  -3.803 -22.935  1.00  0.00     0.210 HD
ENDBRANCH   5  13
BRANCH   1  15
HETATM   15  O1  UNL     1      -7.125  -2.487 -25.279  1.00  0.00    -0.391 OA
ATOM     16  H1  UNL     1      -7.521  -2.647 -26.128  1.00  0.00     0.210 HD
ENDBRANCH   1  15
TORSDOF 3
ENDMDL
MODEL 4
REMARK VINA RESULT: -5.662244214      2.202      2.556
REMARK  3 active torsions:
REMARK  status: ('A' for Active; 'I' for Inactive)
REMARK    1  A    between atoms: O1_1  and  C1_3 
REMARK    2  A    between atoms: C3_6  and  N1_7 
REMARK    3  A    between atoms: C6_14  and  O4_15 
ROOT
HETATM    1  C1  UNL     1      -7.240  -0.716 -24.228  1.00  0.00     0.175 C 
HETATM    2  C2  UNL     1      -8.277  -0.799 -25.322  1.00  0.00     0.205 C 
HETATM    3  O2  UNL     1      -9.405  -1.369 -24.806  1.00  0.00    -0.359 OA
HETATM    4  C3  UNL     1      -9.167  -1.813 -23.535  1.00  0.00     0.278 C 
HETATM    5  C6  UNL     1      -8.151  -0.825 -23.000  1.00  0.00     0.199 C 
ENDROOT
BRANCH   4   6
HETATM    6  N1  UNL     1     -10.363  -1.724 -22.675  1.00  0.00    -0.227 N 
HETATM    7  N2  UNL     1     -11.438  -1.003 -22.879  1.00  0.00    -0.283 N 
HETATM    8  C4  UNL     1     -12.287  -1.203 -21.868  1.00  0.00     0.253 A 
ATOM      9  H2  UNL     1     -11.600  -0.391 -23.679  1.00  0.00     0.188 HD
HETATM   10  O3  UNL     1     -11.704  -2.053 -21.059  1.00  0.00    -0.277 OA
HETATM   11  C5  UNL     1     -10.530  -2.389 -21.524  1.00  0.00     0.239 A 
HETATM   12  S1  UNL     1      -9.450  -3.433 -20.832  1.00  0.00    -0.031 SA
ENDBRANCH   4   6
BRANCH   5  13
HETATM   13  O4  UNL     1      -8.797   0.393 -22.867  1.00  0.00    -0.388 OA
ATOM     14  H4  UNL     1      -9.637   0.219 -22.461  1.00  0.00     0.210 HD
ENDBRANCH   5  13
BRANCH   1  15
HETATM   15  O1  UNL     1      -6.547   0.472 -24.257  1.00  0.00    -0.391 OA
ATOM     16  H1  UNL     1      -6.158   0.642 -25.107  1.00  0.00     0.210 HD
ENDBRANCH   1  15
TORSDOF 3
ENDMDL
MODEL 5
REMARK VINA RESULT: -5.617538122      2.308      3.923
REMARK  3 active torsions:
REMARK  status: ('A' for Active; 'I' for Inactive)
REMARK    1  A    between atoms: O1_1  and  C1_3 
REMARK    2  A    between atoms: C3_6  and  N1_7 
REMARK    3  A    between atoms: C6_14  and  O4_15 
ROOT
HETATM    1  C1  UNL     1     -12.685   1.097 -23.626  1.00  0.00     0.175 C 
HETATM    2  C2  UNL     1     -13.336   0.814 -22.294  1.00  0.00     0.205 C 
HETATM    3  O2  UNL     1     -12.827  -0.353 -21.803  1.00  0.00    -0.359 OA
HETATM    4  C3  UNL     1     -12.029  -0.948 -22.740  1.00  0.00     0.278 C 
HETATM    5  C6  UNL     1     -11.432   0.224 -23.491  1.00  0.00     0.199 C 
ENDROOT
BRANCH   4   6
HETATM    6  N1  UNL     1     -10.911  -1.697 -22.134  1.00  0.00    -0.227 N 
HETATM    7  N2  UNL     1      -9.642  -1.632 -22.457  1.00  0.00    -0.283 N 
HETATM    8  C4  UNL     1      -8.956  -2.467 -21.672  1.00  0.00     0.253 A 
ATOM      9  H2  UNL     1      -9.244  -1.042 -23.188  1.00  0.00     0.188 HD
HETATM   10  O3  UNL     1      -9.832  -3.028 -20.876  1.00  0.00    -0.277 OA
HETATM   11  C5  UNL     1     -11.033  -2.579 -21.133  1.00  0.00     0.239 A 
HETATM   12  S1  UNL     1     -12.438  -3.011 -20.375  1.00  0.00    -0.031 SA
ENDBRANCH   4   6
BRANCH   5  13
HETATM   13  O4  UNL     1     -10.577   0.878 -22.618  1.00  0.00    -0.388 OA
ATOM     14  H4  UNL     1     -11.038   0.964 -21.792  1.00  0.00     0.210 HD
ENDBRANCH   5  13
BRANCH   1  15
HETATM   15  O1  UNL     1     -12.376   2.428 -23.784  1.00  0.00    -0.391 OA
ATOM     16  H1  UNL     1     -13.086   2.997 -23.508  1.00  0.00     0.210 HD
ENDBRANCH   1  15
TORSDOF 3
ENDMDL
