MODEL 1
REMARK VINA RESULT: -4.293991184      0.000      0.000
REMARK  3 active torsions:
REMARK  status: ('A' for Active; 'I' for Inactive)
REMARK    1  A    between atoms: C2_7  and  O2_8 
REMARK    2  A    between atoms: C2_7  and  C3_10 
REMARK    3  A    between atoms: C3_10  and  O3_11 
ROOT
HETATM    1  O1  UNL     1      -9.664  -0.083 -22.632  1.00  0.00    -0.280 OA
HETATM    2  C1  UNL     1      -8.780  -0.455 -23.374  1.00  0.00     0.245 C 
HETATM    3  S1  UNL     1      -8.299   0.645 -24.690  1.00  0.00    -0.003 SA
HETATM    4  S2  UNL     1      -6.256   0.242 -25.185  1.00  0.00    -0.005 SA
HETATM    5  S3  UNL     1      -6.160  -1.857 -25.572  1.00  0.00    -0.009 SA
HETATM    6  S4  UNL     1      -7.928  -2.684 -24.711  1.00  0.00    -0.036 SA
HETATM    7  C2  UNL     1      -8.172  -1.779 -23.133  1.00  0.00     0.210 C 
ENDROOT
BRANCH   7   8
HETATM    8  O2  UNL     1      -6.932  -1.591 -22.530  1.00  0.00    -0.369 OA
ATOM      9  H2  UNL     1      -6.312  -1.324 -23.198  1.00  0.00     0.212 HD
ENDBRANCH   7   8
BRANCH   7  10
HETATM   10  C3  UNL     1      -9.017  -2.640 -22.259  1.00  0.00     0.223 C 
BRANCH  10  11
HETATM   11  O3  UNL     1      -8.789  -2.315 -20.919  1.00  0.00    -0.397 OA
ATOM     12  H3  UNL     1      -8.499  -3.088 -20.448  1.00  0.00     0.209 HD
ENDBRANCH  10  11
ENDBRANCH   7  10
TORSDOF 3
ENDMDL
MODEL 2
REMARK VINA RESULT: -4.235642022      1.236      1.415
REMARK  3 active torsions:
REMARK  status: ('A' for Active; 'I' for Inactive)
REMARK    1  A    between atoms: C2_7  and  O2_8 
REMARK    2  A    between atoms: C2_7  and  C3_10 
REMARK    3  A    between atoms: C3_10  and  O3_11 
ROOT
HETATM    1  O1  UNL     1     -10.902  -1.209 -21.899  1.00  0.00    -0.280 OA
HETATM    2  C1  UNL     1     -10.013  -1.147 -22.721  1.00  0.00     0.245 C 
HETATM    3  S1  UNL     1     -10.219   0.006 -24.063  1.00  0.00    -0.003 SA
HETATM    4  S2  UNL     1      -8.276   0.594 -24.743  1.00  0.00    -0.005 SA
HETATM    5  S3  UNL     1      -7.237  -1.225 -25.160  1.00  0.00    -0.009 SA
HETATM    6  S4  UNL     1      -8.328  -2.757 -24.153  1.00  0.00    -0.036 SA
HETATM    7  C2  UNL     1      -8.836  -2.022 -22.550  1.00  0.00     0.210 C 
ENDROOT
BRANCH   7   8
HETATM    8  O2  UNL     1      -7.785  -1.254 -22.058  1.00  0.00    -0.369 OA
ATOM      9  H2  UNL     1      -6.974  -1.588 -22.421  1.00  0.00     0.212 HD
ENDBRANCH   7   8
BRANCH   7  10
HETATM   10  C3  UNL     1      -9.099  -3.150 -21.613  1.00  0.00     0.223 C 
BRANCH  10  11
HETATM   11  O3  UNL     1      -8.957  -2.708 -20.295  1.00  0.00    -0.397 OA
ATOM     12  H3  UNL     1      -8.693  -3.434 -19.742  1.00  0.00     0.209 HD
ENDBRANCH  10  11
ENDBRANCH   7  10
TORSDOF 3
ENDMDL
MODEL 3
REMARK VINA RESULT: -4.114964871      2.113      2.634
REMARK  3 active torsions:
REMARK  status: ('A' for Active; 'I' for Inactive)
REMARK    1  A    between atoms: C2_7  and  O2_8 
REMARK    2  A    between atoms: C2_7  and  C3_10 
REMARK    3  A    between atoms: C3_10  and  O3_11 
ROOT
HETATM    1  O1  UNL     1     -10.471   1.133 -25.366  1.00  0.00    -0.280 OA
HETATM    2  C1  UNL     1      -9.532   0.472 -24.977  1.00  0.00     0.245 C 
HETATM    3  S1  UNL     1      -8.129   0.327 -26.065  1.00  0.00    -0.003 SA
HETATM    4  S2  UNL     1      -6.387  -0.009 -24.867  1.00  0.00    -0.005 SA
HETATM    5  S3  UNL     1      -6.852  -1.689 -23.632  1.00  0.00    -0.009 SA
HETATM    6  S4  UNL     1      -8.977  -1.876 -23.689  1.00  0.00    -0.036 SA
HETATM    7  C2  UNL     1      -9.620  -0.157 -23.645  1.00  0.00     0.210 C 
ENDROOT
BRANCH   7   8
HETATM    8  O2  UNL     1      -8.848   0.585 -22.756  1.00  0.00    -0.369 OA
ATOM      9  H2  UNL     1      -9.161   0.419 -21.876  1.00  0.00     0.212 HD
ENDBRANCH   7   8
BRANCH   7  10
HETATM   10  C3  UNL     1     -11.019  -0.224 -23.141  1.00  0.00     0.223 C 
BRANCH  10  11
HETATM   11  O3  UNL     1     -11.479   1.065 -22.858  1.00  0.00    -0.397 OA
ATOM     12  H3  UNL     1     -12.429   1.070 -22.851  1.00  0.00     0.209 HD
ENDBRANCH  10  11
ENDBRANCH   7  10
TORSDOF 3
ENDMDL
MODEL 4
REMARK VINA RESULT: -3.975064788      1.359      1.599
REMARK  3 active torsions:
REMARK  status: ('A' for Active; 'I' for Inactive)
REMARK    1  A    between atoms: C2_7  and  O2_8 
REMARK    2  A    between atoms: C2_7  and  C3_10 
REMARK    3  A    between atoms: C3_10  and  O3_11 
ROOT
HETATM    1  O1  UNL     1      -7.211  -0.121 -22.051  1.00  0.00    -0.280 OA
HETATM    2  C1  UNL     1      -7.373  -0.661 -23.124  1.00  0.00     0.245 C 
HETATM    3  S1  UNL     1      -6.658   0.129 -24.552  1.00  0.00    -0.003 SA
HETATM    4  S2  UNL     1      -6.258  -1.378 -26.019  1.00  0.00    -0.005 SA
HETATM    5  S3  UNL     1      -8.102  -2.421 -26.291  1.00  0.00    -0.009 SA
HETATM    6  S4  UNL     1      -9.298  -1.932 -24.593  1.00  0.00    -0.036 SA
HETATM    7  C2  UNL     1      -8.141  -1.921 -23.168  1.00  0.00     0.210 C 
ENDROOT
BRANCH   7   8
HETATM    8  O2  UNL     1      -7.246  -2.976 -23.311  1.00  0.00    -0.369 OA
ATOM      9  H2  UNL     1      -7.522  -3.504 -24.052  1.00  0.00     0.212 HD
ENDBRANCH   7   8
BRANCH   7  10
HETATM   10  C3  UNL     1      -8.956  -2.131 -21.940  1.00  0.00     0.223 C 
BRANCH  10  11
HETATM   11  O3  UNL     1      -8.277  -2.985 -21.066  1.00  0.00    -0.397 OA
ATOM     12  H3  UNL     1      -8.136  -2.546 -20.236  1.00  0.00     0.209 HD
ENDBRANCH  10  11
ENDBRANCH   7  10
TORSDOF 3
ENDMDL
MODEL 5
REMARK VINA RESULT: -3.893370188      1.420      1.657
REMARK  3 active torsions:
REMARK  status: ('A' for Active; 'I' for Inactive)
REMARK    1  A    between atoms: C2_7  and  O2_8 
REMARK    2  A    between atoms: C2_7  and  C3_10 
REMARK    3  A    between atoms: C3_10  and  O3_11 
ROOT
HETATM    1  O1  UNL     1     -10.530   0.625 -24.573  1.00  0.00    -0.280 OA
HETATM    2  C1  UNL     1      -9.473   0.033 -24.602  1.00  0.00     0.245 C 
HETATM    3  S1  UNL     1      -8.243   0.614 -25.752  1.00  0.00    -0.003 SA
HETATM    4  S2  UNL     1      -6.313   0.099 -24.984  1.00  0.00    -0.005 SA
HETATM    5  S3  UNL     1      -6.387  -2.001 -24.599  1.00  0.00    -0.009 SA
HETATM    6  S4  UNL     1      -8.459  -2.507 -24.555  1.00  0.00    -0.036 SA
HETATM    7  C2  UNL     1      -9.283  -1.114 -23.691  1.00  0.00     0.210 C 
ENDROOT
BRANCH   7   8
HETATM    8  O2  UNL     1      -8.478  -0.705 -22.632  1.00  0.00    -0.369 OA
ATOM      9  H2  UNL     1      -8.363  -1.441 -22.042  1.00  0.00     0.212 HD
ENDBRANCH   7   8
BRANCH   7  10
HETATM   10  C3  UNL     1     -10.573  -1.631 -23.155  1.00  0.00     0.223 C 
BRANCH  10  11
HETATM   11  O3  UNL     1     -10.977  -0.850 -22.069  1.00  0.00    -0.397 OA
ATOM     12  H3  UNL     1     -11.848  -0.506 -22.228  1.00  0.00     0.209 HD
ENDBRANCH  10  11
ENDBRANCH   7  10
TORSDOF 3
ENDMDL
