MODEL 1
REMARK VINA RESULT: -4.598564607      0.000      0.000
REMARK  4 active torsions:
REMARK  status: ('A' for Active; 'I' for Inactive)
REMARK    1  A    between atoms: C2_2  and  C3_3 
REMARK    2  A    between atoms: C3_3  and  C4_4 
REMARK    3  A    between atoms: C9_9  and  C11_11 
REMARK    4  A    between atoms: C11_11  and  O1_13 
ROOT
HETATM    1  C4  UNL     1      24.605  41.047  16.489  1.00  0.00    -0.003 C 
HETATM    2  C5  UNL     1      25.746  40.291  17.128  1.00  0.00     0.005 C 
HETATM    3  C6  UNL     1      27.007  41.075  16.696  1.00  0.00     0.000 C 
HETATM    4  C7  UNL     1      26.919  42.373  17.470  1.00  0.00     0.001 C 
HETATM    5  C8  UNL     1      25.651  43.107  17.246  1.00  0.00     0.013 C 
HETATM    6  C9  UNL     1      24.388  42.287  17.295  1.00  0.00     0.001 C 
HETATM    7  C10 UNL     1      24.095  41.964  18.752  1.00  0.00     0.019 C 
ENDROOT
BRANCH   6   8
HETATM    8  C11 UNL     1      23.267  43.177  16.818  1.00  0.00     0.120 C 
HETATM    9  C12 UNL     1      21.977  42.680  17.487  1.00  0.00     0.059 C 
HETATM   10  S1  UNL     1      23.472  44.907  17.224  1.00  0.00    -0.056 SA
BRANCH   8  11
HETATM   11  O1  UNL     1      23.054  42.938  15.454  1.00  0.00    -0.378 OA
ATOM     12  H1  UNL     1      23.024  43.773  15.001  1.00  0.00     0.211 HD
ENDBRANCH   8  11
ENDBRANCH   6   8
BRANCH   1  13
HETATM   13  C3  UNL     1      23.462  40.160  16.241  1.00  0.00     0.005 C 
BRANCH  13  14
HETATM   14  C2  UNL     1      23.708  38.804  16.865  1.00  0.00    -0.004 C 
HETATM   15  C1  UNL     1      22.590  38.449  17.843  1.00  0.00     0.005 C 
ENDBRANCH  13  14
ENDBRANCH   1  13
TORSDOF 4
ENDMDL
MODEL 2
REMARK VINA RESULT: -4.544939787      1.843      3.351
REMARK  4 active torsions:
REMARK  status: ('A' for Active; 'I' for Inactive)
REMARK    1  A    between atoms: C2_2  and  C3_3 
REMARK    2  A    between atoms: C3_3  and  C4_4 
REMARK    3  A    between atoms: C9_9  and  C11_11 
REMARK    4  A    between atoms: C11_11  and  O1_13 
ROOT
HETATM    1  C4  UNL     1      24.684  42.210  18.416  1.00  0.00    -0.003 C 
HETATM    2  C5  UNL     1      26.084  42.777  18.448  1.00  0.00     0.005 C 
HETATM    3  C6  UNL     1      26.985  41.540  18.675  1.00  0.00     0.000 C 
HETATM    4  C7  UNL     1      26.903  40.779  17.369  1.00  0.00     0.001 C 
HETATM    5  C8  UNL     1      25.517  40.443  16.969  1.00  0.00     0.013 C 
HETATM    6  C9  UNL     1      24.502  41.552  17.087  1.00  0.00     0.001 C 
HETATM    7  C10 UNL     1      24.736  42.525  15.942  1.00  0.00     0.019 C 
ENDROOT
BRANCH   6   8
HETATM    8  C11 UNL     1      23.146  40.933  16.855  1.00  0.00     0.120 C 
HETATM    9  C12 UNL     1      23.349  39.728  15.926  1.00  0.00     0.059 C 
HETATM   10  S1  UNL     1      22.332  40.357  18.340  1.00  0.00    -0.056 SA
BRANCH   8  11
HETATM   11  O1  UNL     1      22.372  41.820  16.095  1.00  0.00    -0.378 OA
ATOM     12  H1  UNL     1      21.711  42.205  16.659  1.00  0.00     0.211 HD
ENDBRANCH   8  11
ENDBRANCH   6   8
BRANCH   1  13
HETATM   13  C3  UNL     1      23.703  43.215  18.842  1.00  0.00     0.005 C 
BRANCH  13  14
HETATM   14  C2  UNL     1      23.888  43.538  20.308  1.00  0.00    -0.004 C 
HETATM   15  C1  UNL     1      23.874  42.263  21.149  1.00  0.00     0.005 C 
ENDBRANCH  13  14
ENDBRANCH   1  13
TORSDOF 4
ENDMDL
MODEL 3
REMARK VINA RESULT: -4.543368648      1.773      3.571
REMARK  4 active torsions:
REMARK  status: ('A' for Active; 'I' for Inactive)
REMARK    1  A    between atoms: C2_2  and  C3_3 
REMARK    2  A    between atoms: C3_3  and  C4_4 
REMARK    3  A    between atoms: C9_9  and  C11_11 
REMARK    4  A    between atoms: C11_11  and  O1_13 
ROOT
HETATM    1  C4  UNL     1      23.899  40.817  17.423  1.00  0.00    -0.003 C 
HETATM    2  C5  UNL     1      23.545  39.676  16.499  1.00  0.00     0.005 C 
HETATM    3  C6  UNL     1      23.161  38.523  17.455  1.00  0.00     0.000 C 
HETATM    4  C7  UNL     1      21.841  38.962  18.053  1.00  0.00     0.001 C 
HETATM    5  C8  UNL     1      21.907  40.288  18.711  1.00  0.00     0.013 C 
HETATM    6  C9  UNL     1      22.617  41.377  17.949  1.00  0.00     0.001 C 
HETATM    7  C10 UNL     1      21.702  41.835  16.824  1.00  0.00     0.019 C 
ENDROOT
BRANCH   6   8
HETATM    8  C11 UNL     1      22.763  42.548  18.888  1.00  0.00     0.120 C 
HETATM    9  C12 UNL     1      21.441  42.683  19.657  1.00  0.00     0.059 C 
HETATM   10  S1  UNL     1      24.084  42.378  20.082  1.00  0.00    -0.056 SA
BRANCH   8  11
HETATM   11  O1  UNL     1      22.836  43.725  18.131  1.00  0.00    -0.378 OA
ATOM     12  H1  UNL     1      23.684  44.128  18.276  1.00  0.00     0.211 HD
ENDBRANCH   8  11
ENDBRANCH   6   8
BRANCH   1  13
HETATM   13  C3  UNL     1      24.855  41.730  16.785  1.00  0.00     0.005 C 
BRANCH  13  14
HETATM   14  C2  UNL     1      26.197  41.051  16.621  1.00  0.00    -0.004 C 
HETATM   15  C1  UNL     1      26.931  40.974  17.958  1.00  0.00     0.005 C 
ENDBRANCH  13  14
ENDBRANCH   1  13
TORSDOF 4
ENDMDL
MODEL 4
REMARK VINA RESULT: -4.486479652      1.922      3.152
REMARK  4 active torsions:
REMARK  status: ('A' for Active; 'I' for Inactive)
REMARK    1  A    between atoms: C2_2  and  C3_3 
REMARK    2  A    between atoms: C3_3  and  C4_4 
REMARK    3  A    between atoms: C9_9  and  C11_11 
REMARK    4  A    between atoms: C11_11  and  O1_13 
ROOT
HETATM    1  C4  UNL     1      23.125  40.285  17.663  1.00  0.00    -0.003 C 
HETATM    2  C5  UNL     1      21.806  40.303  18.399  1.00  0.00     0.005 C 
HETATM    3  C6  UNL     1      22.167  40.837  19.805  1.00  0.00     0.000 C 
HETATM    4  C7  UNL     1      22.504  42.294  19.573  1.00  0.00     0.001 C 
HETATM    5  C8  UNL     1      23.569  42.499  18.563  1.00  0.00     0.013 C 
HETATM    6  C9  UNL     1      23.447  41.696  17.293  1.00  0.00     0.001 C 
HETATM    7  C10 UNL     1      22.347  42.320  16.449  1.00  0.00     0.019 C 
ENDROOT
BRANCH   6   8
HETATM    8  C11 UNL     1      24.735  41.884  16.529  1.00  0.00     0.120 C 
HETATM    9  C12 UNL     1      25.010  43.393  16.466  1.00  0.00     0.059 C 
HETATM   10  S1  UNL     1      26.157  41.091  17.271  1.00  0.00    -0.056 SA
BRANCH   8  11
HETATM   11  O1  UNL     1      24.520  41.522  15.193  1.00  0.00    -0.378 OA
ATOM     12  H1  UNL     1      25.213  41.898  14.662  1.00  0.00     0.211 HD
ENDBRANCH   8  11
ENDBRANCH   6   8
BRANCH   1  13
HETATM   13  C3  UNL     1      23.121  39.265  16.607  1.00  0.00     0.005 C 
BRANCH  13  14
HETATM   14  C2  UNL     1      24.036  38.120  16.983  1.00  0.00    -0.004 C 
HETATM   15  C1  UNL     1      23.301  37.107  17.858  1.00  0.00     0.005 C 
ENDBRANCH  13  14
ENDBRANCH   1  13
TORSDOF 4
ENDMDL
MODEL 5
REMARK VINA RESULT: -4.460190898      0.980      1.075
REMARK  4 active torsions:
REMARK  status: ('A' for Active; 'I' for Inactive)
REMARK    1  A    between atoms: C2_2  and  C3_3 
REMARK    2  A    between atoms: C3_3  and  C4_4 
REMARK    3  A    between atoms: C9_9  and  C11_11 
REMARK    4  A    between atoms: C11_11  and  O1_13 
ROOT
HETATM    1  C4  UNL     1      24.566  41.306  16.565  1.00  0.00    -0.003 C 
HETATM    2  C5  UNL     1      25.617  40.371  17.115  1.00  0.00     0.005 C 
HETATM    3  C6  UNL     1      26.954  41.085  16.808  1.00  0.00     0.000 C 
HETATM    4  C7  UNL     1      26.962  42.274  17.745  1.00  0.00     0.001 C 
HETATM    5  C8  UNL     1      25.772  43.145  17.601  1.00  0.00     0.013 C 
HETATM    6  C9  UNL     1      24.439  42.445  17.524  1.00  0.00     0.001 C 
HETATM    7  C10 UNL     1      24.080  41.965  18.921  1.00  0.00     0.019 C 
ENDROOT
BRANCH   6   8
HETATM    8  C11 UNL     1      23.416  43.489  17.151  1.00  0.00     0.120 C 
HETATM    9  C12 UNL     1      23.549  44.637  18.162  1.00  0.00     0.059 C 
HETATM   10  S1  UNL     1      23.617  44.170  15.509  1.00  0.00    -0.056 SA
BRANCH   8  11
HETATM   11  O1  UNL     1      22.137  42.970  17.394  1.00  0.00    -0.378 OA
ATOM     12  H1  UNL     1      21.883  43.191  18.283  1.00  0.00     0.211 HD
ENDBRANCH   8  11
ENDBRANCH   6   8
BRANCH   1  13
HETATM   13  C3  UNL     1      23.355  40.568  16.186  1.00  0.00     0.005 C 
BRANCH  13  14
HETATM   14  C2  UNL     1      23.450  39.132  16.652  1.00  0.00    -0.004 C 
HETATM   15  C1  UNL     1      22.341  38.814  17.652  1.00  0.00     0.005 C 
ENDBRANCH  13  14
ENDBRANCH   1  13
TORSDOF 4
ENDMDL
