MODEL 1
REMARK VINA RESULT: -6.406957930      0.000      0.000
REMARK  7 active torsions:
REMARK  status: ('A' for Active; 'I' for Inactive)
REMARK    1  A    between atoms: C2_2  and  C3_3 
REMARK    2  A    between atoms: C3_3  and  C4_4 
REMARK    3  A    between atoms: C4_4  and  C5_5 
REMARK    4  A    between atoms: C5_5  and  C6_6 
REMARK    5  A    between atoms: C6_6  and  C7_7 
REMARK    6  A    between atoms: C7_7  and  C8_8 
REMARK    7  A    between atoms: C8_8  and  C10_10 
ROOT
HETATM    1  C8  UNL     1      23.938  36.030  18.114  1.00  0.00     0.042 C 
HETATM    2  C9  UNL     1      24.232  36.147  19.613  1.00  0.00     0.017 C 
ENDROOT
BRANCH   1   3
HETATM    3  C7  UNL     1      23.044  34.875  17.823  1.00  0.00     0.011 C 
BRANCH   3   4
HETATM    4  C6  UNL     1      22.426  34.277  19.055  1.00  0.00     0.001 C 
BRANCH   4   5
HETATM    5  C5  UNL     1      22.621  32.799  19.185  1.00  0.00     0.000 C 
BRANCH   5   6
HETATM    6  C4  UNL     1      24.017  32.365  18.802  1.00  0.00     0.000 C 
BRANCH   6   7
HETATM    7  C3  UNL     1      24.182  30.859  18.818  1.00  0.00    -0.000 C 
BRANCH   7   8
HETATM    8  C2  UNL     1      22.946  30.316  19.547  1.00  0.00    -0.005 C 
HETATM    9  C1  UNL     1      22.908  28.821  19.549  1.00  0.00     0.005 C 
ENDBRANCH   7   8
ENDBRANCH   6   7
ENDBRANCH   5   6
ENDBRANCH   4   5
ENDBRANCH   3   4
ENDBRANCH   1   3
BRANCH   1  10
HETATM   10  C10 UNL     1      23.326  37.324  17.718  1.00  0.00     0.103 C 
HETATM   11  C11 UNL     1      23.894  38.294  17.064  1.00  0.00     0.190 C 
HETATM   12  F1  UNL     1      25.118  38.386  16.596  1.00  0.00    -0.196 F 
HETATM   13  S1  UNL     1      22.688  39.596  16.875  1.00  0.00     0.012 SA
HETATM   14  C12 UNL     1      21.589  38.858  18.157  1.00  0.00     0.421 C 
HETATM   15  F2  UNL     1      20.270  38.994  17.795  1.00  0.00    -0.164 F 
HETATM   16  F3  UNL     1      21.891  39.495  19.333  1.00  0.00    -0.164 F 
HETATM   17  O1  UNL     1      22.020  37.555  18.061  1.00  0.00    -0.275 OA
ENDBRANCH   1  10
TORSDOF 7
ENDMDL
MODEL 2
REMARK VINA RESULT: -6.389229877      1.754      2.656
REMARK  7 active torsions:
REMARK  status: ('A' for Active; 'I' for Inactive)
REMARK    1  A    between atoms: C2_2  and  C3_3 
REMARK    2  A    between atoms: C3_3  and  C4_4 
REMARK    3  A    between atoms: C4_4  and  C5_5 
REMARK    4  A    between atoms: C5_5  and  C6_6 
REMARK    5  A    between atoms: C6_6  and  C7_7 
REMARK    6  A    between atoms: C7_7  and  C8_8 
REMARK    7  A    between atoms: C8_8  and  C10_10 
ROOT
HETATM    1  C8  UNL     1      23.451  34.524  17.575  1.00  0.00     0.042 C 
HETATM    2  C9  UNL     1      24.690  34.368  16.688  1.00  0.00     0.017 C 
ENDROOT
BRANCH   1   3
HETATM    3  C7  UNL     1      23.634  33.846  18.889  1.00  0.00     0.011 C 
BRANCH   3   4
HETATM    4  C6  UNL     1      22.475  32.973  19.274  1.00  0.00     0.001 C 
BRANCH   4   5
HETATM    5  C5  UNL     1      22.868  31.677  19.911  1.00  0.00     0.000 C 
BRANCH   5   6
HETATM    6  C4  UNL     1      23.755  30.840  19.018  1.00  0.00     0.000 C 
BRANCH   6   7
HETATM    7  C3  UNL     1      23.512  29.354  19.184  1.00  0.00    -0.000 C 
BRANCH   7   8
HETATM    8  C2  UNL     1      22.231  29.236  20.020  1.00  0.00    -0.005 C 
HETATM    9  C1  UNL     1      22.184  27.960  20.798  1.00  0.00     0.005 C 
ENDBRANCH   7   8
ENDBRANCH   6   7
ENDBRANCH   5   6
ENDBRANCH   4   5
ENDBRANCH   3   4
ENDBRANCH   1   3
BRANCH   1  10
HETATM   10  C10 UNL     1      23.238  35.986  17.724  1.00  0.00     0.103 C 
HETATM   11  C11 UNL     1      22.245  36.578  18.319  1.00  0.00     0.190 C 
HETATM   12  F1  UNL     1      21.200  36.060  18.925  1.00  0.00    -0.196 F 
HETATM   13  S1  UNL     1      22.510  38.338  18.188  1.00  0.00     0.012 SA
HETATM   14  C12 UNL     1      23.788  38.117  16.878  1.00  0.00     0.421 C 
HETATM   15  F2  UNL     1      24.811  39.020  17.048  1.00  0.00    -0.164 F 
HETATM   16  F3  UNL     1      23.137  38.264  15.681  1.00  0.00    -0.164 F 
HETATM   17  O1  UNL     1      24.172  36.834  17.191  1.00  0.00    -0.275 OA
ENDBRANCH   1  10
TORSDOF 7
ENDMDL
MODEL 3
REMARK VINA RESULT: -6.309501458      1.273      2.153
REMARK  7 active torsions:
REMARK  status: ('A' for Active; 'I' for Inactive)
REMARK    1  A    between atoms: C2_2  and  C3_3 
REMARK    2  A    between atoms: C3_3  and  C4_4 
REMARK    3  A    between atoms: C4_4  and  C5_5 
REMARK    4  A    between atoms: C5_5  and  C6_6 
REMARK    5  A    between atoms: C6_6  and  C7_7 
REMARK    6  A    between atoms: C7_7  and  C8_8 
REMARK    7  A    between atoms: C8_8  and  C10_10 
ROOT
HETATM    1  C8  UNL     1      23.955  35.831  18.102  1.00  0.00     0.042 C 
HETATM    2  C9  UNL     1      24.328  35.912  19.586  1.00  0.00     0.017 C 
ENDROOT
BRANCH   1   3
HETATM    3  C7  UNL     1      23.031  34.693  17.836  1.00  0.00     0.011 C 
BRANCH   3   4
HETATM    4  C6  UNL     1      22.447  34.097  19.084  1.00  0.00     0.001 C 
BRANCH   4   5
HETATM    5  C5  UNL     1      22.672  32.625  19.226  1.00  0.00     0.000 C 
BRANCH   5   6
HETATM    6  C4  UNL     1      24.048  32.204  18.765  1.00  0.00     0.000 C 
BRANCH   6   7
HETATM    7  C3  UNL     1      24.234  30.701  18.783  1.00  0.00    -0.000 C 
BRANCH   7   8
HETATM    8  C2  UNL     1      23.014  30.143  19.529  1.00  0.00    -0.005 C 
HETATM    9  C1  UNL     1      22.967  28.649  19.489  1.00  0.00     0.005 C 
ENDBRANCH   7   8
ENDBRANCH   6   7
ENDBRANCH   5   6
ENDBRANCH   4   5
ENDBRANCH   3   4
ENDBRANCH   1   3
BRANCH   1  10
HETATM   10  C10 UNL     1      23.342  37.140  17.764  1.00  0.00     0.103 C 
HETATM   11  C11 UNL     1      22.166  37.570  18.114  1.00  0.00     0.190 C 
HETATM   12  F1  UNL     1      21.238  36.982  18.835  1.00  0.00    -0.196 F 
HETATM   13  S1  UNL     1      21.961  39.203  17.424  1.00  0.00     0.012 SA
HETATM   14  C12 UNL     1      23.390  38.975  16.283  1.00  0.00     0.421 C 
HETATM   15  F2  UNL     1      24.107  40.143  16.171  1.00  0.00    -0.164 F 
HETATM   16  F3  UNL     1      22.863  38.552  15.090  1.00  0.00    -0.164 F 
HETATM   17  O1  UNL     1      24.067  38.018  17.003  1.00  0.00    -0.275 OA
ENDBRANCH   1  10
TORSDOF 7
ENDMDL
MODEL 4
REMARK VINA RESULT: -6.140011290      1.779      2.989
REMARK  7 active torsions:
REMARK  status: ('A' for Active; 'I' for Inactive)
REMARK    1  A    between atoms: C2_2  and  C3_3 
REMARK    2  A    between atoms: C3_3  and  C4_4 
REMARK    3  A    between atoms: C4_4  and  C5_5 
REMARK    4  A    between atoms: C5_5  and  C6_6 
REMARK    5  A    between atoms: C6_6  and  C7_7 
REMARK    6  A    between atoms: C7_7  and  C8_8 
REMARK    7  A    between atoms: C8_8  and  C10_10 
ROOT
HETATM    1  C8  UNL     1      22.911  38.747  16.878  1.00  0.00     0.042 C 
HETATM    2  C9  UNL     1      23.651  40.013  16.431  1.00  0.00     0.017 C 
ENDROOT
BRANCH   1   3
HETATM    3  C7  UNL     1      23.797  37.853  17.676  1.00  0.00     0.011 C 
BRANCH   3   4
HETATM    4  C6  UNL     1      23.088  36.646  18.219  1.00  0.00     0.001 C 
BRANCH   4   5
HETATM    5  C5  UNL     1      23.973  35.697  18.964  1.00  0.00     0.000 C 
BRANCH   5   6
HETATM    6  C4  UNL     1      24.164  34.389  18.230  1.00  0.00     0.000 C 
BRANCH   6   7
HETATM    7  C3  UNL     1      23.338  33.265  18.820  1.00  0.00    -0.000 C 
BRANCH   7   8
HETATM    8  C2  UNL     1      24.245  32.028  18.795  1.00  0.00    -0.005 C 
HETATM    9  C1  UNL     1      23.502  30.780  19.153  1.00  0.00     0.005 C 
ENDBRANCH   7   8
ENDBRANCH   6   7
ENDBRANCH   5   6
ENDBRANCH   4   5
ENDBRANCH   3   4
ENDBRANCH   1   3
BRANCH   1  10
HETATM   10  C10 UNL     1      21.739  39.216  17.660  1.00  0.00     0.103 C 
HETATM   11  C11 UNL     1      21.753  39.954  18.730  1.00  0.00     0.190 C 
HETATM   12  F1  UNL     1      22.772  40.465  19.383  1.00  0.00    -0.196 F 
HETATM   13  S1  UNL     1      20.060  40.199  19.239  1.00  0.00     0.012 SA
HETATM   14  C12 UNL     1      19.464  38.835  18.152  1.00  0.00     0.421 C 
HETATM   15  F2  UNL     1      18.256  39.166  17.585  1.00  0.00    -0.164 F 
HETATM   16  F3  UNL     1      19.397  37.718  18.944  1.00  0.00    -0.164 F 
HETATM   17  O1  UNL     1      20.489  38.851  17.235  1.00  0.00    -0.275 OA
ENDBRANCH   1  10
TORSDOF 7
ENDMDL
MODEL 5
REMARK VINA RESULT: -6.070554480      2.416      3.912
REMARK  7 active torsions:
REMARK  status: ('A' for Active; 'I' for Inactive)
REMARK    1  A    between atoms: C2_2  and  C3_3 
REMARK    2  A    between atoms: C3_3  and  C4_4 
REMARK    3  A    between atoms: C4_4  and  C5_5 
REMARK    4  A    between atoms: C5_5  and  C6_6 
REMARK    5  A    between atoms: C6_6  and  C7_7 
REMARK    6  A    between atoms: C7_7  and  C8_8 
REMARK    7  A    between atoms: C8_8  and  C10_10 
ROOT
HETATM    1  C8  UNL     1      23.222  38.824  16.856  1.00  0.00     0.042 C 
HETATM    2  C9  UNL     1      22.854  38.851  15.369  1.00  0.00     0.017 C 
ENDROOT
BRANCH   1   3
HETATM    3  C7  UNL     1      23.884  37.543  17.229  1.00  0.00     0.011 C 
BRANCH   3   4
HETATM    4  C6  UNL     1      23.149  36.783  18.295  1.00  0.00     0.001 C 
BRANCH   4   5
HETATM    5  C5  UNL     1      23.853  35.551  18.769  1.00  0.00     0.000 C 
BRANCH   5   6
HETATM    6  C4  UNL     1      23.042  34.297  18.537  1.00  0.00     0.000 C 
BRANCH   6   7
HETATM    7  C3  UNL     1      23.882  33.039  18.612  1.00  0.00    -0.000 C 
BRANCH   7   8
HETATM    8  C2  UNL     1      23.004  31.997  19.317  1.00  0.00    -0.005 C 
HETATM    9  C1  UNL     1      23.561  30.615  19.190  1.00  0.00     0.005 C 
ENDBRANCH   7   8
ENDBRANCH   6   7
ENDBRANCH   5   6
ENDBRANCH   4   5
ENDBRANCH   3   4
ENDBRANCH   1   3
BRANCH   1  10
HETATM   10  C10 UNL     1      24.108  39.996  17.076  1.00  0.00     0.103 C 
HETATM   11  C11 UNL     1      23.807  41.250  16.909  1.00  0.00     0.190 C 
HETATM   12  F1  UNL     1      22.679  41.797  16.514  1.00  0.00    -0.196 F 
HETATM   13  S1  UNL     1      25.253  42.212  17.319  1.00  0.00     0.012 SA
HETATM   14  C12 UNL     1      26.343  40.727  17.253  1.00  0.00     0.421 C 
HETATM   15  F2  UNL     1      27.294  40.784  18.244  1.00  0.00    -0.164 F 
HETATM   16  F3  UNL     1      26.882  40.705  15.992  1.00  0.00    -0.164 F 
HETATM   17  O1  UNL     1      25.388  39.769  17.505  1.00  0.00    -0.275 OA
ENDBRANCH   1  10
TORSDOF 7
ENDMDL
