MODEL 1
REMARK VINA RESULT: -5.604400548      0.000      0.000
REMARK  7 active torsions:
REMARK  status: ('A' for Active; 'I' for Inactive)
REMARK    1  A    between atoms: C2_2  and  C3_3 
REMARK    2  A    between atoms: C3_3  and  C4_4 
REMARK    3  A    between atoms: C4_4  and  C5_5 
REMARK    4  A    between atoms: C5_5  and  C6_6 
REMARK    5  A    between atoms: C6_6  and  C7_7 
REMARK    6  A    between atoms: C12_12  and  S1_14 
REMARK    7  A    between atoms: S1_14  and  O1_15 
ROOT
HETATM    1  C7  UNL     1      23.813  33.153  18.952  1.00  0.00     0.039 C 
HETATM    2  C8  UNL     1      22.329  33.395  19.145  1.00  0.00     0.009 C 
HETATM    3  C9  UNL     1      22.156  34.895  19.137  1.00  0.00     0.009 C 
HETATM    4  C10 UNL     1      23.525  35.492  18.926  1.00  0.00     0.035 C 
HETATM    5  C11 UNL     1      23.481  36.750  18.087  1.00  0.00     0.014 C 
HETATM    6  C12 UNL     1      24.285  34.373  18.254  1.00  0.00     0.186 C 
HETATM    7  F1  UNL     1      25.651  34.593  18.415  1.00  0.00    -0.228 F 
ENDROOT
BRANCH   1   8
HETATM    8  C6  UNL     1      24.100  31.850  18.302  1.00  0.00     0.009 C 
BRANCH   8   9
HETATM    9  C5  UNL     1      24.544  30.792  19.278  1.00  0.00     0.001 C 
BRANCH   9  10
HETATM   10  C4  UNL     1      23.523  29.656  19.193  1.00  0.00     0.000 C 
BRANCH  10  11
HETATM   11  C3  UNL     1      22.428  29.825  20.194  1.00  0.00    -0.000 C 
BRANCH  11  12
HETATM   12  C2  UNL     1      21.666  28.528  20.299  1.00  0.00    -0.005 C 
HETATM   13  C1  UNL     1      22.285  27.608  21.302  1.00  0.00     0.005 C 
ENDBRANCH  11  12
ENDBRANCH  10  11
ENDBRANCH   9  10
ENDBRANCH   8   9
ENDBRANCH   1   8
BRANCH   6  14
HETATM   14  S1  UNL     1      23.961  34.386  16.493  1.00  0.00     0.078 SA
BRANCH  14  15
HETATM   15  O1  UNL     1      25.222  33.800  15.528  1.00  0.00    -0.117 OA
HETATM   16  F2  UNL     1      26.297  34.522  15.737  1.00  0.00    -0.034 F 
ENDBRANCH  14  15
ENDBRANCH   6  14
TORSDOF 7
ENDMDL
MODEL 2
REMARK VINA RESULT: -5.538284276      4.502      6.277
REMARK  7 active torsions:
REMARK  status: ('A' for Active; 'I' for Inactive)
REMARK    1  A    between atoms: C2_2  and  C3_3 
REMARK    2  A    between atoms: C3_3  and  C4_4 
REMARK    3  A    between atoms: C4_4  and  C5_5 
REMARK    4  A    between atoms: C5_5  and  C6_6 
REMARK    5  A    between atoms: C6_6  and  C7_7 
REMARK    6  A    between atoms: C12_12  and  S1_14 
REMARK    7  A    between atoms: S1_14  and  O1_15 
ROOT
HETATM    1  C7  UNL     1      23.170  38.461  17.120  1.00  0.00     0.039 C 
HETATM    2  C8  UNL     1      24.499  39.185  17.031  1.00  0.00     0.009 C 
HETATM    3  C9  UNL     1      24.169  40.591  16.592  1.00  0.00     0.009 C 
HETATM    4  C10 UNL     1      22.670  40.665  16.451  1.00  0.00     0.035 C 
HETATM    5  C11 UNL     1      22.119  42.013  16.856  1.00  0.00     0.014 C 
HETATM    6  C12 UNL     1      22.187  39.548  17.346  1.00  0.00     0.186 C 
HETATM    7  F1  UNL     1      20.894  39.193  16.971  1.00  0.00    -0.228 F 
ENDROOT
BRANCH   1   8
HETATM    8  C6  UNL     1      23.188  37.352  18.105  1.00  0.00     0.009 C 
BRANCH   8   9
HETATM    9  C5  UNL     1      23.643  36.045  17.511  1.00  0.00     0.001 C 
BRANCH   9  10
HETATM   10  C4  UNL     1      23.862  35.081  18.679  1.00  0.00     0.000 C 
BRANCH  10  11
HETATM   11  C3  UNL     1      24.324  33.741  18.207  1.00  0.00    -0.000 C 
BRANCH  11  12
HETATM   12  C2  UNL     1      23.505  32.679  18.897  1.00  0.00    -0.005 C 
HETATM   13  C1  UNL     1      24.207  31.359  18.897  1.00  0.00     0.005 C 
ENDBRANCH  11  12
ENDBRANCH  10  11
ENDBRANCH   9  10
ENDBRANCH   8   9
ENDBRANCH   1   8
BRANCH   6  14
HETATM   14  S1  UNL     1      22.099  40.120  19.040  1.00  0.00     0.078 SA
BRANCH  14  15
HETATM   15  O1  UNL     1      20.550  40.555  19.569  1.00  0.00    -0.117 OA
HETATM   16  F2  UNL     1      19.809  39.477  19.666  1.00  0.00    -0.034 F 
ENDBRANCH  14  15
ENDBRANCH   6  14
TORSDOF 7
ENDMDL
MODEL 3
REMARK VINA RESULT: -5.324657560      4.790      6.807
REMARK  7 active torsions:
REMARK  status: ('A' for Active; 'I' for Inactive)
REMARK    1  A    between atoms: C2_2  and  C3_3 
REMARK    2  A    between atoms: C3_3  and  C4_4 
REMARK    3  A    between atoms: C4_4  and  C5_5 
REMARK    4  A    between atoms: C5_5  and  C6_6 
REMARK    5  A    between atoms: C6_6  and  C7_7 
REMARK    6  A    between atoms: C12_12  and  S1_14 
REMARK    7  A    between atoms: S1_14  and  O1_15 
ROOT
HETATM    1  C7  UNL     1      21.977  39.005  18.260  1.00  0.00     0.039 C 
HETATM    2  C8  UNL     1      20.690  39.044  17.461  1.00  0.00     0.009 C 
HETATM    3  C9  UNL     1      19.734  39.891  18.267  1.00  0.00     0.009 C 
HETATM    4  C10 UNL     1      20.479  40.339  19.499  1.00  0.00     0.035 C 
HETATM    5  C11 UNL     1      20.092  41.736  19.930  1.00  0.00     0.014 C 
HETATM    6  C12 UNL     1      21.927  40.242  19.076  1.00  0.00     0.186 C 
HETATM    7  F1  UNL     1      22.727  40.172  20.214  1.00  0.00    -0.228 F 
ENDROOT
BRANCH   1   8
HETATM    8  C6  UNL     1      23.175  38.809  17.406  1.00  0.00     0.009 C 
BRANCH   8   9
HETATM    9  C5  UNL     1      23.578  37.363  17.283  1.00  0.00     0.001 C 
BRANCH   9  10
HETATM   10  C4  UNL     1      23.087  36.659  18.549  1.00  0.00     0.000 C 
BRANCH  10  11
HETATM   11  C3  UNL     1      24.054  35.617  19.009  1.00  0.00    -0.000 C 
BRANCH  11  12
HETATM   12  C2  UNL     1      24.135  34.539  17.957  1.00  0.00    -0.005 C 
HETATM   13  C1  UNL     1      23.962  33.178  18.551  1.00  0.00     0.005 C 
ENDBRANCH  11  12
ENDBRANCH  10  11
ENDBRANCH   9  10
ENDBRANCH   8   9
ENDBRANCH   1   8
BRANCH   6  14
HETATM   14  S1  UNL     1      22.404  41.726  18.195  1.00  0.00     0.078 SA
BRANCH  14  15
HETATM   15  O1  UNL     1      23.886  42.395  18.669  1.00  0.00    -0.117 OA
HETATM   16  F2  UNL     1      24.842  41.525  18.447  1.00  0.00    -0.034 F 
ENDBRANCH  14  15
ENDBRANCH   6  14
TORSDOF 7
ENDMDL
MODEL 4
REMARK VINA RESULT: -5.290990229      5.034      7.233
REMARK  7 active torsions:
REMARK  status: ('A' for Active; 'I' for Inactive)
REMARK    1  A    between atoms: C2_2  and  C3_3 
REMARK    2  A    between atoms: C3_3  and  C4_4 
REMARK    3  A    between atoms: C4_4  and  C5_5 
REMARK    4  A    between atoms: C5_5  and  C6_6 
REMARK    5  A    between atoms: C6_6  and  C7_7 
REMARK    6  A    between atoms: C12_12  and  S1_14 
REMARK    7  A    between atoms: S1_14  and  O1_15 
ROOT
HETATM    1  C7  UNL     1      23.932  39.663  16.654  1.00  0.00     0.039 C 
HETATM    2  C8  UNL     1      25.392  39.640  17.059  1.00  0.00     0.009 C 
HETATM    3  C9  UNL     1      25.899  41.045  16.839  1.00  0.00     0.009 C 
HETATM    4  C10 UNL     1      24.733  41.856  16.332  1.00  0.00     0.035 C 
HETATM    5  C11 UNL     1      24.757  43.279  16.841  1.00  0.00     0.014 C 
HETATM    6  C12 UNL     1      23.536  41.081  16.830  1.00  0.00     0.186 C 
HETATM    7  F1  UNL     1      22.422  41.429  16.070  1.00  0.00    -0.228 F 
ENDROOT
BRANCH   1   8
HETATM    8  C6  UNL     1      23.124  38.643  17.369  1.00  0.00     0.009 C 
BRANCH   8   9
HETATM    9  C5  UNL     1      23.706  37.257  17.271  1.00  0.00     0.001 C 
BRANCH   9  10
HETATM   10  C4  UNL     1      23.176  36.470  18.471  1.00  0.00     0.000 C 
BRANCH  10  11
HETATM   11  C3  UNL     1      24.161  35.448  18.937  1.00  0.00    -0.000 C 
BRANCH  11  12
HETATM   12  C2  UNL     1      24.255  34.361  17.895  1.00  0.00    -0.005 C 
HETATM   13  C1  UNL     1      24.071  33.006  18.498  1.00  0.00     0.005 C 
ENDBRANCH  11  12
ENDBRANCH  10  11
ENDBRANCH   9  10
ENDBRANCH   8   9
ENDBRANCH   1   8
BRANCH   6  14
HETATM   14  S1  UNL     1      23.174  41.540  18.523  1.00  0.00     0.078 SA
BRANCH  14  15
HETATM   15  O1  UNL     1      21.555  41.360  18.983  1.00  0.00    -0.117 OA
HETATM   16  F2  UNL     1      21.422  40.248  19.666  1.00  0.00    -0.034 F 
ENDBRANCH  14  15
ENDBRANCH   6  14
TORSDOF 7
ENDMDL
MODEL 5
REMARK VINA RESULT: -5.243633532      4.949      6.875
REMARK  7 active torsions:
REMARK  status: ('A' for Active; 'I' for Inactive)
REMARK    1  A    between atoms: C2_2  and  C3_3 
REMARK    2  A    between atoms: C3_3  and  C4_4 
REMARK    3  A    between atoms: C4_4  and  C5_5 
REMARK    4  A    between atoms: C5_5  and  C6_6 
REMARK    5  A    between atoms: C6_6  and  C7_7 
REMARK    6  A    between atoms: C12_12  and  S1_14 
REMARK    7  A    between atoms: S1_14  and  O1_15 
ROOT
HETATM    1  C7  UNL     1      22.033  39.179  18.142  1.00  0.00     0.039 C 
HETATM    2  C8  UNL     1      20.546  38.898  18.209  1.00  0.00     0.009 C 
HETATM    3  C9  UNL     1      19.974  39.944  19.135  1.00  0.00     0.009 C 
HETATM    4  C10 UNL     1      21.124  40.816  19.572  1.00  0.00     0.035 C 
HETATM    5  C11 UNL     1      20.719  42.264  19.738  1.00  0.00     0.014 C 
HETATM    6  C12 UNL     1      22.139  40.621  18.470  1.00  0.00     0.186 C 
HETATM    7  F1  UNL     1      23.399  40.976  18.946  1.00  0.00    -0.228 F 
ENDROOT
BRANCH   1   8
HETATM    8  C6  UNL     1      22.643  38.731  16.865  1.00  0.00     0.009 C 
BRANCH   8   9
HETATM    9  C5  UNL     1      23.897  37.921  17.063  1.00  0.00     0.001 C 
BRANCH   9  10
HETATM   10  C4  UNL     1      23.525  36.747  17.971  1.00  0.00     0.000 C 
BRANCH  10  11
HETATM   11  C3  UNL     1      23.880  35.437  17.349  1.00  0.00    -0.000 C 
BRANCH  11  12
HETATM   12  C2  UNL     1      23.807  34.366  18.408  1.00  0.00    -0.005 C 
HETATM   13  C1  UNL     1      22.413  34.196  18.922  1.00  0.00     0.005 C 
ENDBRANCH  11  12
ENDBRANCH  10  11
ENDBRANCH   9  10
ENDBRANCH   8   9
ENDBRANCH   1   8
BRANCH   6  14
HETATM   14  S1  UNL     1      21.772  41.717  17.103  1.00  0.00     0.078 SA
BRANCH  14  15
HETATM   15  O1  UNL     1      23.120  42.467  16.405  1.00  0.00    -0.117 OA
HETATM   16  F2  UNL     1      23.995  41.552  16.064  1.00  0.00    -0.034 F 
ENDBRANCH  14  15
ENDBRANCH   6  14
TORSDOF 7
ENDMDL
