MODEL 1
REMARK VINA RESULT: -4.463386262      0.000      0.000
REMARK  7 active torsions:
REMARK  status: ('A' for Active; 'I' for Inactive)
REMARK    1  A    between atoms: C2_2  and  C3_3 
REMARK    2  A    between atoms: C3_3  and  C4_4 
REMARK    3  A    between atoms: C8_8  and  O1_9 
REMARK    4  A    between atoms: O1_9  and  C9_10 
REMARK    5  A    between atoms: C9_10  and  C10_11 
REMARK    6  A    between atoms: C9_10  and  S1_13 
REMARK    7  A    between atoms: S1_13  and  C11_14 
ROOT
HETATM    1  C4  UNL     1      20.636  40.463  18.311  1.00  0.00     0.015 C 
HETATM    2  C5  UNL     1      20.231  40.692  19.723  1.00  0.00     0.007 C 
HETATM    3  C6  UNL     1      21.098  41.921  20.077  1.00  0.00     0.003 C 
HETATM    4  C7  UNL     1      22.441  41.436  19.586  1.00  0.00     0.032 C 
HETATM    5  C8  UNL     1      22.160  40.623  18.347  1.00  0.00     0.127 C 
ENDROOT
BRANCH   5   6
HETATM    6  O1  UNL     1      22.570  41.326  17.248  1.00  0.00    -0.367 OA
BRANCH   6   7
HETATM    7  C9  UNL     1      23.493  40.717  16.451  1.00  0.00     0.211 C 
BRANCH   7   8
HETATM    8  C10 UNL     1      23.876  39.330  16.917  1.00  0.00     0.264 C 
HETATM    9  F1  UNL     1      23.313  38.341  16.165  1.00  0.00    -0.252 F 
ENDBRANCH   7   8
BRANCH   7  10
HETATM   10  S1  UNL     1      25.013  41.658  16.236  1.00  0.00    -0.135 SA
BRANCH  10  11
HETATM   11  C11 UNL     1      26.420  40.776  16.955  1.00  0.00     0.072 C 
HETATM   12  C12 UNL     1      26.877  41.475  18.238  1.00  0.00     0.016 C 
ENDBRANCH  10  11
ENDBRANCH   7  10
ENDBRANCH   6   7
ENDBRANCH   5   6
BRANCH   1  13
HETATM   13  C3  UNL     1      20.245  39.199  17.657  1.00  0.00     0.007 C 
BRANCH  13  14
HETATM   14  C2  UNL     1      18.808  38.860  17.776  1.00  0.00    -0.004 C 
HETATM   15  C1  UNL     1      17.969  39.156  16.588  1.00  0.00     0.005 C 
ENDBRANCH  13  14
ENDBRANCH   1  13
TORSDOF 7
ENDMDL
MODEL 2
REMARK VINA RESULT: -4.422747857      1.987      5.341
REMARK  7 active torsions:
REMARK  status: ('A' for Active; 'I' for Inactive)
REMARK    1  A    between atoms: C2_2  and  C3_3 
REMARK    2  A    between atoms: C3_3  and  C4_4 
REMARK    3  A    between atoms: C8_8  and  O1_9 
REMARK    4  A    between atoms: O1_9  and  C9_10 
REMARK    5  A    between atoms: C9_10  and  C10_11 
REMARK    6  A    between atoms: C9_10  and  S1_13 
REMARK    7  A    between atoms: S1_13  and  C11_14 
ROOT
HETATM    1  C4  UNL     1      24.943  42.003  16.840  1.00  0.00     0.015 C 
HETATM    2  C5  UNL     1      24.833  43.227  16.004  1.00  0.00     0.007 C 
HETATM    3  C6  UNL     1      23.398  43.685  16.349  1.00  0.00     0.003 C 
HETATM    4  C7  UNL     1      22.659  42.382  16.154  1.00  0.00     0.032 C 
HETATM    5  C8  UNL     1      23.598  41.299  16.623  1.00  0.00     0.127 C 
ENDROOT
BRANCH   5   6
HETATM    6  O1  UNL     1      23.147  40.801  17.813  1.00  0.00    -0.367 OA
BRANCH   6   7
HETATM    7  C9  UNL     1      22.764  39.493  17.814  1.00  0.00     0.211 C 
BRANCH   7   8
HETATM    8  C10 UNL     1      23.197  38.734  16.580  1.00  0.00     0.264 C 
HETATM    9  F1  UNL     1      24.392  38.096  16.737  1.00  0.00    -0.252 F 
ENDBRANCH   7   8
BRANCH   7  10
HETATM   10  S1  UNL     1      20.992  39.246  18.012  1.00  0.00    -0.135 SA
BRANCH  10  11
HETATM   11  C11 UNL     1      20.164  40.812  18.385  1.00  0.00     0.072 C 
HETATM   12  C12 UNL     1      20.174  41.063  19.896  1.00  0.00     0.016 C 
ENDBRANCH  10  11
ENDBRANCH   7  10
ENDBRANCH   6   7
ENDBRANCH   5   6
BRANCH   1  13
HETATM   13  C3  UNL     1      26.073  41.082  16.607  1.00  0.00     0.007 C 
BRANCH  13  14
HETATM   14  C2  UNL     1      26.927  40.839  17.792  1.00  0.00    -0.004 C 
HETATM   15  C1  UNL     1      26.933  41.908  18.821  1.00  0.00     0.005 C 
ENDBRANCH  13  14
ENDBRANCH   1  13
TORSDOF 7
ENDMDL
MODEL 3
REMARK VINA RESULT: -4.390391142      2.112      3.291
REMARK  7 active torsions:
REMARK  status: ('A' for Active; 'I' for Inactive)
REMARK    1  A    between atoms: C2_2  and  C3_3 
REMARK    2  A    between atoms: C3_3  and  C4_4 
REMARK    3  A    between atoms: C8_8  and  O1_9 
REMARK    4  A    between atoms: O1_9  and  C9_10 
REMARK    5  A    between atoms: C9_10  and  C10_11 
REMARK    6  A    between atoms: C9_10  and  S1_13 
REMARK    7  A    between atoms: S1_13  and  C11_14 
ROOT
HETATM    1  C4  UNL     1      21.856  39.912  17.260  1.00  0.00     0.015 C 
HETATM    2  C5  UNL     1      20.692  39.185  17.832  1.00  0.00     0.007 C 
HETATM    3  C6  UNL     1      20.202  40.206  18.884  1.00  0.00     0.003 C 
HETATM    4  C7  UNL     1      21.511  40.510  19.574  1.00  0.00     0.032 C 
HETATM    5  C8  UNL     1      22.564  40.480  18.496  1.00  0.00     0.127 C 
ENDROOT
BRANCH   5   6
HETATM    6  O1  UNL     1      22.976  41.758  18.237  1.00  0.00    -0.367 OA
BRANCH   6   7
HETATM    7  C9  UNL     1      24.254  42.066  18.599  1.00  0.00     0.211 C 
BRANCH   7   8
HETATM    8  C10 UNL     1      24.348  42.819  19.908  1.00  0.00     0.264 C 
HETATM    9  F1  UNL     1      24.208  42.013  20.999  1.00  0.00    -0.252 F 
ENDBRANCH   7   8
BRANCH   7  10
HETATM   10  S1  UNL     1      25.162  43.008  17.362  1.00  0.00    -0.135 SA
BRANCH  10  11
HETATM   11  C11 UNL     1      26.811  42.308  17.107  1.00  0.00     0.072 C 
HETATM   12  C12 UNL     1      26.807  40.816  17.454  1.00  0.00     0.016 C 
ENDBRANCH  10  11
ENDBRANCH   7  10
ENDBRANCH   6   7
ENDBRANCH   5   6
BRANCH   1  13
HETATM   13  C3  UNL     1      22.797  39.176  16.394  1.00  0.00     0.007 C 
BRANCH  13  14
HETATM   14  C2  UNL     1      23.899  38.497  17.116  1.00  0.00    -0.004 C 
HETATM   15  C1  UNL     1      23.685  37.062  17.429  1.00  0.00     0.005 C 
ENDBRANCH  13  14
ENDBRANCH   1  13
TORSDOF 7
ENDMDL
MODEL 4
REMARK VINA RESULT: -4.387002792      2.474      5.183
REMARK  7 active torsions:
REMARK  status: ('A' for Active; 'I' for Inactive)
REMARK    1  A    between atoms: C2_2  and  C3_3 
REMARK    2  A    between atoms: C3_3  and  C4_4 
REMARK    3  A    between atoms: C8_8  and  O1_9 
REMARK    4  A    between atoms: O1_9  and  C9_10 
REMARK    5  A    between atoms: C9_10  and  C10_11 
REMARK    6  A    between atoms: C9_10  and  S1_13 
REMARK    7  A    between atoms: S1_13  and  C11_14 
ROOT
HETATM    1  C4  UNL     1      24.838  40.635  17.149  1.00  0.00     0.015 C 
HETATM    2  C5  UNL     1      26.272  40.718  16.763  1.00  0.00     0.007 C 
HETATM    3  C6  UNL     1      26.896  41.238  18.077  1.00  0.00     0.003 C 
HETATM    4  C7  UNL     1      25.965  42.392  18.363  1.00  0.00     0.032 C 
HETATM    5  C8  UNL     1      24.598  41.943  17.911  1.00  0.00     0.127 C 
ENDROOT
BRANCH   5   6
HETATM    6  O1  UNL     1      23.824  41.695  19.010  1.00  0.00    -0.367 OA
BRANCH   6   7
HETATM    7  C9  UNL     1      22.499  42.001  18.897  1.00  0.00     0.211 C 
BRANCH   7   8
HETATM    8  C10 UNL     1      22.096  43.238  19.667  1.00  0.00     0.264 C 
HETATM    9  F1  UNL     1      20.773  43.253  19.998  1.00  0.00    -0.252 F 
ENDBRANCH   7   8
BRANCH   7  10
HETATM   10  S1  UNL     1      21.393  40.668  19.389  1.00  0.00    -0.135 SA
BRANCH  10  11
HETATM   11  C11 UNL     1      20.136  40.377  18.119  1.00  0.00     0.072 C 
HETATM   12  C12 UNL     1      19.705  38.908  18.135  1.00  0.00     0.016 C 
ENDBRANCH  10  11
ENDBRANCH   7  10
ENDBRANCH   6   7
ENDBRANCH   5   6
BRANCH   1  13
HETATM   13  C3  UNL     1      23.828  40.437  16.092  1.00  0.00     0.007 C 
BRANCH  13  14
HETATM   14  C2  UNL     1      23.085  39.159  16.178  1.00  0.00    -0.004 C 
HETATM   15  C1  UNL     1      23.536  38.213  17.229  1.00  0.00     0.005 C 
ENDBRANCH  13  14
ENDBRANCH   1  13
TORSDOF 7
ENDMDL
MODEL 5
REMARK VINA RESULT: -4.378857753     10.103     11.423
REMARK  7 active torsions:
REMARK  status: ('A' for Active; 'I' for Inactive)
REMARK    1  A    between atoms: C2_2  and  C3_3 
REMARK    2  A    between atoms: C3_3  and  C4_4 
REMARK    3  A    between atoms: C8_8  and  O1_9 
REMARK    4  A    between atoms: O1_9  and  C9_10 
REMARK    5  A    between atoms: C9_10  and  C10_11 
REMARK    6  A    between atoms: C9_10  and  S1_13 
REMARK    7  A    between atoms: S1_13  and  C11_14 
ROOT
HETATM    1  C4  UNL     1      23.022  32.052  19.007  1.00  0.00     0.015 C 
HETATM    2  C5  UNL     1      24.470  32.066  18.670  1.00  0.00     0.007 C 
HETATM    3  C6  UNL     1      24.715  30.568  18.381  1.00  0.00     0.003 C 
HETATM    4  C7  UNL     1      24.074  29.963  19.608  1.00  0.00     0.032 C 
HETATM    5  C8  UNL     1      22.881  30.830  19.922  1.00  0.00     0.127 C 
ENDROOT
BRANCH   5   6
HETATM    6  O1  UNL     1      21.739  30.151  19.602  1.00  0.00    -0.367 OA
BRANCH   6   7
HETATM    7  C9  UNL     1      21.293  29.248  20.522  1.00  0.00     0.211 C 
BRANCH   7   8
HETATM    8  C10 UNL     1      21.362  29.752  21.947  1.00  0.00     0.264 C 
HETATM    9  F1  UNL     1      20.253  29.440  22.677  1.00  0.00    -0.252 F 
ENDBRANCH   7   8
BRANCH   7  10
HETATM   10  S1  UNL     1      22.141  27.661  20.464  1.00  0.00    -0.135 SA
BRANCH  10  11
HETATM   11  C11 UNL     1      22.431  27.028  22.135  1.00  0.00     0.072 C 
HETATM   12  C12 UNL     1      21.542  25.809  22.396  1.00  0.00     0.016 C 
ENDBRANCH  10  11
ENDBRANCH   7  10
ENDBRANCH   6   7
ENDBRANCH   5   6
BRANCH   1  13
HETATM   13  C3  UNL     1      22.424  33.253  19.622  1.00  0.00     0.007 C 
BRANCH  13  14
HETATM   14  C2  UNL     1      22.378  34.441  18.739  1.00  0.00    -0.004 C 
HETATM   15  C1  UNL     1      23.368  35.508  19.029  1.00  0.00     0.005 C 
ENDBRANCH  13  14
ENDBRANCH   1  13
TORSDOF 7
ENDMDL
