MODEL 1
REMARK VINA RESULT: -5.414649209      0.000      0.000
REMARK  8 active torsions:
REMARK  status: ('A' for Active; 'I' for Inactive)
REMARK    1  A    between atoms: C2_2  and  C3_3 
REMARK    2  A    between atoms: C3_3  and  C4_4 
REMARK    3  A    between atoms: C4_4  and  C5_5 
REMARK    4  A    between atoms: C5_5  and  C7_7 
REMARK    5  A    between atoms: C7_7  and  O1_10 
REMARK    6  A    between atoms: O1_10  and  C9_11 
REMARK    7  A    between atoms: C9_11  and  C10_13 
REMARK    8  A    between atoms: C10_13  and  C11_14 
ROOT
HETATM    1  C7  UNL     1      23.236  30.618  19.605  1.00  0.00     0.210 C 
HETATM    2  C8  UNL     1      24.188  29.803  18.743  1.00  0.00     0.085 C 
HETATM    3  F1  UNL     1      23.743  30.772  20.877  1.00  0.00    -0.211 F 
ENDROOT
BRANCH   1   4
HETATM    4  C5  UNL     1      23.003  31.976  19.025  1.00  0.00     0.049 C 
HETATM    5  C6  UNL     1      22.422  32.854  20.111  1.00  0.00     0.016 C 
BRANCH   4   6
HETATM    6  C4  UNL     1      24.272  32.600  18.483  1.00  0.00     0.010 C 
BRANCH   6   7
HETATM    7  C3  UNL     1      24.141  34.107  18.596  1.00  0.00     0.000 C 
BRANCH   7   8
HETATM    8  C2  UNL     1      23.948  34.734  17.230  1.00  0.00    -0.005 C 
HETATM    9  C1  UNL     1      23.679  36.205  17.463  1.00  0.00     0.005 C 
ENDBRANCH   7   8
ENDBRANCH   6   7
ENDBRANCH   4   6
ENDBRANCH   1   4
BRANCH   1  10
HETATM   10  O1  UNL     1      22.028  29.887  19.696  1.00  0.00    -0.302 OA
BRANCH  10  11
HETATM   11  C9  UNL     1      21.730  29.080  20.785  1.00  0.00     0.116 C 
HETATM   12  S1  UNL     1      20.856  29.702  22.003  1.00  0.00    -0.058 SA
BRANCH  11  13
HETATM   13  C10 UNL     1      22.238  27.691  20.755  1.00  0.00     0.077 C 
BRANCH  13  14
HETATM   14  C11 UNL     1      22.465  27.133  22.136  1.00  0.00     0.003 C 
HETATM   15  C12 UNL     1      21.595  25.879  22.245  1.00  0.00     0.005 C 
ENDBRANCH  13  14
ENDBRANCH  11  13
ENDBRANCH  10  11
ENDBRANCH   1  10
TORSDOF 8
ENDMDL
MODEL 2
REMARK VINA RESULT: -5.408280318      2.064      6.687
REMARK  8 active torsions:
REMARK  status: ('A' for Active; 'I' for Inactive)
REMARK    1  A    between atoms: C2_2  and  C3_3 
REMARK    2  A    between atoms: C3_3  and  C4_4 
REMARK    3  A    between atoms: C4_4  and  C5_5 
REMARK    4  A    between atoms: C5_5  and  C7_7 
REMARK    5  A    between atoms: C7_7  and  O1_10 
REMARK    6  A    between atoms: O1_10  and  C9_11 
REMARK    7  A    between atoms: C9_11  and  C10_13 
REMARK    8  A    between atoms: C10_13  and  C11_14 
ROOT
HETATM    1  C7  UNL     1      22.791  31.386  20.101  1.00  0.00     0.210 C 
HETATM    2  C8  UNL     1      22.202  31.688  21.471  1.00  0.00     0.085 C 
HETATM    3  F1  UNL     1      24.167  31.432  20.143  1.00  0.00    -0.211 F 
ENDROOT
BRANCH   1   4
HETATM    4  C5  UNL     1      22.380  30.033  19.618  1.00  0.00     0.049 C 
HETATM    5  C6  UNL     1      23.621  29.314  19.136  1.00  0.00     0.016 C 
BRANCH   4   6
HETATM    6  C4  UNL     1      21.697  29.216  20.695  1.00  0.00     0.010 C 
BRANCH   6   7
HETATM    7  C3  UNL     1      22.332  27.838  20.714  1.00  0.00     0.000 C 
BRANCH   7   8
HETATM    8  C2  UNL     1      22.454  27.321  22.132  1.00  0.00    -0.005 C 
HETATM    9  C1  UNL     1      21.699  26.011  22.183  1.00  0.00     0.005 C 
ENDBRANCH   7   8
ENDBRANCH   6   7
ENDBRANCH   4   6
ENDBRANCH   1   4
BRANCH   1  10
HETATM   10  O1  UNL     1      22.341  32.401  19.223  1.00  0.00    -0.302 OA
BRANCH  10  11
HETATM   11  C9  UNL     1      23.154  33.456  18.832  1.00  0.00     0.116 C 
HETATM   12  S1  UNL     1      24.480  33.137  17.953  1.00  0.00    -0.058 SA
BRANCH  11  13
HETATM   13  C10 UNL     1      22.744  34.815  19.251  1.00  0.00     0.077 C 
BRANCH  13  14
HETATM   14  C11 UNL     1      23.864  35.814  19.128  1.00  0.00     0.003 C 
HETATM   15  C12 UNL     1      23.463  36.782  18.014  1.00  0.00     0.005 C 
ENDBRANCH  13  14
ENDBRANCH  11  13
ENDBRANCH  10  11
ENDBRANCH   1  10
TORSDOF 8
ENDMDL
MODEL 3
REMARK VINA RESULT: -5.345886050      2.700      6.983
REMARK  8 active torsions:
REMARK  status: ('A' for Active; 'I' for Inactive)
REMARK    1  A    between atoms: C2_2  and  C3_3 
REMARK    2  A    between atoms: C3_3  and  C4_4 
REMARK    3  A    between atoms: C4_4  and  C5_5 
REMARK    4  A    between atoms: C5_5  and  C7_7 
REMARK    5  A    between atoms: C7_7  and  O1_10 
REMARK    6  A    between atoms: O1_10  and  C9_11 
REMARK    7  A    between atoms: C9_11  and  C10_13 
REMARK    8  A    between atoms: C10_13  and  C11_14 
ROOT
HETATM    1  C7  UNL     1      22.761  33.072  19.442  1.00  0.00     0.210 C 
HETATM    2  C8  UNL     1      21.623  33.645  18.612  1.00  0.00     0.085 C 
HETATM    3  F1  UNL     1      22.478  33.170  20.787  1.00  0.00    -0.211 F 
ENDROOT
BRANCH   1   4
HETATM    4  C5  UNL     1      23.003  31.633  19.116  1.00  0.00     0.049 C 
HETATM    5  C6  UNL     1      24.489  31.448  18.901  1.00  0.00     0.016 C 
BRANCH   4   6
HETATM    6  C4  UNL     1      22.520  30.703  20.210  1.00  0.00     0.010 C 
BRANCH   6   7
HETATM    7  C3  UNL     1      22.699  29.276  19.726  1.00  0.00     0.000 C 
BRANCH   7   8
HETATM    8  C2  UNL     1      21.645  28.368  20.326  1.00  0.00    -0.005 C 
HETATM    9  C1  UNL     1      22.331  27.564  21.408  1.00  0.00     0.005 C 
ENDBRANCH   7   8
ENDBRANCH   6   7
ENDBRANCH   4   6
ENDBRANCH   1   4
BRANCH   1  10
HETATM   10  O1  UNL     1      23.908  33.857  19.173  1.00  0.00    -0.302 OA
BRANCH  10  11
HETATM   11  C9  UNL     1      23.906  34.870  18.225  1.00  0.00     0.116 C 
HETATM   12  S1  UNL     1      24.270  34.503  16.687  1.00  0.00    -0.058 SA
BRANCH  11  13
HETATM   13  C10 UNL     1      23.564  36.232  18.694  1.00  0.00     0.077 C 
BRANCH  13  14
HETATM   14  C11 UNL     1      23.545  37.236  17.571  1.00  0.00     0.003 C 
HETATM   15  C12 UNL     1      22.578  38.343  17.995  1.00  0.00     0.005 C 
ENDBRANCH  13  14
ENDBRANCH  11  13
ENDBRANCH  10  11
ENDBRANCH   1  10
TORSDOF 8
ENDMDL
MODEL 4
REMARK VINA RESULT: -5.177276497      4.111      8.163
REMARK  8 active torsions:
REMARK  status: ('A' for Active; 'I' for Inactive)
REMARK    1  A    between atoms: C2_2  and  C3_3 
REMARK    2  A    between atoms: C3_3  and  C4_4 
REMARK    3  A    between atoms: C4_4  and  C5_5 
REMARK    4  A    between atoms: C5_5  and  C7_7 
REMARK    5  A    between atoms: C7_7  and  O1_10 
REMARK    6  A    between atoms: O1_10  and  C9_11 
REMARK    7  A    between atoms: C9_11  and  C10_13 
REMARK    8  A    between atoms: C10_13  and  C11_14 
ROOT
HETATM    1  C7  UNL     1      23.346  35.504  18.318  1.00  0.00     0.210 C 
HETATM    2  C8  UNL     1      22.000  35.480  19.026  1.00  0.00     0.085 C 
HETATM    3  F1  UNL     1      24.335  35.943  19.169  1.00  0.00    -0.211 F 
ENDROOT
BRANCH   1   4
HETATM    4  C5  UNL     1      23.723  34.145  17.820  1.00  0.00     0.049 C 
HETATM    5  C6  UNL     1      25.199  34.163  17.492  1.00  0.00     0.016 C 
BRANCH   4   6
HETATM    6  C4  UNL     1      23.433  33.057  18.832  1.00  0.00     0.010 C 
BRANCH   6   7
HETATM    7  C3  UNL     1      24.463  31.958  18.650  1.00  0.00     0.000 C 
BRANCH   7   8
HETATM    8  C2  UNL     1      23.864  30.602  18.959  1.00  0.00    -0.005 C 
HETATM    9  C1  UNL     1      22.582  30.858  19.720  1.00  0.00     0.005 C 
ENDBRANCH   7   8
ENDBRANCH   6   7
ENDBRANCH   4   6
ENDBRANCH   1   4
BRANCH   1  10
HETATM   10  O1  UNL     1      23.237  36.427  17.251  1.00  0.00    -0.302 OA
BRANCH  10  11
HETATM   11  C9  UNL     1      23.374  37.796  17.439  1.00  0.00     0.116 C 
HETATM   12  S1  UNL     1      22.143  38.621  18.102  1.00  0.00    -0.058 SA
BRANCH  11  13
HETATM   13  C10 UNL     1      24.653  38.410  17.018  1.00  0.00     0.077 C 
BRANCH  13  14
HETATM   14  C11 UNL     1      24.580  39.915  16.981  1.00  0.00     0.003 C 
HETATM   15  C12 UNL     1      26.020  40.421  17.085  1.00  0.00     0.005 C 
ENDBRANCH  13  14
ENDBRANCH  11  13
ENDBRANCH  10  11
ENDBRANCH   1  10
TORSDOF 8
ENDMDL
MODEL 5
REMARK VINA RESULT: -5.034868714      3.499      7.744
REMARK  8 active torsions:
REMARK  status: ('A' for Active; 'I' for Inactive)
REMARK    1  A    between atoms: C2_2  and  C3_3 
REMARK    2  A    between atoms: C3_3  and  C4_4 
REMARK    3  A    between atoms: C4_4  and  C5_5 
REMARK    4  A    between atoms: C5_5  and  C7_7 
REMARK    5  A    between atoms: C7_7  and  O1_10 
REMARK    6  A    between atoms: O1_10  and  C9_11 
REMARK    7  A    between atoms: C9_11  and  C10_13 
REMARK    8  A    between atoms: C10_13  and  C11_14 
ROOT
HETATM    1  C7  UNL     1      23.940  34.670  17.949  1.00  0.00     0.210 C 
HETATM    2  C8  UNL     1      25.265  34.380  17.262  1.00  0.00     0.085 C 
HETATM    3  F1  UNL     1      22.907  34.653  17.037  1.00  0.00    -0.211 F 
ENDROOT
BRANCH   1   4
HETATM    4  C5  UNL     1      23.645  33.661  19.012  1.00  0.00     0.049 C 
HETATM    5  C6  UNL     1      22.148  33.640  19.232  1.00  0.00     0.016 C 
BRANCH   4   6
HETATM    6  C4  UNL     1      24.132  32.275  18.645  1.00  0.00     0.010 C 
BRANCH   6   7
HETATM    7  C3  UNL     1      23.163  31.266  19.234  1.00  0.00     0.000 C 
BRANCH   7   8
HETATM    8  C2  UNL     1      23.723  29.862  19.135  1.00  0.00    -0.005 C 
HETATM    9  C1  UNL     1      22.655  28.931  19.668  1.00  0.00     0.005 C 
ENDBRANCH   7   8
ENDBRANCH   6   7
ENDBRANCH   4   6
ENDBRANCH   1   4
BRANCH   1  10
HETATM   10  O1  UNL     1      24.030  35.974  18.492  1.00  0.00    -0.302 OA
BRANCH  10  11
HETATM   11  C9  UNL     1      23.349  37.053  17.945  1.00  0.00     0.116 C 
HETATM   12  S1  UNL     1      21.909  37.467  18.569  1.00  0.00    -0.058 SA
BRANCH  11  13
HETATM   13  C10 UNL     1      23.998  37.758  16.817  1.00  0.00     0.077 C 
BRANCH  13  14
HETATM   14  C11 UNL     1      23.515  39.178  16.677  1.00  0.00     0.003 C 
HETATM   15  C12 UNL     1      24.710  40.076  17.003  1.00  0.00     0.005 C 
ENDBRANCH  13  14
ENDBRANCH  11  13
ENDBRANCH  10  11
ENDBRANCH   1  10
TORSDOF 8
ENDMDL
