MODEL 1
REMARK VINA RESULT: -7.421584514      0.000      0.000
REMARK  3 active torsions:
REMARK  status: ('A' for Active; 'I' for Inactive)
REMARK    1  A    between atoms: C5_6  and  C6_7 
REMARK    2  A    between atoms: C6_7  and  C7_8 
REMARK    3  A    between atoms: C7_8  and  C8_9 
ROOT
HETATM    1  C1  UNL     1      -7.106  -7.848  17.395  1.00  0.00     0.221 C 
HETATM    2  N1  UNL     1      -6.285  -7.076  17.593  1.00  0.00    -0.466 NA
HETATM    3  C2  UNL     1      -5.275  -6.132  17.816  1.00  0.00     0.161 C 
HETATM    4  C3  UNL     1      -3.946  -6.840  17.784  1.00  0.00     0.040 C 
HETATM    5  C4  UNL     1      -2.990  -5.752  17.435  1.00  0.00     0.008 C 
HETATM    6  C5  UNL     1      -3.729  -4.896  16.394  1.00  0.00    -0.011 C 
HETATM    7  C9  UNL     1      -5.173  -5.157  16.674  1.00  0.00     0.044 C 
ENDROOT
BRANCH   6   8
HETATM    8  C6  UNL     1      -3.251  -3.513  16.614  1.00  0.00     0.011 C 
BRANCH   8   9
HETATM    9  C7  UNL     1      -4.210  -2.410  16.265  1.00  0.00     0.070 C 
BRANCH   9  10
HETATM   10  C8  UNL     1      -3.565  -1.135  15.942  1.00  0.00     0.231 C 
HETATM   11  O1  UNL     1      -2.669  -1.101  15.105  1.00  0.00    -0.307 OA
ENDBRANCH   9  10
ENDBRANCH   8   9
ENDBRANCH   6   8
TORSDOF 3
ENDMDL
MODEL 2
REMARK VINA RESULT: -7.079493817      3.542      5.517
REMARK  3 active torsions:
REMARK  status: ('A' for Active; 'I' for Inactive)
REMARK    1  A    between atoms: C5_6  and  C6_7 
REMARK    2  A    between atoms: C6_7  and  C7_8 
REMARK    3  A    between atoms: C7_8  and  C8_9 
ROOT
HETATM    1  C1  UNL     1      -3.969  -2.259  16.190  1.00  0.00     0.221 C 
HETATM    2  N1  UNL     1      -4.092  -3.396  16.239  1.00  0.00    -0.466 NA
HETATM    3  C2  UNL     1      -4.250  -4.785  16.317  1.00  0.00     0.161 C 
HETATM    4  C3  UNL     1      -3.233  -5.326  17.288  1.00  0.00     0.040 C 
HETATM    5  C4  UNL     1      -3.841  -6.611  17.736  1.00  0.00     0.008 C 
HETATM    6  C5  UNL     1      -5.342  -6.309  17.874  1.00  0.00    -0.011 C 
HETATM    7  C9  UNL     1      -5.562  -5.153  16.954  1.00  0.00     0.044 C 
ENDROOT
BRANCH   6   8
HETATM    8  C6  UNL     1      -6.029  -7.572  17.527  1.00  0.00     0.011 C 
BRANCH   8   9
HETATM    9  C7  UNL     1      -7.516  -7.494  17.329  1.00  0.00     0.070 C 
BRANCH   9  10
HETATM   10  C8  UNL     1      -8.128  -8.746  16.877  1.00  0.00     0.231 C 
HETATM   11  O1  UNL     1      -8.579  -9.535  17.701  1.00  0.00    -0.307 OA
ENDBRANCH   9  10
ENDBRANCH   8   9
ENDBRANCH   6   8
TORSDOF 3
ENDMDL
MODEL 3
REMARK VINA RESULT: -6.901968736      3.013      5.055
REMARK  3 active torsions:
REMARK  status: ('A' for Active; 'I' for Inactive)
REMARK    1  A    between atoms: C5_6  and  C6_7 
REMARK    2  A    between atoms: C6_7  and  C7_8 
REMARK    3  A    between atoms: C7_8  and  C8_9 
ROOT
HETATM    1  C1  UNL     1      -3.945  -2.291  16.158  1.00  0.00     0.221 C 
HETATM    2  N1  UNL     1      -4.073  -3.425  16.242  1.00  0.00    -0.466 NA
HETATM    3  C2  UNL     1      -4.238  -4.810  16.363  1.00  0.00     0.161 C 
HETATM    4  C3  UNL     1      -3.267  -5.317  17.396  1.00  0.00     0.040 C 
HETATM    5  C4  UNL     1      -3.897  -6.585  17.863  1.00  0.00     0.008 C 
HETATM    6  C5  UNL     1      -5.402  -6.277  17.923  1.00  0.00    -0.011 C 
HETATM    7  C9  UNL     1      -5.578  -5.155  16.953  1.00  0.00     0.044 C 
ENDROOT
BRANCH   6   8
HETATM    8  C6  UNL     1      -6.076  -7.551  17.591  1.00  0.00     0.011 C 
BRANCH   8   9
HETATM    9  C7  UNL     1      -7.353  -7.450  16.806  1.00  0.00     0.070 C 
BRANCH   9  10
HETATM   10  C8  UNL     1      -8.559  -7.352  17.632  1.00  0.00     0.231 C 
HETATM   11  O1  UNL     1      -8.981  -6.250  17.964  1.00  0.00    -0.307 OA
ENDBRANCH   9  10
ENDBRANCH   8   9
ENDBRANCH   6   8
TORSDOF 3
ENDMDL
MODEL 4
REMARK VINA RESULT: -6.392166566      1.325      1.595
REMARK  3 active torsions:
REMARK  status: ('A' for Active; 'I' for Inactive)
REMARK    1  A    between atoms: C5_6  and  C6_7 
REMARK    2  A    between atoms: C6_7  and  C7_8 
REMARK    3  A    between atoms: C7_8  and  C8_9 
ROOT
HETATM    1  C1  UNL     1      -7.499  -8.174  17.367  1.00  0.00     0.221 C 
HETATM    2  N1  UNL     1      -6.755  -7.329  17.568  1.00  0.00    -0.466 NA
HETATM    3  C2  UNL     1      -5.836  -6.297  17.794  1.00  0.00     0.161 C 
HETATM    4  C3  UNL     1      -4.471  -6.906  17.979  1.00  0.00     0.040 C 
HETATM    5  C4  UNL     1      -3.549  -5.792  17.619  1.00  0.00     0.008 C 
HETATM    6  C5  UNL     1      -4.217  -5.100  16.420  1.00  0.00    -0.011 C 
HETATM    7  C9  UNL     1      -5.664  -5.436  16.572  1.00  0.00     0.044 C 
ENDROOT
BRANCH   6   8
HETATM    8  C6  UNL     1      -3.852  -3.671  16.540  1.00  0.00     0.011 C 
BRANCH   8   9
HETATM    9  C7  UNL     1      -2.889  -3.138  15.517  1.00  0.00     0.070 C 
BRANCH   9  10
HETATM   10  C8  UNL     1      -1.819  -4.070  15.157  1.00  0.00     0.231 C 
HETATM   11  O1  UNL     1      -0.713  -3.638  14.851  1.00  0.00    -0.307 OA
ENDBRANCH   9  10
ENDBRANCH   8   9
ENDBRANCH   6   8
TORSDOF 3
ENDMDL
MODEL 5
REMARK VINA RESULT: -6.373045521      1.899      2.095
REMARK  3 active torsions:
REMARK  status: ('A' for Active; 'I' for Inactive)
REMARK    1  A    between atoms: C5_6  and  C6_7 
REMARK    2  A    between atoms: C6_7  and  C7_8 
REMARK    3  A    between atoms: C7_8  and  C8_9 
ROOT
HETATM    1  C1  UNL     1      -8.492  -7.025  17.213  1.00  0.00     0.221 C 
HETATM    2  N1  UNL     1      -7.456  -6.669  17.542  1.00  0.00    -0.466 NA
HETATM    3  C2  UNL     1      -6.181  -6.234  17.925  1.00  0.00     0.161 C 
HETATM    4  C3  UNL     1      -5.235  -7.403  17.843  1.00  0.00     0.040 C 
HETATM    5  C4  UNL     1      -3.904  -6.753  17.678  1.00  0.00     0.008 C 
HETATM    6  C5  UNL     1      -4.161  -5.564  16.738  1.00  0.00    -0.011 C 
HETATM    7  C9  UNL     1      -5.610  -5.260  16.930  1.00  0.00     0.044 C 
ENDROOT
BRANCH   6   8
HETATM    8  C6  UNL     1      -3.203  -4.518  17.159  1.00  0.00     0.011 C 
BRANCH   8   9
HETATM    9  C7  UNL     1      -1.792  -4.662  16.663  1.00  0.00     0.070 C 
BRANCH   9  10
HETATM   10  C8  UNL     1      -1.620  -4.350  15.242  1.00  0.00     0.231 C 
HETATM   11  O1  UNL     1      -0.612  -3.762  14.866  1.00  0.00    -0.307 OA
ENDBRANCH   9  10
ENDBRANCH   8   9
ENDBRANCH   6   8
TORSDOF 3
ENDMDL
