MODEL 1
REMARK VINA RESULT: -7.334395131      0.000      0.000
REMARK  3 active torsions:
REMARK  status: ('A' for Active; 'I' for Inactive)
REMARK    1  A    between atoms: C5_5  and  C6_6 
REMARK    2  A    between atoms: C6_6  and  N1_9 
REMARK    3  A    between atoms: N1_9  and  C9_11 
ROOT
HETATM    1  C1  UNL     1      -7.256  -7.137  17.418  1.00  0.00     0.012 C 
HETATM    2  C2  UNL     1      -6.180  -6.690  17.741  1.00  0.00    -0.112 C 
HETATM    3  C3  UNL     1      -4.874  -6.127  18.137  1.00  0.00     0.074 A 
HETATM    4  C4  UNL     1      -3.714  -7.026  17.888  1.00  0.00     0.030 A 
HETATM    5  C5  UNL     1      -3.893  -5.790  17.056  1.00  0.00     0.052 A 
ENDROOT
BRANCH   5   6
HETATM    6  C6  UNL     1      -2.815  -4.786  17.256  1.00  0.00     0.013 C 
HETATM    7  C7  UNL     1      -3.062  -3.583  16.802  1.00  0.00    -0.006 C 
HETATM    8  C8  UNL     1      -4.377  -3.319  16.133  1.00  0.00     0.038 C 
BRANCH   6   9
HETATM    9  N1  UNL     1      -1.623  -5.191  17.902  1.00  0.00    -0.338 N 
ATOM     10  H1  UNL     1      -1.220  -6.066  17.569  1.00  0.00     0.168 HD
BRANCH   9  11
HETATM   11  C9  UNL     1      -0.922  -4.563  18.929  1.00  0.00     0.353 C 
HETATM   12  O1  UNL     1      -0.633  -5.098  20.006  1.00  0.00    -0.283 OA
ENDBRANCH   9  11
ENDBRANCH   6   9
ENDBRANCH   5   6
TORSDOF 3
ENDMDL
MODEL 2
REMARK VINA RESULT: -6.781866143      2.806      4.809
REMARK  3 active torsions:
REMARK  status: ('A' for Active; 'I' for Inactive)
REMARK    1  A    between atoms: C5_5  and  C6_6 
REMARK    2  A    between atoms: C6_6  and  N1_9 
REMARK    3  A    between atoms: N1_9  and  C9_11 
ROOT
HETATM    1  C1  UNL     1      -3.373  -0.822  16.046  1.00  0.00     0.012 C 
HETATM    2  C2  UNL     1      -3.848  -1.933  16.067  1.00  0.00    -0.112 C 
HETATM    3  C3  UNL     1      -4.439  -3.286  16.106  1.00  0.00     0.074 A 
HETATM    4  C4  UNL     1      -3.646  -4.326  15.394  1.00  0.00     0.030 A 
HETATM    5  C5  UNL     1      -3.728  -4.345  16.892  1.00  0.00     0.052 A 
ENDROOT
BRANCH   5   6
HETATM    6  C6  UNL     1      -4.437  -5.538  17.427  1.00  0.00     0.013 C 
HETATM    7  C7  UNL     1      -3.791  -6.228  18.334  1.00  0.00    -0.006 C 
HETATM    8  C8  UNL     1      -2.425  -5.774  18.750  1.00  0.00     0.038 C 
BRANCH   6   9
HETATM    9  N1  UNL     1      -5.725  -5.841  16.928  1.00  0.00    -0.338 N 
ATOM     10  H1  UNL     1      -5.911  -5.527  15.976  1.00  0.00     0.168 HD
BRANCH   9  11
HETATM   11  C9  UNL     1      -6.776  -6.509  17.553  1.00  0.00     0.353 C 
HETATM   12  O1  UNL     1      -6.832  -7.734  17.705  1.00  0.00    -0.283 OA
ENDBRANCH   9  11
ENDBRANCH   6   9
ENDBRANCH   5   6
TORSDOF 3
ENDMDL
MODEL 3
REMARK VINA RESULT: -6.589471393      1.167      1.167
REMARK  3 active torsions:
REMARK  status: ('A' for Active; 'I' for Inactive)
REMARK    1  A    between atoms: C5_5  and  C6_6 
REMARK    2  A    between atoms: C6_6  and  N1_9 
REMARK    3  A    between atoms: N1_9  and  C9_11 
ROOT
HETATM    1  C1  UNL     1      -7.191  -7.531  17.415  1.00  0.00     0.012 C 
HETATM    2  C2  UNL     1      -6.168  -6.946  17.683  1.00  0.00    -0.112 C 
HETATM    3  C3  UNL     1      -4.928  -6.214  18.008  1.00  0.00     0.074 A 
HETATM    4  C4  UNL     1      -3.692  -7.042  17.952  1.00  0.00     0.030 A 
HETATM    5  C5  UNL     1      -3.932  -5.988  16.911  1.00  0.00     0.052 A 
ENDROOT
BRANCH   5   6
HETATM    6  C6  UNL     1      -2.945  -4.878  16.959  1.00  0.00     0.013 C 
HETATM    7  C7  UNL     1      -3.399  -3.695  16.628  1.00  0.00    -0.006 C 
HETATM    8  C8  UNL     1      -4.839  -3.556  16.237  1.00  0.00     0.038 C 
BRANCH   6   9
HETATM    9  N1  UNL     1      -1.615  -5.169  17.343  1.00  0.00    -0.338 N 
ATOM     10  H1  UNL     1      -1.518  -5.768  18.163  1.00  0.00     0.168 HD
BRANCH   9  11
HETATM   11  C9  UNL     1      -0.419  -4.753  16.762  1.00  0.00     0.353 C 
HETATM   12  O1  UNL     1       0.560  -4.344  17.397  1.00  0.00    -0.283 OA
ENDBRANCH   9  11
ENDBRANCH   6   9
ENDBRANCH   5   6
TORSDOF 3
ENDMDL
MODEL 4
REMARK VINA RESULT: -6.311433427      2.436      3.381
REMARK  3 active torsions:
REMARK  status: ('A' for Active; 'I' for Inactive)
REMARK    1  A    between atoms: C5_5  and  C6_6 
REMARK    2  A    between atoms: C6_6  and  N1_9 
REMARK    3  A    between atoms: N1_9  and  C9_11 
ROOT
HETATM    1  C1  UNL     1      -8.050  -8.872  17.187  1.00  0.00     0.012 C 
HETATM    2  C2  UNL     1      -7.457  -7.831  17.031  1.00  0.00    -0.112 C 
HETATM    3  C3  UNL     1      -6.725  -6.566  16.824  1.00  0.00     0.074 A 
HETATM    4  C4  UNL     1      -6.772  -5.630  17.981  1.00  0.00     0.030 A 
HETATM    5  C5  UNL     1      -5.488  -6.325  17.636  1.00  0.00     0.052 A 
ENDROOT
BRANCH   5   6
HETATM    6  C6  UNL     1      -4.420  -5.395  17.186  1.00  0.00     0.013 C 
HETATM    7  C7  UNL     1      -3.254  -5.540  17.765  1.00  0.00    -0.006 C 
HETATM    8  C8  UNL     1      -3.093  -6.603  18.809  1.00  0.00     0.038 C 
BRANCH   6   9
HETATM    9  N1  UNL     1      -4.729  -4.437  16.192  1.00  0.00    -0.338 N 
ATOM     10  H1  UNL     1      -5.567  -4.628  15.645  1.00  0.00     0.168 HD
BRANCH   9  11
HETATM   11  C9  UNL     1      -4.049  -3.268  15.854  1.00  0.00     0.353 C 
HETATM   12  O1  UNL     1      -4.395  -2.134  16.205  1.00  0.00    -0.283 OA
ENDBRANCH   9  11
ENDBRANCH   6   9
ENDBRANCH   5   6
TORSDOF 3
ENDMDL
MODEL 5
REMARK VINA RESULT: -6.181023705      1.155      1.234
REMARK  3 active torsions:
REMARK  status: ('A' for Active; 'I' for Inactive)
REMARK    1  A    between atoms: C5_5  and  C6_6 
REMARK    2  A    between atoms: C6_6  and  N1_9 
REMARK    3  A    between atoms: N1_9  and  C9_11 
ROOT
HETATM    1  C1  UNL     1      -8.511  -5.951  17.885  1.00  0.00     0.012 C 
HETATM    2  C2  UNL     1      -7.322  -6.036  18.081  1.00  0.00    -0.112 C 
HETATM    3  C3  UNL     1      -5.869  -6.123  18.328  1.00  0.00     0.074 A 
HETATM    4  C4  UNL     1      -5.185  -7.229  17.604  1.00  0.00     0.030 A 
HETATM    5  C5  UNL     1      -4.939  -5.806  17.196  1.00  0.00     0.052 A 
ENDROOT
BRANCH   5   6
HETATM    6  C6  UNL     1      -3.539  -5.362  17.427  1.00  0.00     0.013 C 
HETATM    7  C7  UNL     1      -3.114  -4.389  16.661  1.00  0.00    -0.006 C 
HETATM    8  C8  UNL     1      -4.047  -3.815  15.638  1.00  0.00     0.038 C 
BRANCH   6   9
HETATM    9  N1  UNL     1      -2.779  -6.009  18.430  1.00  0.00    -0.338 N 
ATOM     10  H1  UNL     1      -2.733  -7.025  18.357  1.00  0.00     0.168 HD
BRANCH   9  11
HETATM   11  C9  UNL     1      -2.085  -5.455  19.503  1.00  0.00     0.353 C 
HETATM   12  O1  UNL     1      -0.888  -5.147  19.475  1.00  0.00    -0.283 OA
ENDBRANCH   9  11
ENDBRANCH   6   9
ENDBRANCH   5   6
TORSDOF 3
ENDMDL
