MODEL 1
REMARK VINA RESULT: -6.360278970      0.000      0.000
REMARK  2 active torsions:
REMARK  status: ('A' for Active; 'I' for Inactive)
REMARK    1  A    between atoms: C2_2  and  C3_3 
REMARK    2  A    between atoms: C3_3  and  N1_4 
REMARK       I    between atoms: N1_4  and  C4_6 
REMARK       I    between atoms: C4_6  and  N2_8 
ROOT
HETATM    1  N1  UNL     1      -4.527  -4.110  16.561  1.00  0.00    -0.340 N 
ATOM      2  H1  UNL     1      -5.439  -3.668  16.666  1.00  0.00     0.164 HD
HETATM    3  C4  UNL     1      -4.385  -5.474  16.919  1.00  0.00     0.318 C 
HETATM    4  O1  UNL     1      -3.285  -6.026  16.796  1.00  0.00    -0.247 OA
HETATM    5  N2  UNL     1      -5.496  -6.180  17.407  1.00  0.00    -0.334 N 
HETATM    6  C5  UNL     1      -6.864  -5.706  17.619  1.00  0.00     0.127 C 
HETATM    7  C6  UNL     1      -7.721  -6.916  17.466  1.00  0.00     0.022 C 
HETATM    8  C7  UNL     1      -6.805  -8.124  17.414  1.00  0.00     0.022 C 
HETATM    9  C8  UNL     1      -5.434  -7.591  17.798  1.00  0.00     0.127 C 
ENDROOT
BRANCH   1  10
HETATM   10  C3  UNL     1      -3.428  -3.321  16.052  1.00  0.00     0.150 C 
BRANCH  10  11
HETATM   11  C2  UNL     1      -3.821  -1.891  16.142  1.00  0.00    -0.018 C 
HETATM   12  C1  UNL     1      -3.185  -0.977  15.457  1.00  0.00     0.008 C 
ENDBRANCH  10  11
ENDBRANCH   1  10
TORSDOF 2
ENDMDL
MODEL 2
REMARK VINA RESULT: -5.957713719      1.448      1.661
REMARK  2 active torsions:
REMARK  status: ('A' for Active; 'I' for Inactive)
REMARK    1  A    between atoms: C2_2  and  C3_3 
REMARK    2  A    between atoms: C3_3  and  N1_4 
REMARK       I    between atoms: N1_4  and  C4_6 
REMARK       I    between atoms: C4_6  and  N2_8 
ROOT
HETATM    1  N1  UNL     1      -3.760  -5.103  17.477  1.00  0.00    -0.340 N 
ATOM      2  H1  UNL     1      -4.449  -4.355  17.552  1.00  0.00     0.164 HD
HETATM    3  C4  UNL     1      -4.205  -6.447  17.533  1.00  0.00     0.318 C 
HETATM    4  O1  UNL     1      -3.383  -7.367  17.443  1.00  0.00    -0.247 OA
HETATM    5  N2  UNL     1      -5.575  -6.717  17.689  1.00  0.00    -0.334 N 
HETATM    6  C5  UNL     1      -6.687  -5.775  17.811  1.00  0.00     0.127 C 
HETATM    7  C6  UNL     1      -7.871  -6.502  17.271  1.00  0.00     0.022 C 
HETATM    8  C7  UNL     1      -7.469  -7.951  17.074  1.00  0.00     0.022 C 
HETATM    9  C8  UNL     1      -6.117  -8.077  17.756  1.00  0.00     0.127 C 
ENDROOT
BRANCH   1  10
HETATM   10  C3  UNL     1      -2.368  -4.750  17.318  1.00  0.00     0.150 C 
BRANCH  10  11
HETATM   11  C2  UNL     1      -2.155  -4.387  15.893  1.00  0.00    -0.018 C 
HETATM   12  C1  UNL     1      -3.126  -3.884  15.177  1.00  0.00     0.008 C 
ENDBRANCH  10  11
ENDBRANCH   1  10
TORSDOF 2
ENDMDL
MODEL 3
REMARK VINA RESULT: -5.708194507      1.618      5.072
REMARK  2 active torsions:
REMARK  status: ('A' for Active; 'I' for Inactive)
REMARK    1  A    between atoms: C2_2  and  C3_3 
REMARK    2  A    between atoms: C3_3  and  N1_4 
REMARK       I    between atoms: N1_4  and  C4_6 
REMARK       I    between atoms: C4_6  and  N2_8 
ROOT
HETATM    1  N1  UNL     1      -6.759  -5.861  17.309  1.00  0.00    -0.340 N 
ATOM      2  H1  UNL     1      -6.976  -4.983  16.839  1.00  0.00     0.164 HD
HETATM    3  C4  UNL     1      -5.401  -6.249  17.435  1.00  0.00     0.318 C 
HETATM    4  O1  UNL     1      -5.120  -7.310  18.003  1.00  0.00    -0.247 OA
HETATM    5  N2  UNL     1      -4.394  -5.421  16.913  1.00  0.00    -0.334 N 
HETATM    6  C5  UNL     1      -4.527  -4.141  16.216  1.00  0.00     0.127 C 
HETATM    7  C6  UNL     1      -3.259  -3.411  16.502  1.00  0.00     0.022 C 
HETATM    8  C7  UNL     1      -2.305  -4.390  17.158  1.00  0.00     0.022 C 
HETATM    9  C8  UNL     1      -2.968  -5.748  17.002  1.00  0.00     0.127 C 
ENDROOT
BRANCH   1  10
HETATM   10  C3  UNL     1      -7.848  -6.661  17.821  1.00  0.00     0.150 C 
BRANCH  10  11
HETATM   11  C2  UNL     1      -8.258  -7.603  16.748  1.00  0.00    -0.018 C 
HETATM   12  C1  UNL     1      -8.205  -8.896  16.934  1.00  0.00     0.008 C 
ENDBRANCH  10  11
ENDBRANCH   1  10
TORSDOF 2
ENDMDL
MODEL 4
REMARK VINA RESULT: -5.595774942      1.481      4.999
REMARK  2 active torsions:
REMARK  status: ('A' for Active; 'I' for Inactive)
REMARK    1  A    between atoms: C2_2  and  C3_3 
REMARK    2  A    between atoms: C3_3  and  N1_4 
REMARK       I    between atoms: N1_4  and  C4_6 
REMARK       I    between atoms: C4_6  and  N2_8 
ROOT
HETATM    1  N1  UNL     1      -5.973  -6.723  17.207  1.00  0.00    -0.340 N 
ATOM      2  H1  UNL     1      -6.499  -5.990  16.731  1.00  0.00     0.164 HD
HETATM    3  C4  UNL     1      -4.567  -6.586  17.326  1.00  0.00     0.318 C 
HETATM    4  O1  UNL     1      -3.915  -7.466  17.900  1.00  0.00    -0.247 OA
HETATM    5  N2  UNL     1      -3.935  -5.453  16.790  1.00  0.00    -0.334 N 
HETATM    6  C5  UNL     1      -4.529  -4.317  16.085  1.00  0.00     0.127 C 
HETATM    7  C6  UNL     1      -3.615  -3.171  16.356  1.00  0.00     0.022 C 
HETATM    8  C7  UNL     1      -2.366  -3.726  17.012  1.00  0.00     0.022 C 
HETATM    9  C8  UNL     1      -2.488  -5.235  16.871  1.00  0.00     0.127 C 
ENDROOT
BRANCH   1  10
HETATM   10  C3  UNL     1      -6.692  -7.861  17.732  1.00  0.00     0.150 C 
BRANCH  10  11
HETATM   11  C2  UNL     1      -7.633  -8.325  16.681  1.00  0.00    -0.018 C 
HETATM   12  C1  UNL     1      -8.455  -7.490  16.102  1.00  0.00     0.008 C 
ENDBRANCH  10  11
ENDBRANCH   1  10
TORSDOF 2
ENDMDL
MODEL 5
REMARK VINA RESULT: -5.526957744      1.034      5.087
REMARK  2 active torsions:
REMARK  status: ('A' for Active; 'I' for Inactive)
REMARK    1  A    between atoms: C2_2  and  C3_3 
REMARK    2  A    between atoms: C3_3  and  N1_4 
REMARK       I    between atoms: N1_4  and  C4_6 
REMARK       I    between atoms: C4_6  and  N2_8 
ROOT
HETATM    1  N1  UNL     1      -4.451  -5.564  17.461  1.00  0.00    -0.340 N 
ATOM      2  H1  UNL     1      -5.239  -4.951  17.667  1.00  0.00     0.164 HD
HETATM    3  C4  UNL     1      -3.429  -5.094  16.599  1.00  0.00     0.318 C 
HETATM    4  O1  UNL     1      -2.466  -5.825  16.339  1.00  0.00    -0.247 OA
HETATM    5  N2  UNL     1      -3.524  -3.803  16.053  1.00  0.00    -0.334 N 
HETATM    6  C5  UNL     1      -4.573  -2.802  16.242  1.00  0.00     0.127 C 
HETATM    7  C6  UNL     1      -3.893  -1.488  16.055  1.00  0.00     0.022 C 
HETATM    8  C7  UNL     1      -2.505  -1.764  15.512  1.00  0.00     0.022 C 
HETATM    9  C8  UNL     1      -2.511  -3.242  15.155  1.00  0.00     0.127 C 
ENDROOT
BRANCH   1  10
HETATM   10  C3  UNL     1      -4.421  -6.879  18.059  1.00  0.00     0.150 C 
BRANCH  10  11
HETATM   11  C2  UNL     1      -5.664  -7.586  17.657  1.00  0.00    -0.018 C 
HETATM   12  C1  UNL     1      -6.813  -6.962  17.636  1.00  0.00     0.008 C 
ENDBRANCH  10  11
ENDBRANCH   1  10
TORSDOF 2
ENDMDL
