MODEL 1
REMARK VINA RESULT: -6.721050875      0.000      0.000
REMARK  3 active torsions:
REMARK  status: ('A' for Active; 'I' for Inactive)
REMARK    1  A    between atoms: C2_2  and  N1_3 
REMARK    2  A    between atoms: N1_3  and  C4_5 
REMARK    3  A    between atoms: C7_8  and  N2_9 
ROOT
HETATM    1  C4  UNL     1      -3.779  -4.718  17.214  1.00  0.00     0.085 C 
HETATM    2  C5  UNL     1      -2.376  -4.881  16.746  1.00  0.00     0.027 C 
HETATM    3  C6  UNL     1      -2.338  -4.352  15.305  1.00  0.00     0.029 C 
HETATM    4  C7  UNL     1      -3.400  -3.276  15.331  1.00  0.00     0.100 C 
HETATM    5  C8  UNL     1      -4.497  -3.943  16.134  1.00  0.00     0.051 C 
ENDROOT
BRANCH   4   6
HETATM    6  N2  UNL     1      -2.925  -2.113  16.018  1.00  0.00    -0.338 N 
HETATM    7  N3  UNL     1      -2.864  -1.005  15.445  1.00  0.00    -0.349 N 
ATOM      8  H32 UNL     1      -3.161  -0.945  14.472  1.00  0.00     0.176 HD
ATOM      9  H31 UNL     1      -2.525  -0.176  15.933  1.00  0.00     0.176 HD
ATOM     10  H2  UNL     1      -2.631  -2.191  16.991  1.00  0.00     0.180 HD
ENDBRANCH   4   6
BRANCH   1  11
HETATM   11  N1  UNL     1      -4.490  -5.934  17.441  1.00  0.00    -0.390 N 
HETATM   12  C3  UNL     1      -3.903  -7.177  17.875  1.00  0.00     0.149 C 
BRANCH  11  13
HETATM   13  C2  UNL     1      -5.887  -5.905  17.219  1.00  0.00     0.075 C 
HETATM   14  C1  UNL     1      -6.611  -6.950  17.563  1.00  0.00     0.029 C 
ENDBRANCH  11  13
ENDBRANCH   1  11
TORSDOF 3
ENDMDL
MODEL 2
REMARK VINA RESULT: -5.911775453      1.605      4.541
REMARK  3 active torsions:
REMARK  status: ('A' for Active; 'I' for Inactive)
REMARK    1  A    between atoms: C2_2  and  N1_3 
REMARK    2  A    between atoms: N1_3  and  C4_5 
REMARK    3  A    between atoms: C7_8  and  N2_9 
ROOT
HETATM    1  C4  UNL     1      -3.891  -5.272  16.298  1.00  0.00     0.085 C 
HETATM    2  C5  UNL     1      -3.119  -5.963  17.365  1.00  0.00     0.027 C 
HETATM    3  C6  UNL     1      -4.030  -6.005  18.601  1.00  0.00     0.029 C 
HETATM    4  C7  UNL     1      -5.406  -6.074  17.979  1.00  0.00     0.100 C 
HETATM    5  C8  UNL     1      -5.286  -5.079  16.845  1.00  0.00     0.051 C 
ENDROOT
BRANCH   4   6
HETATM    6  N2  UNL     1      -5.661  -7.385  17.460  1.00  0.00    -0.338 N 
HETATM    7  N3  UNL     1      -6.791  -7.907  17.551  1.00  0.00    -0.349 N 
ATOM      8  H32 UNL     1      -7.535  -7.379  18.006  1.00  0.00     0.176 HD
ATOM      9  H31 UNL     1      -6.972  -8.840  17.181  1.00  0.00     0.176 HD
ATOM     10  H2  UNL     1      -4.906  -7.899  17.008  1.00  0.00     0.180 HD
ENDBRANCH   4   6
BRANCH   1  11
HETATM   11  N1  UNL     1      -3.382  -3.996  15.909  1.00  0.00    -0.390 N 
HETATM   12  C3  UNL     1      -2.124  -3.765  15.245  1.00  0.00     0.149 C 
BRANCH  11  13
HETATM   13  C2  UNL     1      -4.191  -2.872  16.202  1.00  0.00     0.075 C 
HETATM   14  C1  UNL     1      -3.694  -1.665  16.030  1.00  0.00     0.029 C 
ENDBRANCH  11  13
ENDBRANCH   1  11
TORSDOF 3
ENDMDL
MODEL 3
REMARK VINA RESULT: -5.844120489      1.296      2.033
REMARK  3 active torsions:
REMARK  status: ('A' for Active; 'I' for Inactive)
REMARK    1  A    between atoms: C2_2  and  N1_3 
REMARK    2  A    between atoms: N1_3  and  C4_5 
REMARK    3  A    between atoms: C7_8  and  N2_9 
ROOT
HETATM    1  C4  UNL     1      -5.075  -5.296  17.805  1.00  0.00     0.085 C 
HETATM    2  C5  UNL     1      -3.786  -5.964  18.128  1.00  0.00     0.027 C 
HETATM    3  C6  UNL     1      -2.947  -5.931  16.842  1.00  0.00     0.029 C 
HETATM    4  C7  UNL     1      -3.423  -4.655  16.185  1.00  0.00     0.100 C 
HETATM    5  C8  UNL     1      -4.917  -4.725  16.416  1.00  0.00     0.051 C 
ENDROOT
BRANCH   4   6
HETATM    6  N2  UNL     1      -2.875  -3.510  16.848  1.00  0.00    -0.338 N 
HETATM    7  N3  UNL     1      -3.215  -2.352  16.526  1.00  0.00    -0.349 N 
ATOM      8  H32 UNL     1      -3.895  -2.238  15.776  1.00  0.00     0.176 HD
ATOM      9  H31 UNL     1      -2.824  -1.537  16.998  1.00  0.00     0.176 HD
ATOM     10  H2  UNL     1      -2.195  -3.642  17.596  1.00  0.00     0.180 HD
ENDBRANCH   4   6
BRANCH   1  11
HETATM   11  N1  UNL     1      -6.221  -6.148  17.812  1.00  0.00    -0.390 N 
HETATM   12  C3  UNL     1      -7.573  -5.726  18.078  1.00  0.00     0.149 C 
BRANCH  11  13
HETATM   13  C2  UNL     1      -5.998  -7.516  17.531  1.00  0.00     0.075 C 
HETATM   14  C1  UNL     1      -7.031  -8.296  17.290  1.00  0.00     0.029 C 
ENDBRANCH  11  13
ENDBRANCH   1  11
TORSDOF 3
ENDMDL
MODEL 4
REMARK VINA RESULT: -5.688835077      0.669      1.357
REMARK  3 active torsions:
REMARK  status: ('A' for Active; 'I' for Inactive)
REMARK    1  A    between atoms: C2_2  and  N1_3 
REMARK    2  A    between atoms: N1_3  and  C4_5 
REMARK    3  A    between atoms: C7_8  and  N2_9 
ROOT
HETATM    1  C4  UNL     1      -3.598  -4.355  17.043  1.00  0.00     0.085 C 
HETATM    2  C5  UNL     1      -2.234  -4.749  16.600  1.00  0.00     0.027 C 
HETATM    3  C6  UNL     1      -2.144  -4.395  15.108  1.00  0.00     0.029 C 
HETATM    4  C7  UNL     1      -3.060  -3.195  15.010  1.00  0.00     0.100 C 
HETATM    5  C8  UNL     1      -4.223  -3.620  15.881  1.00  0.00     0.051 C 
ENDROOT
BRANCH   4   6
HETATM    6  N2  UNL     1      -2.430  -2.033  15.563  1.00  0.00    -0.338 N 
HETATM    7  N3  UNL     1      -2.930  -0.898  15.419  1.00  0.00    -0.349 N 
ATOM      8  H32 UNL     1      -3.802  -0.814  14.897  1.00  0.00     0.176 HD
ATOM      9  H31 UNL     1      -2.482  -0.071  15.812  1.00  0.00     0.176 HD
ATOM     10  H2  UNL     1      -1.559  -2.135  16.082  1.00  0.00     0.180 HD
ENDBRANCH   4   6
BRANCH   1  11
HETATM   11  N1  UNL     1      -4.457  -5.437  17.404  1.00  0.00    -0.390 N 
HETATM   12  C3  UNL     1      -5.862  -5.525  17.095  1.00  0.00     0.149 C 
BRANCH  11  13
HETATM   13  C2  UNL     1      -3.869  -6.504  18.122  1.00  0.00     0.075 C 
HETATM   14  C1  UNL     1      -4.246  -7.737  17.856  1.00  0.00     0.029 C 
ENDBRANCH  11  13
ENDBRANCH   1  11
TORSDOF 3
ENDMDL
MODEL 5
REMARK VINA RESULT: -5.587063400      2.121      2.695
REMARK  3 active torsions:
REMARK  status: ('A' for Active; 'I' for Inactive)
REMARK    1  A    between atoms: C2_2  and  N1_3 
REMARK    2  A    between atoms: N1_3  and  C4_5 
REMARK    3  A    between atoms: C7_8  and  N2_9 
ROOT
HETATM    1  C4  UNL     1      -4.256  -6.047  17.001  1.00  0.00     0.085 C 
HETATM    2  C5  UNL     1      -4.157  -4.882  16.082  1.00  0.00     0.027 C 
HETATM    3  C6  UNL     1      -3.419  -3.780  16.857  1.00  0.00     0.029 C 
HETATM    4  C7  UNL     1      -2.513  -4.582  17.764  1.00  0.00     0.100 C 
HETATM    5  C8  UNL     1      -3.433  -5.695  18.218  1.00  0.00     0.051 C 
ENDROOT
BRANCH   4   6
HETATM    6  N2  UNL     1      -1.411  -5.124  17.027  1.00  0.00    -0.338 N 
HETATM    7  N3  UNL     1      -0.245  -4.718  17.217  1.00  0.00    -0.349 N 
ATOM      8  H32 UNL     1      -0.092  -3.988  17.912  1.00  0.00     0.176 HD
ATOM      9  H31 UNL     1       0.539  -5.104  16.692  1.00  0.00     0.176 HD
ATOM     10  H2  UNL     1      -1.581  -5.853  16.336  1.00  0.00     0.180 HD
ENDBRANCH   4   6
BRANCH   1  11
HETATM   11  N1  UNL     1      -5.578  -6.371  17.433  1.00  0.00    -0.390 N 
HETATM   12  C3  UNL     1      -6.623  -5.418  17.710  1.00  0.00     0.149 C 
BRANCH  11  13
HETATM   13  C2  UNL     1      -5.874  -7.745  17.597  1.00  0.00     0.075 C 
HETATM   14  C1  UNL     1      -7.092  -8.172  17.336  1.00  0.00     0.029 C 
ENDBRANCH  11  13
ENDBRANCH   1  11
TORSDOF 3
ENDMDL
