MODEL 1
REMARK VINA RESULT: -5.768148684      0.000      0.000
REMARK  4 active torsions:
REMARK  status: ('A' for Active; 'I' for Inactive)
REMARK    1  A    between atoms: N2_4  and  C1_6 
REMARK    2  A    between atoms: C1_6  and  C2_7 
REMARK    3  A    between atoms: C2_7  and  C3_8 
REMARK    4  A    between atoms: C3_8  and  S1_9 
ROOT
HETATM    1  C2  UNL     1      -1.136  -4.619  16.804  1.00  0.00     0.115 C 
ENDROOT
BRANCH   1   2
HETATM    2  C1  UNL     1      -0.950  -4.602  18.080  1.00  0.00    -0.054 C 
BRANCH   2   3
HETATM    3  N2  UNL     1      -0.680  -4.858  19.274  1.00  0.00    -0.276 N 
HETATM    4  N1  UNL     1      -0.592  -5.495  20.333  1.00  0.00    -0.338 N 
ATOM      5  H12 UNL     1      -1.014  -6.361  19.995  1.00  0.00     0.177 HD
ATOM      6  H11 UNL     1      -0.372  -5.704  21.306  1.00  0.00     0.177 HD
ATOM      7  H2  UNL     1      -0.265  -3.971  19.561  1.00  0.00     0.196 HD
ENDBRANCH   2   3
ENDBRANCH   1   2
BRANCH   1   8
HETATM    8  C3  UNL     1      -2.331  -5.233  16.210  1.00  0.00     0.076 C 
BRANCH   8   9
HETATM    9  S1  UNL     1      -3.684  -5.354  17.336  1.00  0.00    -0.219 SA
HETATM   10  C4  UNL     1      -5.229  -4.932  16.570  1.00  0.00     0.063 C 
HETATM   11  C5  UNL     1      -6.183  -5.885  17.153  1.00  0.00     0.010 C 
HETATM   12  C6  UNL     1      -5.562  -6.956  17.908  1.00  0.00     0.010 C 
HETATM   13  C7  UNL     1      -4.108  -7.071  17.665  1.00  0.00     0.063 C 
ENDBRANCH   8   9
ENDBRANCH   1   8
TORSDOF 4
ENDMDL
MODEL 2
REMARK VINA RESULT: -5.704344902      2.752      3.096
REMARK  4 active torsions:
REMARK  status: ('A' for Active; 'I' for Inactive)
REMARK    1  A    between atoms: N2_4  and  C1_6 
REMARK    2  A    between atoms: C1_6  and  C2_7 
REMARK    3  A    between atoms: C2_7  and  C3_8 
REMARK    4  A    between atoms: C3_8  and  S1_9 
ROOT
HETATM    1  C2  UNL     1      -2.781  -4.457  15.414  1.00  0.00     0.115 C 
ENDROOT
BRANCH   1   2
HETATM    2  C1  UNL     1      -2.919  -3.174  15.382  1.00  0.00    -0.054 C 
BRANCH   2   3
HETATM    3  N2  UNL     1      -3.073  -1.961  15.639  1.00  0.00    -0.276 N 
HETATM    4  N1  UNL     1      -2.858  -0.741  15.650  1.00  0.00    -0.338 N 
ATOM      5  H12 UNL     1      -2.011  -0.756  15.082  1.00  0.00     0.177 HD
ATOM      6  H11 UNL     1      -2.984   0.250  15.860  1.00  0.00     0.177 HD
ATOM      7  H2  UNL     1      -3.923  -2.000  16.203  1.00  0.00     0.196 HD
ENDBRANCH   2   3
ENDBRANCH   1   2
BRANCH   1   8
HETATM    8  C3  UNL     1      -2.475  -5.166  16.663  1.00  0.00     0.076 C 
BRANCH   8   9
HETATM    9  S1  UNL     1      -3.910  -5.545  17.618  1.00  0.00    -0.219 SA
HETATM   10  C4  UNL     1      -5.409  -5.188  16.736  1.00  0.00     0.063 C 
HETATM   11  C5  UNL     1      -6.307  -6.289  17.111  1.00  0.00     0.010 C 
HETATM   12  C6  UNL     1      -5.652  -7.375  17.814  1.00  0.00     0.010 C 
HETATM   13  C7  UNL     1      -4.177  -7.321  17.719  1.00  0.00     0.063 C 
ENDBRANCH   8   9
ENDBRANCH   1   8
TORSDOF 4
ENDMDL
MODEL 3
REMARK VINA RESULT: -5.664101120      2.477      2.783
REMARK  4 active torsions:
REMARK  status: ('A' for Active; 'I' for Inactive)
REMARK    1  A    between atoms: N2_4  and  C1_6 
REMARK    2  A    between atoms: C1_6  and  C2_7 
REMARK    3  A    between atoms: C2_7  and  C3_8 
REMARK    4  A    between atoms: C3_8  and  S1_9 
ROOT
HETATM    1  C2  UNL     1      -2.054  -4.539  15.594  1.00  0.00     0.115 C 
ENDROOT
BRANCH   1   2
HETATM    2  C1  UNL     1      -1.029  -3.896  15.148  1.00  0.00    -0.054 C 
BRANCH   2   3
HETATM    3  N2  UNL     1      -0.036  -3.155  14.979  1.00  0.00    -0.276 N 
HETATM    4  N1  UNL     1       0.624  -2.119  14.814  1.00  0.00    -0.338 N 
ATOM      5  H12 UNL     1      -0.160  -1.466  14.825  1.00  0.00     0.177 HD
ATOM      6  H11 UNL     1       1.434  -1.515  14.677  1.00  0.00     0.177 HD
ATOM      7  H2  UNL     1       0.711  -3.850  14.976  1.00  0.00     0.196 HD
ENDBRANCH   2   3
ENDBRANCH   1   2
BRANCH   1   8
HETATM    8  C3  UNL     1      -2.006  -5.274  16.865  1.00  0.00     0.076 C 
BRANCH   8   9
HETATM    9  S1  UNL     1      -3.576  -5.389  17.662  1.00  0.00    -0.219 SA
HETATM   10  C4  UNL     1      -4.903  -4.888  16.595  1.00  0.00     0.063 C 
HETATM   11  C5  UNL     1      -5.986  -5.828  16.915  1.00  0.00     0.010 C 
HETATM   12  C6  UNL     1      -5.574  -6.945  17.743  1.00  0.00     0.010 C 
HETATM   13  C7  UNL     1      -4.106  -7.101  17.819  1.00  0.00     0.063 C 
ENDBRANCH   8   9
ENDBRANCH   1   8
TORSDOF 4
ENDMDL
MODEL 4
REMARK VINA RESULT: -5.301513679      4.174      5.570
REMARK  4 active torsions:
REMARK  status: ('A' for Active; 'I' for Inactive)
REMARK    1  A    between atoms: N2_4  and  C1_6 
REMARK    2  A    between atoms: C1_6  and  C2_7 
REMARK    3  A    between atoms: C2_7  and  C3_8 
REMARK    4  A    between atoms: C3_8  and  S1_9 
ROOT
HETATM    1  C2  UNL     1      -6.279  -6.966  17.711  1.00  0.00     0.115 C 
ENDROOT
BRANCH   1   2
HETATM    2  C1  UNL     1      -7.007  -7.982  17.390  1.00  0.00    -0.054 C 
BRANCH   2   3
HETATM    3  N2  UNL     1      -7.887  -8.864  17.286  1.00  0.00    -0.276 N 
HETATM    4  N1  UNL     1      -8.819  -9.616  17.603  1.00  0.00    -0.338 N 
ATOM      5  H12 UNL     1      -8.917  -9.298  18.567  1.00  0.00     0.177 HD
ATOM      6  H11 UNL     1      -9.537 -10.335  17.517  1.00  0.00     0.177 HD
ATOM      7  H2  UNL     1      -7.748  -9.146  16.315  1.00  0.00     0.196 HD
ENDBRANCH   2   3
ENDBRANCH   1   2
BRANCH   1   8
HETATM    8  C3  UNL     1      -4.812  -7.046  17.725  1.00  0.00     0.076 C 
BRANCH   8   9
HETATM    9  S1  UNL     1      -4.028  -5.475  17.556  1.00  0.00    -0.219 SA
HETATM   10  C4  UNL     1      -2.533  -5.575  16.604  1.00  0.00     0.063 C 
HETATM   11  C5  UNL     1      -2.543  -4.343  15.803  1.00  0.00     0.010 C 
HETATM   12  C6  UNL     1      -3.800  -3.622  15.842  1.00  0.00     0.010 C 
HETATM   13  C7  UNL     1      -4.913  -4.425  16.393  1.00  0.00     0.063 C 
ENDBRANCH   8   9
ENDBRANCH   1   8
TORSDOF 4
ENDMDL
MODEL 5
REMARK VINA RESULT: -5.269552763      1.985      2.850
REMARK  4 active torsions:
REMARK  status: ('A' for Active; 'I' for Inactive)
REMARK    1  A    between atoms: N2_4  and  C1_6 
REMARK    2  A    between atoms: C1_6  and  C2_7 
REMARK    3  A    between atoms: C2_7  and  C3_8 
REMARK    4  A    between atoms: C3_8  and  S1_9 
ROOT
HETATM    1  C2  UNL     1      -3.823  -5.170  17.139  1.00  0.00     0.115 C 
ENDROOT
BRANCH   1   2
HETATM    2  C1  UNL     1      -2.561  -5.101  17.402  1.00  0.00    -0.054 C 
BRANCH   2   3
HETATM    3  N2  UNL     1      -1.393  -4.751  17.674  1.00  0.00    -0.276 N 
HETATM    4  N1  UNL     1      -0.413  -4.403  18.347  1.00  0.00    -0.338 N 
ATOM      5  H12 UNL     1      -0.874  -4.414  19.257  1.00  0.00     0.177 HD
ATOM      6  H11 UNL     1       0.541  -4.118  18.569  1.00  0.00     0.177 HD
ATOM      7  H2  UNL     1      -0.980  -4.756  16.740  1.00  0.00     0.196 HD
ENDBRANCH   2   3
ENDBRANCH   1   2
BRANCH   1   8
HETATM    8  C3  UNL     1      -4.724  -6.031  17.917  1.00  0.00     0.076 C 
BRANCH   8   9
HETATM    9  S1  UNL     1      -6.300  -6.255  17.158  1.00  0.00    -0.219 SA
HETATM   10  C4  UNL     1      -6.797  -7.959  17.144  1.00  0.00     0.063 C 
HETATM   11  C5  UNL     1      -8.241  -7.907  17.410  1.00  0.00     0.010 C 
HETATM   12  C6  UNL     1      -8.718  -6.604  17.831  1.00  0.00     0.010 C 
HETATM   13  C7  UNL     1      -7.628  -5.688  18.231  1.00  0.00     0.063 C 
ENDBRANCH   8   9
ENDBRANCH   1   8
TORSDOF 4
ENDMDL
