MODEL 1
REMARK VINA RESULT: -4.441163311      0.000      0.000
REMARK  4 active torsions:
REMARK  status: ('A' for Active; 'I' for Inactive)
REMARK    1  A    between atoms: N1_1  and  C1_4 
REMARK    2  A    between atoms: C2_9  and  C3_10 
REMARK    3  A    between atoms: C3_10  and  C4_11 
REMARK    4  A    between atoms: C4_11  and  C5_12 
ROOT
HETATM    1  C1  UNL     1       8.594 -16.101 110.347  1.00  0.00     0.158 A 
HETATM    2  N2  UNL     1       7.359 -16.172 109.843  1.00  0.00    -0.279 N 
ATOM      3  H2  UNL     1       7.185 -15.964 108.859  1.00  0.00     0.189 HD
HETATM    4  N3  UNL     1       6.414 -16.500 110.605  1.00  0.00    -0.296 N 
ATOM      5  H3  UNL     1       5.471 -16.555 110.220  1.00  0.00     0.187 HD
HETATM    6  C2  UNL     1       6.594 -16.776 111.878  1.00  0.00     0.069 A 
HETATM    7  S2  UNL     1       8.333 -16.528 111.973  1.00  0.00    -0.038 SA
ENDROOT
BRANCH   6   8
HETATM    8  C3  UNL     1       5.727 -17.180 113.001  1.00  0.00     0.067 C 
BRANCH   8   9
HETATM    9  C4  UNL     1       5.368 -16.211 114.026  1.00  0.00     0.012 C 
BRANCH   9  10
HETATM   10  C5  UNL     1       5.952 -16.312 115.382  1.00  0.00    -0.004 C 
HETATM   11  C6  UNL     1       6.505 -17.745 115.490  1.00  0.00     0.015 C 
HETATM   12  C7  UNL     1       6.932 -17.936 116.902  1.00  0.00     0.074 C 
HETATM   13  S1  UNL     1       7.628 -16.283 117.306  1.00  0.00    -0.169 SA
HETATM   14  C8  UNL     1       7.065 -15.424 115.735  1.00  0.00     0.078 C 
ENDBRANCH   9  10
ENDBRANCH   8   9
ENDBRANCH   6   8
BRANCH   1  15
HETATM   15  N1  UNL     1       9.701 -15.778 109.716  1.00  0.00    -0.379 N 
ATOM     16  H12 UNL     1      10.430 -16.368 109.314  1.00  0.00     0.158 HD
ATOM     17  H11 UNL     1      10.049 -14.841 109.506  1.00  0.00     0.158 HD
ENDBRANCH   1  15
TORSDOF 4
ENDMDL
MODEL 2
REMARK VINA RESULT: -4.295887875      4.783      5.873
REMARK  4 active torsions:
REMARK  status: ('A' for Active; 'I' for Inactive)
REMARK    1  A    between atoms: N1_1  and  C1_4 
REMARK    2  A    between atoms: C2_9  and  C3_10 
REMARK    3  A    between atoms: C3_10  and  C4_11 
REMARK    4  A    between atoms: C4_11  and  C5_12 
ROOT
HETATM    1  C1  UNL     1      10.381 -20.601 116.911  1.00  0.00     0.158 A 
HETATM    2  N2  UNL     1       9.426 -21.047 117.731  1.00  0.00    -0.279 N 
ATOM      3  H2  UNL     1       9.477 -21.985 118.128  1.00  0.00     0.189 HD
HETATM    4  N3  UNL     1       8.462 -20.286 118.006  1.00  0.00    -0.296 N 
ATOM      5  H3  UNL     1       7.734 -20.626 118.633  1.00  0.00     0.187 HD
HETATM    6  C2  UNL     1       8.358 -19.071 117.516  1.00  0.00     0.069 A 
HETATM    7  S2  UNL     1       9.828 -19.033 116.548  1.00  0.00    -0.038 SA
ENDROOT
BRANCH   6   8
HETATM    8  C3  UNL     1       7.390 -17.965 117.637  1.00  0.00     0.067 C 
BRANCH   8   9
HETATM    9  C4  UNL     1       6.458 -17.693 116.551  1.00  0.00     0.012 C 
BRANCH   9  10
HETATM   10  C5  UNL     1       6.790 -16.681 115.524  1.00  0.00    -0.004 C 
HETATM   11  C6  UNL     1       5.442 -16.093 115.070  1.00  0.00     0.015 C 
HETATM   12  C7  UNL     1       5.728 -15.207 113.910  1.00  0.00     0.074 C 
HETATM   13  S1  UNL     1       7.330 -14.453 114.404  1.00  0.00    -0.169 SA
HETATM   14  C8  UNL     1       7.620 -15.535 115.909  1.00  0.00     0.078 C 
ENDBRANCH   9  10
ENDBRANCH   8   9
ENDBRANCH   6   8
BRANCH   1  15
HETATM   15  N1  UNL     1      11.457 -21.241 116.508  1.00  0.00    -0.379 N 
ATOM     16  H12 UNL     1      11.860 -22.124 116.825  1.00  0.00     0.158 HD
ATOM     17  H11 UNL     1      12.112 -20.961 115.778  1.00  0.00     0.158 HD
ENDBRANCH   1  15
TORSDOF 4
ENDMDL
MODEL 3
REMARK VINA RESULT: -4.291333941      1.190      1.383
REMARK  4 active torsions:
REMARK  status: ('A' for Active; 'I' for Inactive)
REMARK    1  A    between atoms: N1_1  and  C1_4 
REMARK    2  A    between atoms: C2_9  and  C3_10 
REMARK    3  A    between atoms: C3_10  and  C4_11 
REMARK    4  A    between atoms: C4_11  and  C5_12 
ROOT
HETATM    1  C1  UNL     1       7.948 -16.088 110.865  1.00  0.00     0.158 A 
HETATM    2  N2  UNL     1       6.668 -16.457 110.951  1.00  0.00    -0.279 N 
ATOM      3  H2  UNL     1       6.200 -16.900 110.160  1.00  0.00     0.189 HD
HETATM    4  N3  UNL     1       6.050 -16.248 112.027  1.00  0.00    -0.296 N 
ATOM      5  H3  UNL     1       5.072 -16.531 112.093  1.00  0.00     0.187 HD
HETATM    6  C2  UNL     1       6.615 -15.681 113.069  1.00  0.00     0.069 A 
HETATM    7  S2  UNL     1       8.225 -15.423 112.407  1.00  0.00    -0.038 SA
ENDROOT
BRANCH   6   8
HETATM    8  C3  UNL     1       6.183 -15.308 114.429  1.00  0.00     0.067 C 
BRANCH   8   9
HETATM    9  C4  UNL     1       5.559 -16.303 115.290  1.00  0.00     0.012 C 
BRANCH   9  10
HETATM   10  C5  UNL     1       6.278 -16.814 116.478  1.00  0.00    -0.004 C 
HETATM   11  C6  UNL     1       7.093 -18.023 115.982  1.00  0.00     0.015 C 
HETATM   12  C7  UNL     1       7.681 -18.668 117.186  1.00  0.00     0.074 C 
HETATM   13  S1  UNL     1       8.096 -17.210 118.225  1.00  0.00    -0.169 SA
HETATM   14  C8  UNL     1       7.237 -15.932 117.152  1.00  0.00     0.078 C 
ENDBRANCH   9  10
ENDBRANCH   8   9
ENDBRANCH   6   8
BRANCH   1  15
HETATM   15  N1  UNL     1       8.755 -16.220 109.836  1.00  0.00    -0.379 N 
ATOM     16  H12 UNL     1       9.484 -16.909 109.649  1.00  0.00     0.158 HD
ATOM     17  H11 UNL     1       8.802 -15.634 109.002  1.00  0.00     0.158 HD
ENDBRANCH   1  15
TORSDOF 4
ENDMDL
MODEL 4
REMARK VINA RESULT: -4.288374844      1.188      1.243
REMARK  4 active torsions:
REMARK  status: ('A' for Active; 'I' for Inactive)
REMARK    1  A    between atoms: N1_1  and  C1_4 
REMARK    2  A    between atoms: C2_9  and  C3_10 
REMARK    3  A    between atoms: C3_10  and  C4_11 
REMARK    4  A    between atoms: C4_11  and  C5_12 
ROOT
HETATM    1  C1  UNL     1       8.353 -17.505 111.165  1.00  0.00     0.158 A 
HETATM    2  N2  UNL     1       7.191 -17.098 110.648  1.00  0.00    -0.279 N 
ATOM      3  H2  UNL     1       6.929 -17.348 109.694  1.00  0.00     0.189 HD
HETATM    4  N3  UNL     1       6.424 -16.401 111.362  1.00  0.00    -0.296 N 
ATOM      5  H3  UNL     1       5.536 -16.090 110.968  1.00  0.00     0.187 HD
HETATM    6  C2  UNL     1       6.723 -16.057 112.595  1.00  0.00     0.069 A 
HETATM    7  S2  UNL     1       8.295 -16.836 112.729  1.00  0.00    -0.038 SA
ENDROOT
BRANCH   6   8
HETATM    8  C3  UNL     1       6.066 -15.276 113.660  1.00  0.00     0.067 C 
BRANCH   8   9
HETATM    9  C4  UNL     1       5.426 -15.962 114.773  1.00  0.00     0.012 C 
BRANCH   9  10
HETATM   10  C5  UNL     1       6.171 -16.191 116.031  1.00  0.00    -0.004 C 
HETATM   11  C6  UNL     1       6.565 -17.679 116.016  1.00  0.00     0.015 C 
HETATM   12  C7  UNL     1       7.152 -17.982 117.348  1.00  0.00     0.074 C 
HETATM   13  S1  UNL     1       8.081 -16.437 117.705  1.00  0.00    -0.169 SA
HETATM   14  C8  UNL     1       7.416 -15.448 116.256  1.00  0.00     0.078 C 
ENDBRANCH   9  10
ENDBRANCH   8   9
ENDBRANCH   6   8
BRANCH   1  15
HETATM   15  N1  UNL     1       9.279 -18.234 110.582  1.00  0.00    -0.379 N 
ATOM     16  H12 UNL     1       9.201 -18.950 109.859  1.00  0.00     0.158 HD
ATOM     17  H11 UNL     1      10.285 -18.218 110.754  1.00  0.00     0.158 HD
ENDBRANCH   1  15
TORSDOF 4
ENDMDL
MODEL 5
REMARK VINA RESULT: -4.267974721      1.523      1.538
REMARK  4 active torsions:
REMARK  status: ('A' for Active; 'I' for Inactive)
REMARK    1  A    between atoms: N1_1  and  C1_4 
REMARK    2  A    between atoms: C2_9  and  C3_10 
REMARK    3  A    between atoms: C3_10  and  C4_11 
REMARK    4  A    between atoms: C4_11  and  C5_12 
ROOT
HETATM    1  C1  UNL     1       8.345 -17.656 109.794  1.00  0.00     0.158 A 
HETATM    2  N2  UNL     1       8.673 -18.107 111.007  1.00  0.00    -0.279 N 
ATOM      3  H2  UNL     1       9.350 -18.862 111.116  1.00  0.00     0.189 HD
HETATM    4  N3  UNL     1       8.130 -17.583 112.013  1.00  0.00    -0.296 N 
ATOM      5  H3  UNL     1       8.381 -17.926 112.940  1.00  0.00     0.187 HD
HETATM    6  C2  UNL     1       7.253 -16.608 111.917  1.00  0.00     0.069 A 
HETATM    7  S2  UNL     1       7.215 -16.439 110.166  1.00  0.00    -0.038 SA
ENDROOT
BRANCH   6   8
HETATM    8  C3  UNL     1       6.462 -15.804 112.868  1.00  0.00     0.067 C 
BRANCH   8   9
HETATM    9  C4  UNL     1       5.615 -16.466 113.849  1.00  0.00     0.012 C 
BRANCH   9  10
HETATM   10  C5  UNL     1       6.018 -16.508 115.272  1.00  0.00    -0.004 C 
HETATM   11  C6  UNL     1       6.697 -17.876 115.472  1.00  0.00     0.015 C 
HETATM   12  C7  UNL     1       6.948 -18.023 116.930  1.00  0.00     0.074 C 
HETATM   13  S1  UNL     1       7.408 -16.307 117.403  1.00  0.00    -0.169 SA
HETATM   14  C8  UNL     1       6.976 -15.509 115.761  1.00  0.00     0.078 C 
ENDBRANCH   9  10
ENDBRANCH   8   9
ENDBRANCH   6   8
BRANCH   1  15
HETATM   15  N1  UNL     1       8.799 -18.072 108.632  1.00  0.00    -0.379 N 
ATOM     16  H12 UNL     1       9.146 -18.988 108.347  1.00  0.00     0.158 HD
ATOM     17  H11 UNL     1       8.893 -17.534 107.770  1.00  0.00     0.158 HD
ENDBRANCH   1  15
TORSDOF 4
ENDMDL
