MODEL 1
REMARK VINA RESULT: -4.175332664      0.000      0.000
REMARK  4 active torsions:
REMARK  status: ('A' for Active; 'I' for Inactive)
REMARK    1  A    between atoms: N1_1  and  C1_4 
REMARK    2  A    between atoms: C2_9  and  S1_10 
REMARK    3  A    between atoms: S1_10  and  C3_11 
REMARK    4  A    between atoms: C3_11  and  C4_12 
ROOT
HETATM    1  C1  UNL     1       7.924 -18.671 116.976  1.00  0.00     0.159 A 
HETATM    2  N2  UNL     1       8.330 -19.046 115.758  1.00  0.00    -0.279 N 
ATOM      3  H2  UNL     1       9.101 -19.704 115.645  1.00  0.00     0.189 HD
HETATM    4  N3  UNL     1       7.734 -18.566 114.748  1.00  0.00    -0.286 N 
ATOM      5  H3  UNL     1       8.029 -18.839 113.810  1.00  0.00     0.188 HD
HETATM    6  C2  UNL     1       6.732 -17.713 114.899  1.00  0.00     0.130 A 
HETATM    7  S2  UNL     1       6.648 -17.598 116.606  1.00  0.00    -0.027 SA
ENDROOT
BRANCH   6   8
HETATM    8  S1  UNL     1       5.738 -16.902 113.633  1.00  0.00    -0.103 SA
BRANCH   8   9
HETATM    9  C3  UNL     1       6.811 -16.080 112.422  1.00  0.00     0.086 C 
BRANCH   9  10
HETATM   10  C4  UNL     1       7.030 -17.049 111.287  1.00  0.00    -0.005 C 
HETATM   11  C5  UNL     1       6.962 -16.471 109.913  1.00  0.00     0.005 C 
HETATM   12  C6  UNL     1       8.172 -17.308 109.549  1.00  0.00     0.001 C 
HETATM   13  C7  UNL     1       8.482 -17.394 111.030  1.00  0.00     0.005 C 
ENDBRANCH   9  10
ENDBRANCH   8   9
ENDBRANCH   6   8
BRANCH   1  14
HETATM   14  N1  UNL     1       8.405 -19.049 118.139  1.00  0.00    -0.379 N 
ATOM     15  H12 UNL     1       9.359 -19.287 118.412  1.00  0.00     0.158 HD
ATOM     16  H11 UNL     1       7.898 -19.178 119.014  1.00  0.00     0.158 HD
ENDBRANCH   1  14
TORSDOF 4
ENDMDL
MODEL 2
REMARK VINA RESULT: -4.168090927      3.595      5.771
REMARK  4 active torsions:
REMARK  status: ('A' for Active; 'I' for Inactive)
REMARK    1  A    between atoms: N1_1  and  C1_4 
REMARK    2  A    between atoms: C2_9  and  S1_10 
REMARK    3  A    between atoms: S1_10  and  C3_11 
REMARK    4  A    between atoms: C3_11  and  C4_12 
ROOT
HETATM    1  C1  UNL     1       8.644 -16.212 110.161  1.00  0.00     0.159 A 
HETATM    2  N2  UNL     1       7.385 -16.199 109.710  1.00  0.00    -0.279 N 
ATOM      3  H2  UNL     1       7.183 -15.976 108.735  1.00  0.00     0.189 HD
HETATM    4  N3  UNL     1       6.448 -16.468 110.520  1.00  0.00    -0.286 N 
ATOM      5  H3  UNL     1       5.481 -16.463 110.195  1.00  0.00     0.188 HD
HETATM    6  C2  UNL     1       6.715 -16.758 111.784  1.00  0.00     0.130 A 
HETATM    7  S2  UNL     1       8.422 -16.631 111.803  1.00  0.00    -0.027 SA
ENDROOT
BRANCH   6   8
HETATM    8  S1  UNL     1       5.569 -17.171 113.115  1.00  0.00    -0.103 SA
BRANCH   8   9
HETATM    9  C3  UNL     1       5.579 -15.869 114.379  1.00  0.00     0.086 C 
BRANCH   9  10
HETATM   10  C4  UNL     1       5.785 -16.542 115.713  1.00  0.00    -0.005 C 
HETATM   11  C5  UNL     1       6.579 -17.806 115.691  1.00  0.00     0.005 C 
HETATM   12  C6  UNL     1       7.293 -17.326 116.939  1.00  0.00     0.001 C 
HETATM   13  C7  UNL     1       6.870 -15.919 116.569  1.00  0.00     0.005 C 
ENDBRANCH   9  10
ENDBRANCH   8   9
ENDBRANCH   6   8
BRANCH   1  14
HETATM   14  N1  UNL     1       9.745 -15.963 109.490  1.00  0.00    -0.379 N 
ATOM     15  H12 UNL     1      10.033 -16.268 108.560  1.00  0.00     0.158 HD
ATOM     16  H11 UNL     1      10.543 -15.400 109.782  1.00  0.00     0.158 HD
ENDBRANCH   1  14
TORSDOF 4
ENDMDL
MODEL 3
REMARK VINA RESULT: -4.149661607      1.873      2.537
REMARK  4 active torsions:
REMARK  status: ('A' for Active; 'I' for Inactive)
REMARK    1  A    between atoms: N1_1  and  C1_4 
REMARK    2  A    between atoms: C2_9  and  S1_10 
REMARK    3  A    between atoms: S1_10  and  C3_11 
REMARK    4  A    between atoms: C3_11  and  C4_12 
ROOT
HETATM    1  C1  UNL     1       8.166 -18.754 117.520  1.00  0.00     0.159 A 
HETATM    2  N2  UNL     1       8.812 -19.207 116.441  1.00  0.00    -0.279 N 
ATOM      3  H2  UNL     1       9.661 -19.765 116.539  1.00  0.00     0.189 HD
HETATM    4  N3  UNL     1       8.348 -18.931 115.296  1.00  0.00    -0.286 N 
ATOM      5  H3  UNL     1       8.827 -19.267 114.460  1.00  0.00     0.188 HD
HETATM    6  C2  UNL     1       7.244 -18.208 115.174  1.00  0.00     0.130 A 
HETATM    7  S2  UNL     1       6.858 -17.910 116.815  1.00  0.00    -0.027 SA
ENDROOT
BRANCH   6   8
HETATM    8  S1  UNL     1       6.395 -17.686 113.671  1.00  0.00    -0.103 SA
BRANCH   8   9
HETATM    9  C3  UNL     1       5.492 -16.140 113.963  1.00  0.00     0.086 C 
BRANCH   9  10
HETATM   10  C4  UNL     1       6.411 -15.006 113.584  1.00  0.00    -0.005 C 
HETATM   11  C5  UNL     1       7.321 -14.515 114.661  1.00  0.00     0.005 C 
HETATM   12  C6  UNL     1       8.430 -14.446 113.630  1.00  0.00     0.001 C 
HETATM   13  C7  UNL     1       7.633 -15.427 112.795  1.00  0.00     0.005 C 
ENDBRANCH   9  10
ENDBRANCH   8   9
ENDBRANCH   6   8
BRANCH   1  14
HETATM   14  N1  UNL     1       8.481 -18.928 118.783  1.00  0.00    -0.379 N 
ATOM     15  H12 UNL     1       9.380 -18.840 119.257  1.00  0.00     0.158 HD
ATOM     16  H11 UNL     1       7.865 -19.193 119.552  1.00  0.00     0.158 HD
ENDBRANCH   1  14
TORSDOF 4
ENDMDL
MODEL 4
REMARK VINA RESULT: -4.126634749      3.288      5.703
REMARK  4 active torsions:
REMARK  status: ('A' for Active; 'I' for Inactive)
REMARK    1  A    between atoms: N1_1  and  C1_4 
REMARK    2  A    between atoms: C2_9  and  S1_10 
REMARK    3  A    between atoms: S1_10  and  C3_11 
REMARK    4  A    between atoms: C3_11  and  C4_12 
ROOT
HETATM    1  C1  UNL     1       8.374 -15.962 110.721  1.00  0.00     0.159 A 
HETATM    2  N2  UNL     1       7.174 -16.467 110.415  1.00  0.00    -0.279 N 
ATOM      3  H2  UNL     1       6.974 -16.802 109.472  1.00  0.00     0.189 HD
HETATM    4  N3  UNL     1       6.291 -16.522 111.322  1.00  0.00    -0.286 N 
ATOM      5  H3  UNL     1       5.369 -16.903 111.109  1.00  0.00     0.188 HD
HETATM    6  C2  UNL     1       6.556 -16.087 112.546  1.00  0.00     0.130 A 
HETATM    7  S2  UNL     1       8.179 -15.569 112.372  1.00  0.00    -0.027 SA
ENDROOT
BRANCH   6   8
HETATM    8  S1  UNL     1       5.479 -16.058 113.992  1.00  0.00    -0.103 SA
BRANCH   8   9
HETATM    9  C3  UNL     1       6.468 -15.942 115.510  1.00  0.00     0.086 C 
BRANCH   9  10
HETATM   10  C4  UNL     1       6.418 -17.292 116.181  1.00  0.00    -0.005 C 
HETATM   11  C5  UNL     1       7.445 -18.280 115.738  1.00  0.00     0.005 C 
HETATM   12  C6  UNL     1       7.634 -18.668 117.190  1.00  0.00     0.001 C 
HETATM   13  C7  UNL     1       7.035 -17.328 117.564  1.00  0.00     0.005 C 
ENDBRANCH   9  10
ENDBRANCH   8   9
ENDBRANCH   6   8
BRANCH   1  14
HETATM   14  N1  UNL     1       9.415 -15.819 109.932  1.00  0.00    -0.379 N 
ATOM     15  H12 UNL     1       9.488 -15.895 108.917  1.00  0.00     0.158 HD
ATOM     16  H11 UNL     1      10.375 -15.598 110.195  1.00  0.00     0.158 HD
ENDBRANCH   1  14
TORSDOF 4
ENDMDL
MODEL 5
REMARK VINA RESULT: -4.057475175      4.315      5.978
REMARK  4 active torsions:
REMARK  status: ('A' for Active; 'I' for Inactive)
REMARK    1  A    between atoms: N1_1  and  C1_4 
REMARK    2  A    between atoms: C2_9  and  S1_10 
REMARK    3  A    between atoms: S1_10  and  C3_11 
REMARK    4  A    between atoms: C3_11  and  C4_12 
ROOT
HETATM    1  C1  UNL     1       7.090 -16.705 111.542  1.00  0.00     0.159 A 
HETATM    2  N2  UNL     1       7.962 -17.635 111.944  1.00  0.00    -0.279 N 
ATOM      3  H2  UNL     1       8.083 -17.843 112.936  1.00  0.00     0.189 HD
HETATM    4  N3  UNL     1       8.636 -18.254 111.067  1.00  0.00    -0.286 N 
ATOM      5  H3  UNL     1       9.307 -18.967 111.353  1.00  0.00     0.188 HD
HETATM    6  C2  UNL     1       8.475 -17.981 109.780  1.00  0.00     0.130 A 
HETATM    7  S2  UNL     1       7.279 -16.758 109.845  1.00  0.00    -0.027 SA
ENDROOT
BRANCH   6   8
HETATM    8  S1  UNL     1       9.305 -18.715 108.357  1.00  0.00    -0.103 SA
BRANCH   8   9
HETATM    9  C3  UNL     1       9.690 -20.459 108.684  1.00  0.00     0.086 C 
BRANCH   9  10
HETATM   10  C4  UNL     1       9.770 -21.157 107.350  1.00  0.00    -0.005 C 
HETATM   11  C5  UNL     1       8.931 -22.383 107.203  1.00  0.00     0.005 C 
HETATM   12  C6  UNL     1       8.556 -21.905 105.815  1.00  0.00     0.001 C 
HETATM   13  C7  UNL     1       8.950 -20.510 106.253  1.00  0.00     0.005 C 
ENDBRANCH   9  10
ENDBRANCH   8   9
ENDBRANCH   6   8
BRANCH   1  14
HETATM   14  N1  UNL     1       6.305 -15.960 112.286  1.00  0.00    -0.379 N 
ATOM     15  H12 UNL     1       5.715 -16.212 113.080  1.00  0.00     0.158 HD
ATOM     16  H11 UNL     1       6.133 -14.958 112.207  1.00  0.00     0.158 HD
ENDBRANCH   1  14
TORSDOF 4
ENDMDL
