MODEL 1
REMARK VINA RESULT: -4.827598104      0.000      0.000
REMARK  4 active torsions:
REMARK  status: ('A' for Active; 'I' for Inactive)
REMARK    1  A    between atoms: C2_2  and  C3_3 
REMARK    2  A    between atoms: C3_3  and  C4_4 
REMARK    3  A    between atoms: C4_4  and  N1_5 
REMARK    4  A    between atoms: N1_5  and  C5_7 
ROOT
HETATM    1  C5  UNL     1       8.868 -17.970 115.105  1.00  0.00     0.385 C 
HETATM    2  N2  UNL     1       8.650 -17.118 116.201  1.00  0.00    -0.353 N 
ATOM      3  H2  UNL     1       9.421 -16.841 116.809  1.00  0.00     0.163 HD
HETATM    4  C6  UNL     1       7.452 -16.694 116.417  1.00  0.00     0.001 C 
HETATM    5  C7  UNL     1       7.171 -15.779 117.574  1.00  0.00     0.064 C 
HETATM    6  C8  UNL     1       6.276 -17.047 115.582  1.00  0.00     0.168 C 
HETATM    7  C9  UNL     1       5.752 -15.822 114.985  1.00  0.00     0.072 C 
HETATM    8  N3  UNL     1       5.310 -14.848 114.502  1.00  0.00    -0.196 NA
HETATM    9  C10 UNL     1       6.610 -18.098 114.552  1.00  0.00     0.209 C 
HETATM   10  C11 UNL     1       6.848 -17.507 113.186  1.00  0.00     0.042 C 
HETATM   11  N4  UNL     1       7.733 -18.898 115.021  1.00  0.00    -0.031 N 
ATOM     12  H41 UNL     1       7.546 -19.396 115.891  1.00  0.00     0.282 HD
ATOM     13  H42 UNL     1       7.918 -19.721 114.448  1.00  0.00     0.282 HD
ENDROOT
BRANCH   1  14
HETATM   14  N1  UNL     1      10.115 -18.631 115.011  1.00  0.00    -0.380 N 
ATOM     15  H1  UNL     1      10.539 -18.851 114.110  1.00  0.00     0.157 HD
BRANCH  14  16
HETATM   16  C4  UNL     1      10.755 -18.978 116.253  1.00  0.00     0.117 C 
BRANCH  16  17
HETATM   17  C3  UNL     1      10.628 -20.481 116.391  1.00  0.00     0.019 C 
BRANCH  17  18
HETATM   18  C2  UNL     1      10.139 -20.947 117.717  1.00  0.00    -0.003 C 
HETATM   19  C1  UNL     1       9.008 -20.132 118.269  1.00  0.00     0.005 C 
ENDBRANCH  17  18
ENDBRANCH  16  17
ENDBRANCH  14  16
ENDBRANCH   1  14
TORSDOF 4
ENDMDL
MODEL 2
REMARK VINA RESULT: -4.813223622      1.505      2.757
REMARK  4 active torsions:
REMARK  status: ('A' for Active; 'I' for Inactive)
REMARK    1  A    between atoms: C2_2  and  C3_3 
REMARK    2  A    between atoms: C3_3  and  C4_4 
REMARK    3  A    between atoms: C4_4  and  N1_5 
REMARK    4  A    between atoms: N1_5  and  C5_7 
ROOT
HETATM    1  C5  UNL     1       8.088 -18.314 115.986  1.00  0.00     0.385 C 
HETATM    2  N2  UNL     1       7.342 -18.648 114.843  1.00  0.00    -0.353 N 
ATOM      3  H2  UNL     1       7.068 -19.614 114.660  1.00  0.00     0.163 HD
HETATM    4  C6  UNL     1       7.013 -17.703 114.030  1.00  0.00     0.001 C 
HETATM    5  C7  UNL     1       6.214 -18.011 112.797  1.00  0.00     0.064 C 
HETATM    6  C8  UNL     1       7.369 -16.274 114.220  1.00  0.00     0.168 C 
HETATM    7  C9  UNL     1       6.135 -15.507 114.359  1.00  0.00     0.072 C 
HETATM    8  N3  UNL     1       5.154 -14.871 114.466  1.00  0.00    -0.196 NA
HETATM    9  C10 UNL     1       8.311 -16.076 115.383  1.00  0.00     0.209 C 
HETATM   10  C11 UNL     1       7.596 -15.607 116.624  1.00  0.00     0.042 C 
HETATM   11  N4  UNL     1       9.074 -17.297 115.601  1.00  0.00    -0.031 N 
ATOM     12  H41 UNL     1       9.652 -17.567 114.806  1.00  0.00     0.282 HD
ATOM     13  H42 UNL     1       9.835 -17.189 116.272  1.00  0.00     0.282 HD
ENDROOT
BRANCH   1  14
HETATM   14  N1  UNL     1       8.660 -19.365 116.740  1.00  0.00    -0.380 N 
ATOM     15  H1  UNL     1       9.160 -20.135 116.294  1.00  0.00     0.157 HD
BRANCH  14  16
HETATM   16  C4  UNL     1       8.502 -19.293 118.169  1.00  0.00     0.117 C 
BRANCH  16  17
HETATM   17  C3  UNL     1       8.618 -20.714 118.681  1.00  0.00     0.019 C 
BRANCH  17  18
HETATM   18  C2  UNL     1       9.540 -20.886 119.837  1.00  0.00    -0.003 C 
HETATM   19  C1  UNL     1       8.925 -21.600 121.003  1.00  0.00     0.005 C 
ENDBRANCH  17  18
ENDBRANCH  16  17
ENDBRANCH  14  16
ENDBRANCH   1  14
TORSDOF 4
ENDMDL
MODEL 3
REMARK VINA RESULT: -4.674468496      2.582      4.032
REMARK  4 active torsions:
REMARK  status: ('A' for Active; 'I' for Inactive)
REMARK    1  A    between atoms: C2_2  and  C3_3 
REMARK    2  A    between atoms: C3_3  and  C4_4 
REMARK    3  A    between atoms: C4_4  and  N1_5 
REMARK    4  A    between atoms: N1_5  and  C5_7 
ROOT
HETATM    1  C5  UNL     1       7.605 -14.960 115.386  1.00  0.00     0.385 C 
HETATM    2  N2  UNL     1       8.559 -15.505 114.511  1.00  0.00    -0.353 N 
ATOM      3  H2  UNL     1       9.547 -15.536 114.767  1.00  0.00     0.163 HD
HETATM    4  C6  UNL     1       8.156 -15.965 113.377  1.00  0.00     0.001 C 
HETATM    5  C7  UNL     1       9.139 -16.559 112.409  1.00  0.00     0.064 C 
HETATM    6  C8  UNL     1       6.741 -15.959 112.927  1.00  0.00     0.168 C 
HETATM    7  C9  UNL     1       6.312 -17.342 112.743  1.00  0.00     0.072 C 
HETATM    8  N3  UNL     1       5.950 -18.447 112.582  1.00  0.00    -0.196 NA
HETATM    9  C10 UNL     1       5.850 -15.195 113.875  1.00  0.00     0.209 C 
HETATM   10  C11 UNL     1       5.090 -16.106 114.805  1.00  0.00     0.042 C 
HETATM   11  N4  UNL     1       6.639 -14.199 114.585  1.00  0.00    -0.031 N 
ATOM     12  H41 UNL     1       7.070 -13.506 113.974  1.00  0.00     0.282 HD
ATOM     13  H42 UNL     1       6.077 -13.545 115.131  1.00  0.00     0.282 HD
ENDROOT
BRANCH   1  14
HETATM   14  N1  UNL     1       8.067 -14.235 116.510  1.00  0.00    -0.380 N 
ATOM     15  H1  UNL     1       8.209 -13.225 116.475  1.00  0.00     0.157 HD
BRANCH  14  16
HETATM   16  C4  UNL     1       8.325 -14.995 117.705  1.00  0.00     0.117 C 
BRANCH  16  17
HETATM   17  C3  UNL     1       7.154 -15.941 117.868  1.00  0.00     0.019 C 
BRANCH  17  18
HETATM   18  C2  UNL     1       7.528 -17.358 118.129  1.00  0.00    -0.003 C 
HETATM   19  C1  UNL     1       7.272 -18.278 116.974  1.00  0.00     0.005 C 
ENDBRANCH  17  18
ENDBRANCH  16  17
ENDBRANCH  14  16
ENDBRANCH   1  14
TORSDOF 4
ENDMDL
MODEL 4
REMARK VINA RESULT: -4.665808364      1.186      2.407
REMARK  4 active torsions:
REMARK  status: ('A' for Active; 'I' for Inactive)
REMARK    1  A    between atoms: C2_2  and  C3_3 
REMARK    2  A    between atoms: C3_3  and  C4_4 
REMARK    3  A    between atoms: C4_4  and  N1_5 
REMARK    4  A    between atoms: N1_5  and  C5_7 
ROOT
HETATM    1  C5  UNL     1       8.525 -18.180 115.368  1.00  0.00     0.385 C 
HETATM    2  N2  UNL     1       8.446 -17.799 114.019  1.00  0.00    -0.353 N 
ATOM      3  H2  UNL     1       8.699 -18.450 113.275  1.00  0.00     0.163 HD
HETATM    4  C6  UNL     1       8.046 -16.605 113.744  1.00  0.00     0.001 C 
HETATM    5  C7  UNL     1       7.943 -16.152 112.316  1.00  0.00     0.064 C 
HETATM    6  C8  UNL     1       7.659 -15.596 114.763  1.00  0.00     0.168 C 
HETATM    7  C9  UNL     1       6.252 -15.260 114.566  1.00  0.00     0.072 C 
HETATM    8  N3  UNL     1       5.123 -14.971 114.419  1.00  0.00    -0.196 NA
HETATM    9  C10 UNL     1       7.953 -16.069 116.165  1.00  0.00     0.209 C 
HETATM   10  C11 UNL     1       6.724 -16.597 116.861  1.00  0.00     0.042 C 
HETATM   11  N4  UNL     1       9.040 -17.037 116.132  1.00  0.00    -0.031 N 
ATOM     12  H41 UNL     1       9.914 -16.660 115.767  1.00  0.00     0.282 HD
ATOM     13  H42 UNL     1       9.393 -17.287 117.056  1.00  0.00     0.282 HD
ENDROOT
BRANCH   1  14
HETATM   14  N1  UNL     1       9.194 -19.387 115.683  1.00  0.00    -0.380 N 
ATOM     15  H1  UNL     1       8.977 -20.261 115.203  1.00  0.00     0.157 HD
BRANCH  14  16
HETATM   16  C4  UNL     1      10.195 -19.318 116.715  1.00  0.00     0.117 C 
BRANCH  16  17
HETATM   17  C3  UNL     1       9.880 -20.437 117.686  1.00  0.00     0.019 C 
BRANCH  17  18
HETATM   18  C2  UNL     1       8.693 -20.197 118.551  1.00  0.00    -0.003 C 
HETATM   19  C1  UNL     1       8.720 -18.881 119.269  1.00  0.00     0.005 C 
ENDBRANCH  17  18
ENDBRANCH  16  17
ENDBRANCH  14  16
ENDBRANCH   1  14
TORSDOF 4
ENDMDL
MODEL 5
REMARK VINA RESULT: -4.639875757      2.299      4.604
REMARK  4 active torsions:
REMARK  status: ('A' for Active; 'I' for Inactive)
REMARK    1  A    between atoms: C2_2  and  C3_3 
REMARK    2  A    between atoms: C3_3  and  C4_4 
REMARK    3  A    between atoms: C4_4  and  N1_5 
REMARK    4  A    between atoms: N1_5  and  C5_7 
ROOT
HETATM    1  C5  UNL     1       6.884 -17.471 113.339  1.00  0.00     0.385 C 
HETATM    2  N2  UNL     1       7.260 -18.205 114.477  1.00  0.00    -0.353 N 
ATOM      3  H2  UNL     1       7.774 -19.081 114.388  1.00  0.00     0.163 HD
HETATM    4  C6  UNL     1       6.939 -17.741 115.636  1.00  0.00     0.001 C 
HETATM    5  C7  UNL     1       7.322 -18.489 116.881  1.00  0.00     0.064 C 
HETATM    6  C8  UNL     1       6.194 -16.476 115.855  1.00  0.00     0.168 C 
HETATM    7  C9  UNL     1       7.051 -15.562 116.605  1.00  0.00     0.072 C 
HETATM    8  N3  UNL     1       7.721 -14.815 117.214  1.00  0.00    -0.196 NA
HETATM    9  C10 UNL     1       5.702 -15.879 114.560  1.00  0.00     0.209 C 
HETATM   10  C11 UNL     1       6.586 -14.760 114.072  1.00  0.00     0.042 C 
HETATM   11  N4  UNL     1       5.537 -16.935 113.571  1.00  0.00    -0.031 N 
ATOM     12  H41 UNL     1       4.855 -17.644 113.839  1.00  0.00     0.282 HD
ATOM     13  H42 UNL     1       5.065 -16.630 112.720  1.00  0.00     0.282 HD
ENDROOT
BRANCH   1  14
HETATM   14  N1  UNL     1       7.010 -18.091 112.074  1.00  0.00    -0.380 N 
ATOM     15  H1  UNL     1       6.712 -19.054 111.916  1.00  0.00     0.157 HD
BRANCH  14  16
HETATM   16  C4  UNL     1       7.580 -17.293 111.020  1.00  0.00     0.117 C 
BRANCH  16  17
HETATM   17  C3  UNL     1       8.778 -16.588 111.622  1.00  0.00     0.019 C 
BRANCH  17  18
HETATM   18  C2  UNL     1       9.057 -15.239 111.057  1.00  0.00    -0.003 C 
HETATM   19  C1  UNL     1       9.762 -14.317 112.005  1.00  0.00     0.005 C 
ENDBRANCH  17  18
ENDBRANCH  16  17
ENDBRANCH  14  16
ENDBRANCH   1  14
TORSDOF 4
ENDMDL
