MODEL 1
REMARK VINA RESULT: -7.392936641      0.000      0.000
REMARK  2 active torsions:
REMARK  status: ('A' for Active; 'I' for Inactive)
REMARK    1  A    between atoms: O1_2  and  C2_3 
REMARK    2  A    between atoms: C6_8  and  O2_9 
ROOT
HETATM    1  C2  UNL     1       8.168  14.609  40.760  1.00  0.00     0.122 A 
HETATM    2  C3  UNL     1       7.441  14.690  41.927  1.00  0.00     0.090 A 
HETATM    3  N1  UNL     1       6.063  14.353  41.918  1.00  0.00    -0.099 NA
HETATM    4  C4  UNL     1       8.007  15.088  43.112  1.00  0.00     0.001 A 
HETATM    5  C5  UNL     1       7.252  15.182  44.367  1.00  0.00     0.053 C 
HETATM    6  C6  UNL     1       9.372  15.421  43.119  1.00  0.00     0.102 A 
HETATM    7  C7  UNL     1      10.120  15.344  41.951  1.00  0.00     0.099 A 
HETATM    8  C8  UNL     1       9.511  14.941  40.786  1.00  0.00     0.099 A 
HETATM    9  N2  UNL     1      10.517  14.966  39.776  1.00  0.00    -0.336 N 
ATOM     10  H2  UNL     1      10.357  14.714  38.801  1.00  0.00     0.168 HD
HETATM   11  C9  UNL     1      11.757  15.383  40.294  1.00  0.00     0.138 A 
HETATM   12  C10 UNL     1      12.919  15.488  39.600  1.00  0.00     0.112 C 
HETATM   13  N3  UNL     1      14.183  15.906  40.059  1.00  0.00    -0.332 N 
ATOM     14  H3  UNL     1      14.340  16.204  41.022  1.00  0.00     0.168 HD
HETATM   15  C11 UNL     1      15.238  15.884  39.081  1.00  0.00     0.144 C 
HETATM   16  N4  UNL     1      16.497  15.699  39.208  1.00  0.00    -0.380 N 
ATOM     17  H41 UNL     1      17.245  15.683  38.514  1.00  0.00     0.158 HD
ATOM     18  H42 UNL     1      17.026  15.523  40.062  1.00  0.00     0.158 HD
HETATM   19  S1  UNL     1      14.290  16.199  37.550  1.00  0.00    -0.035 SA
HETATM   20  C12 UNL     1      12.938  15.099  38.172  1.00  0.00     0.102 C 
HETATM   21  N5  UNL     1      12.382  14.287  37.443  1.00  0.00    -0.391 N 
ATOM     22  H51 UNL     1      12.396  14.020  36.459  1.00  0.00     0.157 HD
ATOM     23  H52 UNL     1      11.638  13.681  37.785  1.00  0.00     0.157 HD
HETATM   24  N6  UNL     1      11.515  15.625  41.679  1.00  0.00    -0.331 N 
HETATM   25  C13 UNL     1      12.468  16.055  42.675  1.00  0.00     0.158 C 
ENDROOT
BRANCH   1  26
HETATM   26  O1  UNL     1       7.573  14.204  39.582  1.00  0.00    -0.352 OA
HETATM   27  C1  UNL     1       7.149  15.232  38.676  1.00  0.00     0.210 C 
ENDBRANCH   1  26
BRANCH   6  28
HETATM   28  O2  UNL     1       9.935  15.822  44.313  1.00  0.00    -0.358 OA
ATOM     29  H2  UNL     1      10.868  16.004  44.328  1.00  0.00     0.217 HD
ENDBRANCH   6  28
TORSDOF 2
ENDMDL
MODEL 2
REMARK VINA RESULT: -7.199591836      4.386      7.332
REMARK  2 active torsions:
REMARK  status: ('A' for Active; 'I' for Inactive)
REMARK    1  A    between atoms: O1_2  and  C2_3 
REMARK    2  A    between atoms: C6_8  and  O2_9 
ROOT
HETATM    1  C2  UNL     1      13.197  17.249  35.508  1.00  0.00     0.122 A 
HETATM    2  C3  UNL     1      14.034  16.818  34.501  1.00  0.00     0.090 A 
HETATM    3  N1  UNL     1      13.858  17.314  33.184  1.00  0.00    -0.099 NA
HETATM    4  C4  UNL     1      15.042  15.915  34.729  1.00  0.00     0.001 A 
HETATM    5  C5  UNL     1      15.945  15.442  33.673  1.00  0.00     0.053 C 
HETATM    6  C6  UNL     1      15.215  15.426  36.034  1.00  0.00     0.102 A 
HETATM    7  C7  UNL     1      14.381  15.850  37.061  1.00  0.00     0.099 A 
HETATM    8  C8  UNL     1      13.383  16.755  36.787  1.00  0.00     0.099 A 
HETATM    9  N2  UNL     1      12.704  16.991  38.018  1.00  0.00    -0.336 N 
ATOM     10  H2  UNL     1      11.910  17.622  38.124  1.00  0.00     0.168 HD
HETATM   11  C9  UNL     1      13.266  16.241  39.068  1.00  0.00     0.138 A 
HETATM   12  C10 UNL     1      12.868  16.260  40.366  1.00  0.00     0.112 C 
HETATM   13  N3  UNL     1      13.383  15.529  41.454  1.00  0.00    -0.332 N 
ATOM     14  H3  UNL     1      14.146  14.861  41.348  1.00  0.00     0.168 HD
HETATM   15  C11 UNL     1      12.763  15.788  42.726  1.00  0.00     0.144 C 
HETATM   16  N4  UNL     1      13.231  15.738  43.915  1.00  0.00    -0.380 N 
ATOM     17  H41 UNL     1      12.791  15.922  44.817  1.00  0.00     0.158 HD
ATOM     18  H42 UNL     1      14.175  15.493  44.211  1.00  0.00     0.158 HD
HETATM   19  S1  UNL     1      11.069  16.228  42.197  1.00  0.00    -0.035 SA
HETATM   20  C12 UNL     1      11.771  17.169  40.766  1.00  0.00     0.102 C 
HETATM   21  N5  UNL     1      11.337  18.268  40.444  1.00  0.00    -0.391 N 
ATOM     22  H51 UNL     1      10.581  18.895  40.720  1.00  0.00     0.157 HD
ATOM     23  H52 UNL     1      11.724  18.787  39.656  1.00  0.00     0.157 HD
HETATM   24  N6  UNL     1      14.336  15.512  38.469  1.00  0.00    -0.331 N 
HETATM   25  C13 UNL     1      15.251  14.603  39.118  1.00  0.00     0.158 C 
ENDROOT
BRANCH   1  26
HETATM   26  O1  UNL     1      12.190  18.158  35.251  1.00  0.00    -0.352 OA
HETATM   27  C1  UNL     1      12.471  19.538  35.518  1.00  0.00     0.210 C 
ENDBRANCH   1  26
BRANCH   6  28
HETATM   28  O2  UNL     1      16.230  14.517  36.257  1.00  0.00    -0.358 OA
ATOM     29  H2  UNL     1      16.165  13.953  37.018  1.00  0.00     0.217 HD
ENDBRANCH   6  28
TORSDOF 2
ENDMDL
MODEL 3
REMARK VINA RESULT: -7.077026904      4.520      7.806
REMARK  2 active torsions:
REMARK  status: ('A' for Active; 'I' for Inactive)
REMARK    1  A    between atoms: O1_2  and  C2_3 
REMARK    2  A    between atoms: C6_8  and  O2_9 
ROOT
HETATM    1  C2  UNL     1      15.299  15.153  36.465  1.00  0.00     0.122 A 
HETATM    2  C3  UNL     1      15.472  15.349  35.112  1.00  0.00     0.090 A 
HETATM    3  N1  UNL     1      16.379  14.526  34.396  1.00  0.00    -0.099 NA
HETATM    4  C4  UNL     1      14.792  16.322  34.423  1.00  0.00     0.001 A 
HETATM    5  C5  UNL     1      14.960  16.548  32.984  1.00  0.00     0.053 C 
HETATM    6  C6  UNL     1      13.894  17.135  35.134  1.00  0.00     0.102 A 
HETATM    7  C7  UNL     1      13.706  16.951  36.498  1.00  0.00     0.099 A 
HETATM    8  C8  UNL     1      14.410  15.964  37.148  1.00  0.00     0.099 A 
HETATM    9  N2  UNL     1      14.015  16.022  38.516  1.00  0.00    -0.336 N 
ATOM     10  H2  UNL     1      14.375  15.405  39.244  1.00  0.00     0.168 HD
HETATM   11  C9  UNL     1      13.066  17.038  38.736  1.00  0.00     0.138 A 
HETATM   12  C10 UNL     1      12.472  17.334  39.920  1.00  0.00     0.112 C 
HETATM   13  N3  UNL     1      11.527  18.340  40.203  1.00  0.00    -0.332 N 
ATOM     14  H3  UNL     1      11.197  18.991  39.491  1.00  0.00     0.168 HD
HETATM   15  C11 UNL     1      11.058  18.387  41.562  1.00  0.00     0.144 C 
HETATM   16  N4  UNL     1       9.936  18.759  42.051  1.00  0.00    -0.380 N 
ATOM     17  H41 UNL     1       9.603  18.793  43.015  1.00  0.00     0.158 HD
ATOM     18  H42 UNL     1       9.118  19.112  41.555  1.00  0.00     0.158 HD
HETATM   19  S1  UNL     1      12.524  17.755  42.452  1.00  0.00    -0.035 SA
HETATM   20  C12 UNL     1      12.791  16.511  41.108  1.00  0.00     0.102 C 
HETATM   21  N5  UNL     1      13.086  15.349  41.357  1.00  0.00    -0.391 N 
ATOM     22  H51 UNL     1      13.306  14.782  42.175  1.00  0.00     0.157 HD
ATOM     23  H52 UNL     1      13.232  14.663  40.617  1.00  0.00     0.157 HD
HETATM   24  N6  UNL     1      12.862  17.635  37.456  1.00  0.00    -0.331 N 
HETATM   25  C13 UNL     1      11.967  18.718  37.125  1.00  0.00     0.158 C 
ENDROOT
BRANCH   1  26
HETATM   26  O1  UNL     1      15.996  14.167  37.133  1.00  0.00    -0.352 OA
HETATM   27  C1  UNL     1      15.313  12.929  37.370  1.00  0.00     0.210 C 
ENDBRANCH   1  26
BRANCH   6  28
HETATM   28  O2  UNL     1      13.213  18.113  34.437  1.00  0.00    -0.358 OA
ATOM     29  H2  UNL     1      13.664  18.931  34.260  1.00  0.00     0.217 HD
ENDBRANCH   6  28
TORSDOF 2
ENDMDL
MODEL 4
REMARK VINA RESULT: -7.024518685      4.468      7.088
REMARK  2 active torsions:
REMARK  status: ('A' for Active; 'I' for Inactive)
REMARK    1  A    between atoms: O1_2  and  C2_3 
REMARK    2  A    between atoms: C6_8  and  O2_9 
ROOT
HETATM    1  C2  UNL     1      12.154  18.905  36.111  1.00  0.00     0.122 A 
HETATM    2  C3  UNL     1      12.774  18.625  34.913  1.00  0.00     0.090 A 
HETATM    3  N1  UNL     1      12.456  19.393  33.764  1.00  0.00    -0.099 NA
HETATM    4  C4  UNL     1      13.697  17.617  34.789  1.00  0.00     0.001 A 
HETATM    5  C5  UNL     1      14.370  17.300  33.524  1.00  0.00     0.053 C 
HETATM    6  C6  UNL     1      14.011  16.858  35.929  1.00  0.00     0.102 A 
HETATM    7  C7  UNL     1      13.395  17.128  37.145  1.00  0.00     0.099 A 
HETATM    8  C8  UNL     1      12.475  18.146  37.222  1.00  0.00     0.099 A 
HETATM    9  N2  UNL     1      12.022  18.177  38.574  1.00  0.00    -0.336 N 
ATOM     10  H2  UNL     1      11.330  18.835  38.932  1.00  0.00     0.168 HD
HETATM   11  C9  UNL     1      12.649  17.186  39.350  1.00  0.00     0.138 A 
HETATM   12  C10 UNL     1      12.458  16.969  40.677  1.00  0.00     0.112 C 
HETATM   13  N3  UNL     1      13.047  15.992  41.502  1.00  0.00    -0.332 N 
ATOM     14  H3  UNL     1      13.705  15.301  41.142  1.00  0.00     0.168 HD
HETATM   15  C11 UNL     1      12.661  16.033  42.887  1.00  0.00     0.144 C 
HETATM   16  N4  UNL     1      13.296  15.702  43.947  1.00  0.00    -0.380 N 
ATOM     17  H41 UNL     1      13.022  15.731  44.929  1.00  0.00     0.158 HD
ATOM     18  H42 UNL     1      14.241  15.327  44.025  1.00  0.00     0.158 HD
HETATM   19  S1  UNL     1      10.966  16.705  42.749  1.00  0.00    -0.035 SA
HETATM   20  C12 UNL     1      11.544  17.861  41.424  1.00  0.00     0.102 C 
HETATM   21  N5  UNL     1      11.192  19.034  41.396  1.00  0.00    -0.391 N 
ATOM     22  H51 UNL     1      10.562  19.649  41.910  1.00  0.00     0.157 HD
ATOM     23  H52 UNL     1      11.511  19.672  40.666  1.00  0.00     0.157 HD
HETATM   24  N6  UNL     1      13.527  16.512  38.449  1.00  0.00    -0.331 N 
HETATM   25  C13 UNL     1      14.422  15.419  38.747  1.00  0.00     0.158 C 
ENDROOT
BRANCH   1  26
HETATM   26  O1  UNL     1      11.228  19.925  36.207  1.00  0.00    -0.352 OA
HETATM   27  C1  UNL     1       9.867  19.552  36.455  1.00  0.00     0.210 C 
ENDBRANCH   1  26
BRANCH   6  28
HETATM   28  O2  UNL     1      14.939  15.845  35.798  1.00  0.00    -0.358 OA
ATOM     29  H2  UNL     1      15.487  15.642  36.547  1.00  0.00     0.217 HD
ENDBRANCH   6  28
TORSDOF 2
ENDMDL
MODEL 5
REMARK VINA RESULT: -6.919691191      3.410      4.573
REMARK  2 active torsions:
REMARK  status: ('A' for Active; 'I' for Inactive)
REMARK    1  A    between atoms: O1_2  and  C2_3 
REMARK    2  A    between atoms: C6_8  and  O2_9 
ROOT
HETATM    1  C2  UNL     1      10.741  17.564  41.561  1.00  0.00     0.122 A 
HETATM    2  C3  UNL     1      11.143  16.787  42.626  1.00  0.00     0.090 A 
HETATM    3  N1  UNL     1      10.422  16.844  43.846  1.00  0.00    -0.099 NA
HETATM    4  C4  UNL     1      12.229  15.951  42.549  1.00  0.00     0.001 A 
HETATM    5  C5  UNL     1      12.675  15.115  43.669  1.00  0.00     0.053 C 
HETATM    6  C6  UNL     1      12.941  15.895  41.340  1.00  0.00     0.102 A 
HETATM    7  C7  UNL     1      12.549  16.671  40.256  1.00  0.00     0.099 A 
HETATM    8  C8  UNL     1      11.456  17.496  40.379  1.00  0.00     0.099 A 
HETATM    9  N2  UNL     1      11.307  18.156  39.124  1.00  0.00    -0.336 N 
ATOM     10  H2  UNL     1      10.574  18.834  38.916  1.00  0.00     0.168 HD
HETATM   11  C9  UNL     1      12.298  17.755  38.209  1.00  0.00     0.138 A 
HETATM   12  C10 UNL     1      12.418  18.176  36.924  1.00  0.00     0.112 C 
HETATM   13  N3  UNL     1      13.389  17.819  35.969  1.00  0.00    -0.332 N 
ATOM     14  H3  UNL     1      14.152  17.177  36.183  1.00  0.00     0.168 HD
HETATM   15  C11 UNL     1      13.233  18.418  34.670  1.00  0.00     0.144 C 
HETATM   16  N4  UNL     1      13.550  17.995  33.506  1.00  0.00    -0.380 N 
ATOM     17  H41 UNL     1      13.440  18.419  32.585  1.00  0.00     0.158 HD
ATOM     18  H42 UNL     1      13.997  17.112  33.256  1.00  0.00     0.158 HD
HETATM   19  S1  UNL     1      12.433  20.000  35.118  1.00  0.00    -0.035 SA
HETATM   20  C12 UNL     1      11.410  19.114  36.381  1.00  0.00     0.102 C 
HETATM   21  N5  UNL     1      10.216  19.348  36.521  1.00  0.00    -0.391 N 
ATOM     22  H51 UNL     1       9.522  19.994  36.146  1.00  0.00     0.157 HD
ATOM     23  H52 UNL     1       9.652  18.860  37.216  1.00  0.00     0.157 HD
HETATM   24  N6  UNL     1      13.094  16.808  38.921  1.00  0.00    -0.331 N 
HETATM   25  C13 UNL     1      14.237  16.076  38.429  1.00  0.00     0.158 C 
ENDROOT
BRANCH   1  26
HETATM   26  O1  UNL     1       9.645  18.396  41.667  1.00  0.00    -0.352 OA
HETATM   27  C1  UNL     1       8.388  17.884  41.207  1.00  0.00     0.210 C 
ENDBRANCH   1  26
BRANCH   6  28
HETATM   28  O2  UNL     1      14.033  15.054  41.268  1.00  0.00    -0.358 OA
ATOM     29  H2  UNL     1      14.747  15.297  40.691  1.00  0.00     0.217 HD
ENDBRANCH   6  28
TORSDOF 2
ENDMDL
