MODEL 1
REMARK VINA RESULT: -7.186814120      0.000      0.000
REMARK  6 active torsions:
REMARK  status: ('A' for Active; 'I' for Inactive)
REMARK    1  A    between atoms: C3_4  and  O1_5 
REMARK    2  A    between atoms: C5_8  and  O2_9 
REMARK    3  A    between atoms: C7_12  and  N2_13 
REMARK    4  A    between atoms: N3_15  and  C8_17 
REMARK    5  A    between atoms: C8_17  and  N4_19 
REMARK    6  A    between atoms: N4_19  and  N5_21 
ROOT
HETATM    1  N1  UNL     1      16.204  14.963  32.801  1.00  0.00    -0.191 NA
HETATM    2  C1  UNL     1      15.717  15.352  33.786  1.00  0.00     0.105 C 
HETATM    3  C2  UNL     1      15.123  15.827  35.002  1.00  0.00     0.116 A 
HETATM    4  C3  UNL     1      15.487  15.244  36.235  1.00  0.00     0.106 A 
HETATM    5  C4  UNL     1      14.923  15.693  37.405  1.00  0.00     0.076 A 
HETATM    6  C5  UNL     1      15.232  15.171  38.628  1.00  0.00     0.086 A 
HETATM    7  C6  UNL     1      14.648  15.638  39.815  1.00  0.00     0.087 A 
HETATM    8  C7  UNL     1      13.736  16.664  39.701  1.00  0.00     0.124 A 
HETATM    9  N6  UNL     1      13.448  17.160  38.486  1.00  0.00    -0.327 N 
ATOM     10  H6  UNL     1      12.768  17.918  38.434  1.00  0.00     0.169 HD
HETATM   11  C9  UNL     1      13.988  16.734  37.338  1.00  0.00     0.123 A 
HETATM   12  N7  UNL     1      13.667  17.266  36.147  1.00  0.00    -0.331 N 
ATOM     13  H7  UNL     1      12.985  18.024  36.117  1.00  0.00     0.168 HD
HETATM   14  C10 UNL     1      14.209  16.837  34.995  1.00  0.00     0.126 A 
HETATM   15  S2  UNL     1      13.755  17.551  33.560  1.00  0.00    -0.059 SA
ENDROOT
BRANCH   4  16
HETATM   16  O1  UNL     1      16.386  14.255  36.200  1.00  0.00    -0.358 OA
ATOM     17  H1  UNL     1      17.291  14.498  36.039  1.00  0.00     0.217 HD
ENDBRANCH   4  16
BRANCH   6  18
HETATM   18  O2  UNL     1      16.146  14.142  38.756  1.00  0.00    -0.359 OA
ATOM     19  H2  UNL     1      16.591  13.980  39.580  1.00  0.00     0.217 HD
ENDBRANCH   6  18
BRANCH   8  20
HETATM   20  N2  UNL     1      13.110  17.178  40.885  1.00  0.00    -0.283 N 
HETATM   21  N3  UNL     1      12.745  16.415  41.816  1.00  0.00    -0.274 N 
ATOM     22  H3  UNL     1      12.886  15.407  41.751  1.00  0.00     0.189 HD
ATOM     23  H2  UNL     1      12.958  18.183  40.974  1.00  0.00     0.188 HD
BRANCH  21  24
HETATM   24  C8  UNL     1      12.132  16.989  42.961  1.00  0.00     0.204 C 
HETATM   25  S1  UNL     1      11.982  18.610  43.116  1.00  0.00    -0.038 SA
BRANCH  24  26
HETATM   26  N4  UNL     1      11.640  16.146  43.993  1.00  0.00    -0.282 N 
ATOM     27  H4  UNL     1      12.263  15.468  44.433  1.00  0.00     0.189 HD
BRANCH  26  28
HETATM   28  N5  UNL     1      10.307  16.239  44.411  1.00  0.00    -0.343 N 
ATOM     29  H52 UNL     1       9.949  17.144  44.714  1.00  0.00     0.176 HD
ATOM     30  H51 UNL     1       9.706  15.414  44.410  1.00  0.00     0.176 HD
ENDBRANCH  26  28
ENDBRANCH  24  26
ENDBRANCH  21  24
ENDBRANCH   8  20
TORSDOF 6
ENDMDL
MODEL 2
REMARK VINA RESULT: -7.161660863      3.970      8.123
REMARK  6 active torsions:
REMARK  status: ('A' for Active; 'I' for Inactive)
REMARK    1  A    between atoms: C3_4  and  O1_5 
REMARK    2  A    between atoms: C5_8  and  O2_9 
REMARK    3  A    between atoms: C7_12  and  N2_13 
REMARK    4  A    between atoms: N3_15  and  C8_17 
REMARK    5  A    between atoms: C8_17  and  N4_19 
REMARK    6  A    between atoms: N4_19  and  N5_21 
ROOT
HETATM    1  N1  UNL     1       6.746  14.940  44.948  1.00  0.00    -0.191 NA
HETATM    2  C1  UNL     1       7.528  15.084  44.097  1.00  0.00     0.105 C 
HETATM    3  C2  UNL     1       8.496  15.261  43.053  1.00  0.00     0.116 A 
HETATM    4  C3  UNL     1       9.792  15.723  43.369  1.00  0.00     0.106 A 
HETATM    5  C4  UNL     1      10.726  15.896  42.376  1.00  0.00     0.076 A 
HETATM    6  C5  UNL     1      11.994  16.340  42.616  1.00  0.00     0.086 A 
HETATM    7  C6  UNL     1      12.937  16.513  41.592  1.00  0.00     0.087 A 
HETATM    8  C7  UNL     1      12.531  16.212  40.311  1.00  0.00     0.124 A 
HETATM    9  N6  UNL     1      11.277  15.777  40.100  1.00  0.00    -0.327 N 
ATOM     10  H6  UNL     1      11.007  15.564  39.141  1.00  0.00     0.169 HD
HETATM   11  C9  UNL     1      10.357  15.604  41.057  1.00  0.00     0.123 A 
HETATM   12  N7  UNL     1       9.115  15.165  40.792  1.00  0.00    -0.331 N 
ATOM     13  H7  UNL     1       8.864  14.956  39.826  1.00  0.00     0.168 HD
HETATM   14  C10 UNL     1       8.191  14.992  41.752  1.00  0.00     0.126 A 
HETATM   15  S2  UNL     1       6.673  14.444  41.340  1.00  0.00    -0.059 SA
ENDROOT
BRANCH   4  16
HETATM   16  O1  UNL     1      10.051  15.977  44.656  1.00  0.00    -0.358 OA
ATOM     17  H1  UNL     1      10.404  15.264  45.176  1.00  0.00     0.217 HD
ENDBRANCH   4  16
BRANCH   6  18
HETATM   18  O2  UNL     1      12.414  16.645  43.897  1.00  0.00    -0.359 OA
ATOM     19  H2  UNL     1      13.253  17.063  44.052  1.00  0.00     0.217 HD
ENDBRANCH   6  18
BRANCH   8  20
HETATM   20  N2  UNL     1      13.458  16.371  39.228  1.00  0.00    -0.283 N 
HETATM   21  N3  UNL     1      13.734  15.417  38.456  1.00  0.00    -0.274 N 
ATOM     22  H3  UNL     1      13.301  14.502  38.582  1.00  0.00     0.189 HD
ATOM     23  H2  UNL     1      13.904  17.277  39.081  1.00  0.00     0.188 HD
BRANCH  21  24
HETATM   24  C8  UNL     1      14.660  15.642  37.403  1.00  0.00     0.204 C 
HETATM   25  S1  UNL     1      14.199  16.373  36.015  1.00  0.00    -0.038 SA
BRANCH  24  26
HETATM   26  N4  UNL     1      16.010  15.227  37.553  1.00  0.00    -0.282 N 
ATOM     27  H4  UNL     1      16.440  14.637  36.840  1.00  0.00     0.189 HD
BRANCH  26  28
HETATM   28  N5  UNL     1      16.754  15.621  38.672  1.00  0.00    -0.343 N 
ATOM     29  H52 UNL     1      17.262  16.505  38.636  1.00  0.00     0.176 HD
ATOM     30  H51 UNL     1      16.786  15.034  39.505  1.00  0.00     0.176 HD
ENDBRANCH  26  28
ENDBRANCH  24  26
ENDBRANCH  21  24
ENDBRANCH   8  20
TORSDOF 6
ENDMDL
MODEL 3
REMARK VINA RESULT: -7.093085632      1.214      1.353
REMARK  6 active torsions:
REMARK  status: ('A' for Active; 'I' for Inactive)
REMARK    1  A    between atoms: C3_4  and  O1_5 
REMARK    2  A    between atoms: C5_8  and  O2_9 
REMARK    3  A    between atoms: C7_12  and  N2_13 
REMARK    4  A    between atoms: N3_15  and  C8_17 
REMARK    5  A    between atoms: C8_17  and  N4_19 
REMARK    6  A    between atoms: N4_19  and  N5_21 
ROOT
HETATM    1  N1  UNL     1      16.046  15.031  34.049  1.00  0.00    -0.191 NA
HETATM    2  C1  UNL     1      15.484  15.485  34.963  1.00  0.00     0.105 C 
HETATM    3  C2  UNL     1      14.796  16.041  36.093  1.00  0.00     0.116 A 
HETATM    4  C3  UNL     1      15.106  15.590  37.394  1.00  0.00     0.106 A 
HETATM    5  C4  UNL     1      14.452  16.117  38.482  1.00  0.00     0.076 A 
HETATM    6  C5  UNL     1      14.706  15.723  39.764  1.00  0.00     0.086 A 
HETATM    7  C6  UNL     1      14.031  16.269  40.866  1.00  0.00     0.087 A 
HETATM    8  C7  UNL     1      13.085  17.236  40.604  1.00  0.00     0.124 A 
HETATM    9  N6  UNL     1      12.854  17.606  39.333  1.00  0.00    -0.327 N 
ATOM     10  H6  UNL     1      12.147  18.323  39.171  1.00  0.00     0.169 HD
HETATM   11  C9  UNL     1      13.482  17.102  38.263  1.00  0.00     0.123 A 
HETATM   12  N7  UNL     1      13.213  17.508  37.011  1.00  0.00    -0.331 N 
ATOM     13  H7  UNL     1      12.504  18.227  36.870  1.00  0.00     0.168 HD
HETATM   14  C10 UNL     1      13.843  17.002  35.937  1.00  0.00     0.126 A 
HETATM   15  S2  UNL     1      13.450  17.561  34.418  1.00  0.00    -0.059 SA
ENDROOT
BRANCH   4  16
HETATM   16  O1  UNL     1      16.046  14.646  37.503  1.00  0.00    -0.358 OA
ATOM     17  H1  UNL     1      16.638  14.707  38.244  1.00  0.00     0.217 HD
ENDBRANCH   4  16
BRANCH   6  18
HETATM   18  O2  UNL     1      15.652  14.755  40.041  1.00  0.00    -0.359 OA
ATOM     19  H2  UNL     1      16.541  14.991  40.282  1.00  0.00     0.217 HD
ENDBRANCH   6  18
BRANCH   8  20
HETATM   20  N2  UNL     1      12.367  17.826  41.696  1.00  0.00    -0.283 N 
HETATM   21  N3  UNL     1      11.244  17.385  42.055  1.00  0.00    -0.274 N 
ATOM     22  H3  UNL     1      10.816  16.594  41.575  1.00  0.00     0.189 HD
ATOM     23  H2  UNL     1      12.774  18.619  42.192  1.00  0.00     0.188 HD
BRANCH  21  24
HETATM   24  C8  UNL     1      10.586  18.015  43.144  1.00  0.00     0.204 C 
HETATM   25  S1  UNL     1      10.203  19.604  43.095  1.00  0.00    -0.038 SA
BRANCH  24  26
HETATM   26  N4  UNL     1      10.254  17.257  44.299  1.00  0.00    -0.282 N 
ATOM     27  H4  UNL     1       9.842  17.722  45.108  1.00  0.00     0.189 HD
BRANCH  26  28
HETATM   28  N5  UNL     1      10.487  15.877  44.334  1.00  0.00    -0.343 N 
ATOM     29  H52 UNL     1      10.228  15.314  43.523  1.00  0.00     0.176 HD
ATOM     30  H51 UNL     1      10.909  15.444  45.156  1.00  0.00     0.176 HD
ENDBRANCH  26  28
ENDBRANCH  24  26
ENDBRANCH  21  24
ENDBRANCH   8  20
TORSDOF 6
ENDMDL
MODEL 4
REMARK VINA RESULT: -6.970387967      4.182      8.159
REMARK  6 active torsions:
REMARK  status: ('A' for Active; 'I' for Inactive)
REMARK    1  A    between atoms: C3_4  and  O1_5 
REMARK    2  A    between atoms: C5_8  and  O2_9 
REMARK    3  A    between atoms: C7_12  and  N2_13 
REMARK    4  A    between atoms: N3_15  and  C8_17 
REMARK    5  A    between atoms: C8_17  and  N4_19 
REMARK    6  A    between atoms: N4_19  and  N5_21 
ROOT
HETATM    1  N1  UNL     1       6.719  15.336  44.811  1.00  0.00    -0.191 NA
HETATM    2  C1  UNL     1       7.544  15.308  43.989  1.00  0.00     0.105 C 
HETATM    3  C2  UNL     1       8.566  15.274  42.982  1.00  0.00     0.116 A 
HETATM    4  C3  UNL     1       9.903  15.564  43.329  1.00  0.00     0.106 A 
HETATM    5  C4  UNL     1      10.888  15.533  42.371  1.00  0.00     0.076 A 
HETATM    6  C5  UNL     1      12.198  15.803  42.642  1.00  0.00     0.086 A 
HETATM    7  C6  UNL     1      13.193  15.769  41.655  1.00  0.00     0.087 A 
HETATM    8  C7  UNL     1      12.795  15.445  40.376  1.00  0.00     0.124 A 
HETATM    9  N6  UNL     1      11.499  15.184  40.135  1.00  0.00    -0.327 N 
ATOM     10  H6  UNL     1      11.236  14.948  39.179  1.00  0.00     0.169 HD
HETATM   11  C9  UNL     1      10.529  15.210  41.057  1.00  0.00     0.123 A 
HETATM   12  N7  UNL     1       9.247  14.939  40.762  1.00  0.00    -0.331 N 
ATOM     13  H7  UNL     1       9.003  14.704  39.800  1.00  0.00     0.168 HD
HETATM   14  C10 UNL     1       8.272  14.965  41.688  1.00  0.00     0.126 A 
HETATM   15  S2  UNL     1       6.706  14.616  41.240  1.00  0.00    -0.059 SA
ENDROOT
BRANCH   4  16
HETATM   16  O1  UNL     1      10.149  15.862  44.609  1.00  0.00    -0.358 OA
ATOM     17  H1  UNL     1       9.596  16.520  45.014  1.00  0.00     0.217 HD
ENDBRANCH   4  16
BRANCH   6  18
HETATM   18  O2  UNL     1      12.611  16.129  43.921  1.00  0.00    -0.359 OA
ATOM     19  H2  UNL     1      13.171  16.880  44.080  1.00  0.00     0.217 HD
ENDBRANCH   6  18
BRANCH   8  20
HETATM   20  N2  UNL     1      13.774  15.397  39.330  1.00  0.00    -0.283 N 
HETATM   21  N3  UNL     1      13.882  14.392  38.580  1.00  0.00    -0.274 N 
ATOM     22  H3  UNL     1      13.271  13.584  38.699  1.00  0.00     0.189 HD
ATOM     23  H2  UNL     1      14.398  16.192  39.191  1.00  0.00     0.188 HD
BRANCH  21  24
HETATM   24  C8  UNL     1      14.872  14.409  37.563  1.00  0.00     0.204 C 
HETATM   25  S1  UNL     1      15.030  15.689  36.558  1.00  0.00    -0.038 SA
BRANCH  24  26
HETATM   26  N4  UNL     1      15.743  13.297  37.411  1.00  0.00    -0.282 N 
ATOM     27  H4  UNL     1      16.753  13.437  37.445  1.00  0.00     0.189 HD
BRANCH  26  28
HETATM   28  N5  UNL     1      15.226  12.011  37.214  1.00  0.00    -0.343 N 
ATOM     29  H52 UNL     1      15.489  11.500  36.371  1.00  0.00     0.176 HD
ATOM     30  H51 UNL     1      14.598  11.595  37.902  1.00  0.00     0.176 HD
ENDBRANCH  26  28
ENDBRANCH  24  26
ENDBRANCH  21  24
ENDBRANCH   8  20
TORSDOF 6
ENDMDL
MODEL 5
REMARK VINA RESULT: -6.845213112      2.304      2.524
REMARK  6 active torsions:
REMARK  status: ('A' for Active; 'I' for Inactive)
REMARK    1  A    between atoms: C3_4  and  O1_5 
REMARK    2  A    between atoms: C5_8  and  O2_9 
REMARK    3  A    between atoms: C7_12  and  N2_13 
REMARK    4  A    between atoms: N3_15  and  C8_17 
REMARK    5  A    between atoms: C8_17  and  N4_19 
REMARK    6  A    between atoms: N4_19  and  N5_21 
ROOT
HETATM    1  N1  UNL     1      16.207  14.453  34.440  1.00  0.00    -0.191 NA
HETATM    2  C1  UNL     1      15.513  14.526  35.373  1.00  0.00     0.105 C 
HETATM    3  C2  UNL     1      14.663  14.620  36.526  1.00  0.00     0.116 A 
HETATM    4  C3  UNL     1      15.218  14.951  37.781  1.00  0.00     0.106 A 
HETATM    5  C4  UNL     1      14.411  15.042  38.890  1.00  0.00     0.076 A 
HETATM    6  C5  UNL     1      14.886  15.358  40.130  1.00  0.00     0.086 A 
HETATM    7  C6  UNL     1      14.052  15.448  41.254  1.00  0.00     0.087 A 
HETATM    8  C7  UNL     1      12.710  15.203  41.059  1.00  0.00     0.124 A 
HETATM    9  N6  UNL     1      12.268  14.894  39.828  1.00  0.00    -0.327 N 
ATOM     10  H6  UNL     1      11.270  14.718  39.716  1.00  0.00     0.169 HD
HETATM   11  C9  UNL     1      13.040  14.801  38.739  1.00  0.00     0.123 A 
HETATM   12  N7  UNL     1      12.547  14.489  37.529  1.00  0.00    -0.331 N 
ATOM     13  H7  UNL     1      11.546  14.317  37.437  1.00  0.00     0.168 HD
HETATM   14  C10 UNL     1      13.322  14.395  36.435  1.00  0.00     0.126 A 
HETATM   15  S2  UNL     1      12.631  14.003  34.971  1.00  0.00    -0.059 SA
ENDROOT
BRANCH   4  16
HETATM   16  O1  UNL     1      16.537  15.163  37.827  1.00  0.00    -0.358 OA
ATOM     17  H1  UNL     1      16.934  15.585  37.074  1.00  0.00     0.217 HD
ENDBRANCH   4  16
BRANCH   6  18
HETATM   18  O2  UNL     1      16.229  15.606  40.340  1.00  0.00    -0.359 OA
ATOM     19  H2  UNL     1      16.658  16.357  39.945  1.00  0.00     0.217 HD
ENDBRANCH   6  18
BRANCH   8  20
HETATM   20  N2  UNL     1      11.815  15.283  42.176  1.00  0.00    -0.283 N 
HETATM   21  N3  UNL     1      10.634  15.696  42.041  1.00  0.00    -0.274 N 
ATOM     22  H3  UNL     1      10.284  15.985  41.128  1.00  0.00     0.189 HD
ATOM     23  H2  UNL     1      12.142  14.999  43.100  1.00  0.00     0.188 HD
BRANCH  21  24
HETATM   24  C8  UNL     1       9.799  15.749  43.188  1.00  0.00     0.204 C 
HETATM   25  S1  UNL     1       8.319  15.054  43.189  1.00  0.00    -0.038 SA
BRANCH  24  26
HETATM   26  N4  UNL     1      10.252  16.416  44.358  1.00  0.00    -0.282 N 
ATOM     27  H4  UNL     1      10.504  15.873  45.184  1.00  0.00     0.189 HD
BRANCH  26  28
HETATM   28  N5  UNL     1      10.355  17.812  44.384  1.00  0.00    -0.343 N 
ATOM     29  H52 UNL     1      11.283  18.236  44.399  1.00  0.00     0.176 HD
ATOM     30  H51 UNL     1       9.516  18.393  44.388  1.00  0.00     0.176 HD
ENDBRANCH  26  28
ENDBRANCH  24  26
ENDBRANCH  21  24
ENDBRANCH   8  20
TORSDOF 6
ENDMDL
