MODEL 1
REMARK VINA RESULT: -7.394779800      0.000      0.000
REMARK  4 active torsions:
REMARK  status: ('A' for Active; 'I' for Inactive)
REMARK    1  A    between atoms: N1_1  and  C1_4 
REMARK    2  A    between atoms: C6_16  and  N5_17 
REMARK    3  A    between atoms: N6_19  and  C7_21 
REMARK    4  A    between atoms: C10_24  and  O2_25 
ROOT
HETATM    1  C1  UNL     1      10.416  18.781  43.206  1.00  0.00     0.680 A 
HETATM    2  N2  UNL     1      11.271  18.756  42.160  1.00  0.00    -0.175 N 
ATOM      3  H2  UNL     1      11.460  19.613  41.641  1.00  0.00     0.186 HD
HETATM    4  C2  UNL     1      11.885  17.593  41.794  1.00  0.00     0.151 A 
HETATM    5  C3  UNL     1      11.638  16.429  42.489  1.00  0.00     0.146 A 
HETATM    6  C4  UNL     1      10.762  16.468  43.553  1.00  0.00     0.290 A 
HETATM    7  O1  UNL     1      10.557  15.397  44.166  1.00  0.00    -0.265 OA
HETATM    8  N3  UNL     1      10.195  17.635  43.864  1.00  0.00    -0.154 N 
ATOM      9  H3  UNL     1       9.550  17.656  44.653  1.00  0.00     0.187 HD
HETATM   10  N4  UNL     1      12.304  15.251  42.061  1.00  0.00    -0.358 N 
ATOM     11  H4  UNL     1      12.126  14.386  42.572  1.00  0.00     0.165 HD
HETATM   12  C5  UNL     1      13.113  15.212  41.077  1.00  0.00     0.109 A 
HETATM   13  C6  UNL     1      13.441  16.390  40.279  1.00  0.00     0.238 A 
HETATM   14  N7  UNL     1      12.773  17.570  40.706  1.00  0.00    -0.347 N 
ATOM     15  H7  UNL     1      12.947  18.439  40.200  1.00  0.00     0.163 HD
ENDROOT
BRANCH  13  16
HETATM   16  N5  UNL     1      14.888  16.526  40.310  1.00  0.00    -0.308 N 
HETATM   17  N6  UNL     1      15.678  16.037  39.493  1.00  0.00    -0.303 N 
ATOM     18  H6  UNL     1      16.666  16.229  39.661  1.00  0.00     0.186 HD
ATOM     19  H5  UNL     1      15.287  17.073  41.072  1.00  0.00     0.183 HD
BRANCH  17  20
HETATM   20  C7  UNL     1      15.394  15.256  38.371  1.00  0.00     0.049 A 
HETATM   21  C8  UNL     1      15.283  13.883  38.427  1.00  0.00     0.034 A 
HETATM   22  C9  UNL     1      15.001  13.138  37.303  1.00  0.00     0.040 A 
HETATM   23  C10 UNL     1      14.825  13.764  36.088  1.00  0.00     0.083 A 
HETATM   24  C11 UNL     1      14.932  15.128  36.014  1.00  0.00     0.047 A 
HETATM   25  S1  UNL     1      14.705  15.944  34.441  1.00  0.00    -0.050 SA
HETATM   26  C12 UNL     1      15.215  15.870  37.149  1.00  0.00     0.053 A 
BRANCH  23  27
HETATM   27  O2  UNL     1      14.538  13.060  34.914  1.00  0.00    -0.359 OA
ATOM     28  H2  UNL     1      14.060  13.447  34.190  1.00  0.00     0.217 HD
ENDBRANCH  23  27
ENDBRANCH  17  20
ENDBRANCH  13  16
BRANCH   1  29
HETATM   29  N1  UNL     1       9.828  19.871  43.566  1.00  0.00    -0.234 N 
ATOM     30  H12 UNL     1       9.334  20.446  42.884  1.00  0.00     0.174 HD
ATOM     31  H11 UNL     1       9.840  20.185  44.537  1.00  0.00     0.174 HD
ENDBRANCH   1  29
TORSDOF 4
ENDMDL
MODEL 2
REMARK VINA RESULT: -7.277565876      3.062      7.665
REMARK  4 active torsions:
REMARK  status: ('A' for Active; 'I' for Inactive)
REMARK    1  A    between atoms: N1_1  and  C1_4 
REMARK    2  A    between atoms: C6_16  and  N5_17 
REMARK    3  A    between atoms: N6_19  and  C7_21 
REMARK    4  A    between atoms: C10_24  and  O2_25 
ROOT
HETATM    1  C1  UNL     1      16.177  14.612  36.027  1.00  0.00     0.680 A 
HETATM    2  N2  UNL     1      15.787  14.816  37.304  1.00  0.00    -0.175 N 
ATOM      3  H2  UNL     1      16.205  14.265  38.054  1.00  0.00     0.186 HD
HETATM    4  C2  UNL     1      14.840  15.753  37.600  1.00  0.00     0.151 A 
HETATM    5  C3  UNL     1      14.270  16.505  36.595  1.00  0.00     0.146 A 
HETATM    6  C4  UNL     1      14.676  16.287  35.295  1.00  0.00     0.290 A 
HETATM    7  O1  UNL     1      14.142  16.983  34.403  1.00  0.00    -0.265 OA
HETATM    8  N3  UNL     1      15.606  15.357  35.070  1.00  0.00    -0.154 N 
ATOM      9  H3  UNL     1      15.902  15.203  34.106  1.00  0.00     0.187 HD
HETATM   10  N4  UNL     1      13.291  17.464  36.963  1.00  0.00    -0.358 N 
ATOM     11  H4  UNL     1      12.866  18.024  36.223  1.00  0.00     0.165 HD
HETATM   12  C5  UNL     1      12.914  17.667  38.162  1.00  0.00     0.109 A 
HETATM   13  C6  UNL     1      13.456  16.924  39.296  1.00  0.00     0.238 A 
HETATM   14  N7  UNL     1      14.437  15.962  38.929  1.00  0.00    -0.347 N 
ATOM     15  H7  UNL     1      14.867  15.399  39.663  1.00  0.00     0.163 HD
ENDROOT
BRANCH  13  16
HETATM   16  N5  UNL     1      13.967  17.910  40.236  1.00  0.00    -0.308 N 
HETATM   17  N6  UNL     1      13.492  18.160  41.350  1.00  0.00    -0.303 N 
ATOM     18  H6  UNL     1      13.973  18.883  41.885  1.00  0.00     0.186 HD
ATOM     19  H5  UNL     1      14.789  18.441  39.951  1.00  0.00     0.183 HD
BRANCH  17  20
HETATM   20  C7  UNL     1      12.382  17.582  41.971  1.00  0.00     0.049 A 
HETATM   21  C8  UNL     1      12.488  16.544  42.872  1.00  0.00     0.034 A 
HETATM   22  C9  UNL     1      11.375  15.994  43.469  1.00  0.00     0.040 A 
HETATM   23  C10 UNL     1      10.122  16.480  43.169  1.00  0.00     0.083 A 
HETATM   24  C11 UNL     1       9.997  17.512  42.275  1.00  0.00     0.047 A 
HETATM   25  S1  UNL     1       8.373  18.145  41.883  1.00  0.00    -0.050 SA
HETATM   26  C12 UNL     1      11.121  18.060  41.679  1.00  0.00     0.053 A 
BRANCH  23  27
HETATM   27  O2  UNL     1       8.956  15.961  43.743  1.00  0.00    -0.359 OA
ATOM     28  H2  UNL     1       8.094  16.106  43.370  1.00  0.00     0.217 HD
ENDBRANCH  23  27
ENDBRANCH  17  20
ENDBRANCH  13  16
BRANCH   1  29
HETATM   29  N1  UNL     1      17.071  13.731  35.730  1.00  0.00    -0.234 N 
ATOM     30  H12 UNL     1      18.011  13.792  36.120  1.00  0.00     0.174 HD
ATOM     31  H11 UNL     1      16.863  12.954  35.102  1.00  0.00     0.174 HD
ENDBRANCH   1  29
TORSDOF 4
ENDMDL
MODEL 3
REMARK VINA RESULT: -7.228894782      3.200      4.419
REMARK  4 active torsions:
REMARK  status: ('A' for Active; 'I' for Inactive)
REMARK    1  A    between atoms: N1_1  and  C1_4 
REMARK    2  A    between atoms: C6_16  and  N5_17 
REMARK    3  A    between atoms: N6_19  and  C7_21 
REMARK    4  A    between atoms: C10_24  and  O2_25 
ROOT
HETATM    1  C1  UNL     1       6.704  14.093  41.236  1.00  0.00     0.680 A 
HETATM    2  N2  UNL     1       7.830  14.668  40.759  1.00  0.00    -0.175 N 
ATOM      3  H2  UNL     1       8.098  14.523  39.786  1.00  0.00     0.186 HD
HETATM    4  C2  UNL     1       8.610  15.441  41.569  1.00  0.00     0.151 A 
HETATM    5  C3  UNL     1       8.257  15.645  42.885  1.00  0.00     0.146 A 
HETATM    6  C4  UNL     1       7.106  15.052  43.360  1.00  0.00     0.290 A 
HETATM    7  O1  UNL     1       6.810  15.253  44.559  1.00  0.00    -0.265 OA
HETATM    8  N3  UNL     1       6.385  14.308  42.520  1.00  0.00    -0.154 N 
ATOM      9  H3  UNL     1       5.534  13.874  42.878  1.00  0.00     0.187 HD
HETATM   10  N4  UNL     1       9.108  16.458  43.679  1.00  0.00    -0.358 N 
ATOM     11  H4  UNL     1       8.852  16.613  44.654  1.00  0.00     0.165 HD
HETATM   12  C5  UNL     1      10.172  17.006  43.243  1.00  0.00     0.109 A 
HETATM   13  C6  UNL     1      10.631  16.853  41.865  1.00  0.00     0.238 A 
HETATM   14  N7  UNL     1       9.780  16.038  41.070  1.00  0.00    -0.347 N 
ATOM     15  H7  UNL     1      10.030  15.879  40.094  1.00  0.00     0.163 HD
ENDROOT
BRANCH  13  16
HETATM   16  N5  UNL     1      10.784  18.194  41.324  1.00  0.00    -0.308 N 
HETATM   17  N6  UNL     1      11.641  18.549  40.505  1.00  0.00    -0.303 N 
ATOM     18  H6  UNL     1      11.610  19.530  40.227  1.00  0.00     0.186 HD
ATOM     19  H5  UNL     1      10.128  18.903  41.647  1.00  0.00     0.183 HD
BRANCH  17  20
HETATM   20  C7  UNL     1      12.646  17.782  39.912  1.00  0.00     0.049 A 
HETATM   21  C8  UNL     1      13.822  17.465  40.558  1.00  0.00     0.034 A 
HETATM   22  C9  UNL     1      14.796  16.706  39.947  1.00  0.00     0.040 A 
HETATM   23  C10 UNL     1      14.606  16.247  38.662  1.00  0.00     0.083 A 
HETATM   24  C11 UNL     1      13.444  16.552  38.005  1.00  0.00     0.047 A 
HETATM   25  S1  UNL     1      13.194  15.958  36.338  1.00  0.00    -0.050 SA
HETATM   26  C12 UNL     1      12.469  17.315  38.626  1.00  0.00     0.053 A 
BRANCH  23  27
HETATM   27  O2  UNL     1      15.560  15.473  37.992  1.00  0.00    -0.359 OA
ATOM     28  H2  UNL     1      15.389  15.069  37.149  1.00  0.00     0.217 HD
ENDBRANCH  23  27
ENDBRANCH  17  20
ENDBRANCH  13  16
BRANCH   1  29
HETATM   29  N1  UNL     1       5.955  13.360  40.485  1.00  0.00    -0.234 N 
ATOM     30  H12 UNL     1       5.954  13.482  39.473  1.00  0.00     0.174 HD
ATOM     31  H11 UNL     1       5.348  12.641  40.880  1.00  0.00     0.174 HD
ENDBRANCH   1  29
TORSDOF 4
ENDMDL
MODEL 4
REMARK VINA RESULT: -7.188267032      3.385      7.983
REMARK  4 active torsions:
REMARK  status: ('A' for Active; 'I' for Inactive)
REMARK    1  A    between atoms: N1_1  and  C1_4 
REMARK    2  A    between atoms: C6_16  and  N5_17 
REMARK    3  A    between atoms: N6_19  and  C7_21 
REMARK    4  A    between atoms: C10_24  and  O2_25 
ROOT
HETATM    1  C1  UNL     1      16.661  11.604  36.103  1.00  0.00     0.680 A 
HETATM    2  N2  UNL     1      16.504  12.356  37.214  1.00  0.00    -0.175 N 
ATOM      3  H2  UNL     1      17.216  12.334  37.945  1.00  0.00     0.186 HD
HETATM    4  C2  UNL     1      15.401  13.145  37.367  1.00  0.00     0.151 A 
HETATM    5  C3  UNL     1      14.433  13.184  36.387  1.00  0.00     0.146 A 
HETATM    6  C4  UNL     1      14.606  12.411  35.258  1.00  0.00     0.290 A 
HETATM    7  O1  UNL     1      13.712  12.465  34.384  1.00  0.00    -0.265 OA
HETATM    8  N3  UNL     1      15.705  11.661  35.166  1.00  0.00    -0.154 N 
ATOM      9  H3  UNL     1      15.826  11.094  34.327  1.00  0.00     0.187 HD
HETATM   10  N4  UNL     1      13.309  14.023  36.601  1.00  0.00    -0.358 N 
ATOM     11  H4  UNL     1      12.590  14.056  35.879  1.00  0.00     0.165 HD
HETATM   12  C5  UNL     1      13.147  14.737  37.644  1.00  0.00     0.109 A 
HETATM   13  C6  UNL     1      14.114  14.766  38.738  1.00  0.00     0.238 A 
HETATM   14  N7  UNL     1      15.240  13.926  38.524  1.00  0.00    -0.347 N 
ATOM     15  H7  UNL     1      15.964  13.888  39.242  1.00  0.00     0.163 HD
ENDROOT
BRANCH  13  16
HETATM   16  N5  UNL     1      14.486  16.159  38.930  1.00  0.00    -0.308 N 
HETATM   17  N6  UNL     1      14.191  16.858  39.906  1.00  0.00    -0.303 N 
ATOM     18  H6  UNL     1      14.533  17.819  39.884  1.00  0.00     0.186 HD
ATOM     19  H5  UNL     1      15.040  16.598  38.195  1.00  0.00     0.183 HD
BRANCH  17  20
HETATM   20  C7  UNL     1      13.449  16.504  41.036  1.00  0.00     0.049 A 
HETATM   21  C8  UNL     1      13.673  15.339  41.739  1.00  0.00     0.034 A 
HETATM   22  C9  UNL     1      12.925  15.016  42.850  1.00  0.00     0.040 A 
HETATM   23  C10 UNL     1      11.929  15.864  43.280  1.00  0.00     0.083 A 
HETATM   24  C11 UNL     1      11.693  17.026  42.595  1.00  0.00     0.047 A 
HETATM   25  S1  UNL     1      10.402  18.129  43.150  1.00  0.00    -0.050 SA
HETATM   26  C12 UNL     1      12.449  17.345  41.478  1.00  0.00     0.053 A 
BRANCH  23  27
HETATM   27  O2  UNL     1      11.139  15.588  44.401  1.00  0.00    -0.359 OA
ATOM     28  H2  UNL     1      10.950  14.701  44.687  1.00  0.00     0.217 HD
ENDBRANCH  23  27
ENDBRANCH  17  20
ENDBRANCH  13  16
BRANCH   1  29
HETATM   29  N1  UNL     1      17.697  10.853  35.942  1.00  0.00    -0.234 N 
ATOM     30  H12 UNL     1      17.852  10.043  36.542  1.00  0.00     0.174 HD
ATOM     31  H11 UNL     1      18.385  11.046  35.214  1.00  0.00     0.174 HD
ENDBRANCH   1  29
TORSDOF 4
ENDMDL
MODEL 5
REMARK VINA RESULT: -7.186408202      3.192      7.731
REMARK  4 active torsions:
REMARK  status: ('A' for Active; 'I' for Inactive)
REMARK    1  A    between atoms: N1_1  and  C1_4 
REMARK    2  A    between atoms: C6_16  and  N5_17 
REMARK    3  A    between atoms: N6_19  and  C7_21 
REMARK    4  A    between atoms: C10_24  and  O2_25 
ROOT
HETATM    1  C1  UNL     1      16.096  12.319  36.814  1.00  0.00     0.680 A 
HETATM    2  N2  UNL     1      15.798  13.206  37.787  1.00  0.00    -0.175 N 
ATOM      3  H2  UNL     1      16.416  13.301  38.593  1.00  0.00     0.186 HD
HETATM    4  C2  UNL     1      14.676  13.979  37.702  1.00  0.00     0.151 A 
HETATM    5  C3  UNL     1      13.833  13.861  36.618  1.00  0.00     0.146 A 
HETATM    6  C4  UNL     1      14.149  12.951  35.631  1.00  0.00     0.290 A 
HETATM    7  O1  UNL     1      13.366  12.865  34.659  1.00  0.00    -0.265 OA
HETATM    8  N3  UNL     1      15.260  12.226  35.771  1.00  0.00    -0.154 N 
ATOM      9  H3  UNL     1      15.487  11.556  35.036  1.00  0.00     0.187 HD
HETATM   10  N4  UNL     1      12.681  14.691  36.584  1.00  0.00    -0.358 N 
ATOM     11  H4  UNL     1      12.054  14.608  35.784  1.00  0.00     0.165 HD
HETATM   12  C5  UNL     1      12.387  15.531  37.495  1.00  0.00     0.109 A 
HETATM   13  C6  UNL     1      13.214  15.731  38.682  1.00  0.00     0.238 A 
HETATM   14  N7  UNL     1      14.368  14.901  38.716  1.00  0.00    -0.347 N 
ATOM     15  H7  UNL     1      15.000  14.978  39.513  1.00  0.00     0.163 HD
ENDROOT
BRANCH  13  16
HETATM   16  N5  UNL     1      13.545  17.147  38.727  1.00  0.00    -0.308 N 
HETATM   17  N6  UNL     1      13.216  17.938  39.619  1.00  0.00    -0.303 N 
ATOM     18  H6  UNL     1      13.531  18.900  39.498  1.00  0.00     0.186 HD
ATOM     19  H5  UNL     1      14.098  17.520  37.956  1.00  0.00     0.183 HD
BRANCH  17  20
HETATM   20  C7  UNL     1      12.468  17.685  40.771  1.00  0.00     0.049 A 
HETATM   21  C8  UNL     1      13.028  17.192  41.930  1.00  0.00     0.034 A 
HETATM   22  C9  UNL     1      12.265  16.952  43.052  1.00  0.00     0.040 A 
HETATM   23  C10 UNL     1      10.911  17.204  43.030  1.00  0.00     0.083 A 
HETATM   24  C11 UNL     1      10.337  17.694  41.887  1.00  0.00     0.047 A 
HETATM   25  S1  UNL     1       8.581  18.023  41.854  1.00  0.00    -0.050 SA
HETATM   26  C12 UNL     1      11.111  17.933  40.763  1.00  0.00     0.053 A 
BRANCH  23  27
HETATM   27  O2  UNL     1      10.086  16.980  44.138  1.00  0.00    -0.359 OA
ATOM     28  H2  UNL     1       9.143  17.086  44.103  1.00  0.00     0.217 HD
ENDBRANCH  23  27
ENDBRANCH  17  20
ENDBRANCH  13  16
BRANCH   1  29
HETATM   29  N1  UNL     1      17.153  11.582  36.878  1.00  0.00    -0.234 N 
ATOM     30  H12 UNL     1      18.064  11.954  36.612  1.00  0.00     0.174 HD
ATOM     31  H11 UNL     1      17.106  10.614  37.196  1.00  0.00     0.174 HD
ENDBRANCH   1  29
TORSDOF 4
ENDMDL
