MODEL 1
REMARK VINA RESULT: -7.736986809      0.000      0.000
REMARK  5 active torsions:
REMARK  status: ('A' for Active; 'I' for Inactive)
REMARK    1  A    between atoms: C3_5  and  N2_6 
REMARK    2  A    between atoms: N3_9  and  O1_10 
REMARK    3  A    between atoms: C11_19  and  O2_20 
REMARK    4  A    between atoms: C12_22  and  O3_23 
REMARK    5  A    between atoms: C13_25  and  O4_26 
ROOT
HETATM    1  C1  UNL     1       9.747  17.602  37.262  1.00  0.00     0.097 C 
HETATM    2  C2  UNL     1      10.777  17.033  38.203  1.00  0.00     0.117 A 
HETATM    3  N1  UNL     1      10.485  16.757  39.406  1.00  0.00    -0.352 N 
ATOM      4  H1  UNL     1       9.525  16.937  39.700  1.00  0.00     0.163 HD
HETATM    5  C3  UNL     1      11.389  16.209  40.407  1.00  0.00     0.215 A 
HETATM    6  C8  UNL     1      12.728  15.997  39.808  1.00  0.00     0.026 A 
HETATM    7  C9  UNL     1      13.764  15.468  40.586  1.00  0.00    -0.013 A 
HETATM    8  C10 UNL     1      13.441  15.118  41.987  1.00  0.00     0.052 C 
HETATM    9  C11 UNL     1      15.017  15.263  40.086  1.00  0.00     0.108 A 
HETATM   10  C12 UNL     1      15.297  15.584  38.755  1.00  0.00     0.136 A 
HETATM   11  C13 UNL     1      14.299  16.105  37.965  1.00  0.00     0.136 A 
HETATM   12  C14 UNL     1      13.041  16.302  38.500  1.00  0.00     0.123 A 
HETATM   13  O5  UNL     1      12.037  16.834  37.672  1.00  0.00    -0.295 OA
ENDROOT
BRANCH   5  14
HETATM   14  N2  UNL     1      11.441  17.126  41.533  1.00  0.00    -0.205 NA
HETATM   15  C4  UNL     1      11.708  18.470  41.142  1.00  0.00     0.133 C 
HETATM   16  C5  UNL     1      11.616  19.329  42.406  1.00  0.00     0.139 C 
HETATM   17  N3  UNL     1      10.239  19.323  42.807  1.00  0.00    -0.175 NA
HETATM   18  C6  UNL     1       9.590  18.052  42.709  1.00  0.00     0.190 C 
HETATM   19  C7  UNL     1       8.408  18.151  41.750  1.00  0.00     0.052 C 
HETATM   20  N4  UNL     1      10.434  16.943  42.438  1.00  0.00    -0.332 N 
ATOM     21  H4  UNL     1      10.295  16.045  42.902  1.00  0.00     0.176 HD
BRANCH  17  22
HETATM   22  O1  UNL     1      10.064  19.956  43.967  1.00  0.00    -0.311 OA
ATOM     23  H1  UNL     1      10.889  20.271  44.320  1.00  0.00     0.237 HD
ENDBRANCH  17  22
ENDBRANCH   5  14
BRANCH   9  24
HETATM   24  O2  UNL     1      16.045  14.745  40.848  1.00  0.00    -0.357 OA
ATOM     25  H2  UNL     1      16.957  14.826  40.598  1.00  0.00     0.217 HD
ENDBRANCH   9  24
BRANCH  11  26
HETATM   26  O4  UNL     1      14.610  16.414  36.644  1.00  0.00    -0.356 OA
ATOM     27  H4  UNL     1      15.265  17.084  36.487  1.00  0.00     0.218 HD
ENDBRANCH  11  26
BRANCH  10  28
HETATM   28  O3  UNL     1      16.588  15.364  38.274  1.00  0.00    -0.356 OA
ATOM     29  H3  UNL     1      16.798  15.648  37.391  1.00  0.00     0.218 HD
ENDBRANCH  10  28
TORSDOF 5
ENDMDL
MODEL 2
REMARK VINA RESULT: -7.501585236      2.850      5.811
REMARK  5 active torsions:
REMARK  status: ('A' for Active; 'I' for Inactive)
REMARK    1  A    between atoms: C3_5  and  N2_6 
REMARK    2  A    between atoms: N3_9  and  O1_10 
REMARK    3  A    between atoms: C11_19  and  O2_20 
REMARK    4  A    between atoms: C12_22  and  O3_23 
REMARK    5  A    between atoms: C13_25  and  O4_26 
ROOT
HETATM    1  C1  UNL     1      16.149  14.965  40.036  1.00  0.00     0.097 C 
HETATM    2  C2  UNL     1      14.655  15.086  40.185  1.00  0.00     0.117 A 
HETATM    3  N1  UNL     1      13.887  15.009  39.180  1.00  0.00    -0.352 N 
ATOM      4  H1  UNL     1      14.328  14.859  38.273  1.00  0.00     0.163 HD
HETATM    5  C3  UNL     1      12.434  15.114  39.196  1.00  0.00     0.215 A 
HETATM    6  C8  UNL     1      11.964  15.313  40.587  1.00  0.00     0.026 A 
HETATM    7  C9  UNL     1      10.594  15.435  40.850  1.00  0.00    -0.013 A 
HETATM    8  C10 UNL     1       9.676  15.326  39.693  1.00  0.00     0.052 C 
HETATM    9  C11 UNL     1      10.109  15.630  42.110  1.00  0.00     0.108 A 
HETATM   10  C12 UNL     1      10.992  15.713  43.190  1.00  0.00     0.136 A 
HETATM   11  C13 UNL     1      12.344  15.596  42.965  1.00  0.00     0.136 A 
HETATM   12  C14 UNL     1      12.804  15.400  41.677  1.00  0.00     0.123 A 
HETATM   13  O5  UNL     1      14.191  15.282  41.472  1.00  0.00    -0.295 OA
ENDROOT
BRANCH   5  14
HETATM   14  N2  UNL     1      12.042  16.213  38.331  1.00  0.00    -0.205 NA
HETATM   15  C4  UNL     1      12.596  17.463  38.736  1.00  0.00     0.133 C 
HETATM   16  C5  UNL     1      12.196  18.492  37.675  1.00  0.00     0.139 C 
HETATM   17  N3  UNL     1      12.901  18.142  36.476  1.00  0.00    -0.175 NA
HETATM   18  C6  UNL     1      12.942  16.740  36.191  1.00  0.00     0.190 C 
HETATM   19  C7  UNL     1      14.390  16.266  36.145  1.00  0.00     0.052 C 
HETATM   20  N4  UNL     1      12.113  15.918  36.999  1.00  0.00    -0.332 N 
ATOM     21  H4  UNL     1      11.590  15.137  36.601  1.00  0.00     0.176 HD
BRANCH  17  22
HETATM   22  O1  UNL     1      12.539  18.914  35.452  1.00  0.00    -0.311 OA
ATOM     23  H1  UNL     1      12.091  19.698  35.748  1.00  0.00     0.237 HD
ENDBRANCH  17  22
ENDBRANCH   5  14
BRANCH   9  24
HETATM   24  O2  UNL     1       8.761  15.754  42.375  1.00  0.00    -0.357 OA
ATOM     25  H2  UNL     1       8.404  16.473  42.883  1.00  0.00     0.217 HD
ENDBRANCH   9  24
BRANCH  11  26
HETATM   26  O4  UNL     1      13.196  15.683  44.062  1.00  0.00    -0.356 OA
ATOM     27  H4  UNL     1      12.804  15.706  44.927  1.00  0.00     0.218 HD
ENDBRANCH  11  26
BRANCH  10  28
HETATM   28  O3  UNL     1      10.466  15.913  44.467  1.00  0.00    -0.356 OA
ATOM     29  H3  UNL     1       9.523  15.884  44.578  1.00  0.00     0.218 HD
ENDBRANCH  10  28
TORSDOF 5
ENDMDL
MODEL 3
REMARK VINA RESULT: -7.115760760      1.755      2.011
REMARK  5 active torsions:
REMARK  status: ('A' for Active; 'I' for Inactive)
REMARK    1  A    between atoms: C3_5  and  N2_6 
REMARK    2  A    between atoms: N3_9  and  O1_10 
REMARK    3  A    between atoms: C11_19  and  O2_20 
REMARK    4  A    between atoms: C12_22  and  O3_23 
REMARK    5  A    between atoms: C13_25  and  O4_26 
ROOT
HETATM    1  C1  UNL     1       8.768  14.322  38.713  1.00  0.00     0.097 C 
HETATM    2  C2  UNL     1      10.211  14.571  39.065  1.00  0.00     0.117 A 
HETATM    3  N1  UNL     1      10.598  14.586  40.272  1.00  0.00    -0.352 N 
ATOM      4  H1  UNL     1       9.889  14.420  40.986  1.00  0.00     0.163 HD
HETATM    5  C3  UNL     1      11.959  14.818  40.737  1.00  0.00     0.215 A 
HETATM    6  C8  UNL     1      12.855  15.024  39.575  1.00  0.00     0.026 A 
HETATM    7  C9  UNL     1      14.219  15.259  39.779  1.00  0.00    -0.013 A 
HETATM    8  C10 UNL     1      14.699  15.259  41.180  1.00  0.00     0.052 C 
HETATM    9  C11 UNL     1      15.085  15.465  38.745  1.00  0.00     0.108 A 
HETATM   10  C12 UNL     1      14.615  15.443  37.429  1.00  0.00     0.136 A 
HETATM   11  C13 UNL     1      13.279  15.213  37.196  1.00  0.00     0.136 A 
HETATM   12  C14 UNL     1      12.428  15.009  38.264  1.00  0.00     0.123 A 
HETATM   13  O5  UNL     1      11.066  14.775  38.000  1.00  0.00    -0.295 OA
ENDROOT
BRANCH   5  14
HETATM   14  N2  UNL     1      11.953  15.969  41.624  1.00  0.00    -0.205 NA
HETATM   15  C4  UNL     1      11.182  17.055  41.118  1.00  0.00     0.133 C 
HETATM   16  C5  UNL     1      11.173  18.137  42.202  1.00  0.00     0.139 C 
HETATM   17  N3  UNL     1      10.408  17.615  43.298  1.00  0.00    -0.175 NA
HETATM   18  C6  UNL     1      10.660  16.241  43.605  1.00  0.00     0.190 C 
HETATM   19  C7  UNL     1       9.374  15.436  43.457  1.00  0.00     0.052 C 
HETATM   20  N4  UNL     1      11.766  15.648  42.939  1.00  0.00    -0.332 N 
ATOM     21  H4  UNL     1      12.397  15.009  43.424  1.00  0.00     0.176 HD
BRANCH  17  22
HETATM   22  O1  UNL     1      10.428  18.439  44.345  1.00  0.00    -0.311 OA
ATOM     23  H1  UNL     1      10.592  19.337  44.079  1.00  0.00     0.237 HD
ENDBRANCH  17  22
ENDBRANCH   5  14
BRANCH   9  24
HETATM   24  O2  UNL     1      16.431  15.700  38.940  1.00  0.00    -0.357 OA
ATOM     25  H2  UNL     1      16.878  16.448  38.562  1.00  0.00     0.217 HD
ENDBRANCH   9  24
BRANCH  11  26
HETATM   26  O4  UNL     1      12.843  15.198  35.874  1.00  0.00    -0.356 OA
ATOM     27  H4  UNL     1      12.087  14.663  35.663  1.00  0.00     0.218 HD
ENDBRANCH  11  26
BRANCH  10  28
HETATM   28  O3  UNL     1      15.525  15.657  36.393  1.00  0.00    -0.356 OA
ATOM     29  H3  UNL     1      15.445  16.451  35.876  1.00  0.00     0.218 HD
ENDBRANCH  10  28
TORSDOF 5
ENDMDL
MODEL 4
REMARK VINA RESULT: -7.054173582      2.423      6.409
REMARK  5 active torsions:
REMARK  status: ('A' for Active; 'I' for Inactive)
REMARK    1  A    between atoms: C3_5  and  N2_6 
REMARK    2  A    between atoms: N3_9  and  O1_10 
REMARK    3  A    between atoms: C11_19  and  O2_20 
REMARK    4  A    between atoms: C12_22  and  O3_23 
REMARK    5  A    between atoms: C13_25  and  O4_26 
ROOT
HETATM    1  C1  UNL     1      13.942  15.341  42.754  1.00  0.00     0.097 C 
HETATM    2  C2  UNL     1      12.616  15.989  42.452  1.00  0.00     0.117 A 
HETATM    3  N1  UNL     1      11.820  15.489  41.601  1.00  0.00    -0.352 N 
ATOM      4  H1  UNL     1      12.121  14.632  41.137  1.00  0.00     0.163 HD
HETATM    5  C3  UNL     1      10.519  16.022  41.222  1.00  0.00     0.215 A 
HETATM    6  C8  UNL     1      10.238  17.252  41.999  1.00  0.00     0.026 A 
HETATM    7  C9  UNL     1       9.033  17.938  41.807  1.00  0.00    -0.013 A 
HETATM    8  C10 UNL     1       8.079  17.361  40.834  1.00  0.00     0.052 C 
HETATM    9  C11 UNL     1       8.730  19.080  42.489  1.00  0.00     0.108 A 
HETATM   10  C12 UNL     1       9.637  19.599  43.417  1.00  0.00     0.136 A 
HETATM   11  C13 UNL     1      10.830  18.947  43.629  1.00  0.00     0.136 A 
HETATM   12  C14 UNL     1      11.108  17.793  42.922  1.00  0.00     0.123 A 
HETATM   13  O5  UNL     1      12.333  17.143  43.157  1.00  0.00    -0.295 OA
ENDROOT
BRANCH   5  14
HETATM   14  N2  UNL     1      10.524  16.277  39.791  1.00  0.00    -0.205 NA
HETATM   15  C4  UNL     1      11.398  17.340  39.421  1.00  0.00     0.133 C 
HETATM   16  C5  UNL     1      11.387  17.413  37.891  1.00  0.00     0.139 C 
HETATM   17  N3  UNL     1      12.027  16.219  37.418  1.00  0.00    -0.175 NA
HETATM   18  C6  UNL     1      11.667  15.026  38.120  1.00  0.00     0.190 C 
HETATM   19  C7  UNL     1      12.909  14.403  38.747  1.00  0.00     0.052 C 
HETATM   20  N4  UNL     1      10.584  15.144  39.031  1.00  0.00    -0.332 N 
ATOM     21  H4  UNL     1       9.878  14.412  39.113  1.00  0.00     0.176 HD
BRANCH  17  22
HETATM   22  O1  UNL     1      11.974  16.129  36.089  1.00  0.00    -0.311 OA
ATOM     23  H1  UNL     1      11.331  16.726  35.725  1.00  0.00     0.237 HD
ENDBRANCH  17  22
ENDBRANCH   5  14
BRANCH   9  24
HETATM   24  O2  UNL     1       7.546  19.764  42.302  1.00  0.00    -0.357 OA
ATOM     25  H2  UNL     1       6.744  19.530  42.755  1.00  0.00     0.217 HD
ENDBRANCH   9  24
BRANCH  11  26
HETATM   26  O4  UNL     1      11.712  19.489  44.559  1.00  0.00    -0.356 OA
ATOM     27  H4  UNL     1      12.354  18.909  44.952  1.00  0.00     0.218 HD
ENDBRANCH  11  26
BRANCH  10  28
HETATM   28  O3  UNL     1       9.299  20.769  44.098  1.00  0.00    -0.356 OA
ATOM     29  H3  UNL     1       9.931  21.478  44.124  1.00  0.00     0.218 HD
ENDBRANCH  10  28
TORSDOF 5
ENDMDL
MODEL 5
REMARK VINA RESULT: -7.029193138      2.841      5.922
REMARK  5 active torsions:
REMARK  status: ('A' for Active; 'I' for Inactive)
REMARK    1  A    between atoms: C3_5  and  N2_6 
REMARK    2  A    between atoms: N3_9  and  O1_10 
REMARK    3  A    between atoms: C11_19  and  O2_20 
REMARK    4  A    between atoms: C12_22  and  O3_23 
REMARK    5  A    between atoms: C13_25  and  O4_26 
ROOT
HETATM    1  C1  UNL     1      12.442  18.637  37.269  1.00  0.00     0.097 C 
HETATM    2  C2  UNL     1      12.523  17.904  38.583  1.00  0.00     0.117 A 
HETATM    3  N1  UNL     1      13.542  17.213  38.886  1.00  0.00    -0.352 N 
ATOM      4  H1  UNL     1      14.298  17.182  38.202  1.00  0.00     0.163 HD
HETATM    5  C3  UNL     1      13.737  16.461  40.118  1.00  0.00     0.215 A 
HETATM    6  C8  UNL     1      12.556  16.629  40.997  1.00  0.00     0.026 A 
HETATM    7  C9  UNL     1      12.521  15.998  42.246  1.00  0.00    -0.013 A 
HETATM    8  C10 UNL     1      13.710  15.204  42.631  1.00  0.00     0.052 C 
HETATM    9  C11 UNL     1      11.455  16.113  43.089  1.00  0.00     0.108 A 
HETATM   10  C12 UNL     1      10.350  16.882  42.714  1.00  0.00     0.136 A 
HETATM   11  C13 UNL     1      10.354  17.515  41.493  1.00  0.00     0.136 A 
HETATM   12  C14 UNL     1      11.449  17.379  40.661  1.00  0.00     0.123 A 
HETATM   13  O5  UNL     1      11.431  18.037  39.418  1.00  0.00    -0.295 OA
ENDROOT
BRANCH   5  14
HETATM   14  N2  UNL     1      13.960  15.066  39.775  1.00  0.00    -0.205 NA
HETATM   15  C4  UNL     1      12.939  14.531  38.937  1.00  0.00     0.133 C 
HETATM   16  C5  UNL     1      13.366  13.107  38.568  1.00  0.00     0.139 C 
HETATM   17  N3  UNL     1      14.519  13.230  37.723  1.00  0.00    -0.175 NA
HETATM   18  C6  UNL     1      15.465  14.219  38.138  1.00  0.00     0.190 C 
HETATM   19  C7  UNL     1      15.628  15.267  37.042  1.00  0.00     0.052 C 
HETATM   20  N4  UNL     1      15.249  14.786  39.421  1.00  0.00    -0.332 N 
ATOM     21  H4  UNL     1      16.026  14.976  40.055  1.00  0.00     0.176 HD
BRANCH  17  22
HETATM   22  O1  UNL     1      15.040  12.038  37.431  1.00  0.00    -0.311 OA
ATOM     23  H1  UNL     1      14.363  11.392  37.267  1.00  0.00     0.237 HD
ENDBRANCH  17  22
ENDBRANCH   5  14
BRANCH   9  24
HETATM   24  O2  UNL     1      11.412  15.491  44.321  1.00  0.00    -0.357 OA
ATOM     25  H2  UNL     1      10.825  15.769  45.013  1.00  0.00     0.217 HD
ENDBRANCH   9  24
BRANCH  11  26
HETATM   26  O4  UNL     1       9.239  18.273  41.149  1.00  0.00    -0.356 OA
ATOM     27  H4  UNL     1       8.876  18.159  40.278  1.00  0.00     0.218 HD
ENDBRANCH  11  26
BRANCH  10  28
HETATM   28  O3  UNL     1       9.274  16.979  43.597  1.00  0.00    -0.356 OA
ATOM     29  H3  UNL     1       8.644  17.679  43.470  1.00  0.00     0.218 HD
ENDBRANCH  10  28
TORSDOF 5
ENDMDL
