MODEL 1
REMARK VINA RESULT: -9.049652067      0.000      0.000
REMARK  2 active torsions:
REMARK  status: ('A' for Active; 'I' for Inactive)
REMARK    1  A    between atoms: C8_10  and  C9_11 
REMARK    2  A    between atoms: C12_20  and  O1_21 
ROOT
HETATM    1  C1  UNL     1      10.273  17.313  37.379  1.00  0.00     0.039 C 
HETATM    2  C2  UNL     1      11.567  17.965  37.913  1.00  0.00     0.128 A 
HETATM    3  N1  UNL     1      11.723  17.475  39.241  1.00  0.00    -0.379 N 
ATOM      4  H1  UNL     1      11.007  17.707  39.928  1.00  0.00     0.160 HD
HETATM    5  C3  UNL     1      12.815  16.686  39.659  1.00  0.00     0.052 A 
HETATM    6  C4  UNL     1      13.795  16.338  38.730  1.00  0.00     0.004 A 
HETATM    7  C5  UNL     1      14.865  15.561  39.098  1.00  0.00     0.014 A 
HETATM    8  C6  UNL     1      14.934  15.138  40.411  1.00  0.00     0.002 A 
HETATM    9  C7  UNL     1      13.965  15.482  41.326  1.00  0.00     0.016 A 
HETATM   10  C8  UNL     1      12.865  16.275  40.975  1.00  0.00     0.021 A 
HETATM   11  C13 UNL     1      13.694  16.787  37.351  1.00  0.00     0.004 A 
HETATM   12  C14 UNL     1      14.481  16.601  36.240  1.00  0.00     0.059 A 
HETATM   13  C15 UNL     1      13.890  17.264  35.169  1.00  0.00     0.117 A 
HETATM   14  N6  UNL     1      14.337  17.352  33.829  1.00  0.00    -0.083 NA
HETATM   15  N7  UNL     1      12.780  17.820  35.662  1.00  0.00    -0.346 N 
ATOM     16  H7  UNL     1      12.124  18.377  35.115  1.00  0.00     0.167 HD
HETATM   17  C16 UNL     1      12.635  17.546  36.990  1.00  0.00     0.044 A 
ENDROOT
BRANCH  10  18
HETATM   18  C9  UNL     1      11.893  16.628  42.002  1.00  0.00     0.084 A 
HETATM   19  N2  UNL     1      10.956  15.800  42.489  1.00  0.00    -0.327 N 
HETATM   20  C10 UNL     1      10.067  16.102  43.423  1.00  0.00     0.194 A 
ATOM     21  H2  UNL     1      10.926  14.855  42.107  1.00  0.00     0.168 HD
HETATM   22  N3  UNL     1       9.085  15.185  43.907  1.00  0.00    -0.063 NA
HETATM   23  N4  UNL     1      10.053  17.349  43.978  1.00  0.00    -0.317 N 
HETATM   24  C11 UNL     1      10.966  18.240  43.540  1.00  0.00     0.154 A 
ATOM     25  H4  UNL     1       9.375  17.599  44.699  1.00  0.00     0.169 HD
HETATM   26  N5  UNL     1      10.979  19.547  44.097  1.00  0.00    -0.080 NA
HETATM   27  C12 UNL     1      11.892  17.912  42.561  1.00  0.00     0.135 A 
BRANCH  27  28
HETATM   28  O1  UNL     1      12.837  18.807  42.097  1.00  0.00    -0.356 OA
ATOM     29  H1  UNL     1      13.748  18.541  42.143  1.00  0.00     0.218 HD
ENDBRANCH  27  28
ENDBRANCH  10  18
TORSDOF 2
ENDMDL
MODEL 2
REMARK VINA RESULT: -8.702356572      1.140      1.913
REMARK  2 active torsions:
REMARK  status: ('A' for Active; 'I' for Inactive)
REMARK    1  A    between atoms: C8_10  and  C9_11 
REMARK    2  A    between atoms: C12_20  and  O1_21 
ROOT
HETATM    1  C1  UNL     1      10.302  17.841  37.221  1.00  0.00     0.039 C 
HETATM    2  C2  UNL     1      11.665  18.369  37.718  1.00  0.00     0.128 A 
HETATM    3  N1  UNL     1      11.805  17.878  39.047  1.00  0.00    -0.379 N 
ATOM      4  H1  UNL     1      11.131  18.184  39.748  1.00  0.00     0.160 HD
HETATM    5  C3  UNL     1      12.826  16.990  39.449  1.00  0.00     0.052 A 
HETATM    6  C4  UNL     1      13.746  16.542  38.501  1.00  0.00     0.004 A 
HETATM    7  C5  UNL     1      14.744  15.668  38.852  1.00  0.00     0.014 A 
HETATM    8  C6  UNL     1      14.803  15.252  40.168  1.00  0.00     0.002 A 
HETATM    9  C7  UNL     1      13.894  15.696  41.101  1.00  0.00     0.016 A 
HETATM   10  C8  UNL     1      12.867  16.588  40.767  1.00  0.00     0.021 A 
HETATM   11  C13 UNL     1      13.655  16.987  37.120  1.00  0.00     0.004 A 
HETATM   12  C14 UNL     1      14.394  16.716  35.993  1.00  0.00     0.059 A 
HETATM   13  C15 UNL     1      13.843  17.423  34.929  1.00  0.00     0.117 A 
HETATM   14  N6  UNL     1      14.265  17.457  33.578  1.00  0.00    -0.083 NA
HETATM   15  N7  UNL     1      12.804  18.088  35.441  1.00  0.00    -0.346 N 
ATOM     16  H7  UNL     1      12.192  18.702  34.903  1.00  0.00     0.167 HD
HETATM   17  C16 UNL     1      12.666  17.841  36.775  1.00  0.00     0.044 A 
ENDROOT
BRANCH  10  18
HETATM   18  C9  UNL     1      11.959  17.042  41.812  1.00  0.00     0.084 A 
HETATM   19  N2  UNL     1      12.164  18.110  42.598  1.00  0.00    -0.327 N 
HETATM   20  C10 UNL     1      11.349  18.539  43.550  1.00  0.00     0.194 A 
ATOM     21  H2  UNL     1      13.024  18.637  42.450  1.00  0.00     0.168 HD
HETATM   22  N3  UNL     1      11.616  19.681  44.365  1.00  0.00    -0.063 NA
HETATM   23  N4  UNL     1      10.181  17.879  43.800  1.00  0.00    -0.317 N 
HETATM   24  C11 UNL     1       9.901  16.794  43.049  1.00  0.00     0.154 A 
ATOM     25  H4  UNL     1       9.541  18.195  44.529  1.00  0.00     0.169 HD
HETATM   26  N5  UNL     1       8.693  16.084  43.283  1.00  0.00    -0.080 NA
HETATM   27  C12 UNL     1      10.763  16.354  42.056  1.00  0.00     0.135 A 
BRANCH  27  28
HETATM   28  O1  UNL     1      10.499  15.246  41.274  1.00  0.00    -0.356 OA
ATOM     29  H1  UNL     1       9.587  15.038  41.106  1.00  0.00     0.218 HD
ENDBRANCH  27  28
ENDBRANCH  10  18
TORSDOF 2
ENDMDL
MODEL 3
REMARK VINA RESULT: -8.682227147      2.275      3.658
REMARK  2 active torsions:
REMARK  status: ('A' for Active; 'I' for Inactive)
REMARK    1  A    between atoms: C8_10  and  C9_11 
REMARK    2  A    between atoms: C12_20  and  O1_21 
ROOT
HETATM    1  C1  UNL     1      15.742  14.916  39.768  1.00  0.00     0.039 C 
HETATM    2  C2  UNL     1      14.590  14.647  38.776  1.00  0.00     0.128 A 
HETATM    3  N1  UNL     1      13.655  15.703  38.979  1.00  0.00    -0.379 N 
ATOM      4  H1  UNL     1      13.207  15.780  39.891  1.00  0.00     0.160 HD
HETATM    5  C3  UNL     1      13.315  16.646  37.988  1.00  0.00     0.052 A 
HETATM    6  C4  UNL     1      13.933  16.571  36.740  1.00  0.00     0.004 A 
HETATM    7  C5  UNL     1      13.636  17.480  35.755  1.00  0.00     0.014 A 
HETATM    8  C6  UNL     1      12.712  18.465  36.044  1.00  0.00     0.002 A 
HETATM    9  C7  UNL     1      12.103  18.537  37.276  1.00  0.00     0.016 A 
HETATM   10  C8  UNL     1      12.389  17.621  38.296  1.00  0.00     0.021 A 
HETATM   11  C13 UNL     1      14.911  15.531  36.465  1.00  0.00     0.004 A 
HETATM   12  C14 UNL     1      15.669  15.220  35.362  1.00  0.00     0.059 A 
HETATM   13  C15 UNL     1      16.450  14.109  35.667  1.00  0.00     0.117 A 
HETATM   14  N6  UNL     1      17.383  13.433  34.845  1.00  0.00    -0.083 NA
HETATM   15  N7  UNL     1      16.143  13.792  36.928  1.00  0.00    -0.346 N 
ATOM     16  H7  UNL     1      16.556  13.015  37.442  1.00  0.00     0.167 HD
HETATM   17  C16 UNL     1      15.206  14.642  37.439  1.00  0.00     0.044 A 
ENDROOT
BRANCH  10  18
HETATM   18  C9  UNL     1      11.685  17.737  39.567  1.00  0.00     0.084 A 
HETATM   19  N2  UNL     1      10.364  17.567  39.731  1.00  0.00    -0.327 N 
HETATM   20  C10 UNL     1       9.708  17.665  40.877  1.00  0.00     0.194 A 
ATOM     21  H2  UNL     1       9.817  17.342  38.900  1.00  0.00     0.168 HD
HETATM   22  N3  UNL     1       8.297  17.479  41.000  1.00  0.00    -0.063 NA
HETATM   23  N4  UNL     1      10.379  17.963  42.028  1.00  0.00    -0.317 N 
HETATM   24  C11 UNL     1      11.712  18.148  41.945  1.00  0.00     0.154 A 
ATOM     25  H4  UNL     1       9.889  18.043  42.919  1.00  0.00     0.169 HD
HETATM   26  N5  UNL     1      12.442  18.459  43.124  1.00  0.00    -0.080 NA
HETATM   27  C12 UNL     1      12.389  18.043  40.739  1.00  0.00     0.135 A 
BRANCH  27  28
HETATM   28  O1  UNL     1      13.753  18.228  40.628  1.00  0.00    -0.356 OA
ATOM     29  H1  UNL     1      14.186  17.840  39.876  1.00  0.00     0.218 HD
ENDBRANCH  27  28
ENDBRANCH  10  18
TORSDOF 2
ENDMDL
MODEL 4
REMARK VINA RESULT: -8.495939408      1.353      1.604
REMARK  2 active torsions:
REMARK  status: ('A' for Active; 'I' for Inactive)
REMARK    1  A    between atoms: C8_10  and  C9_11 
REMARK    2  A    between atoms: C12_20  and  O1_21 
ROOT
HETATM    1  C1  UNL     1      10.711  16.756  37.184  1.00  0.00     0.039 C 
HETATM    2  C2  UNL     1      12.017  17.540  37.438  1.00  0.00     0.128 A 
HETATM    3  N1  UNL     1      12.534  17.036  38.667  1.00  0.00    -0.379 N 
ATOM      4  H1  UNL     1      11.978  17.165  39.512  1.00  0.00     0.160 HD
HETATM    5  C3  UNL     1      13.771  16.370  38.778  1.00  0.00     0.052 A 
HETATM    6  C4  UNL     1      14.537  16.165  37.631  1.00  0.00     0.004 A 
HETATM    7  C5  UNL     1      15.741  15.508  37.699  1.00  0.00     0.014 A 
HETATM    8  C6  UNL     1      16.162  15.061  38.937  1.00  0.00     0.002 A 
HETATM    9  C7  UNL     1      15.405  15.265  40.068  1.00  0.00     0.016 A 
HETATM   10  C8  UNL     1      14.174  15.933  40.023  1.00  0.00     0.021 A 
HETATM   11  C13 UNL     1      14.066  16.636  36.338  1.00  0.00     0.004 A 
HETATM   12  C14 UNL     1      14.585  16.573  35.068  1.00  0.00     0.059 A 
HETATM   13  C15 UNL     1      13.690  17.190  34.199  1.00  0.00     0.117 A 
HETATM   14  N6  UNL     1      13.798  17.367  32.799  1.00  0.00    -0.083 NA
HETATM   15  N7  UNL     1      12.674  17.599  34.964  1.00  0.00    -0.346 N 
ATOM     16  H7  UNL     1      11.852  18.090  34.614  1.00  0.00     0.167 HD
HETATM   17  C16 UNL     1      12.877  17.274  36.273  1.00  0.00     0.044 A 
ENDROOT
BRANCH  10  18
HETATM   18  C9  UNL     1      13.439  16.141  41.264  1.00  0.00     0.084 A 
HETATM   19  N2  UNL     1      12.994  15.163  42.067  1.00  0.00    -0.327 N 
HETATM   20  C10 UNL     1      12.328  15.333  43.199  1.00  0.00     0.194 A 
ATOM     21  H2  UNL     1      13.187  14.203  41.781  1.00  0.00     0.168 HD
HETATM   22  N3  UNL     1      11.871  14.256  44.018  1.00  0.00    -0.063 NA
HETATM   23  N4  UNL     1      12.038  16.592  43.640  1.00  0.00    -0.317 N 
HETATM   24  C11 UNL     1      12.452  17.631  42.887  1.00  0.00     0.154 A 
ATOM     25  H4  UNL     1      11.525  16.742  44.510  1.00  0.00     0.169 HD
HETATM   26  N5  UNL     1      12.167  18.955  43.317  1.00  0.00    -0.080 NA
HETATM   27  C12 UNL     1      13.149  17.440  41.703  1.00  0.00     0.135 A 
BRANCH  27  28
HETATM   28  O1  UNL     1      13.584  18.487  40.914  1.00  0.00    -0.356 OA
ATOM     29  H1  UNL     1      13.557  18.364  39.972  1.00  0.00     0.218 HD
ENDBRANCH  27  28
ENDBRANCH  10  18
TORSDOF 2
ENDMDL
MODEL 5
REMARK VINA RESULT: -8.464929718      2.409      3.965
REMARK  2 active torsions:
REMARK  status: ('A' for Active; 'I' for Inactive)
REMARK    1  A    between atoms: C8_10  and  C9_11 
REMARK    2  A    between atoms: C12_20  and  O1_21 
ROOT
HETATM    1  C1  UNL     1      15.915  14.966  39.797  1.00  0.00     0.039 C 
HETATM    2  C2  UNL     1      14.724  14.676  38.858  1.00  0.00     0.128 A 
HETATM    3  N1  UNL     1      13.784  15.720  39.097  1.00  0.00    -0.379 N 
ATOM      4  H1  UNL     1      13.376  15.796  40.028  1.00  0.00     0.160 HD
HETATM    5  C3  UNL     1      13.388  16.653  38.117  1.00  0.00     0.052 A 
HETATM    6  C4  UNL     1      13.951  16.579  36.843  1.00  0.00     0.004 A 
HETATM    7  C5  UNL     1      13.599  17.478  35.868  1.00  0.00     0.014 A 
HETATM    8  C6  UNL     1      12.675  18.452  36.193  1.00  0.00     0.002 A 
HETATM    9  C7  UNL     1      12.120  18.523  37.450  1.00  0.00     0.016 A 
HETATM   10  C8  UNL     1      12.463  17.616  38.462  1.00  0.00     0.021 A 
HETATM   11  C13 UNL     1      14.930  15.550  36.531  1.00  0.00     0.004 A 
HETATM   12  C14 UNL     1      15.643  15.243  35.397  1.00  0.00     0.059 A 
HETATM   13  C15 UNL     1      16.452  14.145  35.673  1.00  0.00     0.117 A 
HETATM   14  N6  UNL     1      17.357  13.477  34.814  1.00  0.00    -0.083 NA
HETATM   15  N7  UNL     1      16.205  13.831  36.948  1.00  0.00    -0.346 N 
ATOM     16  H7  UNL     1      16.651  13.062  37.448  1.00  0.00     0.167 HD
HETATM   17  C16 UNL     1      15.281  14.671  37.495  1.00  0.00     0.044 A 
ENDROOT
BRANCH  10  18
HETATM   18  C9  UNL     1      11.814  17.730  39.761  1.00  0.00     0.084 A 
HETATM   19  N2  UNL     1      12.345  18.336  40.834  1.00  0.00    -0.327 N 
HETATM   20  C10 UNL     1      11.770  18.452  42.021  1.00  0.00     0.194 A 
ATOM     21  H2  UNL     1      13.274  18.744  40.726  1.00  0.00     0.168 HD
HETATM   22  N3  UNL     1      12.380  19.104  43.136  1.00  0.00    -0.063 NA
HETATM   23  N4  UNL     1      10.527  17.930  42.234  1.00  0.00    -0.317 N 
HETATM   24  C11 UNL     1       9.925  17.304  41.202  1.00  0.00     0.154 A 
ATOM     25  H4  UNL     1      10.069  18.010  43.142  1.00  0.00     0.169 HD
HETATM   26  N5  UNL     1       8.630  16.750  41.389  1.00  0.00    -0.080 NA
HETATM   27  C12 UNL     1      10.538  17.189  39.963  1.00  0.00     0.135 A 
BRANCH  27  28
HETATM   28  O1  UNL     1       9.942  16.554  38.891  1.00  0.00    -0.356 OA
ATOM     29  H1  UNL     1       8.995  16.601  38.827  1.00  0.00     0.218 HD
ENDBRANCH  27  28
ENDBRANCH  10  18
TORSDOF 2
ENDMDL
