MODEL 1
REMARK VINA RESULT: -7.583522730      0.000      0.000
REMARK  15 active torsions:
REMARK  status: ('A' for Active; 'I' for Inactive)
REMARK    1  A    between atoms: C3_3  and  C4_4 
REMARK    2  A    between atoms: C5_5  and  C6_6 
REMARK    3  A    between atoms: C7_7  and  C8_8 
REMARK    4  A    between atoms: C8_8  and  C9_9 
REMARK       I    between atoms: C9_9  and  N1_11 
REMARK       I    between atoms: N1_11  and  C10_13 
REMARK    5  A    between atoms: C10_13  and  C11_15 
REMARK    6  A    between atoms: C11_15  and  N2_16 
REMARK    7  A    between atoms: C15_20  and  C16_21 
REMARK    8  A    between atoms: C16_21  and  C17_22 
REMARK    9  A    between atoms: C16_21  and  N3_29 
REMARK   10  A    between atoms: C17_22  and  C18_23 
REMARK       I    between atoms: N3_29  and  C24_31 
REMARK   11  A    between atoms: C24_31  and  C25_33 
REMARK   12  A    between atoms: C25_33  and  N4_36 
REMARK   13  A    between atoms: C28_41  and  C29_42 
REMARK   14  A    between atoms: C29_42  and  O5_43 
REMARK   15  A    between atoms: C30_45  and  O6_46 
ROOT
HETATM    1  C1  UNL     1      -2.534  30.372   2.193  1.00  0.00     0.112 C 
HETATM    2  C2  UNL     1      -3.546  30.224   1.153  1.00  0.00    -0.106 C 
HETATM    3  C3  UNL     1      -4.393  30.115   0.275  1.00  0.00    -0.079 C 
ENDROOT
BRANCH   3   4
HETATM    4  C4  UNL     1      -5.407  30.008  -0.738  1.00  0.00     0.061 C 
HETATM    5  C5  UNL     1      -5.571  28.913  -1.449  1.00  0.00    -0.008 C 
BRANCH   5   6
HETATM    6  C6  UNL     1      -6.537  28.660  -2.494  1.00  0.00     0.075 C 
HETATM    7  C7  UNL     1      -6.558  27.292  -3.088  1.00  0.00     0.141 C 
HETATM    8  O4  UNL     1      -5.848  27.257  -4.288  1.00  0.00    -0.374 OA
HETATM    9  C28 UNL     1      -6.694  27.836  -5.262  1.00  0.00     0.177 C 
HETATM   10  C30 UNL     1      -7.416  29.044  -4.710  1.00  0.00     0.183 C 
HETATM   11  C31 UNL     1      -6.465  29.669  -3.666  1.00  0.00     0.211 C 
HETATM   12  F1  UNL     1      -5.246  29.685  -4.265  1.00  0.00    -0.246 F 
BRANCH   7  13
HETATM   13  C8  UNL     1      -6.140  26.168  -2.161  1.00  0.00     0.136 C 
BRANCH  13  14
HETATM   14  C9  UNL     1      -7.045  24.995  -2.283  1.00  0.00     0.226 C 
HETATM   15  O1  UNL     1      -7.250  24.505  -3.468  1.00  0.00    -0.273 OA
HETATM   16  N1  UNL     1      -7.719  24.336  -1.262  1.00  0.00    -0.296 N 
HETATM   17  C10 UNL     1      -7.694  24.581   0.115  1.00  0.00     0.252 C 
ATOM     18  H1  UNL     1      -8.317  23.564  -1.559  1.00  0.00     0.171 HD
HETATM   19  O2  UNL     1      -8.350  23.804   0.909  1.00  0.00    -0.271 OA
BRANCH  17  20
HETATM   20  C11 UNL     1      -6.959  25.676   0.745  1.00  0.00     0.376 C 
BRANCH  20  21
HETATM   21  N2  UNL     1      -7.899  26.422   1.659  1.00  0.00     0.107 N 
HETATM   22  C12 UNL     1      -7.068  27.380   2.384  1.00  0.00     0.274 C 
HETATM   23  C13 UNL     1      -7.706  28.717   2.222  1.00  0.00     0.033 C 
HETATM   24  C14 UNL     1      -8.464  28.609   0.919  1.00  0.00     0.043 C 
HETATM   25  C15 UNL     1      -8.824  27.137   0.811  1.00  0.00     0.269 C 
BRANCH  25  26
HETATM   26  C16 UNL     1     -10.221  26.875   1.267  1.00  0.00     0.023 C 
BRANCH  26  27
HETATM   27  C17 UNL     1     -11.097  28.049   1.523  1.00  0.00     0.059 C 
BRANCH  27  28
HETATM   28  C18 UNL     1     -12.042  28.502   0.460  1.00  0.00    -0.009 C 
HETATM   29  C19 UNL     1     -12.632  29.846   0.495  1.00  0.00     0.005 C 
HETATM   30  C20 UNL     1     -14.071  29.845  -0.068  1.00  0.00     0.000 C 
HETATM   31  C21 UNL     1     -14.932  28.943   0.803  1.00  0.00     0.000 C 
HETATM   32  C22 UNL     1     -14.345  27.552   0.882  1.00  0.00     0.000 C 
HETATM   33  C23 UNL     1     -13.068  27.418   0.129  1.00  0.00     0.005 C 
ENDBRANCH  27  28
ENDBRANCH  26  27
BRANCH  26  34
HETATM   34  N3  UNL     1     -10.303  25.812   2.246  1.00  0.00    -0.330 N 
HETATM   35  C24 UNL     1     -11.279  25.312   3.053  1.00  0.00     0.257 C 
HETATM   36  O3  UNL     1     -12.454  25.741   3.131  1.00  0.00    -0.270 OA
ATOM     37  H3  UNL     1      -9.417  25.319   2.358  1.00  0.00     0.168 HD
BRANCH  35  38
HETATM   38  C25 UNL     1     -10.999  24.139   3.961  1.00  0.00     0.196 C 
HETATM   39  C26 UNL     1     -12.098  23.110   3.928  1.00  0.00     0.056 C 
HETATM   40  C27 UNL     1     -10.856  24.653   5.401  1.00  0.00     0.056 C 
BRANCH  38  41
HETATM   41  N4  UNL     1      -9.752  23.489   3.659  1.00  0.00    -0.062 N 
ATOM     42  H43 UNL     1      -9.605  23.430   2.651  1.00  0.00     0.275 HD
ATOM     43  H42 UNL     1      -8.961  24.082   3.908  1.00  0.00     0.275 HD
ATOM     44  H41 UNL     1      -9.673  22.570   4.095  1.00  0.00     0.275 HD
ENDBRANCH  38  41
ENDBRANCH  35  38
ENDBRANCH  26  34
ENDBRANCH  25  26
ENDBRANCH  20  21
ENDBRANCH  17  20
ENDBRANCH  13  14
ENDBRANCH   7  13
BRANCH   9  45
HETATM   45  C29 UNL     1      -5.976  28.086  -6.550  1.00  0.00     0.198 C 
BRANCH  45  46
HETATM   46  O5  UNL     1      -6.942  28.245  -7.554  1.00  0.00    -0.398 OA
ATOM     47  H5  UNL     1      -6.491  28.254  -8.391  1.00  0.00     0.209 HD
ENDBRANCH  45  46
ENDBRANCH   9  45
BRANCH  10  48
HETATM   48  O6  UNL     1      -7.705  30.008  -5.643  1.00  0.00    -0.390 OA
ATOM     49  H6  UNL     1      -8.608  30.305  -5.633  1.00  0.00     0.210 HD
ENDBRANCH  10  48
ENDBRANCH   5   6
ENDBRANCH   3   4
TORSDOF 15
ENDMDL
MODEL 2
REMARK VINA RESULT: -6.856558706      3.000      8.139
REMARK  15 active torsions:
REMARK  status: ('A' for Active; 'I' for Inactive)
REMARK    1  A    between atoms: C3_3  and  C4_4 
REMARK    2  A    between atoms: C5_5  and  C6_6 
REMARK    3  A    between atoms: C7_7  and  C8_8 
REMARK    4  A    between atoms: C8_8  and  C9_9 
REMARK       I    between atoms: C9_9  and  N1_11 
REMARK       I    between atoms: N1_11  and  C10_13 
REMARK    5  A    between atoms: C10_13  and  C11_15 
REMARK    6  A    between atoms: C11_15  and  N2_16 
REMARK    7  A    between atoms: C15_20  and  C16_21 
REMARK    8  A    between atoms: C16_21  and  C17_22 
REMARK    9  A    between atoms: C16_21  and  N3_29 
REMARK   10  A    between atoms: C17_22  and  C18_23 
REMARK       I    between atoms: N3_29  and  C24_31 
REMARK   11  A    between atoms: C24_31  and  C25_33 
REMARK   12  A    between atoms: C25_33  and  N4_36 
REMARK   13  A    between atoms: C28_41  and  C29_42 
REMARK   14  A    between atoms: C29_42  and  O5_43 
REMARK   15  A    between atoms: C30_45  and  O6_46 
ROOT
HETATM    1  C1  UNL     1      -4.878  31.136   4.285  1.00  0.00     0.112 C 
HETATM    2  C2  UNL     1      -6.138  30.497   3.925  1.00  0.00    -0.106 C 
HETATM    3  C3  UNL     1      -7.195  29.966   3.608  1.00  0.00    -0.079 C 
ENDROOT
BRANCH   3   4
HETATM    4  C4  UNL     1      -8.449  29.372   3.231  1.00  0.00     0.061 C 
HETATM    5  C5  UNL     1      -8.993  28.393   3.922  1.00  0.00    -0.008 C 
BRANCH   5   6
HETATM    6  C6  UNL     1     -10.237  27.702   3.667  1.00  0.00     0.075 C 
HETATM    7  C7  UNL     1     -10.169  26.458   2.846  1.00  0.00     0.141 C 
HETATM    8  O4  UNL     1     -10.505  26.718   1.517  1.00  0.00    -0.374 OA
HETATM    9  C28 UNL     1     -11.915  26.823   1.481  1.00  0.00     0.177 C 
HETATM   10  C30 UNL     1     -12.437  27.585   2.678  1.00  0.00     0.183 C 
HETATM   11  C31 UNL     1     -11.335  28.602   3.049  1.00  0.00     0.211 C 
HETATM   12  F1  UNL     1     -10.952  29.153   1.868  1.00  0.00    -0.246 F 
BRANCH   7  13
HETATM   13  C8  UNL     1      -8.878  25.672   2.950  1.00  0.00     0.136 C 
BRANCH  13  14
HETATM   14  C9  UNL     1      -9.020  24.311   2.370  1.00  0.00     0.226 C 
HETATM   15  O1  UNL     1      -9.869  23.499   2.922  1.00  0.00    -0.273 OA
HETATM   16  N1  UNL     1      -8.340  23.780   1.279  1.00  0.00    -0.296 N 
HETATM   17  C10 UNL     1      -7.393  24.388   0.448  1.00  0.00     0.252 C 
ATOM     18  H1  UNL     1      -8.562  22.810   1.054  1.00  0.00     0.171 HD
HETATM   19  O2  UNL     1      -6.923  23.735  -0.561  1.00  0.00    -0.271 OA
BRANCH  17  20
HETATM   20  C11 UNL     1      -6.882  25.744   0.632  1.00  0.00     0.376 C 
BRANCH  20  21
HETATM   21  N2  UNL     1      -7.269  26.572  -0.568  1.00  0.00     0.107 N 
HETATM   22  C12 UNL     1      -7.638  27.883  -0.043  1.00  0.00     0.274 C 
HETATM   23  C13 UNL     1      -6.852  28.893  -0.807  1.00  0.00     0.033 C 
HETATM   24  C14 UNL     1      -5.621  28.140  -1.256  1.00  0.00     0.043 C 
HETATM   25  C15 UNL     1      -6.084  26.699  -1.384  1.00  0.00     0.269 C 
BRANCH  25  26
HETATM   26  C16 UNL     1      -6.414  26.348  -2.797  1.00  0.00     0.023 C 
BRANCH  26  27
HETATM   27  C17 UNL     1      -5.989  25.013  -3.297  1.00  0.00     0.059 C 
BRANCH  27  28
HETATM   28  C18 UNL     1      -5.979  24.751  -4.766  1.00  0.00    -0.009 C 
HETATM   29  C19 UNL     1      -6.703  23.607  -5.335  1.00  0.00     0.005 C 
HETATM   30  C20 UNL     1      -5.962  23.022  -6.558  1.00  0.00     0.000 C 
HETATM   31  C21 UNL     1      -4.598  22.525  -6.106  1.00  0.00     0.000 C 
HETATM   32  C22 UNL     1      -3.816  23.630  -5.436  1.00  0.00     0.000 C 
HETATM   33  C23 UNL     1      -4.575  24.908  -5.351  1.00  0.00     0.005 C 
ENDBRANCH  27  28
ENDBRANCH  26  27
BRANCH  26  34
HETATM   34  N3  UNL     1      -6.209  27.450  -3.713  1.00  0.00    -0.330 N 
HETATM   35  C24 UNL     1      -6.893  27.973  -4.767  1.00  0.00     0.257 C 
HETATM   36  O3  UNL     1      -7.974  27.537  -5.226  1.00  0.00    -0.270 OA
ATOM     37  H3  UNL     1      -5.343  27.955  -3.522  1.00  0.00     0.168 HD
BRANCH  35  38
HETATM   38  C25 UNL     1      -6.369  29.187  -5.497  1.00  0.00     0.196 C 
HETATM   39  C26 UNL     1      -4.989  28.970  -6.060  1.00  0.00     0.056 C 
HETATM   40  C27 UNL     1      -6.316  30.368  -4.518  1.00  0.00     0.056 C 
BRANCH  38  41
HETATM   41  N4  UNL     1      -7.238  29.610  -6.563  1.00  0.00    -0.062 N 
ATOM     42  H43 UNL     1      -8.095  30.022  -6.194  1.00  0.00     0.275 HD
ATOM     43  H42 UNL     1      -6.856  30.425  -7.044  1.00  0.00     0.275 HD
ATOM     44  H41 UNL     1      -7.445  28.860  -7.221  1.00  0.00     0.275 HD
ENDBRANCH  38  41
ENDBRANCH  35  38
ENDBRANCH  26  34
ENDBRANCH  25  26
ENDBRANCH  20  21
ENDBRANCH  17  20
ENDBRANCH  13  14
ENDBRANCH   7  13
BRANCH   9  45
HETATM   45  C29 UNL     1     -12.405  27.337   0.165  1.00  0.00     0.198 C 
BRANCH  45  46
HETATM   46  O5  UNL     1     -13.692  26.821  -0.044  1.00  0.00    -0.398 OA
ATOM     47  H5  UNL     1     -14.299  27.552  -0.049  1.00  0.00     0.209 HD
ENDBRANCH  45  46
ENDBRANCH   9  45
BRANCH  10  48
HETATM   48  O6  UNL     1     -13.592  28.287   2.444  1.00  0.00    -0.390 OA
ATOM     49  H6  UNL     1     -14.127  27.938   1.740  1.00  0.00     0.210 HD
ENDBRANCH  10  48
ENDBRANCH   5   6
ENDBRANCH   3   4
TORSDOF 15
ENDMDL
MODEL 3
REMARK VINA RESULT: -6.761271886      3.669      7.435
REMARK  15 active torsions:
REMARK  status: ('A' for Active; 'I' for Inactive)
REMARK    1  A    between atoms: C3_3  and  C4_4 
REMARK    2  A    between atoms: C5_5  and  C6_6 
REMARK    3  A    between atoms: C7_7  and  C8_8 
REMARK    4  A    between atoms: C8_8  and  C9_9 
REMARK       I    between atoms: C9_9  and  N1_11 
REMARK       I    between atoms: N1_11  and  C10_13 
REMARK    5  A    between atoms: C10_13  and  C11_15 
REMARK    6  A    between atoms: C11_15  and  N2_16 
REMARK    7  A    between atoms: C15_20  and  C16_21 
REMARK    8  A    between atoms: C16_21  and  C17_22 
REMARK    9  A    between atoms: C16_21  and  N3_29 
REMARK   10  A    between atoms: C17_22  and  C18_23 
REMARK       I    between atoms: N3_29  and  C24_31 
REMARK   11  A    between atoms: C24_31  and  C25_33 
REMARK   12  A    between atoms: C25_33  and  N4_36 
REMARK   13  A    between atoms: C28_41  and  C29_42 
REMARK   14  A    between atoms: C29_42  and  O5_43 
REMARK   15  A    between atoms: C30_45  and  O6_46 
ROOT
HETATM    1  C1  UNL     1      -7.037  31.061   5.395  1.00  0.00     0.112 C 
HETATM    2  C2  UNL     1      -6.530  29.696   5.312  1.00  0.00    -0.106 C 
HETATM    3  C3  UNL     1      -6.107  28.549   5.258  1.00  0.00    -0.079 C 
ENDROOT
BRANCH   3   4
HETATM    4  C4  UNL     1      -5.584  27.210   5.213  1.00  0.00     0.061 C 
HETATM    5  C5  UNL     1      -6.357  26.165   5.008  1.00  0.00    -0.008 C 
BRANCH   5   6
HETATM    6  C6  UNL     1      -5.978  24.771   4.939  1.00  0.00     0.075 C 
HETATM    7  C7  UNL     1      -6.947  23.832   4.305  1.00  0.00     0.141 C 
HETATM    8  O4  UNL     1      -7.702  23.165   5.270  1.00  0.00    -0.374 OA
HETATM    9  C28 UNL     1      -6.863  22.154   5.795  1.00  0.00     0.177 C 
HETATM   10  C30 UNL     1      -5.452  22.661   5.987  1.00  0.00     0.183 C 
HETATM   11  C31 UNL     1      -5.579  24.166   6.307  1.00  0.00     0.211 C 
HETATM   12  F1  UNL     1      -6.578  24.248   7.224  1.00  0.00    -0.246 F 
BRANCH   7  13
HETATM   13  C8  UNL     1      -7.827  24.427   3.224  1.00  0.00     0.136 C 
BRANCH  13  14
HETATM   14  C9  UNL     1      -8.837  23.448   2.742  1.00  0.00     0.226 C 
HETATM   15  O1  UNL     1      -8.416  22.422   2.068  1.00  0.00    -0.273 OA
HETATM   16  N1  UNL     1     -10.214  23.492   2.925  1.00  0.00    -0.296 N 
HETATM   17  C10 UNL     1     -10.983  24.430   3.622  1.00  0.00     0.252 C 
ATOM     18  H1  UNL     1     -10.738  22.733   2.489  1.00  0.00     0.171 HD
HETATM   19  O2  UNL     1     -12.257  24.252   3.728  1.00  0.00    -0.271 OA
BRANCH  17  20
HETATM   20  C11 UNL     1     -10.444  25.628   4.262  1.00  0.00     0.376 C 
BRANCH  20  21
HETATM   21  N2  UNL     1     -10.756  26.821   3.393  1.00  0.00     0.107 N 
HETATM   22  C12 UNL     1     -10.787  27.969   4.294  1.00  0.00     0.274 C 
HETATM   23  C13 UNL     1      -9.881  29.000   3.715  1.00  0.00     0.033 C 
HETATM   24  C14 UNL     1      -8.885  28.201   2.905  1.00  0.00     0.043 C 
HETATM   25  C15 UNL     1      -9.654  26.964   2.472  1.00  0.00     0.269 C 
BRANCH  25  26
HETATM   26  C16 UNL     1     -10.182  27.100   1.082  1.00  0.00     0.023 C 
BRANCH  26  27
HETATM   27  C17 UNL     1     -11.645  26.927   0.878  1.00  0.00     0.059 C 
BRANCH  27  28
HETATM   28  C18 UNL     1     -12.423  28.012   0.211  1.00  0.00    -0.009 C 
HETATM   29  C19 UNL     1     -12.361  29.396   0.698  1.00  0.00     0.005 C 
HETATM   30  C20 UNL     1     -13.715  30.119   0.519  1.00  0.00     0.000 C 
HETATM   31  C21 UNL     1     -14.766  29.389   1.341  1.00  0.00     0.000 C 
HETATM   32  C22 UNL     1     -14.838  27.930   0.951  1.00  0.00     0.000 C 
HETATM   33  C23 UNL     1     -13.851  27.562  -0.100  1.00  0.00     0.005 C 
ENDBRANCH  27  28
ENDBRANCH  26  27
BRANCH  26  34
HETATM   34  N3  UNL     1      -9.336  26.465   0.095  1.00  0.00    -0.330 N 
HETATM   35  C24 UNL     1      -8.168  26.782  -0.528  1.00  0.00     0.257 C 
HETATM   36  O3  UNL     1      -7.513  27.837  -0.359  1.00  0.00    -0.270 OA
ATOM     37  H3  UNL     1      -9.704  25.562  -0.207  1.00  0.00     0.168 HD
BRANCH  35  38
HETATM   38  C25 UNL     1      -7.543  25.832  -1.521  1.00  0.00     0.196 C 
HETATM   39  C26 UNL     1      -6.038  25.904  -1.520  1.00  0.00     0.056 C 
HETATM   40  C27 UNL     1      -8.046  26.186  -2.928  1.00  0.00     0.056 C 
BRANCH  38  41
HETATM   41  N4  UNL     1      -7.937  24.466  -1.305  1.00  0.00    -0.062 N 
ATOM     42  H43 UNL     1      -8.936  24.400  -1.109  1.00  0.00     0.275 HD
ATOM     43  H42 UNL     1      -7.904  23.934  -2.175  1.00  0.00     0.275 HD
ATOM     44  H41 UNL     1      -7.389  24.010  -0.576  1.00  0.00     0.275 HD
ENDBRANCH  38  41
ENDBRANCH  35  38
ENDBRANCH  26  34
ENDBRANCH  25  26
ENDBRANCH  20  21
ENDBRANCH  17  20
ENDBRANCH  13  14
ENDBRANCH   7  13
BRANCH   9  45
HETATM   45  C29 UNL     1      -7.455  21.511   7.009  1.00  0.00     0.198 C 
BRANCH  45  46
HETATM   46  O5  UNL     1      -7.058  20.166   7.016  1.00  0.00    -0.398 OA
ATOM     47  H5  UNL     1      -6.231  20.110   7.481  1.00  0.00     0.209 HD
ENDBRANCH  45  46
ENDBRANCH   9  45
BRANCH  10  48
HETATM   48  O6  UNL     1      -4.772  22.068   7.021  1.00  0.00    -0.390 OA
ATOM     49  H6  UNL     1      -5.085  22.310   7.885  1.00  0.00     0.210 HD
ENDBRANCH  10  48
ENDBRANCH   5   6
ENDBRANCH   3   4
TORSDOF 15
ENDMDL
MODEL 4
REMARK VINA RESULT: -6.650299560      6.351     12.076
REMARK  15 active torsions:
REMARK  status: ('A' for Active; 'I' for Inactive)
REMARK    1  A    between atoms: C3_3  and  C4_4 
REMARK    2  A    between atoms: C5_5  and  C6_6 
REMARK    3  A    between atoms: C7_7  and  C8_8 
REMARK    4  A    between atoms: C8_8  and  C9_9 
REMARK       I    between atoms: C9_9  and  N1_11 
REMARK       I    between atoms: N1_11  and  C10_13 
REMARK    5  A    between atoms: C10_13  and  C11_15 
REMARK    6  A    between atoms: C11_15  and  N2_16 
REMARK    7  A    between atoms: C15_20  and  C16_21 
REMARK    8  A    between atoms: C16_21  and  C17_22 
REMARK    9  A    between atoms: C16_21  and  N3_29 
REMARK   10  A    between atoms: C17_22  and  C18_23 
REMARK       I    between atoms: N3_29  and  C24_31 
REMARK   11  A    between atoms: C24_31  and  C25_33 
REMARK   12  A    between atoms: C25_33  and  N4_36 
REMARK   13  A    between atoms: C28_41  and  C29_42 
REMARK   14  A    between atoms: C29_42  and  O5_43 
REMARK   15  A    between atoms: C30_45  and  O6_46 
ROOT
HETATM    1  C1  UNL     1      -1.910  21.573  -7.225  1.00  0.00     0.112 C 
HETATM    2  C2  UNL     1      -3.069  22.255  -6.660  1.00  0.00    -0.106 C 
HETATM    3  C3  UNL     1      -4.031  22.838  -6.177  1.00  0.00    -0.079 C 
ENDROOT
BRANCH   3   4
HETATM    4  C4  UNL     1      -5.152  23.512  -5.581  1.00  0.00     0.061 C 
HETATM    5  C5  UNL     1      -5.394  24.788  -5.794  1.00  0.00    -0.008 C 
BRANCH   5   6
HETATM    6  C6  UNL     1      -6.472  25.595  -5.267  1.00  0.00     0.075 C 
HETATM    7  C7  UNL     1      -6.262  27.071  -5.229  1.00  0.00     0.141 C 
HETATM    8  O4  UNL     1      -5.864  27.488  -3.958  1.00  0.00    -0.374 OA
HETATM    9  C28 UNL     1      -7.034  27.500  -3.165  1.00  0.00     0.177 C 
HETATM   10  C30 UNL     1      -7.906  26.300  -3.457  1.00  0.00     0.183 C 
HETATM   11  C31 UNL     1      -6.942  25.161  -3.857  1.00  0.00     0.211 C 
HETATM   12  F1  UNL     1      -5.943  25.205  -2.938  1.00  0.00    -0.246 F 
BRANCH   7  13
HETATM   13  C8  UNL     1      -5.358  27.634  -6.307  1.00  0.00     0.136 C 
BRANCH  13  14
HETATM   14  C9  UNL     1      -5.083  29.079  -6.090  1.00  0.00     0.226 C 
HETATM   15  O1  UNL     1      -4.591  29.440  -4.945  1.00  0.00    -0.273 OA
HETATM   16  N1  UNL     1      -5.292  30.124  -6.984  1.00  0.00    -0.296 N 
HETATM   17  C10 UNL     1      -5.772  30.081  -8.296  1.00  0.00     0.252 C 
ATOM     18  H1  UNL     1      -5.062  31.053  -6.631  1.00  0.00     0.171 HD
HETATM   19  O2  UNL     1      -5.831  31.170  -8.986  1.00  0.00    -0.271 OA
BRANCH  17  20
HETATM   20  C11 UNL     1      -6.221  28.865  -8.972  1.00  0.00     0.376 C 
BRANCH  20  21
HETATM   21  N2  UNL     1      -6.159  29.092 -10.462  1.00  0.00     0.107 N 
HETATM   22  C12 UNL     1      -4.939  28.429 -10.913  1.00  0.00     0.274 C 
HETATM   23  C13 UNL     1      -5.323  27.531 -12.038  1.00  0.00     0.033 C 
HETATM   24  C14 UNL     1      -6.775  27.207 -11.771  1.00  0.00     0.043 C 
HETATM   25  C15 UNL     1      -7.306  28.423 -11.031  1.00  0.00     0.269 C 
BRANCH  25  26
HETATM   26  C16 UNL     1      -8.022  29.358 -11.949  1.00  0.00     0.023 C 
BRANCH  26  27
HETATM   27  C17 UNL     1      -8.155  28.961 -13.376  1.00  0.00     0.059 C 
BRANCH  27  28
HETATM   28  C18 UNL     1      -9.473  28.476 -13.880  1.00  0.00    -0.009 C 
HETATM   29  C19 UNL     1     -10.065  27.230 -13.373  1.00  0.00     0.005 C 
HETATM   30  C20 UNL     1     -10.856  26.492 -14.476  1.00  0.00     0.000 C 
HETATM   31  C21 UNL     1      -9.896  26.122 -15.596  1.00  0.00     0.000 C 
HETATM   32  C22 UNL     1      -9.185  27.347 -16.123  1.00  0.00     0.000 C 
HETATM   33  C23 UNL     1      -9.565  28.593 -15.401  1.00  0.00     0.005 C 
ENDBRANCH  27  28
ENDBRANCH  26  27
BRANCH  26  34
HETATM   34  N3  UNL     1      -7.680  30.745 -11.717  1.00  0.00    -0.330 N 
HETATM   35  C24 UNL     1      -8.379  31.888 -11.480  1.00  0.00     0.257 C 
HETATM   36  O3  UNL     1      -9.628  31.983 -11.424  1.00  0.00    -0.270 OA
ATOM     37  H3  UNL     1      -6.672  30.903 -11.736  1.00  0.00     0.168 HD
BRANCH  35  38
HETATM   38  C25 UNL     1      -7.660  33.197 -11.254  1.00  0.00     0.196 C 
HETATM   39  C26 UNL     1      -8.394  34.368 -11.852  1.00  0.00     0.056 C 
HETATM   40  C27 UNL     1      -6.269  33.113 -11.898  1.00  0.00     0.056 C 
BRANCH  38  41
HETATM   41  N4  UNL     1      -7.424  33.466  -9.862  1.00  0.00    -0.062 N 
ATOM     42  H43 UNL     1      -7.189  34.448  -9.713  1.00  0.00     0.275 HD
ATOM     43  H42 UNL     1      -8.292  33.422  -9.328  1.00  0.00     0.275 HD
ATOM     44  H41 UNL     1      -6.715  32.854  -9.459  1.00  0.00     0.275 HD
ENDBRANCH  38  41
ENDBRANCH  35  38
ENDBRANCH  26  34
ENDBRANCH  25  26
ENDBRANCH  20  21
ENDBRANCH  17  20
ENDBRANCH  13  14
ENDBRANCH   7  13
BRANCH   9  45
HETATM   45  C29 UNL     1      -6.725  27.696  -1.714  1.00  0.00     0.198 C 
BRANCH  45  46
HETATM   46  O5  UNL     1      -5.348  27.936  -1.599  1.00  0.00    -0.398 OA
ATOM     47  H5  UNL     1      -5.233  28.725  -1.083  1.00  0.00     0.209 HD
ENDBRANCH  45  46
ENDBRANCH   9  45
BRANCH  10  48
HETATM   48  O6  UNL     1      -8.648  25.864  -2.388  1.00  0.00    -0.390 OA
ATOM     49  H6  UNL     1      -8.427  24.991  -2.087  1.00  0.00     0.210 HD
ENDBRANCH  10  48
ENDBRANCH   5   6
ENDBRANCH   3   4
TORSDOF 15
ENDMDL
MODEL 5
REMARK VINA RESULT: -6.645682159      2.973      8.290
REMARK  15 active torsions:
REMARK  status: ('A' for Active; 'I' for Inactive)
REMARK    1  A    between atoms: C3_3  and  C4_4 
REMARK    2  A    between atoms: C5_5  and  C6_6 
REMARK    3  A    between atoms: C7_7  and  C8_8 
REMARK    4  A    between atoms: C8_8  and  C9_9 
REMARK       I    between atoms: C9_9  and  N1_11 
REMARK       I    between atoms: N1_11  and  C10_13 
REMARK    5  A    between atoms: C10_13  and  C11_15 
REMARK    6  A    between atoms: C11_15  and  N2_16 
REMARK    7  A    between atoms: C15_20  and  C16_21 
REMARK    8  A    between atoms: C16_21  and  C17_22 
REMARK    9  A    between atoms: C16_21  and  N3_29 
REMARK   10  A    between atoms: C17_22  and  C18_23 
REMARK       I    between atoms: N3_29  and  C24_31 
REMARK   11  A    between atoms: C24_31  and  C25_33 
REMARK   12  A    between atoms: C25_33  and  N4_36 
REMARK   13  A    between atoms: C28_41  and  C29_42 
REMARK   14  A    between atoms: C29_42  and  O5_43 
REMARK   15  A    between atoms: C30_45  and  O6_46 
ROOT
HETATM    1  C1  UNL     1      -7.122  32.778  -1.900  1.00  0.00     0.112 C 
HETATM    2  C2  UNL     1      -8.070  32.143  -0.992  1.00  0.00    -0.106 C 
HETATM    3  C3  UNL     1      -8.863  31.595  -0.238  1.00  0.00    -0.079 C 
ENDROOT
BRANCH   3   4
HETATM    4  C4  UNL     1      -9.814  30.946   0.623  1.00  0.00     0.061 C 
HETATM    5  C5  UNL     1     -10.010  29.644   0.591  1.00  0.00    -0.008 C 
BRANCH   5   6
HETATM    6  C6  UNL     1     -10.925  28.857   1.387  1.00  0.00     0.075 C 
HETATM    7  C7  UNL     1     -11.213  27.470   0.921  1.00  0.00     0.141 C 
HETATM    8  O4  UNL     1     -12.416  27.420   0.215  1.00  0.00    -0.374 OA
HETATM    9  C28 UNL     1     -13.443  27.449   1.186  1.00  0.00     0.177 C 
HETATM   10  C30 UNL     1     -13.121  28.427   2.293  1.00  0.00     0.183 C 
HETATM   11  C31 UNL     1     -12.286  29.550   1.639  1.00  0.00     0.211 C 
HETATM   12  F1  UNL     1     -12.939  29.850   0.487  1.00  0.00    -0.246 F 
BRANCH   7  13
HETATM   13  C8  UNL     1     -10.094  26.786   0.163  1.00  0.00     0.136 C 
BRANCH  13  14
HETATM   14  C9  UNL     1      -9.203  26.022   1.076  1.00  0.00     0.226 C 
HETATM   15  O1  UNL     1      -9.466  26.051   2.347  1.00  0.00    -0.273 OA
HETATM   16  N1  UNL     1      -8.093  25.259   0.734  1.00  0.00    -0.296 N 
HETATM   17  C10 UNL     1      -7.560  24.994  -0.531  1.00  0.00     0.252 C 
ATOM     18  H1  UNL     1      -7.596  24.833   1.517  1.00  0.00     0.171 HD
HETATM   19  O2  UNL     1      -6.549  24.200  -0.639  1.00  0.00    -0.271 OA
BRANCH  17  20
HETATM   20  C11 UNL     1      -8.073  25.557  -1.778  1.00  0.00     0.376 C 
BRANCH  20  21
HETATM   21  N2  UNL     1      -6.904  25.943  -2.650  1.00  0.00     0.107 N 
HETATM   22  C12 UNL     1      -6.525  24.728  -3.365  1.00  0.00     0.274 C 
HETATM   23  C13 UNL     1      -6.479  25.073  -4.813  1.00  0.00     0.033 C 
HETATM   24  C14 UNL     1      -7.441  26.232  -4.947  1.00  0.00     0.043 C 
HETATM   25  C15 UNL     1      -7.395  26.921  -3.593  1.00  0.00     0.269 C 
BRANCH  25  26
HETATM   26  C16 UNL     1      -6.482  28.102  -3.605  1.00  0.00     0.023 C 
BRANCH  26  27
HETATM   27  C17 UNL     1      -6.559  29.048  -2.460  1.00  0.00     0.059 C 
BRANCH  27  28
HETATM   28  C18 UNL     1      -5.967  28.657  -1.147  1.00  0.00    -0.009 C 
HETATM   29  C19 UNL     1      -6.790  28.608   0.069  1.00  0.00     0.005 C 
HETATM   30  C20 UNL     1      -5.978  29.022   1.316  1.00  0.00     0.000 C 
HETATM   31  C21 UNL     1      -5.509  30.458   1.136  1.00  0.00     0.000 C 
HETATM   32  C22 UNL     1      -4.716  30.609  -0.141  1.00  0.00     0.000 C 
HETATM   33  C23 UNL     1      -4.620  29.342  -0.918  1.00  0.00     0.005 C 
ENDBRANCH  27  28
ENDBRANCH  26  27
BRANCH  26  34
HETATM   34  N3  UNL     1      -6.370  28.713  -4.911  1.00  0.00    -0.330 N 
HETATM   35  C24 UNL     1      -5.462  29.516  -5.531  1.00  0.00     0.257 C 
HETATM   36  O3  UNL     1      -4.407  29.958  -5.017  1.00  0.00    -0.270 OA
ATOM     37  H3  UNL     1      -7.163  28.489  -5.513  1.00  0.00     0.168 HD
BRANCH  35  38
HETATM   38  C25 UNL     1      -5.671  29.955  -6.961  1.00  0.00     0.196 C 
HETATM   39  C26 UNL     1      -5.282  28.890  -7.953  1.00  0.00     0.056 C 
HETATM   40  C27 UNL     1      -4.816  31.202  -7.223  1.00  0.00     0.056 C 
BRANCH  38  41
HETATM   41  N4  UNL     1      -7.026  30.355  -7.225  1.00  0.00    -0.062 N 
ATOM     42  H43 UNL     1      -7.404  30.901  -6.450  1.00  0.00     0.275 HD
ATOM     43  H42 UNL     1      -7.062  31.063  -7.958  1.00  0.00     0.275 HD
ATOM     44  H41 UNL     1      -7.633  29.566  -7.447  1.00  0.00     0.275 HD
ENDBRANCH  38  41
ENDBRANCH  35  38
ENDBRANCH  26  34
ENDBRANCH  25  26
ENDBRANCH  20  21
ENDBRANCH  17  20
ENDBRANCH  13  14
ENDBRANCH   7  13
BRANCH   9  45
HETATM   45  C29 UNL     1     -14.792  27.643   0.568  1.00  0.00     0.198 C 
BRANCH  45  46
HETATM   46  O5  UNL     1     -14.826  26.905  -0.624  1.00  0.00    -0.398 OA
ATOM     47  H5  UNL     1     -14.993  27.512  -1.335  1.00  0.00     0.209 HD
ENDBRANCH  45  46
ENDBRANCH   9  45
BRANCH  10  48
HETATM   48  O6  UNL     1     -14.220  29.008   2.874  1.00  0.00    -0.390 OA
ATOM     49  H6  UNL     1     -14.103  29.920   3.111  1.00  0.00     0.210 HD
ENDBRANCH  10  48
ENDBRANCH   5   6
ENDBRANCH   3   4
TORSDOF 15
ENDMDL
