MODEL 1
REMARK VINA RESULT: -8.084185471      0.000      0.000
REMARK  10 active torsions:
REMARK  status: ('A' for Active; 'I' for Inactive)
REMARK    1  A    between atoms: O1_2  and  C2_3 
REMARK    2  A    between atoms: C2_3  and  C3_5 
REMARK    3  A    between atoms: C3_5  and  C4_6 
REMARK    4  A    between atoms: C8_10  and  O3_11 
REMARK    5  A    between atoms: O3_11  and  C9_12 
REMARK    6  A    between atoms: C9_12  and  C10_14 
REMARK    7  A    between atoms: C10_14  and  O5_17 
REMARK    8  A    between atoms: C16_22  and  C17_23 
REMARK    9  A    between atoms: C17_23  and  C19_25 
REMARK   10  A    between atoms: C24_30  and  O6_32 
ROOT
HETATM    1  C4  UNL     1      18.844  -5.489 -46.008  1.00  0.00    -0.030 C 
HETATM    2  C5  UNL     1      19.002  -4.011 -46.092  1.00  0.00     0.016 C 
HETATM    3  C6  UNL     1      20.260  -6.059 -45.807  1.00  0.00     0.012 C 
HETATM    4  C7  UNL     1      20.803  -6.106 -44.467  1.00  0.00     0.034 C 
HETATM    5  C8  UNL     1      19.815  -5.556 -43.447  1.00  0.00     0.143 C 
HETATM    6  C13 UNL     1      18.550  -6.301 -43.654  1.00  0.00     0.018 C 
HETATM    7  C14 UNL     1      19.003  -7.792 -43.605  1.00  0.00     0.021 C 
HETATM    8  C15 UNL     1      17.894  -6.042 -45.032  1.00  0.00     0.012 C 
HETATM    9  C16 UNL     1      16.499  -5.703 -44.868  1.00  0.00    -0.005 C 
HETATM   10  C22 UNL     1      15.904  -6.872 -44.012  1.00  0.00     0.008 C 
HETATM   11  C23 UNL     1      16.335  -6.814 -42.602  1.00  0.00     0.038 C 
HETATM   12  C24 UNL     1      17.685  -6.160 -42.476  1.00  0.00     0.064 C 
HETATM   13  C25 UNL     1      17.520  -4.836 -41.832  1.00  0.00     0.047 C 
ENDROOT
BRANCH   5  14
HETATM   14  O3  UNL     1      20.338  -5.714 -42.145  1.00  0.00    -0.313 OA
BRANCH  14  15
HETATM   15  C9  UNL     1      21.324  -4.945 -41.606  1.00  0.00     0.293 C 
HETATM   16  O4  UNL     1      22.381  -4.911 -42.245  1.00  0.00    -0.262 OA
BRANCH  15  17
HETATM   17  C10 UNL     1      21.184  -4.198 -40.352  1.00  0.00     0.138 C 
HETATM   18  C11 UNL     1      22.168  -4.662 -39.334  1.00  0.00     0.056 C 
HETATM   19  C12 UNL     1      21.323  -2.697 -40.556  1.00  0.00     0.056 C 
BRANCH  17  20
HETATM   20  O5  UNL     1      19.909  -4.437 -39.819  1.00  0.00    -0.380 OA
ATOM     21  H5  UNL     1      19.572  -3.627 -39.454  1.00  0.00     0.211 HD
ENDBRANCH  17  20
ENDBRANCH  15  17
ENDBRANCH  14  15
ENDBRANCH   5  14
BRANCH  12  22
HETATM   22  O6  UNL     1      18.280  -6.963 -41.446  1.00  0.00    -0.389 OA
ATOM     23  H6  UNL     1      17.559  -7.354 -40.967  1.00  0.00     0.210 HD
ENDBRANCH  12  22
BRANCH   1  24
HETATM   24  C3  UNL     1      18.632  -5.997 -47.442  1.00  0.00     0.120 C 
BRANCH  24  25
HETATM   25  C2  UNL     1      18.689  -7.478 -47.550  1.00  0.00     0.259 C 
HETATM   26  O2  UNL     1      17.810  -8.269 -47.118  1.00  0.00    -0.265 OA
BRANCH  25  27
HETATM   27  O1  UNL     1      19.782  -8.100 -48.170  1.00  0.00    -0.326 OA
HETATM   28  C1  UNL     1      19.646  -8.832 -49.375  1.00  0.00     0.213 C 
ENDBRANCH  25  27
ENDBRANCH  24  25
ENDBRANCH   1  24
BRANCH   9  29
HETATM   29  C17 UNL     1      15.453  -5.451 -45.845  1.00  0.00    -0.011 C 
HETATM   30  C18 UNL     1      15.868  -4.247 -46.778  1.00  0.00     0.011 C 
BRANCH  29  31
HETATM   31  C19 UNL     1      15.254  -6.482 -46.971  1.00  0.00    -0.019 C 
HETATM   32  C20 UNL     1      13.810  -7.034 -46.841  1.00  0.00     0.010 C 
HETATM   33  C21 UNL     1      15.375  -5.856 -48.336  1.00  0.00     0.010 C 
ENDBRANCH  29  31
ENDBRANCH   9  29
TORSDOF 10
ENDMDL
MODEL 2
REMARK VINA RESULT: -7.823876766      2.188      6.460
REMARK  10 active torsions:
REMARK  status: ('A' for Active; 'I' for Inactive)
REMARK    1  A    between atoms: O1_2  and  C2_3 
REMARK    2  A    between atoms: C2_3  and  C3_5 
REMARK    3  A    between atoms: C3_5  and  C4_6 
REMARK    4  A    between atoms: C8_10  and  O3_11 
REMARK    5  A    between atoms: O3_11  and  C9_12 
REMARK    6  A    between atoms: C9_12  and  C10_14 
REMARK    7  A    between atoms: C10_14  and  O5_17 
REMARK    8  A    between atoms: C16_22  and  C17_23 
REMARK    9  A    between atoms: C17_23  and  C19_25 
REMARK   10  A    between atoms: C24_30  and  O6_32 
ROOT
HETATM    1  C4  UNL     1      20.110  -7.077 -44.069  1.00  0.00    -0.030 C 
HETATM    2  C5  UNL     1      20.363  -8.445 -43.537  1.00  0.00     0.016 C 
HETATM    3  C6  UNL     1      19.417  -7.271 -45.431  1.00  0.00     0.012 C 
HETATM    4  C7  UNL     1      17.984  -7.475 -45.455  1.00  0.00     0.034 C 
HETATM    5  C8  UNL     1      17.396  -7.455 -44.051  1.00  0.00     0.143 C 
HETATM    6  C13 UNL     1      17.854  -6.190 -43.429  1.00  0.00     0.018 C 
HETATM    7  C14 UNL     1      17.451  -5.110 -44.479  1.00  0.00     0.021 C 
HETATM    8  C15 UNL     1      19.387  -6.115 -43.225  1.00  0.00     0.012 C 
HETATM    9  C16 UNL     1      19.694  -5.725 -41.868  1.00  0.00    -0.005 C 
HETATM   10  C22 UNL     1      18.888  -4.402 -41.642  1.00  0.00     0.008 C 
HETATM   11  C23 UNL     1      17.439  -4.642 -41.502  1.00  0.00     0.038 C 
HETATM   12  C24 UNL     1      17.019  -5.871 -42.263  1.00  0.00     0.064 C 
HETATM   13  C25 UNL     1      16.657  -6.935 -41.298  1.00  0.00     0.047 C 
ENDROOT
BRANCH   5  14
HETATM   14  O3  UNL     1      15.990  -7.553 -44.123  1.00  0.00    -0.313 OA
BRANCH  14  15
HETATM   15  C9  UNL     1      15.285  -7.787 -45.266  1.00  0.00     0.293 C 
HETATM   16  O4  UNL     1      15.499  -8.878 -45.807  1.00  0.00    -0.262 OA
BRANCH  15  17
HETATM   17  C10 UNL     1      14.336  -6.836 -45.851  1.00  0.00     0.138 C 
HETATM   18  C11 UNL     1      14.971  -6.040 -46.938  1.00  0.00     0.056 C 
HETATM   19  C12 UNL     1      13.083  -7.519 -46.375  1.00  0.00     0.056 C 
BRANCH  17  20
HETATM   20  O5  UNL     1      13.939  -5.923 -44.862  1.00  0.00    -0.380 OA
ATOM     21  H5  UNL     1      14.664  -5.340 -44.673  1.00  0.00     0.211 HD
ENDBRANCH  17  20
ENDBRANCH  15  17
ENDBRANCH  14  15
ENDBRANCH   5  14
BRANCH  12  22
HETATM   22  O6  UNL     1      15.751  -5.447 -42.786  1.00  0.00    -0.389 OA
ATOM     23  H6  UNL     1      15.796  -4.500 -42.850  1.00  0.00     0.210 HD
ENDBRANCH  12  22
BRANCH   1  24
HETATM   24  C3  UNL     1      21.450  -6.553 -44.605  1.00  0.00     0.120 C 
BRANCH  24  25
HETATM   25  C2  UNL     1      22.588  -7.465 -44.321  1.00  0.00     0.259 C 
HETATM   26  O2  UNL     1      23.072  -8.293 -45.138  1.00  0.00    -0.265 OA
BRANCH  25  27
HETATM   27  O1  UNL     1      23.212  -7.449 -43.066  1.00  0.00    -0.326 OA
HETATM   28  C1  UNL     1      23.992  -8.534 -42.600  1.00  0.00     0.213 C 
ENDBRANCH  25  27
ENDBRANCH  24  25
ENDBRANCH   1  24
BRANCH   9  29
HETATM   29  C17 UNL     1      20.962  -5.448 -41.215  1.00  0.00    -0.011 C 
HETATM   30  C18 UNL     1      21.828  -4.479 -42.111  1.00  0.00     0.011 C 
BRANCH  29  31
HETATM   31  C19 UNL     1      20.949  -4.557 -39.960  1.00  0.00    -0.019 C 
HETATM   32  C20 UNL     1      22.088  -5.053 -39.029  1.00  0.00     0.010 C 
HETATM   33  C21 UNL     1      21.234  -3.115 -40.289  1.00  0.00     0.010 C 
ENDBRANCH  29  31
ENDBRANCH   9  29
TORSDOF 10
ENDMDL
MODEL 3
REMARK VINA RESULT: -7.781181199      2.414      5.374
REMARK  10 active torsions:
REMARK  status: ('A' for Active; 'I' for Inactive)
REMARK    1  A    between atoms: O1_2  and  C2_3 
REMARK    2  A    between atoms: C2_3  and  C3_5 
REMARK    3  A    between atoms: C3_5  and  C4_6 
REMARK    4  A    between atoms: C8_10  and  O3_11 
REMARK    5  A    between atoms: O3_11  and  C9_12 
REMARK    6  A    between atoms: C9_12  and  C10_14 
REMARK    7  A    between atoms: C10_14  and  O5_17 
REMARK    8  A    between atoms: C16_22  and  C17_23 
REMARK    9  A    between atoms: C17_23  and  C19_25 
REMARK   10  A    between atoms: C24_30  and  O6_32 
ROOT
HETATM    1  C4  UNL     1      18.502  -7.166 -42.982  1.00  0.00    -0.030 C 
HETATM    2  C5  UNL     1      18.054  -8.552 -43.293  1.00  0.00     0.016 C 
HETATM    3  C6  UNL     1      19.797  -7.309 -42.162  1.00  0.00     0.012 C 
HETATM    4  C7  UNL     1      21.048  -7.485 -42.868  1.00  0.00     0.034 C 
HETATM    5  C8  UNL     1      20.838  -7.492 -44.376  1.00  0.00     0.143 C 
HETATM    6  C13 UNL     1      20.089  -6.253 -44.695  1.00  0.00     0.018 C 
HETATM    7  C14 UNL     1      20.938  -5.138 -44.011  1.00  0.00     0.021 C 
HETATM    8  C15 UNL     1      18.665  -6.213 -44.090  1.00  0.00     0.012 C 
HETATM    9  C16 UNL     1      17.698  -5.866 -45.106  1.00  0.00    -0.005 C 
HETATM   10  C22 UNL     1      18.236  -4.534 -45.729  1.00  0.00     0.008 C 
HETATM   11  C23 UNL     1      19.419  -4.750 -46.585  1.00  0.00     0.038 C 
HETATM   12  C24 UNL     1      20.205  -5.950 -46.127  1.00  0.00     0.064 C 
HETATM   13  C25 UNL     1      20.057  -7.032 -47.127  1.00  0.00     0.047 C 
ENDROOT
BRANCH   5  14
HETATM   14  O3  UNL     1      22.088  -7.561 -45.029  1.00  0.00    -0.313 OA
BRANCH  14  15
HETATM   15  C9  UNL     1      23.029  -8.521 -44.806  1.00  0.00     0.293 C 
HETATM   16  O4  UNL     1      23.891  -8.234 -43.968  1.00  0.00    -0.262 OA
BRANCH  15  17
HETATM   17  C10 UNL     1      23.058  -9.813 -45.496  1.00  0.00     0.138 C 
HETATM   18  C11 UNL     1      24.356 -10.023 -46.196  1.00  0.00     0.056 C 
HETATM   19  C12 UNL     1      22.784 -10.976 -44.555  1.00  0.00     0.056 C 
BRANCH  17  20
HETATM   20  O5  UNL     1      22.061  -9.824 -46.483  1.00  0.00    -0.380 OA
ATOM     21  H5  UNL     1      21.564  -9.017 -46.428  1.00  0.00     0.211 HD
ENDBRANCH  17  20
ENDBRANCH  15  17
ENDBRANCH  14  15
ENDBRANCH   5  14
BRANCH  12  22
HETATM   22  O6  UNL     1      21.549  -5.487 -46.329  1.00  0.00    -0.389 OA
ATOM     23  H6  UNL     1      21.593  -5.192 -47.231  1.00  0.00     0.210 HD
ENDBRANCH  12  22
BRANCH   1  24
HETATM   24  C3  UNL     1      17.606  -6.653 -41.845  1.00  0.00     0.120 C 
BRANCH  24  25
HETATM   25  C2  UNL     1      18.042  -5.338 -41.309  1.00  0.00     0.259 C 
HETATM   26  O2  UNL     1      17.453  -4.243 -41.512  1.00  0.00    -0.265 OA
BRANCH  25  27
HETATM   27  O1  UNL     1      19.189  -5.244 -40.509  1.00  0.00    -0.326 OA
HETATM   28  C1  UNL     1      20.093  -4.160 -40.614  1.00  0.00     0.213 C 
ENDBRANCH  25  27
ENDBRANCH  24  25
ENDBRANCH   1  24
BRANCH   9  29
HETATM   29  C17 UNL     1      16.266  -5.631 -45.025  1.00  0.00    -0.011 C 
HETATM   30  C18 UNL     1      15.759  -4.936 -46.348  1.00  0.00     0.011 C 
BRANCH  29  31
HETATM   31  C19 UNL     1      15.329  -6.851 -45.101  1.00  0.00    -0.019 C 
HETATM   32  C20 UNL     1      13.996  -6.369 -45.734  1.00  0.00     0.010 C 
HETATM   33  C21 UNL     1      15.883  -7.933 -45.990  1.00  0.00     0.010 C 
ENDBRANCH  29  31
ENDBRANCH   9  29
TORSDOF 10
ENDMDL
MODEL 4
REMARK VINA RESULT: -7.738452651      2.478      4.753
REMARK  10 active torsions:
REMARK  status: ('A' for Active; 'I' for Inactive)
REMARK    1  A    between atoms: O1_2  and  C2_3 
REMARK    2  A    between atoms: C2_3  and  C3_5 
REMARK    3  A    between atoms: C3_5  and  C4_6 
REMARK    4  A    between atoms: C8_10  and  O3_11 
REMARK    5  A    between atoms: O3_11  and  C9_12 
REMARK    6  A    between atoms: C9_12  and  C10_14 
REMARK    7  A    between atoms: C10_14  and  O5_17 
REMARK    8  A    between atoms: C16_22  and  C17_23 
REMARK    9  A    between atoms: C17_23  and  C19_25 
REMARK   10  A    between atoms: C24_30  and  O6_32 
ROOT
HETATM    1  C4  UNL     1      18.476  -5.919 -42.474  1.00  0.00    -0.030 C 
HETATM    2  C5  UNL     1      17.887  -7.279 -42.334  1.00  0.00     0.016 C 
HETATM    3  C6  UNL     1      19.612  -5.836 -41.438  1.00  0.00     0.012 C 
HETATM    4  C7  UNL     1      20.912  -6.365 -41.791  1.00  0.00     0.034 C 
HETATM    5  C8  UNL     1      20.915  -6.933 -43.204  1.00  0.00     0.143 C 
HETATM    6  C13 UNL     1      20.399  -5.857 -44.083  1.00  0.00     0.018 C 
HETATM    7  C14 UNL     1      21.292  -4.634 -43.712  1.00  0.00     0.021 C 
HETATM    8  C15 UNL     1      18.924  -5.479 -43.803  1.00  0.00     0.012 C 
HETATM    9  C16 UNL     1      18.165  -5.474 -45.034  1.00  0.00    -0.005 C 
HETATM   10  C22 UNL     1      18.966  -4.528 -45.991  1.00  0.00     0.008 C 
HETATM   11  C23 UNL     1      20.214  -5.145 -46.479  1.00  0.00     0.038 C 
HETATM   12  C24 UNL     1      20.753  -6.135 -45.481  1.00  0.00     0.064 C 
HETATM   13  C25 UNL     1      20.595  -7.503 -46.027  1.00  0.00     0.047 C 
ENDROOT
BRANCH   5  14
HETATM   14  O3  UNL     1      22.221  -7.343 -43.549  1.00  0.00    -0.313 OA
BRANCH  14  15
HETATM   15  C9  UNL     1      22.800  -8.509 -43.148  1.00  0.00     0.293 C 
HETATM   16  O4  UNL     1      22.317  -9.537 -43.636  1.00  0.00    -0.262 OA
BRANCH  15  17
HETATM   17  C10 UNL     1      23.915  -8.585 -42.199  1.00  0.00     0.138 C 
HETATM   18  C11 UNL     1      25.192  -8.913 -42.891  1.00  0.00     0.056 C 
HETATM   19  C12 UNL     1      24.077  -7.303 -41.397  1.00  0.00     0.056 C 
BRANCH  17  20
HETATM   20  O5  UNL     1      23.670  -9.625 -41.291  1.00  0.00    -0.380 OA
ATOM     21  H5  UNL     1      24.464  -9.799 -40.801  1.00  0.00     0.211 HD
ENDBRANCH  17  20
ENDBRANCH  15  17
ENDBRANCH  14  15
ENDBRANCH   5  14
BRANCH  12  22
HETATM   22  O6  UNL     1      22.163  -5.891 -45.590  1.00  0.00    -0.389 OA
ATOM     23  H6  UNL     1      22.303  -5.541 -46.463  1.00  0.00     0.210 HD
ENDBRANCH  12  22
BRANCH   1  24
HETATM   24  C3  UNL     1      17.512  -4.942 -41.785  1.00  0.00     0.120 C 
BRANCH  24  25
HETATM   25  C2  UNL     1      16.174  -5.532 -41.522  1.00  0.00     0.259 C 
HETATM   26  O2  UNL     1      15.844  -6.133 -40.466  1.00  0.00    -0.265 OA
BRANCH  25  27
HETATM   27  O1  UNL     1      15.161  -5.446 -42.487  1.00  0.00    -0.326 OA
HETATM   28  C1  UNL     1      14.821  -6.538 -43.322  1.00  0.00     0.213 C 
ENDBRANCH  25  27
ENDBRANCH  24  25
ENDBRANCH   1  24
BRANCH   9  29
HETATM   29  C17 UNL     1      16.783  -5.116 -45.305  1.00  0.00    -0.011 C 
HETATM   30  C18 UNL     1      16.730  -3.905 -46.316  1.00  0.00     0.011 C 
BRANCH  29  31
HETATM   31  C19 UNL     1      15.939  -6.086 -46.153  1.00  0.00    -0.019 C 
HETATM   32  C20 UNL     1      15.580  -5.352 -47.472  1.00  0.00     0.010 C 
HETATM   33  C21 UNL     1      16.709  -7.326 -46.524  1.00  0.00     0.010 C 
ENDBRANCH  29  31
ENDBRANCH   9  29
TORSDOF 10
ENDMDL
MODEL 5
REMARK VINA RESULT: -7.684033636      2.168      6.275
REMARK  10 active torsions:
REMARK  status: ('A' for Active; 'I' for Inactive)
REMARK    1  A    between atoms: O1_2  and  C2_3 
REMARK    2  A    between atoms: C2_3  and  C3_5 
REMARK    3  A    between atoms: C3_5  and  C4_6 
REMARK    4  A    between atoms: C8_10  and  O3_11 
REMARK    5  A    between atoms: O3_11  and  C9_12 
REMARK    6  A    between atoms: C9_12  and  C10_14 
REMARK    7  A    between atoms: C10_14  and  O5_17 
REMARK    8  A    between atoms: C16_22  and  C17_23 
REMARK    9  A    between atoms: C17_23  and  C19_25 
REMARK   10  A    between atoms: C24_30  and  O6_32 
ROOT
HETATM    1  C4  UNL     1      20.223  -6.879 -44.058  1.00  0.00    -0.030 C 
HETATM    2  C5  UNL     1      20.635  -8.236 -43.606  1.00  0.00     0.016 C 
HETATM    3  C6  UNL     1      19.536  -7.073 -45.423  1.00  0.00     0.012 C 
HETATM    4  C7  UNL     1      18.136  -7.434 -45.447  1.00  0.00     0.034 C 
HETATM    5  C8  UNL     1      17.569  -7.559 -44.039  1.00  0.00     0.143 C 
HETATM    6  C13 UNL     1      17.892  -6.287 -43.350  1.00  0.00     0.018 C 
HETATM    7  C14 UNL     1      17.356  -5.202 -44.334  1.00  0.00     0.021 C 
HETATM    8  C15 UNL     1      19.409  -6.052 -43.155  1.00  0.00     0.012 C 
HETATM    9  C16 UNL     1      19.691  -5.706 -41.780  1.00  0.00    -0.005 C 
HETATM   10  C22 UNL     1      18.745  -4.497 -41.472  1.00  0.00     0.008 C 
HETATM   11  C23 UNL     1      17.334  -4.905 -41.335  1.00  0.00     0.038 C 
HETATM   12  C24 UNL     1      17.043  -6.129 -42.162  1.00  0.00     0.064 C 
HETATM   13  C25 UNL     1      16.817  -7.279 -41.256  1.00  0.00     0.047 C 
ENDROOT
BRANCH   5  14
HETATM   14  O3  UNL     1      16.182  -7.810 -44.106  1.00  0.00    -0.313 OA
BRANCH  14  15
HETATM   15  C9  UNL     1      15.486  -8.026 -45.257  1.00  0.00     0.293 C 
HETATM   16  O4  UNL     1      15.742  -9.085 -45.841  1.00  0.00    -0.262 OA
BRANCH  15  17
HETATM   17  C10 UNL     1      14.499  -7.090 -45.804  1.00  0.00     0.138 C 
HETATM   18  C11 UNL     1      15.071  -6.299 -46.929  1.00  0.00     0.056 C 
HETATM   19  C12 UNL     1      13.229  -7.792 -46.259  1.00  0.00     0.056 C 
BRANCH  17  20
HETATM   20  O5  UNL     1      14.141  -6.172 -44.807  1.00  0.00    -0.380 OA
ATOM     21  H5  UNL     1      14.726  -5.425 -44.852  1.00  0.00     0.211 HD
ENDBRANCH  17  20
ENDBRANCH  15  17
ENDBRANCH  14  15
ENDBRANCH   5  14
BRANCH  12  22
HETATM   22  O6  UNL     1      15.729  -5.822 -42.649  1.00  0.00    -0.389 OA
ATOM     23  H6  UNL     1      15.783  -5.862 -43.597  1.00  0.00     0.210 HD
ENDBRANCH  12  22
BRANCH   1  24
HETATM   24  C3  UNL     1      21.489  -6.178 -44.574  1.00  0.00     0.120 C 
BRANCH  24  25
HETATM   25  C2  UNL     1      21.202  -5.136 -45.595  1.00  0.00     0.259 C 
HETATM   26  O2  UNL     1      21.831  -4.991 -46.676  1.00  0.00    -0.265 OA
BRANCH  25  27
HETATM   27  O1  UNL     1      20.164  -4.216 -45.394  1.00  0.00    -0.326 OA
HETATM   28  C1  UNL     1      19.339  -3.769 -46.455  1.00  0.00     0.213 C 
ENDBRANCH  25  27
ENDBRANCH  24  25
ENDBRANCH   1  24
BRANCH   9  29
HETATM   29  C17 UNL     1      20.929  -5.326 -41.123  1.00  0.00    -0.011 C 
HETATM   30  C18 UNL     1      21.785  -4.406 -42.080  1.00  0.00     0.011 C 
BRANCH  29  31
HETATM   31  C19 UNL     1      20.848  -4.329 -39.952  1.00  0.00    -0.019 C 
HETATM   32  C20 UNL     1      21.855  -4.805 -38.871  1.00  0.00     0.010 C 
HETATM   33  C21 UNL     1      21.258  -2.939 -40.365  1.00  0.00     0.010 C 
ENDBRANCH  29  31
ENDBRANCH   9  29
TORSDOF 10
ENDMDL
