MODEL 1
REMARK VINA RESULT: -8.880272117      0.000      0.000
REMARK  7 active torsions:
REMARK  status: ('A' for Active; 'I' for Inactive)
REMARK    1  A    between atoms: C2_2  and  N1_3 
REMARK    2  A    between atoms: C2_2  and  C11_18 
REMARK    3  A    between atoms: N1_3  and  C3_5 
REMARK    4  A    between atoms: C3_5  and  C4_6 
REMARK    5  A    between atoms: C14_21  and  N5_22 
REMARK       I    between atoms: N5_22  and  C15_23 
REMARK    6  A    between atoms: C15_23  and  O2_25 
REMARK    7  A    between atoms: O2_25  and  C16_26 
ROOT
HETATM    1  C1  UNL     1      19.214  -4.700 -45.549  1.00  0.00     0.032 C 
HETATM    2  C2  UNL     1      19.789  -5.796 -44.725  1.00  0.00     0.081 C 
ENDROOT
BRANCH   2   3
HETATM    3  N1  UNL     1      18.998  -5.872 -43.458  1.00  0.00    -0.391 N 
ATOM      4  H1  UNL     1      19.006  -5.165 -42.723  1.00  0.00     0.159 HD
BRANCH   3   5
HETATM    5  C3  UNL     1      18.239  -7.059 -43.422  1.00  0.00     0.134 C 
BRANCH   5   6
HETATM    6  C4  UNL     1      16.830  -6.764 -43.874  1.00  0.00     0.139 A 
HETATM    7  N2  UNL     1      15.859  -6.112 -43.209  1.00  0.00    -0.283 N 
HETATM    8  N3  UNL     1      14.797  -6.056 -43.997  1.00  0.00    -0.287 N 
ATOM      9  H2  UNL     1      15.929  -5.730 -42.266  1.00  0.00     0.188 HD
HETATM   10  C5  UNL     1      15.043  -6.653 -45.151  1.00  0.00     0.099 A 
ATOM     11  H3  UNL     1      13.911  -5.614 -43.749  1.00  0.00     0.188 HD
HETATM   12  N4  UNL     1      16.301  -7.114 -45.096  1.00  0.00    -0.320 N 
HETATM   13  C10 UNL     1      14.031  -6.760 -46.247  1.00  0.00     0.078 C 
HETATM   14  C6  UNL     1      17.046  -7.782 -46.112  1.00  0.00     0.132 C 
HETATM   15  C7  UNL     1      16.890  -7.165 -47.499  1.00  0.00     0.020 C 
HETATM   16  C8  UNL     1      15.517  -7.498 -47.993  1.00  0.00     0.002 C 
HETATM   17  C9  UNL     1      14.600  -6.388 -47.594  1.00  0.00     0.007 C 
ENDBRANCH   5   6
ENDBRANCH   3   5
ENDBRANCH   2   3
BRANCH   2  18
HETATM   18  C11 UNL     1      21.273  -5.641 -44.392  1.00  0.00     0.019 C 
HETATM   19  C12 UNL     1      21.919  -6.919 -44.907  1.00  0.00     0.011 C 
HETATM   20  C13 UNL     1      21.659  -8.145 -44.108  1.00  0.00     0.048 C 
HETATM   21  C14 UNL     1      22.536  -8.016 -42.834  1.00  0.00     0.238 C 
HETATM   22  C20 UNL     1      22.448  -6.620 -42.394  1.00  0.00     0.166 C 
HETATM   23  O3  UNL     1      23.332  -6.176 -41.598  1.00  0.00    -0.294 OA
HETATM   24  C21 UNL     1      21.373  -5.698 -42.865  1.00  0.00     0.060 C 
HETATM   25  C22 UNL     1      21.680  -4.335 -42.319  1.00  0.00     0.018 C 
BRANCH  21  26
HETATM   26  N5  UNL     1      23.798  -8.529 -43.136  1.00  0.00    -0.377 NA
HETATM   27  C15 UNL     1      25.024  -9.025 -43.429  1.00  0.00     0.436 C 
HETATM   28  O1  UNL     1      26.123  -9.157 -43.614  1.00  0.00    -0.221 OA
BRANCH  27  29
HETATM   29  O2  UNL     1      24.507 -10.604 -43.563  1.00  0.00    -0.283 OA
BRANCH  29  30
HETATM   30  C16 UNL     1      24.412 -10.988 -44.867  1.00  0.00     0.062 C 
HETATM   31  C17 UNL     1      24.242  -9.907 -45.902  1.00  0.00     0.046 C 
HETATM   32  C18 UNL     1      23.098 -11.830 -44.963  1.00  0.00     0.046 C 
HETATM   33  C19 UNL     1      25.493 -11.924 -45.382  1.00  0.00     0.046 C 
ENDBRANCH  29  30
ENDBRANCH  27  29
ENDBRANCH  21  26
ENDBRANCH   2  18
TORSDOF 7
ENDMDL
MODEL 2
REMARK VINA RESULT: -8.745340414      0.930      1.285
REMARK  7 active torsions:
REMARK  status: ('A' for Active; 'I' for Inactive)
REMARK    1  A    between atoms: C2_2  and  N1_3 
REMARK    2  A    between atoms: C2_2  and  C11_18 
REMARK    3  A    between atoms: N1_3  and  C3_5 
REMARK    4  A    between atoms: C3_5  and  C4_6 
REMARK    5  A    between atoms: C14_21  and  N5_22 
REMARK       I    between atoms: N5_22  and  C15_23 
REMARK    6  A    between atoms: C15_23  and  O2_25 
REMARK    7  A    between atoms: O2_25  and  C16_26 
ROOT
HETATM    1  C1  UNL     1      19.989  -4.732 -45.913  1.00  0.00     0.032 C 
HETATM    2  C2  UNL     1      20.328  -5.903 -45.061  1.00  0.00     0.081 C 
ENDROOT
BRANCH   2   3
HETATM    3  N1  UNL     1      19.387  -5.904 -43.899  1.00  0.00    -0.391 N 
ATOM      4  H1  UNL     1      19.559  -6.375 -43.011  1.00  0.00     0.159 HD
BRANCH   3   5
HETATM    5  C3  UNL     1      18.228  -5.162 -44.203  1.00  0.00     0.134 C 
BRANCH   5   6
HETATM    6  C4  UNL     1      17.031  -6.080 -44.195  1.00  0.00     0.139 A 
HETATM    7  N2  UNL     1      16.444  -6.677 -43.142  1.00  0.00    -0.283 N 
HETATM    8  N3  UNL     1      15.407  -7.365 -43.594  1.00  0.00    -0.287 N 
ATOM      9  H2  UNL     1      16.744  -6.611 -42.169  1.00  0.00     0.188 HD
HETATM   10  C5  UNL     1      15.303  -7.238 -44.906  1.00  0.00     0.099 A 
ATOM     11  H3  UNL     1      14.776  -7.916 -43.011  1.00  0.00     0.188 HD
HETATM   12  N4  UNL     1      16.311  -6.452 -45.308  1.00  0.00    -0.320 N 
HETATM   13  C10 UNL     1      14.232  -7.908 -45.708  1.00  0.00     0.078 C 
HETATM   14  C6  UNL     1      16.598  -5.979 -46.622  1.00  0.00     0.132 C 
HETATM   15  C7  UNL     1      15.368  -5.502 -47.389  1.00  0.00     0.020 C 
HETATM   16  C8  UNL     1      14.572  -6.710 -47.770  1.00  0.00     0.002 C 
HETATM   17  C9  UNL     1      13.575  -6.969 -46.688  1.00  0.00     0.007 C 
ENDBRANCH   5   6
ENDBRANCH   3   5
ENDBRANCH   2   3
BRANCH   2  18
HETATM   18  C11 UNL     1      21.769  -5.934 -44.552  1.00  0.00     0.019 C 
HETATM   19  C12 UNL     1      22.251  -7.347 -44.849  1.00  0.00     0.011 C 
HETATM   20  C13 UNL     1      21.704  -8.417 -43.974  1.00  0.00     0.048 C 
HETATM   21  C14 UNL     1      22.438  -8.270 -42.614  1.00  0.00     0.238 C 
HETATM   22  C20 UNL     1      22.530  -6.835 -42.330  1.00  0.00     0.166 C 
HETATM   23  O3  UNL     1      23.377  -6.437 -41.472  1.00  0.00    -0.294 OA
HETATM   24  C21 UNL     1      21.682  -5.824 -43.027  1.00  0.00     0.060 C 
HETATM   25  C22 UNL     1      22.143  -4.468 -42.583  1.00  0.00     0.018 C 
BRANCH  21  26
HETATM   26  N5  UNL     1      23.625  -8.999 -42.695  1.00  0.00    -0.377 NA
HETATM   27  C15 UNL     1      24.778  -9.707 -42.770  1.00  0.00     0.436 C 
HETATM   28  O1  UNL     1      25.666 -10.357 -42.551  1.00  0.00    -0.221 OA
BRANCH  27  29
HETATM   29  O2  UNL     1      24.996  -9.444 -44.402  1.00  0.00    -0.283 OA
BRANCH  29  30
HETATM   30  C16 UNL     1      24.772 -10.579 -45.123  1.00  0.00     0.062 C 
HETATM   31  C17 UNL     1      25.950 -11.479 -45.391  1.00  0.00     0.046 C 
HETATM   32  C18 UNL     1      24.322 -10.094 -46.541  1.00  0.00     0.046 C 
HETATM   33  C19 UNL     1      23.634 -11.470 -44.655  1.00  0.00     0.046 C 
ENDBRANCH  29  30
ENDBRANCH  27  29
ENDBRANCH  21  26
ENDBRANCH   2  18
TORSDOF 7
ENDMDL
MODEL 3
REMARK VINA RESULT: -8.666937143      0.935      1.368
REMARK  7 active torsions:
REMARK  status: ('A' for Active; 'I' for Inactive)
REMARK    1  A    between atoms: C2_2  and  N1_3 
REMARK    2  A    between atoms: C2_2  and  C11_18 
REMARK    3  A    between atoms: N1_3  and  C3_5 
REMARK    4  A    between atoms: C3_5  and  C4_6 
REMARK    5  A    between atoms: C14_21  and  N5_22 
REMARK       I    between atoms: N5_22  and  C15_23 
REMARK    6  A    between atoms: C15_23  and  O2_25 
REMARK    7  A    between atoms: O2_25  and  C16_26 
ROOT
HETATM    1  C1  UNL     1      19.384  -4.365 -45.536  1.00  0.00     0.032 C 
HETATM    2  C2  UNL     1      19.896  -5.522 -44.755  1.00  0.00     0.081 C 
ENDROOT
BRANCH   2   3
HETATM    3  N1  UNL     1      19.086  -5.615 -43.501  1.00  0.00    -0.391 N 
ATOM      4  H1  UNL     1      19.475  -5.677 -42.560  1.00  0.00     0.159 HD
BRANCH   3   5
HETATM    5  C3  UNL     1      17.709  -5.605 -43.803  1.00  0.00     0.134 C 
BRANCH   5   6
HETATM    6  C4  UNL     1      17.303  -6.961 -44.324  1.00  0.00     0.139 A 
HETATM    7  N2  UNL     1      17.518  -8.168 -43.770  1.00  0.00    -0.283 N 
HETATM    8  N3  UNL     1      16.961  -9.078 -44.554  1.00  0.00    -0.287 N 
ATOM      9  H2  UNL     1      18.020  -8.349 -42.900  1.00  0.00     0.188 HD
HETATM   10  C5  UNL     1      16.395  -8.504 -45.602  1.00  0.00     0.099 A 
ATOM     11  H3  UNL     1      16.968 -10.083 -44.375  1.00  0.00     0.188 HD
HETATM   12  N4  UNL     1      16.604  -7.184 -45.490  1.00  0.00    -0.320 N 
HETATM   13  C10 UNL     1      15.691  -9.274 -46.674  1.00  0.00     0.078 C 
HETATM   14  C6  UNL     1      16.145  -6.138 -46.342  1.00  0.00     0.132 C 
HETATM   15  C7  UNL     1      14.691  -6.291 -46.781  1.00  0.00     0.020 C 
HETATM   16  C8  UNL     1      14.632  -7.411 -47.772  1.00  0.00     0.002 C 
HETATM   17  C9  UNL     1      14.353  -8.675 -47.027  1.00  0.00     0.007 C 
ENDBRANCH   5   6
ENDBRANCH   3   5
ENDBRANCH   2   3
BRANCH   2  18
HETATM   18  C11 UNL     1      21.381  -5.454 -44.400  1.00  0.00     0.019 C 
HETATM   19  C12 UNL     1      21.960  -6.764 -44.915  1.00  0.00     0.011 C 
HETATM   20  C13 UNL     1      21.619  -7.978 -44.128  1.00  0.00     0.048 C 
HETATM   21  C14 UNL     1      22.483  -7.907 -42.841  1.00  0.00     0.238 C 
HETATM   22  C20 UNL     1      22.468  -6.512 -42.393  1.00  0.00     0.166 C 
HETATM   23  O3  UNL     1      23.365  -6.124 -41.581  1.00  0.00    -0.294 OA
HETATM   24  C21 UNL     1      21.455  -5.526 -42.872  1.00  0.00     0.060 C 
HETATM   25  C22 UNL     1      21.831  -4.187 -42.312  1.00  0.00     0.018 C 
BRANCH  21  26
HETATM   26  N5  UNL     1      23.718  -8.490 -43.129  1.00  0.00    -0.377 NA
HETATM   27  C15 UNL     1      24.918  -9.053 -43.407  1.00  0.00     0.436 C 
HETATM   28  O1  UNL     1      26.010  -9.248 -43.576  1.00  0.00    -0.221 OA
BRANCH  27  29
HETATM   29  O2  UNL     1      24.311 -10.597 -43.575  1.00  0.00    -0.283 OA
BRANCH  29  30
HETATM   30  C16 UNL     1      24.307 -10.991 -44.880  1.00  0.00     0.062 C 
HETATM   31  C17 UNL     1      24.216  -9.918 -45.933  1.00  0.00     0.046 C 
HETATM   32  C18 UNL     1      22.999 -11.829 -45.062  1.00  0.00     0.046 C 
HETATM   33  C19 UNL     1      25.418 -11.936 -45.309  1.00  0.00     0.046 C 
ENDBRANCH  29  30
ENDBRANCH  27  29
ENDBRANCH  21  26
ENDBRANCH   2  18
TORSDOF 7
ENDMDL
MODEL 4
REMARK VINA RESULT: -8.625867334      1.358      1.693
REMARK  7 active torsions:
REMARK  status: ('A' for Active; 'I' for Inactive)
REMARK    1  A    between atoms: C2_2  and  N1_3 
REMARK    2  A    between atoms: C2_2  and  C11_18 
REMARK    3  A    between atoms: N1_3  and  C3_5 
REMARK    4  A    between atoms: C3_5  and  C4_6 
REMARK    5  A    between atoms: C14_21  and  N5_22 
REMARK       I    between atoms: N5_22  and  C15_23 
REMARK    6  A    between atoms: C15_23  and  O2_25 
REMARK    7  A    between atoms: O2_25  and  C16_26 
ROOT
HETATM    1  C1  UNL     1      19.905  -6.995 -46.332  1.00  0.00     0.032 C 
HETATM    2  C2  UNL     1      20.089  -6.400 -44.982  1.00  0.00     0.081 C 
ENDROOT
BRANCH   2   3
HETATM    3  N1  UNL     1      19.342  -5.105 -44.953  1.00  0.00    -0.391 N 
ATOM      4  H1  UNL     1      19.687  -4.225 -45.339  1.00  0.00     0.159 HD
BRANCH   3   5
HETATM    5  C3  UNL     1      18.096  -5.269 -44.317  1.00  0.00     0.134 C 
BRANCH   5   6
HETATM    6  C4  UNL     1      16.997  -5.194 -45.348  1.00  0.00     0.139 A 
HETATM    7  N2  UNL     1      16.644  -4.148 -46.117  1.00  0.00    -0.283 N 
HETATM    8  N3  UNL     1      15.649  -4.539 -46.900  1.00  0.00    -0.287 N 
ATOM      9  H2  UNL     1      17.066  -3.220 -46.101  1.00  0.00     0.188 HD
HETATM   10  C5  UNL     1      15.342  -5.803 -46.662  1.00  0.00     0.099 A 
ATOM     11  H3  UNL     1      15.186  -3.948 -47.590  1.00  0.00     0.188 HD
HETATM   12  N4  UNL     1      16.159  -6.232 -45.689  1.00  0.00    -0.320 N 
HETATM   13  C10 UNL     1      14.251  -6.528 -47.385  1.00  0.00     0.078 C 
HETATM   14  C6  UNL     1      16.253  -7.536 -45.121  1.00  0.00     0.132 C 
HETATM   15  C7  UNL     1      16.205  -8.663 -46.149  1.00  0.00     0.020 C 
HETATM   16  C8  UNL     1      14.800  -8.756 -46.656  1.00  0.00     0.002 C 
HETATM   17  C9  UNL     1      14.685  -7.889 -47.867  1.00  0.00     0.007 C 
ENDBRANCH   5   6
ENDBRANCH   3   5
ENDBRANCH   2   3
BRANCH   2  18
HETATM   18  C11 UNL     1      21.543  -6.160 -44.576  1.00  0.00     0.019 C 
HETATM   19  C12 UNL     1      22.238  -7.492 -44.827  1.00  0.00     0.011 C 
HETATM   20  C13 UNL     1      21.933  -8.575 -43.857  1.00  0.00     0.048 C 
HETATM   21  C14 UNL     1      22.714  -8.220 -42.564  1.00  0.00     0.238 C 
HETATM   22  C20 UNL     1      22.580  -6.773 -42.367  1.00  0.00     0.166 C 
HETATM   23  O3  UNL     1      23.400  -6.185 -41.595  1.00  0.00    -0.294 OA
HETATM   24  C21 UNL     1      21.533  -5.964 -43.058  1.00  0.00     0.060 C 
HETATM   25  C22 UNL     1      21.786  -4.524 -42.724  1.00  0.00     0.018 C 
BRANCH  21  26
HETATM   26  N5  UNL     1      23.999  -8.747 -42.688  1.00  0.00    -0.377 NA
HETATM   27  C15 UNL     1      25.247  -9.260 -42.806  1.00  0.00     0.436 C 
HETATM   28  O1  UNL     1      26.248  -9.729 -42.613  1.00  0.00    -0.221 OA
BRANCH  27  29
HETATM   29  O2  UNL     1      25.292  -9.138 -44.468  1.00  0.00    -0.283 OA
BRANCH  29  30
HETATM   30  C16 UNL     1      25.198 -10.363 -45.059  1.00  0.00     0.062 C 
HETATM   31  C17 UNL     1      26.482 -11.079 -45.389  1.00  0.00     0.046 C 
HETATM   32  C18 UNL     1      24.526 -10.108 -46.449  1.00  0.00     0.046 C 
HETATM   33  C19 UNL     1      24.288 -11.377 -44.386  1.00  0.00     0.046 C 
ENDBRANCH  29  30
ENDBRANCH  27  29
ENDBRANCH  21  26
ENDBRANCH   2  18
TORSDOF 7
ENDMDL
MODEL 5
REMARK VINA RESULT: -8.624917287      2.219      3.557
REMARK  7 active torsions:
REMARK  status: ('A' for Active; 'I' for Inactive)
REMARK    1  A    between atoms: C2_2  and  N1_3 
REMARK    2  A    between atoms: C2_2  and  C11_18 
REMARK    3  A    between atoms: N1_3  and  C3_5 
REMARK    4  A    between atoms: C3_5  and  C4_6 
REMARK    5  A    between atoms: C14_21  and  N5_22 
REMARK       I    between atoms: N5_22  and  C15_23 
REMARK    6  A    between atoms: C15_23  and  O2_25 
REMARK    7  A    between atoms: O2_25  and  C16_26 
ROOT
HETATM    1  C1  UNL     1      16.440  -6.008 -41.488  1.00  0.00     0.032 C 
HETATM    2  C2  UNL     1      17.256  -5.424 -42.585  1.00  0.00     0.081 C 
ENDROOT
BRANCH   2   3
HETATM    3  N1  UNL     1      16.426  -5.445 -43.828  1.00  0.00    -0.391 N 
ATOM      4  H1  UNL     1      16.251  -4.637 -44.425  1.00  0.00     0.159 HD
BRANCH   3   5
HETATM    5  C3  UNL     1      15.919  -6.739 -44.059  1.00  0.00     0.134 C 
BRANCH   5   6
HETATM    6  C4  UNL     1      15.088  -6.732 -45.318  1.00  0.00     0.139 A 
HETATM    7  N2  UNL     1      13.778  -6.453 -45.453  1.00  0.00    -0.283 N 
HETATM    8  N3  UNL     1      13.478  -6.535 -46.741  1.00  0.00    -0.287 N 
ATOM      9  H2  UNL     1      13.133  -6.220 -44.699  1.00  0.00     0.188 HD
HETATM   10  C5  UNL     1      14.548  -6.862 -47.446  1.00  0.00     0.099 A 
ATOM     11  H3  UNL     1      12.551  -6.370 -47.133  1.00  0.00     0.188 HD
HETATM   12  N4  UNL     1      15.563  -7.002 -46.582  1.00  0.00    -0.320 N 
HETATM   13  C10 UNL     1      14.522  -7.039 -48.932  1.00  0.00     0.078 C 
HETATM   14  C6  UNL     1      16.930  -7.297 -46.861  1.00  0.00     0.132 C 
HETATM   15  C7  UNL     1      17.499  -6.525 -48.048  1.00  0.00     0.020 C 
HETATM   16  C8  UNL     1      16.902  -7.101 -49.293  1.00  0.00     0.002 C 
HETATM   17  C9  UNL     1      15.664  -6.330 -49.615  1.00  0.00     0.007 C 
ENDBRANCH   5   6
ENDBRANCH   3   5
ENDBRANCH   2   3
BRANCH   2  18
HETATM   18  C11 UNL     1      18.586  -6.132 -42.846  1.00  0.00     0.019 C 
HETATM   19  C12 UNL     1      19.241  -6.239 -41.476  1.00  0.00     0.011 C 
HETATM   20  C13 UNL     1      19.791  -4.974 -40.920  1.00  0.00     0.048 C 
HETATM   21  C14 UNL     1      21.097  -4.695 -41.710  1.00  0.00     0.238 C 
HETATM   22  C20 UNL     1      20.825  -5.016 -43.114  1.00  0.00     0.166 C 
HETATM   23  O3  UNL     1      21.807  -5.208 -43.896  1.00  0.00    -0.294 OA
HETATM   24  C21 UNL     1      19.439  -5.148 -43.652  1.00  0.00     0.060 C 
HETATM   25  C22 UNL     1      19.551  -5.610 -45.074  1.00  0.00     0.018 C 
BRANCH  21  26
HETATM   26  N5  UNL     1      22.132  -5.379 -41.071  1.00  0.00    -0.377 NA
HETATM   27  C15 UNL     1      23.135  -6.042 -40.449  1.00  0.00     0.436 C 
HETATM   28  O1  UNL     1      23.823  -6.503 -39.690  1.00  0.00    -0.221 OA
BRANCH  27  29
HETATM   29  O2  UNL     1      23.794  -6.650 -41.854  1.00  0.00    -0.283 OA
BRANCH  29  30
HETATM   30  C16 UNL     1      23.500  -7.971 -42.012  1.00  0.00     0.062 C 
HETATM   31  C17 UNL     1      23.318  -8.799 -40.767  1.00  0.00     0.046 C 
HETATM   32  C18 UNL     1      24.746  -8.598 -42.719  1.00  0.00     0.046 C 
HETATM   33  C19 UNL     1      22.340  -8.305 -42.936  1.00  0.00     0.046 C 
ENDBRANCH  29  30
ENDBRANCH  27  29
ENDBRANCH  21  26
ENDBRANCH   2  18
TORSDOF 7
ENDMDL
