MODEL 1
REMARK VINA RESULT: -7.029829728      0.000      0.000
REMARK  7 active torsions:
REMARK  status: ('A' for Active; 'I' for Inactive)
REMARK    1  A    between atoms: O1_2  and  C2_3 
REMARK    2  A    between atoms: C3_4  and  C4_5 
REMARK    3  A    between atoms: C4_5  and  C5_6 
REMARK    4  A    between atoms: C5_6  and  C6_7 
REMARK    5  A    between atoms: C6_7  and  C7_8 
REMARK    6  A    between atoms: C14_17  and  C15_18 
REMARK    7  A    between atoms: C21_29  and  O6_30 
ROOT
HETATM    1  C2  UNL     1      19.287  -6.636 -44.690  1.00  0.00     0.163 C 
HETATM    2  C3  UNL     1      20.557  -7.221 -45.400  1.00  0.00     0.022 C 
HETATM    3  C8  UNL     1      20.784  -8.276 -44.354  1.00  0.00    -0.004 C 
HETATM    4  C9  UNL     1      21.924  -9.129 -44.664  1.00  0.00     0.011 C 
HETATM    5  C10 UNL     1      20.964  -7.402 -43.086  1.00  0.00     0.035 C 
HETATM    6  C11 UNL     1      22.296  -6.890 -42.981  1.00  0.00     0.006 A 
HETATM    7  C12 UNL     1      22.987  -6.231 -41.957  1.00  0.00    -0.000 A 
HETATM    8  C13 UNL     1      22.467  -5.755 -40.667  1.00  0.00     0.018 C 
HETATM    9  C14 UNL     1      21.382  -4.674 -40.762  1.00  0.00     0.055 C 
HETATM   10  C16 UNL     1      20.232  -5.322 -41.393  1.00  0.00     0.166 C 
HETATM   11  O4  UNL     1      18.947  -5.050 -40.918  1.00  0.00    -0.347 OA
HETATM   12  C17 UNL     1      18.158  -6.010 -41.606  1.00  0.00     0.158 C 
HETATM   13  C18 UNL     1      16.879  -5.326 -42.064  1.00  0.00     0.078 C 
HETATM   14  C19 UNL     1      17.670  -6.886 -40.416  1.00  0.00     0.078 C 
HETATM   15  O5  UNL     1      18.729  -6.852 -42.443  1.00  0.00    -0.339 OA
HETATM   16  C20 UNL     1      19.768  -6.506 -43.307  1.00  0.00     0.123 C 
HETATM   17  C21 UNL     1      20.106  -5.111 -42.868  1.00  0.00     0.185 C 
HETATM   18  C22 UNL     1      23.278  -7.670 -42.139  1.00  0.00    -0.039 A 
HETATM   19  C23 UNL     1      24.673  -7.976 -42.656  1.00  0.00     0.015 C 
HETATM   20  C24 UNL     1      22.900  -8.520 -40.975  1.00  0.00     0.015 C 
ENDROOT
BRANCH   2  21
HETATM   21  C4  UNL     1      20.111  -7.686 -46.738  1.00  0.00     0.008 C 
BRANCH  21  22
HETATM   22  C5  UNL     1      19.422  -6.756 -47.641  1.00  0.00     0.011 C 
BRANCH  22  23
HETATM   23  C6  UNL     1      18.420  -7.536 -48.512  1.00  0.00     0.113 C 
BRANCH  23  24
HETATM   24  C7  UNL     1      17.606  -6.665 -49.375  1.00  0.00     0.172 C 
HETATM   25  O2  UNL     1      18.060  -6.170 -50.435  1.00  0.00    -0.648 OA
HETATM   26  O3  UNL     1      16.292  -6.350 -49.053  1.00  0.00    -0.648 OA
ENDBRANCH  23  24
ENDBRANCH  22  23
ENDBRANCH  21  22
ENDBRANCH   2  21
BRANCH   1  27
HETATM   27  O1  UNL     1      18.357  -7.667 -44.759  1.00  0.00    -0.387 OA
HETATM   28  C1  UNL     1      17.083  -7.240 -45.074  1.00  0.00     0.202 C 
ENDBRANCH   1  27
BRANCH  17  29
HETATM   29  O6  UNL     1      21.092  -4.462 -43.519  1.00  0.00    -0.390 OA
ATOM     30  H6  UNL     1      21.112  -4.492 -44.468  1.00  0.00     0.210 HD
ENDBRANCH  17  29
BRANCH   9  31
HETATM   31  C15 UNL     1      21.168  -4.044 -39.454  1.00  0.00     0.060 C 
HETATM   32  N1  UNL     1      22.120  -3.913 -38.642  1.00  0.00    -0.411 N 
ATOM     33  H12 UNL     1      23.042  -4.254 -38.910  1.00  0.00     0.155 HD
ATOM     34  H11 UNL     1      21.972  -3.475 -37.733  1.00  0.00     0.155 HD
ENDBRANCH   9  31
TORSDOF 7
ENDMDL
MODEL 2
REMARK VINA RESULT: -6.939097364      2.727      5.886
REMARK  7 active torsions:
REMARK  status: ('A' for Active; 'I' for Inactive)
REMARK    1  A    between atoms: O1_2  and  C2_3 
REMARK    2  A    between atoms: C3_4  and  C4_5 
REMARK    3  A    between atoms: C4_5  and  C5_6 
REMARK    4  A    between atoms: C5_6  and  C6_7 
REMARK    5  A    between atoms: C6_7  and  C7_8 
REMARK    6  A    between atoms: C14_17  and  C15_18 
REMARK    7  A    between atoms: C21_29  and  O6_30 
ROOT
HETATM    1  C2  UNL     1      21.789  -6.973 -42.481  1.00  0.00     0.163 C 
HETATM    2  C3  UNL     1      21.944  -7.522 -43.942  1.00  0.00     0.022 C 
HETATM    3  C8  UNL     1      21.749  -6.174 -44.580  1.00  0.00    -0.004 C 
HETATM    4  C9  UNL     1      21.862  -6.227 -46.032  1.00  0.00     0.011 C 
HETATM    5  C10 UNL     1      20.338  -5.801 -44.059  1.00  0.00     0.035 C 
HETATM    6  C11 UNL     1      19.307  -6.414 -44.840  1.00  0.00     0.006 A 
HETATM    7  C12 UNL     1      17.918  -6.242 -44.890  1.00  0.00    -0.000 A 
HETATM    8  C13 UNL     1      17.071  -5.411 -44.022  1.00  0.00     0.018 C 
HETATM    9  C14 UNL     1      17.065  -5.815 -42.541  1.00  0.00     0.055 C 
HETATM   10  C16 UNL     1      18.423  -5.566 -42.057  1.00  0.00     0.166 C 
HETATM   11  O4  UNL     1      18.607  -5.002 -40.793  1.00  0.00    -0.347 OA
HETATM   12  C17 UNL     1      19.999  -4.714 -40.787  1.00  0.00     0.158 C 
HETATM   13  C18 UNL     1      20.552  -5.095 -39.422  1.00  0.00     0.078 C 
HETATM   14  C19 UNL     1      19.969  -3.160 -40.722  1.00  0.00     0.078 C 
HETATM   15  O5  UNL     1      20.733  -5.002 -41.842  1.00  0.00    -0.339 OA
HETATM   16  C20 UNL     1      20.575  -6.156 -42.610  1.00  0.00     0.123 C 
HETATM   17  C21 UNL     1      19.325  -6.759 -42.037  1.00  0.00     0.185 C 
HETATM   18  C22 UNL     1      18.709  -5.602 -45.965  1.00  0.00    -0.039 A 
HETATM   19  C23 UNL     1      18.515  -6.210 -47.343  1.00  0.00     0.015 C 
HETATM   20  C24 UNL     1      18.627  -4.115 -45.978  1.00  0.00     0.015 C 
ENDROOT
BRANCH   2  21
HETATM   21  C4  UNL     1      23.302  -8.115 -44.025  1.00  0.00     0.008 C 
BRANCH  21  22
HETATM   22  C5  UNL     1      23.593  -9.372 -43.324  1.00  0.00     0.011 C 
BRANCH  22  23
HETATM   23  C6  UNL     1      25.015  -9.314 -42.736  1.00  0.00     0.113 C 
BRANCH  23  24
HETATM   24  C7  UNL     1      26.066  -9.322 -43.767  1.00  0.00     0.172 C 
HETATM   25  O2  UNL     1      27.070  -8.573 -43.695  1.00  0.00    -0.648 OA
HETATM   26  O3  UNL     1      25.992 -10.163 -44.870  1.00  0.00    -0.648 OA
ENDBRANCH  23  24
ENDBRANCH  22  23
ENDBRANCH  21  22
ENDBRANCH   2  21
BRANCH   1  27
HETATM   27  O1  UNL     1      22.890  -6.139 -42.316  1.00  0.00    -0.387 OA
HETATM   28  C1  UNL     1      23.522  -6.295 -41.099  1.00  0.00     0.202 C 
ENDBRANCH   1  27
BRANCH  17  29
HETATM   29  O6  UNL     1      18.882  -7.919 -42.561  1.00  0.00    -0.390 OA
ATOM     30  H6  UNL     1      18.698  -8.645 -41.977  1.00  0.00     0.210 HD
ENDBRANCH  17  29
BRANCH   9  31
HETATM   31  C15 UNL     1      15.964  -5.152 -41.832  1.00  0.00     0.060 C 
HETATM   32  N1  UNL     1      15.442  -5.683 -40.819  1.00  0.00    -0.411 N 
ATOM     33  H12 UNL     1      15.799  -6.583 -40.500  1.00  0.00     0.155 HD
ATOM     34  H11 UNL     1      14.677  -5.222 -40.326  1.00  0.00     0.155 HD
ENDBRANCH   9  31
TORSDOF 7
ENDMDL
MODEL 3
REMARK VINA RESULT: -6.917799914      2.727      5.409
REMARK  7 active torsions:
REMARK  status: ('A' for Active; 'I' for Inactive)
REMARK    1  A    between atoms: O1_2  and  C2_3 
REMARK    2  A    between atoms: C3_4  and  C4_5 
REMARK    3  A    between atoms: C4_5  and  C5_6 
REMARK    4  A    between atoms: C5_6  and  C6_7 
REMARK    5  A    between atoms: C6_7  and  C7_8 
REMARK    6  A    between atoms: C14_17  and  C15_18 
REMARK    7  A    between atoms: C21_29  and  O6_30 
ROOT
HETATM    1  C2  UNL     1      21.810  -6.988 -42.459  1.00  0.00     0.163 C 
HETATM    2  C3  UNL     1      21.961  -7.550 -43.916  1.00  0.00     0.022 C 
HETATM    3  C8  UNL     1      21.784  -6.205 -44.564  1.00  0.00    -0.004 C 
HETATM    4  C9  UNL     1      21.898  -6.270 -46.015  1.00  0.00     0.011 C 
HETATM    5  C10 UNL     1      20.375  -5.811 -44.049  1.00  0.00     0.035 C 
HETATM    6  C11 UNL     1      19.339  -6.419 -44.827  1.00  0.00     0.006 A 
HETATM    7  C12 UNL     1      17.952  -6.231 -44.881  1.00  0.00    -0.000 A 
HETATM    8  C13 UNL     1      17.114  -5.384 -44.021  1.00  0.00     0.018 C 
HETATM    9  C14 UNL     1      17.100  -5.777 -42.538  1.00  0.00     0.055 C 
HETATM   10  C16 UNL     1      18.460  -5.540 -42.052  1.00  0.00     0.166 C 
HETATM   11  O4  UNL     1      18.648  -4.969 -40.793  1.00  0.00    -0.347 OA
HETATM   12  C17 UNL     1      20.042  -4.696 -40.786  1.00  0.00     0.158 C 
HETATM   13  C18 UNL     1      20.588  -5.074 -39.417  1.00  0.00     0.078 C 
HETATM   14  C19 UNL     1      20.030  -3.142 -40.732  1.00  0.00     0.078 C 
HETATM   15  O5  UNL     1      20.775  -5.001 -41.837  1.00  0.00    -0.339 OA
HETATM   16  C20 UNL     1      20.605  -6.159 -42.597  1.00  0.00     0.123 C 
HETATM   17  C21 UNL     1      19.348  -6.743 -42.022  1.00  0.00     0.185 C 
HETATM   18  C22 UNL     1      18.752  -5.609 -45.959  1.00  0.00    -0.039 A 
HETATM   19  C23 UNL     1      18.555  -6.224 -47.333  1.00  0.00     0.015 C 
HETATM   20  C24 UNL     1      18.687  -4.121 -45.984  1.00  0.00     0.015 C 
ENDROOT
BRANCH   2  21
HETATM   21  C4  UNL     1      23.313  -8.160 -43.991  1.00  0.00     0.008 C 
BRANCH  21  22
HETATM   22  C5  UNL     1      23.546  -9.310 -44.873  1.00  0.00     0.011 C 
BRANCH  22  23
HETATM   23  C6  UNL     1      22.982 -10.582 -44.215  1.00  0.00     0.113 C 
BRANCH  23  24
HETATM   24  C7  UNL     1      22.890 -11.720 -45.145  1.00  0.00     0.172 C 
HETATM   25  O2  UNL     1      22.837 -12.906 -44.737  1.00  0.00    -0.648 OA
HETATM   26  O3  UNL     1      22.858 -11.531 -46.520  1.00  0.00    -0.648 OA
ENDBRANCH  23  24
ENDBRANCH  22  23
ENDBRANCH  21  22
ENDBRANCH   2  21
BRANCH   1  27
HETATM   27  O1  UNL     1      22.920  -6.166 -42.298  1.00  0.00    -0.387 OA
HETATM   28  C1  UNL     1      23.566  -6.342 -41.092  1.00  0.00     0.202 C 
ENDBRANCH   1  27
BRANCH  17  29
HETATM   29  O6  UNL     1      18.892  -7.901 -42.538  1.00  0.00    -0.390 OA
ATOM     30  H6  UNL     1      19.310  -8.714 -42.280  1.00  0.00     0.210 HD
ENDBRANCH  17  29
BRANCH   9  31
HETATM   31  C15 UNL     1      16.005  -5.096 -41.836  1.00  0.00     0.060 C 
HETATM   32  N1  UNL     1      15.542  -5.563 -40.764  1.00  0.00    -0.411 N 
ATOM     33  H12 UNL     1      15.942  -6.425 -40.392  1.00  0.00     0.155 HD
ATOM     34  H11 UNL     1      14.782  -5.090 -40.276  1.00  0.00     0.155 HD
ENDBRANCH   9  31
TORSDOF 7
ENDMDL
MODEL 4
REMARK VINA RESULT: -6.512661755      4.862      8.239
REMARK  7 active torsions:
REMARK  status: ('A' for Active; 'I' for Inactive)
REMARK    1  A    between atoms: O1_2  and  C2_3 
REMARK    2  A    between atoms: C3_4  and  C4_5 
REMARK    3  A    between atoms: C4_5  and  C5_6 
REMARK    4  A    between atoms: C5_6  and  C6_7 
REMARK    5  A    between atoms: C6_7  and  C7_8 
REMARK    6  A    between atoms: C14_17  and  C15_18 
REMARK    7  A    between atoms: C21_29  and  O6_30 
ROOT
HETATM    1  C2  UNL     1      15.076 -10.129 -46.524  1.00  0.00     0.163 C 
HETATM    2  C3  UNL     1      14.419 -10.477 -47.905  1.00  0.00     0.022 C 
HETATM    3  C8  UNL     1      15.658 -10.153 -48.693  1.00  0.00    -0.004 C 
HETATM    4  C9  UNL     1      15.485 -10.390 -50.120  1.00  0.00     0.011 C 
HETATM    5  C10 UNL     1      15.871  -8.665 -48.312  1.00  0.00     0.035 C 
HETATM    6  C11 UNL     1      15.044  -7.796 -49.091  1.00  0.00     0.006 A 
HETATM    7  C12 UNL     1      15.008  -6.405 -49.254  1.00  0.00    -0.000 A 
HETATM    8  C13 UNL     1      15.786  -5.384 -48.538  1.00  0.00     0.018 C 
HETATM    9  C14 UNL     1      15.528  -5.311 -47.027  1.00  0.00     0.055 C 
HETATM   10  C16 UNL     1      16.015  -6.578 -46.480  1.00  0.00     0.166 C 
HETATM   11  O4  UNL     1      16.717  -6.579 -45.274  1.00  0.00    -0.347 OA
HETATM   12  C17 UNL     1      17.203  -7.912 -45.203  1.00  0.00     0.158 C 
HETATM   13  C18 UNL     1      17.036  -8.398 -43.771  1.00  0.00     0.078 C 
HETATM   14  C19 UNL     1      18.735  -7.665 -45.304  1.00  0.00     0.078 C 
HETATM   15  O5  UNL     1      16.925  -8.763 -46.169  1.00  0.00    -0.339 OA
HETATM   16  C20 UNL     1      15.693  -8.828 -46.820  1.00  0.00     0.123 C 
HETATM   17  C21 UNL     1      14.972  -7.631 -46.273  1.00  0.00     0.185 C 
HETATM   18  C22 UNL     1      15.650  -7.186 -50.334  1.00  0.00    -0.039 A 
HETATM   19  C23 UNL     1      14.894  -7.192 -51.650  1.00  0.00     0.015 C 
HETATM   20  C24 UNL     1      17.102  -6.903 -50.510  1.00  0.00     0.015 C 
ENDROOT
BRANCH   2  21
HETATM   21  C4  UNL     1      14.023 -11.906 -47.832  1.00  0.00     0.008 C 
BRANCH  21  22
HETATM   22  C5  UNL     1      12.662 -12.306 -48.211  1.00  0.00     0.011 C 
BRANCH  22  23
HETATM   23  C6  UNL     1      12.129 -13.333 -47.196  1.00  0.00     0.113 C 
BRANCH  23  24
HETATM   24  C7  UNL     1      10.710 -13.128 -46.860  1.00  0.00     0.172 C 
HETATM   25  O2  UNL     1      10.164 -13.722 -45.898  1.00  0.00    -0.648 OA
HETATM   26  O3  UNL     1       9.908 -12.266 -47.597  1.00  0.00    -0.648 OA
ENDBRANCH  23  24
ENDBRANCH  22  23
ENDBRANCH  21  22
ENDBRANCH   2  21
BRANCH   1  27
HETATM   27  O1  UNL     1      16.072 -11.087 -46.373  1.00  0.00    -0.387 OA
HETATM   28  C1  UNL     1      15.850 -11.952 -45.320  1.00  0.00     0.202 C 
ENDBRANCH   1  27
BRANCH  17  29
HETATM   29  O6  UNL     1      13.717  -7.394 -46.701  1.00  0.00    -0.390 OA
ATOM     30  H6  UNL     1      13.485  -6.517 -46.982  1.00  0.00     0.210 HD
ENDBRANCH  17  29
BRANCH   9  31
HETATM   31  C15 UNL     1      16.089  -4.075 -46.468  1.00  0.00     0.060 C 
HETATM   32  N1  UNL     1      17.334  -3.919 -46.380  1.00  0.00    -0.411 N 
ATOM     33  H12 UNL     1      17.945  -4.668 -46.705  1.00  0.00     0.155 HD
ATOM     34  H11 UNL     1      17.725  -3.061 -45.993  1.00  0.00     0.155 HD
ENDBRANCH   9  31
TORSDOF 7
ENDMDL
MODEL 5
REMARK VINA RESULT: -6.360810434      3.508      8.380
REMARK  7 active torsions:
REMARK  status: ('A' for Active; 'I' for Inactive)
REMARK    1  A    between atoms: O1_2  and  C2_3 
REMARK    2  A    between atoms: C3_4  and  C4_5 
REMARK    3  A    between atoms: C4_5  and  C5_6 
REMARK    4  A    between atoms: C5_6  and  C6_7 
REMARK    5  A    between atoms: C6_7  and  C7_8 
REMARK    6  A    between atoms: C14_17  and  C15_18 
REMARK    7  A    between atoms: C21_29  and  O6_30 
ROOT
HETATM    1  C2  UNL     1      18.763  -6.667 -45.997  1.00  0.00     0.163 C 
HETATM    2  C3  UNL     1      17.858  -6.113 -44.843  1.00  0.00     0.022 C 
HETATM    3  C8  UNL     1      17.022  -7.359 -44.759  1.00  0.00    -0.004 C 
HETATM    4  C9  UNL     1      16.011  -7.278 -43.712  1.00  0.00     0.011 C 
HETATM    5  C10 UNL     1      16.450  -7.430 -46.198  1.00  0.00     0.035 C 
HETATM    6  C11 UNL     1      15.314  -6.575 -46.358  1.00  0.00     0.006 A 
HETATM    7  C12 UNL     1      14.363  -6.434 -47.376  1.00  0.00    -0.000 A 
HETATM    8  C13 UNL     1      14.333  -7.089 -48.692  1.00  0.00     0.018 C 
HETATM    9  C14 UNL     1      15.511  -6.749 -49.614  1.00  0.00     0.055 C 
HETATM   10  C16 UNL     1      16.697  -7.310 -48.965  1.00  0.00     0.166 C 
HETATM   11  O4  UNL     1      17.666  -7.947 -49.741  1.00  0.00    -0.347 OA
HETATM   12  C17 UNL     1      18.506  -8.536 -48.758  1.00  0.00     0.158 C 
HETATM   13  C18 UNL     1      19.950  -8.338 -49.193  1.00  0.00     0.078 C 
HETATM   14  C19 UNL     1      18.267 -10.046 -49.044  1.00  0.00     0.078 C 
HETATM   15  O5  UNL     1      18.231  -8.378 -47.480  1.00  0.00    -0.339 OA
HETATM   16  C20 UNL     1      17.752  -7.190 -46.926  1.00  0.00     0.123 C 
HETATM   17  C21 UNL     1      17.492  -6.348 -48.141  1.00  0.00     0.185 C 
HETATM   18  C22 UNL     1      13.947  -7.192 -46.176  1.00  0.00    -0.039 A 
HETATM   19  C23 UNL     1      12.893  -6.506 -45.324  1.00  0.00     0.015 C 
HETATM   20  C24 UNL     1      13.627  -8.623 -46.439  1.00  0.00     0.015 C 
ENDROOT
BRANCH   2  21
HETATM   21  C4  UNL     1      18.764  -5.831 -43.700  1.00  0.00     0.008 C 
BRANCH  21  22
HETATM   22  C5  UNL     1      18.249  -5.130 -42.517  1.00  0.00     0.011 C 
BRANCH  22  23
HETATM   23  C6  UNL     1      18.986  -5.633 -41.263  1.00  0.00     0.113 C 
BRANCH  23  24
HETATM   24  C7  UNL     1      20.046  -4.716 -40.809  1.00  0.00     0.172 C 
HETATM   25  O2  UNL     1      19.993  -4.142 -39.695  1.00  0.00    -0.648 OA
HETATM   26  O3  UNL     1      21.154  -4.444 -41.600  1.00  0.00    -0.648 OA
ENDBRANCH  23  24
ENDBRANCH  22  23
ENDBRANCH  21  22
ENDBRANCH   2  21
BRANCH   1  27
HETATM   27  O1  UNL     1      19.443  -7.729 -45.411  1.00  0.00    -0.387 OA
HETATM   28  C1  UNL     1      20.816  -7.633 -45.520  1.00  0.00     0.202 C 
ENDBRANCH   1  27
BRANCH  17  29
HETATM   29  O6  UNL     1      17.017  -5.100 -47.958  1.00  0.00    -0.390 OA
ATOM     30  H6  UNL     1      17.331  -4.403 -48.522  1.00  0.00     0.210 HD
ENDBRANCH  17  29
BRANCH   9  31
HETATM   31  C15 UNL     1      15.229  -7.178 -50.989  1.00  0.00     0.060 C 
HETATM   32  N1  UNL     1      15.848  -6.670 -51.959  1.00  0.00    -0.411 N 
ATOM     33  H12 UNL     1      16.549  -5.954 -51.771  1.00  0.00     0.155 HD
ATOM     34  H11 UNL     1      15.652  -6.968 -52.915  1.00  0.00     0.155 HD
ENDBRANCH   9  31
TORSDOF 7
ENDMDL
