MODEL 1
REMARK VINA RESULT: -8.513638483      0.000      0.000
REMARK  5 active torsions:
REMARK  status: ('A' for Active; 'I' for Inactive)
REMARK    1  A    between atoms: C2_2  and  S1_3 
REMARK    2  A    between atoms: S1_3  and  C3_4 
REMARK    3  A    between atoms: C3_4  and  C4_5 
REMARK    4  A    between atoms: C7_8  and  N1_9 
REMARK       I    between atoms: N1_9  and  C8_11 
REMARK    5  A    between atoms: C8_11  and  C9_13 
REMARK       I    between atoms: N3_23  and  C17_24 
ROOT
HETATM    1  C9  UNL     1      18.731  -4.829 -45.758  1.00  0.00     0.079 C 
HETATM    2  C10 UNL     1      19.943  -5.339 -46.460  1.00  0.00     0.019 C 
HETATM    3  C11 UNL     1      21.057  -5.485 -45.450  1.00  0.00    -0.003 C 
HETATM    4  C12 UNL     1      21.257  -6.958 -45.165  1.00  0.00     0.011 C 
HETATM    5  C13 UNL     1      22.298  -7.153 -44.106  1.00  0.00     0.060 C 
HETATM    6  C14 UNL     1      22.028  -6.255 -42.929  1.00  0.00     0.044 A 
HETATM    7  C15 UNL     1      21.196  -5.163 -43.027  1.00  0.00     0.038 A 
HETATM    8  N2  UNL     1      21.198  -4.610 -41.784  1.00  0.00    -0.353 N 
ATOM      9  H2  UNL     1      20.679  -3.778 -41.504  1.00  0.00     0.166 HD
HETATM   10  C16 UNL     1      21.995  -5.338 -40.986  1.00  0.00     0.193 A 
HETATM   11  N3  UNL     1      22.531  -6.380 -41.682  1.00  0.00    -0.265 N 
HETATM   12  C17 UNL     1      23.421  -7.358 -41.163  1.00  0.00     0.340 C 
HETATM   13  N4  UNL     1      23.862  -7.356 -39.822  1.00  0.00    -0.039 NA
HETATM   14  O2  UNL     1      23.832  -8.260 -41.928  1.00  0.00    -0.250 OA
HETATM   15  C18 UNL     1      20.503  -4.763 -44.245  1.00  0.00     0.042 C 
HETATM   16  C19 UNL     1      19.045  -5.160 -44.292  1.00  0.00     0.025 C 
ENDROOT
BRANCH   1  17
HETATM   17  C8  UNL     1      17.478  -5.414 -46.209  1.00  0.00     0.222 C 
HETATM   18  N1  UNL     1      17.399  -6.793 -46.515  1.00  0.00    -0.353 N 
ATOM     19  H1  UNL     1      18.239  -7.362 -46.412  1.00  0.00     0.163 HD
HETATM   20  O1  UNL     1      16.454  -4.705 -46.332  1.00  0.00    -0.273 OA
BRANCH  18  21
HETATM   21  C7  UNL     1      16.181  -7.435 -46.970  1.00  0.00     0.121 C 
HETATM   22  C6  UNL     1      16.192  -8.854 -46.445  1.00  0.00     0.066 C 
HETATM   23  C4  UNL     1      15.365  -9.551 -47.501  1.00  0.00     0.069 C 
HETATM   24  C5  UNL     1      13.931  -9.629 -47.003  1.00  0.00     0.047 C 
HETATM   25  O3  UNL     1      15.489  -8.866 -48.674  1.00  0.00    -0.367 OA
HETATM   26  C20 UNL     1      16.152  -7.671 -48.456  1.00  0.00     0.075 C 
HETATM   27  C21 UNL     1      17.525  -7.786 -49.056  1.00  0.00     0.048 C 
HETATM   28  C22 UNL     1      15.366  -6.576 -49.147  1.00  0.00     0.048 C 
BRANCH  23  29
HETATM   29  C3  UNL     1      15.922 -10.945 -47.681  1.00  0.00     0.111 C 
BRANCH  29  30
HETATM   30  S1  UNL     1      14.696 -12.180 -47.212  1.00  0.00    -0.167 SA
BRANCH  30  31
HETATM   31  C2  UNL     1      15.437 -13.610 -46.411  1.00  0.00     0.069 C 
HETATM   32  C1  UNL     1      15.827 -13.349 -44.981  1.00  0.00     0.016 C 
ENDBRANCH  30  31
ENDBRANCH  29  30
ENDBRANCH  23  29
ENDBRANCH  18  21
ENDBRANCH   1  17
TORSDOF 5
ENDMDL
MODEL 2
REMARK VINA RESULT: -8.443410264      1.045      1.277
REMARK  5 active torsions:
REMARK  status: ('A' for Active; 'I' for Inactive)
REMARK    1  A    between atoms: C2_2  and  S1_3 
REMARK    2  A    between atoms: S1_3  and  C3_4 
REMARK    3  A    between atoms: C3_4  and  C4_5 
REMARK    4  A    between atoms: C7_8  and  N1_9 
REMARK       I    between atoms: N1_9  and  C8_11 
REMARK    5  A    between atoms: C8_11  and  C9_13 
REMARK       I    between atoms: N3_23  and  C17_24 
ROOT
HETATM    1  C9  UNL     1      19.197  -4.409 -45.853  1.00  0.00     0.079 C 
HETATM    2  C10 UNL     1      20.148  -5.306 -46.571  1.00  0.00     0.019 C 
HETATM    3  C11 UNL     1      21.243  -5.709 -45.612  1.00  0.00    -0.003 C 
HETATM    4  C12 UNL     1      21.021  -7.152 -45.210  1.00  0.00     0.011 C 
HETATM    5  C13 UNL     1      22.036  -7.577 -44.194  1.00  0.00     0.060 C 
HETATM    6  C14 UNL     1      22.133  -6.562 -43.087  1.00  0.00     0.044 A 
HETATM    7  C15 UNL     1      21.654  -5.280 -43.237  1.00  0.00     0.038 A 
HETATM    8  N2  UNL     1      21.915  -4.670 -42.049  1.00  0.00    -0.353 N 
ATOM      9  H2  UNL     1      21.686  -3.703 -41.816  1.00  0.00     0.166 HD
HETATM   10  C16 UNL     1      22.520  -5.548 -41.232  1.00  0.00     0.193 A 
HETATM   11  N3  UNL     1      22.671  -6.747 -41.862  1.00  0.00    -0.265 N 
HETATM   12  C17 UNL     1      23.269  -7.909 -41.307  1.00  0.00     0.340 C 
HETATM   13  N4  UNL     1      23.792  -7.948 -39.996  1.00  0.00    -0.039 NA
HETATM   14  O2  UNL     1      23.337  -8.943 -42.011  1.00  0.00    -0.250 OA
HETATM   15  C18 UNL     1      21.020  -4.775 -44.447  1.00  0.00     0.042 C 
HETATM   16  C19 UNL     1      19.510  -4.718 -44.382  1.00  0.00     0.025 C 
ENDROOT
BRANCH   1  17
HETATM   17  C8  UNL     1      17.797  -4.621 -46.185  1.00  0.00     0.222 C 
HETATM   18  N1  UNL     1      17.348  -5.887 -46.628  1.00  0.00    -0.353 N 
ATOM     19  H1  UNL     1      18.028  -6.643 -46.707  1.00  0.00     0.163 HD
HETATM   20  O1  UNL     1      16.972  -3.686 -46.083  1.00  0.00    -0.273 OA
BRANCH  18  21
HETATM   21  C7  UNL     1      15.967  -6.161 -46.974  1.00  0.00     0.121 C 
HETATM   22  C6  UNL     1      15.383  -7.018 -45.872  1.00  0.00     0.066 C 
HETATM   23  C4  UNL     1      14.325  -7.780 -46.638  1.00  0.00     0.069 C 
HETATM   24  C5  UNL     1      13.000  -7.059 -46.456  1.00  0.00     0.047 C 
HETATM   25  O3  UNL     1      14.713  -7.869 -47.943  1.00  0.00    -0.367 OA
HETATM   26  C20 UNL     1      15.821  -7.072 -48.164  1.00  0.00     0.075 C 
HETATM   27  C21 UNL     1      17.009  -7.972 -48.359  1.00  0.00     0.048 C 
HETATM   28  C22 UNL     1      15.564  -6.262 -49.417  1.00  0.00     0.048 C 
BRANCH  23  29
HETATM   29  C3  UNL     1      14.239  -9.171 -46.051  1.00  0.00     0.111 C 
BRANCH  29  30
HETATM   30  S1  UNL     1      14.330 -10.412 -47.354  1.00  0.00    -0.167 SA
BRANCH  30  31
HETATM   31  C2  UNL     1      15.741 -11.510 -47.155  1.00  0.00     0.069 C 
HETATM   32  C1  UNL     1      15.527 -12.558 -46.095  1.00  0.00     0.016 C 
ENDBRANCH  30  31
ENDBRANCH  29  30
ENDBRANCH  23  29
ENDBRANCH  18  21
ENDBRANCH   1  17
TORSDOF 5
ENDMDL
MODEL 3
REMARK VINA RESULT: -8.021037179      3.464      8.715
REMARK  5 active torsions:
REMARK  status: ('A' for Active; 'I' for Inactive)
REMARK    1  A    between atoms: C2_2  and  S1_3 
REMARK    2  A    between atoms: S1_3  and  C3_4 
REMARK    3  A    between atoms: C3_4  and  C4_5 
REMARK    4  A    between atoms: C7_8  and  N1_9 
REMARK       I    between atoms: N1_9  and  C8_11 
REMARK    5  A    between atoms: C8_11  and  C9_13 
REMARK       I    between atoms: N3_23  and  C17_24 
ROOT
HETATM    1  C9  UNL     1      15.818  -5.523 -46.672  1.00  0.00     0.079 C 
HETATM    2  C10 UNL     1      14.708  -6.209 -45.951  1.00  0.00     0.019 C 
HETATM    3  C11 UNL     1      14.209  -7.347 -46.809  1.00  0.00    -0.003 C 
HETATM    4  C12 UNL     1      14.689  -8.650 -46.206  1.00  0.00     0.011 C 
HETATM    5  C13 UNL     1      14.289  -9.808 -47.066  1.00  0.00     0.060 C 
HETATM    6  C14 UNL     1      14.643  -9.544 -48.505  1.00  0.00     0.044 A 
HETATM    7  C15 UNL     1      14.910  -8.275 -48.963  1.00  0.00     0.038 A 
HETATM    8  N2  UNL     1      15.186  -8.433 -50.286  1.00  0.00    -0.353 N 
ATOM      9  H2  UNL     1      15.428  -7.684 -50.935  1.00  0.00     0.166 HD
HETATM   10  C16 UNL     1      15.086  -9.735 -50.599  1.00  0.00     0.193 A 
HETATM   11  N3  UNL     1      14.745 -10.457 -49.495  1.00  0.00    -0.265 N 
HETATM   12  C17 UNL     1      14.551 -11.863 -49.448  1.00  0.00     0.340 C 
HETATM   13  N4  UNL     1      14.696 -12.694 -50.580  1.00  0.00    -0.039 NA
HETATM   14  O2  UNL     1      14.238 -12.389 -48.355  1.00  0.00    -0.250 OA
HETATM   15  C18 UNL     1      14.879  -7.077 -48.134  1.00  0.00     0.042 C 
HETATM   16  C19 UNL     1      16.241  -6.586 -47.697  1.00  0.00     0.025 C 
ENDROOT
BRANCH   1  17
HETATM   17  C8  UNL     1      16.919  -5.095 -45.823  1.00  0.00     0.222 C 
HETATM   18  N1  UNL     1      17.370  -5.917 -44.764  1.00  0.00    -0.353 N 
ATOM     19  H1  UNL     1      16.906  -6.812 -44.613  1.00  0.00     0.163 HD
HETATM   20  O1  UNL     1      17.480  -3.994 -46.019  1.00  0.00    -0.273 OA
BRANCH  18  21
HETATM   21  C7  UNL     1      18.460  -5.546 -43.883  1.00  0.00     0.121 C 
HETATM   22  C6  UNL     1      19.714  -6.212 -44.406  1.00  0.00     0.066 C 
HETATM   23  C4  UNL     1      20.507  -6.362 -43.127  1.00  0.00     0.069 C 
HETATM   24  C5  UNL     1      21.461  -5.184 -43.022  1.00  0.00     0.047 C 
HETATM   25  O3  UNL     1      19.635  -6.441 -42.081  1.00  0.00    -0.367 OA
HETATM   26  C20 UNL     1      18.352  -6.157 -42.512  1.00  0.00     0.075 C 
HETATM   27  C21 UNL     1      17.565  -7.437 -42.504  1.00  0.00     0.048 C 
HETATM   28  C22 UNL     1      17.750  -5.164 -41.540  1.00  0.00     0.048 C 
BRANCH  23  29
HETATM   29  C3  UNL     1      21.292  -7.652 -43.217  1.00  0.00     0.111 C 
BRANCH  29  30
HETATM   30  S1  UNL     1      23.012  -7.377 -42.756  1.00  0.00    -0.167 SA
BRANCH  30  31
HETATM   31  C2  UNL     1      23.323  -7.746 -41.023  1.00  0.00     0.069 C 
HETATM   32  C1  UNL     1      23.487  -6.511 -40.178  1.00  0.00     0.016 C 
ENDBRANCH  30  31
ENDBRANCH  29  30
ENDBRANCH  23  29
ENDBRANCH  18  21
ENDBRANCH   1  17
TORSDOF 5
ENDMDL
MODEL 4
REMARK VINA RESULT: -8.003470947      4.372      8.788
REMARK  5 active torsions:
REMARK  status: ('A' for Active; 'I' for Inactive)
REMARK    1  A    between atoms: C2_2  and  S1_3 
REMARK    2  A    between atoms: S1_3  and  C3_4 
REMARK    3  A    between atoms: C3_4  and  C4_5 
REMARK    4  A    between atoms: C7_8  and  N1_9 
REMARK       I    between atoms: N1_9  and  C8_11 
REMARK    5  A    between atoms: C8_11  and  C9_13 
REMARK       I    between atoms: N3_23  and  C17_24 
ROOT
HETATM    1  C9  UNL     1      22.565  -6.513 -42.595  1.00  0.00     0.079 C 
HETATM    2  C10 UNL     1      21.502  -6.251 -41.582  1.00  0.00     0.019 C 
HETATM    3  C11 UNL     1      20.326  -5.606 -42.278  1.00  0.00    -0.003 C 
HETATM    4  C12 UNL     1      19.216  -6.630 -42.392  1.00  0.00     0.011 C 
HETATM    5  C13 UNL     1      18.053  -6.065 -43.148  1.00  0.00     0.060 C 
HETATM    6  C14 UNL     1      18.520  -5.410 -44.421  1.00  0.00     0.044 A 
HETATM    7  C15 UNL     1      19.836  -5.054 -44.612  1.00  0.00     0.038 A 
HETATM    8  N2  UNL     1      19.871  -4.503 -45.855  1.00  0.00    -0.353 N 
ATOM      9  H2  UNL     1      20.702  -4.130 -46.316  1.00  0.00     0.166 HD
HETATM   10  C16 UNL     1      18.635  -4.531 -46.379  1.00  0.00     0.193 A 
HETATM   11  N3  UNL     1      17.764  -5.097 -45.495  1.00  0.00    -0.265 N 
HETATM   12  C17 UNL     1      16.374  -5.291 -45.707  1.00  0.00     0.340 C 
HETATM   13  N4  UNL     1      15.719  -4.906 -46.897  1.00  0.00    -0.039 NA
HETATM   14  O2  UNL     1      15.699  -5.828 -44.798  1.00  0.00    -0.250 OA
HETATM   15  C18 UNL     1      20.894  -5.261 -43.632  1.00  0.00     0.042 C 
HETATM   16  C19 UNL     1      21.776  -6.458 -43.911  1.00  0.00     0.025 C 
ENDROOT
BRANCH   1  17
HETATM   17  C8  UNL     1      23.272  -7.772 -42.418  1.00  0.00     0.222 C 
HETATM   18  N1  UNL     1      23.660  -8.540 -43.540  1.00  0.00    -0.353 N 
ATOM     19  H1  UNL     1      23.432  -8.191 -44.471  1.00  0.00     0.163 HD
HETATM   20  O1  UNL     1      23.547  -8.190 -41.271  1.00  0.00    -0.273 OA
BRANCH  18  21
HETATM   21  C7  UNL     1      24.366  -9.802 -43.430  1.00  0.00     0.121 C 
HETATM   22  C6  UNL     1      25.842  -9.489 -43.310  1.00  0.00     0.066 C 
HETATM   23  C4  UNL     1      26.445 -10.738 -43.911  1.00  0.00     0.069 C 
HETATM   24  C5  UNL     1      26.795 -11.687 -42.777  1.00  0.00     0.047 C 
HETATM   25  O3  UNL     1      25.554 -11.267 -44.798  1.00  0.00    -0.367 OA
HETATM   26  C20 UNL     1      24.340 -10.612 -44.698  1.00  0.00     0.075 C 
HETATM   27  C21 UNL     1      24.167  -9.765 -45.928  1.00  0.00     0.048 C 
HETATM   28  C22 UNL     1      23.253 -11.664 -44.627  1.00  0.00     0.048 C 
BRANCH  23  29
HETATM   29  C3  UNL     1      27.701 -10.335 -44.651  1.00  0.00     0.111 C 
BRANCH  29  30
HETATM   30  S1  UNL     1      27.754 -11.117 -46.274  1.00  0.00    -0.167 SA
BRANCH  30  31
HETATM   31  C2  UNL     1      29.374 -10.985 -47.045  1.00  0.00     0.069 C 
HETATM   32  C1  UNL     1      29.481  -9.821 -47.994  1.00  0.00     0.016 C 
ENDBRANCH  30  31
ENDBRANCH  29  30
ENDBRANCH  23  29
ENDBRANCH  18  21
ENDBRANCH   1  17
TORSDOF 5
ENDMDL
MODEL 5
REMARK VINA RESULT: -7.970384042      4.442      8.943
REMARK  5 active torsions:
REMARK  status: ('A' for Active; 'I' for Inactive)
REMARK    1  A    between atoms: C2_2  and  S1_3 
REMARK    2  A    between atoms: S1_3  and  C3_4 
REMARK    3  A    between atoms: C3_4  and  C4_5 
REMARK    4  A    between atoms: C7_8  and  N1_9 
REMARK       I    between atoms: N1_9  and  C8_11 
REMARK    5  A    between atoms: C8_11  and  C9_13 
REMARK       I    between atoms: N3_23  and  C17_24 
ROOT
HETATM    1  C9  UNL     1      22.619  -6.528 -42.599  1.00  0.00     0.079 C 
HETATM    2  C10 UNL     1      21.564  -6.243 -41.584  1.00  0.00     0.019 C 
HETATM    3  C11 UNL     1      20.397  -5.581 -42.279  1.00  0.00    -0.003 C 
HETATM    4  C12 UNL     1      19.270  -6.586 -42.386  1.00  0.00     0.011 C 
HETATM    5  C13 UNL     1      18.115  -6.004 -43.142  1.00  0.00     0.060 C 
HETATM    6  C14 UNL     1      18.589  -5.362 -44.418  1.00  0.00     0.044 A 
HETATM    7  C15 UNL     1      19.910  -5.030 -44.614  1.00  0.00     0.038 A 
HETATM    8  N2  UNL     1      19.951  -4.485 -45.860  1.00  0.00    -0.353 N 
ATOM      9  H2  UNL     1      20.787  -4.129 -46.324  1.00  0.00     0.166 HD
HETATM   10  C16 UNL     1      18.714  -4.493 -46.380  1.00  0.00     0.193 A 
HETATM   11  N3  UNL     1      17.836  -5.040 -45.491  1.00  0.00    -0.265 N 
HETATM   12  C17 UNL     1      16.442  -5.212 -45.698  1.00  0.00     0.340 C 
HETATM   13  N4  UNL     1      15.790  -4.820 -46.888  1.00  0.00    -0.039 NA
HETATM   14  O2  UNL     1      15.760  -5.733 -44.785  1.00  0.00    -0.250 OA
HETATM   15  C18 UNL     1      20.968  -5.251 -43.636  1.00  0.00     0.042 C 
HETATM   16  C19 UNL     1      21.828  -6.464 -43.913  1.00  0.00     0.025 C 
ENDROOT
BRANCH   1  17
HETATM   17  C8  UNL     1      23.305  -7.798 -42.419  1.00  0.00     0.222 C 
HETATM   18  N1  UNL     1      23.679  -8.577 -43.539  1.00  0.00    -0.353 N 
ATOM     19  H1  UNL     1      23.456  -8.227 -44.470  1.00  0.00     0.163 HD
HETATM   20  O1  UNL     1      23.574  -8.217 -41.271  1.00  0.00    -0.273 OA
BRANCH  18  21
HETATM   21  C7  UNL     1      24.363  -9.850 -43.425  1.00  0.00     0.121 C 
HETATM   22  C6  UNL     1      25.841  -9.561 -43.281  1.00  0.00     0.066 C 
HETATM   23  C4  UNL     1      26.434 -10.815 -43.881  1.00  0.00     0.069 C 
HETATM   24  C5  UNL     1      26.752 -11.776 -42.747  1.00  0.00     0.047 C 
HETATM   25  O3  UNL     1      25.549 -11.326 -44.784  1.00  0.00    -0.367 OA
HETATM   26  C20 UNL     1      24.344 -10.652 -44.699  1.00  0.00     0.075 C 
HETATM   27  C21 UNL     1      24.203  -9.796 -45.926  1.00  0.00     0.048 C 
HETATM   28  C22 UNL     1      23.240 -11.687 -44.650  1.00  0.00     0.048 C 
BRANCH  23  29
HETATM   29  C3  UNL     1      27.707 -10.429 -44.599  1.00  0.00     0.111 C 
BRANCH  29  30
HETATM   30  S1  UNL     1      28.905 -11.773 -44.527  1.00  0.00    -0.167 SA
BRANCH  30  31
HETATM   31  C2  UNL     1      30.397 -11.314 -43.633  1.00  0.00     0.069 C 
HETATM   32  C1  UNL     1      30.115 -10.519 -42.386  1.00  0.00     0.016 C 
ENDBRANCH  30  31
ENDBRANCH  29  30
ENDBRANCH  23  29
ENDBRANCH  18  21
ENDBRANCH   1  17
TORSDOF 5
ENDMDL
