MODEL 1
REMARK VINA RESULT: -4.462404910      0.000      0.000
REMARK  5 active torsions:
REMARK  status: ('A' for Active; 'I' for Inactive)
REMARK    1  A    between atoms: C2_2  and  N1_4 
REMARK    2  A    between atoms: N1_4  and  C4_5 
REMARK    3  A    between atoms: N1_4  and  N2_8 
REMARK    4  A    between atoms: C6_9  and  O1_10 
REMARK    5  A    between atoms: C8_14  and  N3_15 
ROOT
HETATM    1  N2  UNL     1       8.449  27.593 -37.973  1.00  0.00    -0.211 N 
HETATM    2  C6  UNL     1       8.775  28.881 -37.954  1.00  0.00     0.170 A 
HETATM    3  C7  UNL     1       7.973  29.740 -37.265  1.00  0.00     0.111 A 
HETATM    4  S1  UNL     1       6.764  28.693 -36.654  1.00  0.00    -0.060 SA
HETATM    5  C8  UNL     1       7.351  27.239 -37.309  1.00  0.00     0.166 A 
ENDROOT
BRANCH   1   6
HETATM    6  N1  UNL     1       9.226  26.596 -38.665  1.00  0.00    -0.294 N 
BRANCH   6   7
HETATM    7  C2  UNL     1       9.041  26.251 -40.029  1.00  0.00     0.096 C 
HETATM    8  C1  UNL     1       7.598  26.237 -40.485  1.00  0.00     0.033 C 
HETATM    9  C3  UNL     1       9.847  27.033 -41.011  1.00  0.00     0.033 C 
ENDBRANCH   6   7
BRANCH   6  10
HETATM   10  C4  UNL     1      10.240  25.930 -37.868  1.00  0.00     0.195 C 
HETATM   11  C5  UNL     1      10.067  24.430 -37.938  1.00  0.00     0.051 C 
HETATM   12 CL1  UNL     1      11.886  26.374 -38.363  1.00  0.00    -0.101 Cl
ENDBRANCH   6  10
ENDBRANCH   1   6
BRANCH   2  13
HETATM   13  O1  UNL     1       9.920  29.434 -38.613  1.00  0.00    -0.344 OA
ATOM     14  H1  UNL     1      10.244  30.316 -38.473  1.00  0.00     0.219 HD
ENDBRANCH   2  13
BRANCH   5  15
HETATM   15  N3  UNL     1       6.796  26.088 -37.152  1.00  0.00    -0.378 N 
ATOM     16  H32 UNL     1       7.105  25.228 -37.605  1.00  0.00     0.158 HD
ATOM     17  H31 UNL     1       5.996  25.805 -36.587  1.00  0.00     0.158 HD
ENDBRANCH   5  15
TORSDOF 5
ENDMDL
MODEL 2
REMARK VINA RESULT: -4.444831559      1.946      2.549
REMARK  5 active torsions:
REMARK  status: ('A' for Active; 'I' for Inactive)
REMARK    1  A    between atoms: C2_2  and  N1_4 
REMARK    2  A    between atoms: N1_4  and  C4_5 
REMARK    3  A    between atoms: N1_4  and  N2_8 
REMARK    4  A    between atoms: C6_9  and  O1_10 
REMARK    5  A    between atoms: C8_14  and  N3_15 
ROOT
HETATM    1  N2  UNL     1       9.102  28.110 -37.853  1.00  0.00    -0.211 N 
HETATM    2  C6  UNL     1       9.693  28.119 -36.663  1.00  0.00     0.170 A 
HETATM    3  C7  UNL     1       9.271  29.027 -35.739  1.00  0.00     0.111 A 
HETATM    4  S1  UNL     1       8.035  29.855 -36.585  1.00  0.00    -0.060 SA
HETATM    5  C8  UNL     1       8.131  29.000 -38.051  1.00  0.00     0.166 A 
ENDROOT
BRANCH   1   6
HETATM    6  N1  UNL     1       9.464  27.192 -38.902  1.00  0.00    -0.294 N 
BRANCH   6   7
HETATM    7  C2  UNL     1      10.515  27.420 -39.829  1.00  0.00     0.096 C 
HETATM    8  C1  UNL     1      10.721  28.871 -40.204  1.00  0.00     0.033 C 
HETATM    9  C3  UNL     1      11.835  26.824 -39.471  1.00  0.00     0.033 C 
ENDBRANCH   6   7
BRANCH   6  10
HETATM   10  C4  UNL     1       8.667  25.982 -38.976  1.00  0.00     0.195 C 
HETATM   11  C5  UNL     1       8.352  25.642 -40.415  1.00  0.00     0.051 C 
HETATM   12 CL1  UNL     1       9.459  24.603 -38.187  1.00  0.00    -0.101 Cl
ENDBRANCH   6  10
ENDBRANCH   1   6
BRANCH   2  13
HETATM   13  O1  UNL     1      10.752  27.234 -36.280  1.00  0.00    -0.344 OA
ATOM     14  H1  UNL     1      10.855  26.867 -35.410  1.00  0.00     0.219 HD
ENDBRANCH   2  13
BRANCH   5  15
HETATM   15  N3  UNL     1       7.393  29.225 -39.081  1.00  0.00    -0.378 N 
ATOM     16  H32 UNL     1       7.744  29.354 -40.030  1.00  0.00     0.158 HD
ATOM     17  H31 UNL     1       6.381  29.315 -39.170  1.00  0.00     0.158 HD
ENDBRANCH   5  15
TORSDOF 5
ENDMDL
MODEL 3
REMARK VINA RESULT: -4.432120895      1.912      2.512
REMARK  5 active torsions:
REMARK  status: ('A' for Active; 'I' for Inactive)
REMARK    1  A    between atoms: C2_2  and  N1_4 
REMARK    2  A    between atoms: N1_4  and  C4_5 
REMARK    3  A    between atoms: N1_4  and  N2_8 
REMARK    4  A    between atoms: C6_9  and  O1_10 
REMARK    5  A    between atoms: C8_14  and  N3_15 
ROOT
HETATM    1  N2  UNL     1       9.086  28.061 -37.872  1.00  0.00    -0.211 N 
HETATM    2  C6  UNL     1       8.206  29.045 -38.028  1.00  0.00     0.170 A 
HETATM    3  C7  UNL     1       7.922  29.834 -36.955  1.00  0.00     0.111 A 
HETATM    4  S1  UNL     1       8.917  29.158 -35.737  1.00  0.00    -0.060 SA
HETATM    5  C8  UNL     1       9.628  27.923 -36.663  1.00  0.00     0.166 A 
ENDROOT
BRANCH   1   6
HETATM    6  N1  UNL     1       9.465  27.169 -38.938  1.00  0.00    -0.294 N 
BRANCH   6   7
HETATM    7  C2  UNL     1      10.570  27.389 -39.801  1.00  0.00     0.096 C 
HETATM    8  C1  UNL     1      10.827  28.841 -40.139  1.00  0.00     0.033 C 
HETATM    9  C3  UNL     1      11.856  26.760 -39.381  1.00  0.00     0.033 C 
ENDBRANCH   6   7
BRANCH   6  10
HETATM   10  C4  UNL     1       8.626  25.997 -39.100  1.00  0.00     0.195 C 
HETATM   11  C5  UNL     1       8.313  25.768 -40.561  1.00  0.00     0.051 C 
HETATM   12 CL1  UNL     1       9.362  24.539 -38.402  1.00  0.00    -0.101 Cl
ENDBRANCH   6  10
ENDBRANCH   1   6
BRANCH   2  13
HETATM   13  O1  UNL     1       7.529  29.335 -39.257  1.00  0.00    -0.344 OA
ATOM     14  H1  UNL     1       7.629  28.830 -40.055  1.00  0.00     0.219 HD
ENDBRANCH   2  13
BRANCH   5  15
HETATM   15  N3  UNL     1      10.491  27.079 -36.219  1.00  0.00    -0.378 N 
ATOM     16  H32 UNL     1      11.448  27.311 -35.953  1.00  0.00     0.158 HD
ATOM     17  H31 UNL     1      10.417  26.076 -36.047  1.00  0.00     0.158 HD
ENDBRANCH   5  15
TORSDOF 5
ENDMDL
MODEL 4
REMARK VINA RESULT: -4.398267830      1.556      2.120
REMARK  5 active torsions:
REMARK  status: ('A' for Active; 'I' for Inactive)
REMARK    1  A    between atoms: C2_2  and  N1_4 
REMARK    2  A    between atoms: N1_4  and  C4_5 
REMARK    3  A    between atoms: N1_4  and  N2_8 
REMARK    4  A    between atoms: C6_9  and  O1_10 
REMARK    5  A    between atoms: C8_14  and  N3_15 
ROOT
HETATM    1  N2  UNL     1       8.313  27.572 -38.099  1.00  0.00    -0.211 N 
HETATM    2  C6  UNL     1       7.231  27.271 -37.389  1.00  0.00     0.170 A 
HETATM    3  C7  UNL     1       6.521  28.289 -36.828  1.00  0.00     0.111 A 
HETATM    4  S1  UNL     1       7.411  29.665 -37.325  1.00  0.00    -0.060 SA
HETATM    5  C8  UNL     1       8.621  28.864 -38.208  1.00  0.00     0.166 A 
ENDROOT
BRANCH   1   6
HETATM    6  N1  UNL     1       9.134  26.578 -38.740  1.00  0.00    -0.294 N 
BRANCH   6   7
HETATM    7  C2  UNL     1       8.977  26.168 -40.090  1.00  0.00     0.096 C 
HETATM    8  C1  UNL     1       7.543  26.125 -40.572  1.00  0.00     0.033 C 
HETATM    9  C3  UNL     1       9.798  26.906 -41.092  1.00  0.00     0.033 C 
ENDBRANCH   6   7
BRANCH   6  10
HETATM   10  C4  UNL     1      10.164  25.986 -37.906  1.00  0.00     0.195 C 
HETATM   11  C5  UNL     1      10.042  24.479 -37.905  1.00  0.00     0.051 C 
HETATM   12 CL1  UNL     1      11.798  26.462 -38.411  1.00  0.00    -0.101 Cl
ENDBRANCH   6  10
ENDBRANCH   1   6
BRANCH   2  13
HETATM   13  O1  UNL     1       6.755  25.938 -37.170  1.00  0.00    -0.344 OA
ATOM     14  H1  UNL     1       6.507  25.591 -36.321  1.00  0.00     0.219 HD
ENDBRANCH   2  13
BRANCH   5  15
HETATM   15  N3  UNL     1       9.591  29.448 -38.820  1.00  0.00    -0.378 N 
ATOM     16  H32 UNL     1      10.043  30.307 -38.506  1.00  0.00     0.158 HD
ATOM     17  H31 UNL     1      10.083  29.202 -39.679  1.00  0.00     0.158 HD
ENDBRANCH   5  15
TORSDOF 5
ENDMDL
MODEL 5
REMARK VINA RESULT: -4.391237856      1.485      2.602
REMARK  5 active torsions:
REMARK  status: ('A' for Active; 'I' for Inactive)
REMARK    1  A    between atoms: C2_2  and  N1_4 
REMARK    2  A    between atoms: N1_4  and  C4_5 
REMARK    3  A    between atoms: N1_4  and  N2_8 
REMARK    4  A    between atoms: C6_9  and  O1_10 
REMARK    5  A    between atoms: C8_14  and  N3_15 
ROOT
HETATM    1  N2  UNL     1       8.813  27.652 -37.933  1.00  0.00    -0.211 N 
HETATM    2  C6  UNL     1       9.190  28.912 -37.741  1.00  0.00     0.170 A 
HETATM    3  C7  UNL     1       8.607  29.614 -36.730  1.00  0.00     0.111 A 
HETATM    4  S1  UNL     1       7.528  28.462 -36.066  1.00  0.00    -0.060 SA
HETATM    5  C8  UNL     1       7.883  27.169 -37.110  1.00  0.00     0.166 A 
ENDROOT
BRANCH   1   6
HETATM    6  N1  UNL     1       9.364  26.816 -38.968  1.00  0.00    -0.294 N 
BRANCH   6   7
HETATM    7  C2  UNL     1      10.459  25.932 -38.776  1.00  0.00     0.096 C 
HETATM    8  C1  UNL     1      11.709  26.587 -38.232  1.00  0.00     0.033 C 
HETATM    9  C3  UNL     1      10.170  24.709 -37.973  1.00  0.00     0.033 C 
ENDBRANCH   6   7
BRANCH   6  10
HETATM   10  C4  UNL     1       8.731  26.931 -40.269  1.00  0.00     0.195 C 
HETATM   11  C5  UNL     1       9.771  27.092 -41.352  1.00  0.00     0.051 C 
HETATM   12 CL1  UNL     1       7.685  25.543 -40.634  1.00  0.00    -0.101 Cl
ENDBRANCH   6  10
ENDBRANCH   1   6
BRANCH   2  13
HETATM   13  O1  UNL     1      10.174  29.589 -38.531  1.00  0.00    -0.344 OA
ATOM     14  H1  UNL     1       9.975  30.132 -39.284  1.00  0.00     0.219 HD
ENDBRANCH   2  13
BRANCH   5  15
HETATM   15  N3  UNL     1       7.330  26.008 -37.054  1.00  0.00    -0.378 N 
ATOM     16  H32 UNL     1       7.838  25.124 -37.016  1.00  0.00     0.158 HD
ATOM     17  H31 UNL     1       6.347  25.738 -37.034  1.00  0.00     0.158 HD
ENDBRANCH   5  15
TORSDOF 5
ENDMDL
