MODEL 1
REMARK VINA RESULT: -5.261459592      0.000      0.000
REMARK  7 active torsions:
REMARK  status: ('A' for Active; 'I' for Inactive)
REMARK    1  A    between atoms: C2_2  and  C3_3 
REMARK    2  A    between atoms: C4_6  and  C5_7 
REMARK    3  A    between atoms: C6_9  and  N1_10 
REMARK    4  A    between atoms: N1_10  and  C8_12 
REMARK    5  A    between atoms: C8_12  and  O1_13 
REMARK    6  A    between atoms: C8_12  and  N2_15 
REMARK    7  A    between atoms: N2_15  and  N3_17 
ROOT
HETATM    1  C3  UNL     1      10.120  27.363 -39.775  1.00  0.00    -0.065 C 
HETATM    2  S1  UNL     1       9.984  26.204 -38.964  1.00  0.00    -0.001 SA
HETATM    3  S2  UNL     1       9.884  24.534 -37.784  1.00  0.00     0.001 SA
ENDROOT
BRANCH   1   4
HETATM    4  C2  UNL     1      10.277  28.481 -40.590  1.00  0.00    -0.006 C 
HETATM    5  C1  UNL     1       9.479  29.754 -40.315  1.00  0.00     0.058 C 
HETATM    6  C4  UNL     1      11.074  28.544 -41.606  1.00  0.00     0.059 C 
BRANCH   6   7
HETATM    7  C5  UNL     1      11.947  27.401 -42.045  1.00  0.00     0.133 C 
HETATM    8  F1  UNL     1      11.402  26.576 -42.931  1.00  0.00    -0.205 F 
HETATM    9  C6  UNL     1      13.122  27.339 -41.525  1.00  0.00     0.136 C 
BRANCH   9  10
HETATM   10  N1  UNL     1      14.238  26.547 -41.582  1.00  0.00    -0.324 N 
HETATM   11  C7  UNL     1      15.244  26.758 -40.434  1.00  0.00     0.159 C 
BRANCH  10  12
HETATM   12  C8  UNL     1      14.665  25.579 -42.464  1.00  0.00     0.237 C 
BRANCH  12  13
HETATM   13  O1  UNL     1      15.948  25.236 -42.322  1.00  0.00    -0.331 OA
ATOM     14  H1  UNL     1      16.346  24.883 -43.110  1.00  0.00     0.221 HD
ENDBRANCH  12  13
BRANCH  12  15
HETATM   15  N2  UNL     1      14.049  24.874 -43.478  1.00  0.00    -0.272 N 
ATOM     16  H2  UNL     1      13.747  23.909 -43.337  1.00  0.00     0.190 HD
BRANCH  15  17
HETATM   17  N3  UNL     1      13.842  25.543 -44.749  1.00  0.00    -0.342 N 
ATOM     18  H32 UNL     1      14.425  26.340 -45.006  1.00  0.00     0.176 HD
ATOM     19  H31 UNL     1      13.107  25.193 -45.362  1.00  0.00     0.176 HD
ENDBRANCH  15  17
ENDBRANCH  12  15
ENDBRANCH  10  12
ENDBRANCH   9  10
ENDBRANCH   6   7
ENDBRANCH   1   4
TORSDOF 7
ENDMDL
MODEL 2
REMARK VINA RESULT: -5.212521928      2.968      3.916
REMARK  7 active torsions:
REMARK  status: ('A' for Active; 'I' for Inactive)
REMARK    1  A    between atoms: C2_2  and  C3_3 
REMARK    2  A    between atoms: C4_6  and  C5_7 
REMARK    3  A    between atoms: C6_9  and  N1_10 
REMARK    4  A    between atoms: N1_10  and  C8_12 
REMARK    5  A    between atoms: C8_12  and  O1_13 
REMARK    6  A    between atoms: C8_12  and  N2_15 
REMARK    7  A    between atoms: N2_15  and  N3_17 
ROOT
HETATM    1  C3  UNL     1      12.522  27.157 -40.303  1.00  0.00    -0.065 C 
HETATM    2  S1  UNL     1      11.159  26.945 -39.961  1.00  0.00    -0.001 SA
HETATM    3  S2  UNL     1       9.176  26.628 -39.563  1.00  0.00     0.001 SA
ENDROOT
BRANCH   1   4
HETATM    4  C2  UNL     1      13.847  27.390 -40.661  1.00  0.00    -0.006 C 
HETATM    5  C1  UNL     1      14.750  28.239 -39.769  1.00  0.00     0.058 C 
HETATM    6  C4  UNL     1      14.410  26.931 -41.731  1.00  0.00     0.059 C 
BRANCH   6   7
HETATM    7  C5  UNL     1      13.697  26.074 -42.740  1.00  0.00     0.133 C 
HETATM    8  F1  UNL     1      14.133  24.823 -42.834  1.00  0.00    -0.205 F 
HETATM    9  C6  UNL     1      12.746  26.632 -43.402  1.00  0.00     0.136 C 
BRANCH   9  10
HETATM   10  N1  UNL     1      11.838  26.312 -44.376  1.00  0.00    -0.324 N 
HETATM   11  C7  UNL     1      10.388  26.144 -43.884  1.00  0.00     0.159 C 
BRANCH  10  12
HETATM   12  C8  UNL     1      11.944  26.106 -45.734  1.00  0.00     0.237 C 
BRANCH  12  13
HETATM   13  O1  UNL     1      10.888  26.526 -46.436  1.00  0.00    -0.331 OA
ATOM     14  H1  UNL     1      10.051  26.368 -46.015  1.00  0.00     0.221 HD
ENDBRANCH  12  13
BRANCH  12  15
HETATM   15  N2  UNL     1      12.915  25.551 -46.542  1.00  0.00    -0.272 N 
ATOM     16  H2  UNL     1      13.766  25.154 -46.142  1.00  0.00     0.190 HD
BRANCH  15  17
HETATM   17  N3  UNL     1      12.693  25.549 -47.976  1.00  0.00    -0.342 N 
ATOM     18  H32 UNL     1      11.748  25.657 -48.346  1.00  0.00     0.176 HD
ATOM     19  H31 UNL     1      13.502  25.438 -48.588  1.00  0.00     0.176 HD
ENDBRANCH  15  17
ENDBRANCH  12  15
ENDBRANCH  10  12
ENDBRANCH   9  10
ENDBRANCH   6   7
ENDBRANCH   1   4
TORSDOF 7
ENDMDL
MODEL 3
REMARK VINA RESULT: -5.187065402      4.540      5.763
REMARK  7 active torsions:
REMARK  status: ('A' for Active; 'I' for Inactive)
REMARK    1  A    between atoms: C2_2  and  C3_3 
REMARK    2  A    between atoms: C4_6  and  C5_7 
REMARK    3  A    between atoms: C6_9  and  N1_10 
REMARK    4  A    between atoms: N1_10  and  C8_12 
REMARK    5  A    between atoms: C8_12  and  O1_13 
REMARK    6  A    between atoms: C8_12  and  N2_15 
REMARK    7  A    between atoms: N2_15  and  N3_17 
ROOT
HETATM    1  C3  UNL     1      12.989  27.007 -41.712  1.00  0.00    -0.065 C 
HETATM    2  S1  UNL     1      12.532  26.666 -43.014  1.00  0.00    -0.001 SA
HETATM    3  S2  UNL     1      11.804  26.242 -44.880  1.00  0.00     0.001 SA
ENDROOT
BRANCH   1   4
HETATM    4  C2  UNL     1      13.405  27.336 -40.425  1.00  0.00    -0.006 C 
HETATM    5  C1  UNL     1      14.864  27.695 -40.153  1.00  0.00     0.058 C 
HETATM    6  C4  UNL     1      12.631  27.367 -39.389  1.00  0.00     0.059 C 
BRANCH   6   7
HETATM    7  C5  UNL     1      11.163  27.048 -39.442  1.00  0.00     0.133 C 
HETATM    8  F1  UNL     1      10.425  27.884 -40.164  1.00  0.00    -0.205 F 
HETATM    9  C6  UNL     1      10.774  26.009 -38.791  1.00  0.00     0.136 C 
BRANCH   9  10
HETATM   10  N1  UNL     1       9.616  25.325 -38.532  1.00  0.00    -0.324 N 
HETATM   11  C7  UNL     1       9.250  25.208 -37.040  1.00  0.00     0.159 C 
BRANCH  10  12
HETATM   12  C8  UNL     1       8.684  24.706 -39.336  1.00  0.00     0.237 C 
BRANCH  12  13
HETATM   13  O1  UNL     1       8.703  23.372 -39.270  1.00  0.00    -0.331 OA
ATOM     14  H1  UNL     1       8.296  22.939 -40.011  1.00  0.00     0.221 HD
ENDBRANCH  12  13
BRANCH  12  15
HETATM   15  N2  UNL     1       7.720  25.168 -40.208  1.00  0.00    -0.272 N 
ATOM     16  H2  UNL     1       7.683  24.836 -41.173  1.00  0.00     0.190 HD
BRANCH  15  17
HETATM   17  N3  UNL     1       6.760  26.138 -39.716  1.00  0.00    -0.342 N 
ATOM     18  H32 UNL     1       6.302  25.991 -38.816  1.00  0.00     0.176 HD
ATOM     19  H31 UNL     1       6.565  26.957 -40.293  1.00  0.00     0.176 HD
ENDBRANCH  15  17
ENDBRANCH  12  15
ENDBRANCH  10  12
ENDBRANCH   9  10
ENDBRANCH   6   7
ENDBRANCH   1   4
TORSDOF 7
ENDMDL
MODEL 4
REMARK VINA RESULT: -5.152626166      2.863      3.784
REMARK  7 active torsions:
REMARK  status: ('A' for Active; 'I' for Inactive)
REMARK    1  A    between atoms: C2_2  and  C3_3 
REMARK    2  A    between atoms: C4_6  and  C5_7 
REMARK    3  A    between atoms: C6_9  and  N1_10 
REMARK    4  A    between atoms: N1_10  and  C8_12 
REMARK    5  A    between atoms: C8_12  and  O1_13 
REMARK    6  A    between atoms: C8_12  and  N2_15 
REMARK    7  A    between atoms: N2_15  and  N3_17 
ROOT
HETATM    1  C3  UNL     1      11.695  27.001 -39.779  1.00  0.00    -0.065 C 
HETATM    2  S1  UNL     1      10.391  26.802 -39.248  1.00  0.00    -0.001 SA
HETATM    3  S2  UNL     1       8.489  26.605 -38.516  1.00  0.00     0.001 SA
ENDROOT
BRANCH   1   4
HETATM    4  C2  UNL     1      12.973  27.226 -40.282  1.00  0.00    -0.006 C 
HETATM    5  C1  UNL     1      14.188  27.154 -39.360  1.00  0.00     0.058 C 
HETATM    6  C4  UNL     1      13.239  27.505 -41.517  1.00  0.00     0.059 C 
BRANCH   6   7
HETATM    7  C5  UNL     1      12.186  27.622 -42.584  1.00  0.00     0.133 C 
HETATM    8  F1  UNL     1      11.385  28.676 -42.480  1.00  0.00    -0.205 F 
HETATM    9  C6  UNL     1      12.168  26.700 -43.481  1.00  0.00     0.136 C 
BRANCH   9  10
HETATM   10  N1  UNL     1      11.457  26.360 -44.600  1.00  0.00    -0.324 N 
HETATM   11  C7  UNL     1       9.937  26.223 -44.388  1.00  0.00     0.159 C 
BRANCH  10  12
HETATM   12  C8  UNL     1      11.814  26.111 -45.907  1.00  0.00     0.237 C 
BRANCH  12  13
HETATM   13  O1  UNL     1      10.895  26.472 -46.806  1.00  0.00    -0.331 OA
ATOM     14  H1  UNL     1      10.703  25.806 -47.457  1.00  0.00     0.221 HD
ENDBRANCH  12  13
BRANCH  12  15
HETATM   15  N2  UNL     1      12.931  25.561 -46.502  1.00  0.00    -0.272 N 
ATOM     16  H2  UNL     1      13.655  25.110 -45.942  1.00  0.00     0.190 HD
BRANCH  15  17
HETATM   17  N3  UNL     1      13.047  25.643 -47.946  1.00  0.00    -0.342 N 
ATOM     18  H32 UNL     1      13.771  26.225 -48.368  1.00  0.00     0.176 HD
ATOM     19  H31 UNL     1      12.390  25.105 -48.512  1.00  0.00     0.176 HD
ENDBRANCH  15  17
ENDBRANCH  12  15
ENDBRANCH  10  12
ENDBRANCH   9  10
ENDBRANCH   6   7
ENDBRANCH   1   4
TORSDOF 7
ENDMDL
MODEL 5
REMARK VINA RESULT: -5.130405316      4.205      5.604
REMARK  7 active torsions:
REMARK  status: ('A' for Active; 'I' for Inactive)
REMARK    1  A    between atoms: C2_2  and  C3_3 
REMARK    2  A    between atoms: C4_6  and  C5_7 
REMARK    3  A    between atoms: C6_9  and  N1_10 
REMARK    4  A    between atoms: N1_10  and  C8_12 
REMARK    5  A    between atoms: C8_12  and  O1_13 
REMARK    6  A    between atoms: C8_12  and  N2_15 
REMARK    7  A    between atoms: N2_15  and  N3_17 
ROOT
HETATM    1  C3  UNL     1      11.987  26.463 -43.369  1.00  0.00    -0.065 C 
HETATM    2  S1  UNL     1      10.760  26.396 -44.085  1.00  0.00    -0.001 SA
HETATM    3  S2  UNL     1       8.948  26.283 -45.031  1.00  0.00     0.001 SA
ENDROOT
BRANCH   1   4
HETATM    4  C2  UNL     1      13.181  26.497 -42.654  1.00  0.00    -0.006 C 
HETATM    5  C1  UNL     1      14.457  25.913 -43.256  1.00  0.00     0.058 C 
HETATM    6  C4  UNL     1      13.314  27.000 -41.471  1.00  0.00     0.059 C 
BRANCH   6   7
HETATM    7  C5  UNL     1      12.181  27.625 -40.704  1.00  0.00     0.133 C 
HETATM    8  F1  UNL     1      11.822  28.838 -41.106  1.00  0.00    -0.205 F 
HETATM    9  C6  UNL     1      11.679  26.927 -39.747  1.00  0.00     0.136 C 
BRANCH   9  10
HETATM   10  N1  UNL     1      10.694  27.029 -38.801  1.00  0.00    -0.324 N 
HETATM   11  C7  UNL     1       9.491  27.902 -39.204  1.00  0.00     0.159 C 
BRANCH  10  12
HETATM   12  C8  UNL     1      10.542  26.504 -37.535  1.00  0.00     0.237 C 
BRANCH  12  13
HETATM   13  O1  UNL     1      11.084  27.246 -36.566  1.00  0.00    -0.331 OA
ATOM     14  H1  UNL     1      10.567  28.005 -36.321  1.00  0.00     0.221 HD
ENDBRANCH  12  13
BRANCH  12  15
HETATM   15  N2  UNL     1       9.944  25.364 -37.041  1.00  0.00    -0.272 N 
ATOM     16  H2  UNL     1       9.431  25.381 -36.159  1.00  0.00     0.190 HD
BRANCH  15  17
HETATM   17  N3  UNL     1      10.065  24.140 -37.811  1.00  0.00    -0.342 N 
ATOM     18  H32 UNL     1      10.241  24.184 -38.815  1.00  0.00     0.176 HD
ATOM     19  H31 UNL     1       9.968  23.251 -37.319  1.00  0.00     0.176 HD
ENDBRANCH  15  17
ENDBRANCH  12  15
ENDBRANCH  10  12
ENDBRANCH   9  10
ENDBRANCH   6   7
ENDBRANCH   1   4
TORSDOF 7
ENDMDL
