MODEL 1
REMARK VINA RESULT: -4.873270926      0.000      0.000
REMARK  3 active torsions:
REMARK  status: ('A' for Active; 'I' for Inactive)
REMARK       I    between atoms: N1_2  and  C2_4 
REMARK       I    between atoms: C2_4  and  N2_6 
REMARK    1  A    between atoms: C3_8  and  C4_9 
REMARK    2  A    between atoms: C4_9  and  C5_10 
REMARK    3  A    between atoms: C9_14  and  O2_15 
ROOT
HETATM    1  C1  UNL     1       8.593  30.170 -35.949  1.00  0.00     0.151 C 
HETATM    2  N1  UNL     1       8.774  29.663 -37.283  1.00  0.00    -0.346 N 
ATOM      3  H1  UNL     1       8.334  30.137 -38.072  1.00  0.00     0.163 HD
HETATM    4  C2  UNL     1       9.559  28.513 -37.499  1.00  0.00     0.334 C 
HETATM    5  O1  UNL     1      10.085  27.954 -36.508  1.00  0.00    -0.246 OA
HETATM    6  N2  UNL     1       9.767  27.971 -38.819  1.00  0.00    -0.210 N 
HETATM    7  S1  UNL     1      10.618  26.655 -39.416  1.00  0.00    -0.001 SA
HETATM    8  C3  UNL     1       9.974  27.296 -40.860  1.00  0.00     0.053 A 
HETATM    9  C9  UNL     1       9.387  28.273 -40.077  1.00  0.00     0.172 A 
ENDROOT
BRANCH   9  10
HETATM   10  O2  UNL     1       8.573  29.351 -40.487  1.00  0.00    -0.344 OA
ATOM     11  H2  UNL     1       8.855  30.162 -40.894  1.00  0.00     0.219 HD
ENDBRANCH   9  10
BRANCH   8  12
HETATM   12  C4  UNL     1      10.081  26.872 -42.273  1.00  0.00     0.060 C 
BRANCH  12  13
HETATM   13  C5  UNL     1      11.113  27.604 -43.067  1.00  0.00    -0.047 C 
HETATM   14  C6  UNL     1      10.718  29.019 -43.391  1.00  0.00     0.015 C 
HETATM   15  C7  UNL     1      12.429  27.547 -42.323  1.00  0.00     0.015 C 
HETATM   16  C8  UNL     1      11.231  26.886 -44.411  1.00  0.00     0.015 C 
ENDBRANCH  12  13
ENDBRANCH   8  12
TORSDOF 3
ENDMDL
MODEL 2
REMARK VINA RESULT: -4.824108388      2.917      3.629
REMARK  3 active torsions:
REMARK  status: ('A' for Active; 'I' for Inactive)
REMARK       I    between atoms: N1_2  and  C2_4 
REMARK       I    between atoms: C2_4  and  N2_6 
REMARK    1  A    between atoms: C3_8  and  C4_9 
REMARK    2  A    between atoms: C4_9  and  C5_10 
REMARK    3  A    between atoms: C9_14  and  O2_15 
ROOT
HETATM    1  C1  UNL     1       6.548  28.604 -39.783  1.00  0.00     0.151 C 
HETATM    2  N1  UNL     1       7.967  28.435 -39.628  1.00  0.00    -0.346 N 
ATOM      3  H1  UNL     1       8.601  29.196 -39.869  1.00  0.00     0.163 HD
HETATM    4  C2  UNL     1       8.483  27.216 -39.142  1.00  0.00     0.334 C 
HETATM    5  O1  UNL     1       7.678  26.299 -38.855  1.00  0.00    -0.246 OA
HETATM    6  N2  UNL     1       9.899  27.004 -38.969  1.00  0.00    -0.210 N 
HETATM    7  S1  UNL     1      10.825  25.714 -38.430  1.00  0.00    -0.001 SA
HETATM    8  C3  UNL     1      12.044  26.857 -38.773  1.00  0.00     0.053 A 
HETATM    9  C9  UNL     1      11.030  27.714 -39.158  1.00  0.00     0.172 A 
ENDROOT
BRANCH   9  10
HETATM   10  O2  UNL     1      11.136  29.037 -39.640  1.00  0.00    -0.344 OA
ATOM     11  H2  UNL     1      11.470  29.793 -39.171  1.00  0.00     0.219 HD
ENDBRANCH   9  10
BRANCH   8  12
HETATM   12  C4  UNL     1      13.519  26.806 -38.661  1.00  0.00     0.060 C 
BRANCH  12  13
HETATM   13  C5  UNL     1      14.251  27.110 -39.925  1.00  0.00    -0.047 C 
HETATM   14  C6  UNL     1      13.474  26.752 -41.162  1.00  0.00     0.015 C 
HETATM   15  C7  UNL     1      14.648  28.571 -39.917  1.00  0.00     0.015 C 
HETATM   16  C8  UNL     1      15.495  26.223 -39.943  1.00  0.00     0.015 C 
ENDBRANCH  12  13
ENDBRANCH   8  12
TORSDOF 3
ENDMDL
MODEL 3
REMARK VINA RESULT: -4.812468939      1.673      1.976
REMARK  3 active torsions:
REMARK  status: ('A' for Active; 'I' for Inactive)
REMARK       I    between atoms: N1_2  and  C2_4 
REMARK       I    between atoms: C2_4  and  N2_6 
REMARK    1  A    between atoms: C3_8  and  C4_9 
REMARK    2  A    between atoms: C4_9  and  C5_10 
REMARK    3  A    between atoms: C9_14  and  O2_15 
ROOT
HETATM    1  C1  UNL     1       6.978  29.894 -37.671  1.00  0.00     0.151 C 
HETATM    2  N1  UNL     1       7.616  29.632 -38.933  1.00  0.00    -0.346 N 
ATOM      3  H1  UNL     1       7.080  29.698 -39.798  1.00  0.00     0.163 HD
HETATM    4  C2  UNL     1       8.981  29.284 -38.973  1.00  0.00     0.334 C 
HETATM    5  O1  UNL     1       9.611  29.210 -37.891  1.00  0.00    -0.246 OA
HETATM    6  N2  UNL     1       9.661  29.013 -40.215  1.00  0.00    -0.210 N 
HETATM    7  S1  UNL     1      11.233  28.585 -40.613  1.00  0.00    -0.001 SA
HETATM    8  C3  UNL     1      10.520  28.642 -42.162  1.00  0.00     0.053 A 
HETATM    9  C9  UNL     1       9.343  28.990 -41.526  1.00  0.00     0.172 A 
ENDROOT
BRANCH   9  10
HETATM   10  O2  UNL     1       8.084  29.264 -42.103  1.00  0.00    -0.344 OA
ATOM     11  H2  UNL     1       7.908  29.800 -42.868  1.00  0.00     0.219 HD
ENDBRANCH   9  10
BRANCH   8  12
HETATM   12  C4  UNL     1      11.060  28.395 -43.517  1.00  0.00     0.060 C 
BRANCH  12  13
HETATM   13  C5  UNL     1      11.279  26.955 -43.847  1.00  0.00    -0.047 C 
HETATM   14  C6  UNL     1      11.331  26.688 -45.326  1.00  0.00     0.015 C 
HETATM   15  C7  UNL     1      12.536  26.482 -43.148  1.00  0.00     0.015 C 
HETATM   16  C8  UNL     1      10.063  26.190 -43.327  1.00  0.00     0.015 C 
ENDBRANCH  12  13
ENDBRANCH   8  12
TORSDOF 3
ENDMDL
MODEL 4
REMARK VINA RESULT: -4.804486108      2.608      3.262
REMARK  3 active torsions:
REMARK  status: ('A' for Active; 'I' for Inactive)
REMARK       I    between atoms: N1_2  and  C2_4 
REMARK       I    between atoms: C2_4  and  N2_6 
REMARK    1  A    between atoms: C3_8  and  C4_9 
REMARK    2  A    between atoms: C4_9  and  C5_10 
REMARK    3  A    between atoms: C9_14  and  O2_15 
ROOT
HETATM    1  C1  UNL     1       6.424  27.777 -35.001  1.00  0.00     0.151 C 
HETATM    2  N1  UNL     1       7.709  27.616 -35.625  1.00  0.00    -0.346 N 
ATOM      3  H1  UNL     1       8.556  27.876 -35.121  1.00  0.00     0.163 HD
HETATM    4  C2  UNL     1       7.797  27.101 -36.934  1.00  0.00     0.334 C 
HETATM    5  O1  UNL     1       6.737  26.794 -37.528  1.00  0.00    -0.246 OA
HETATM    6  N2  UNL     1       9.065  26.923 -37.598  1.00  0.00    -0.210 N 
HETATM    7  S1  UNL     1       9.519  26.352 -39.108  1.00  0.00    -0.001 SA
HETATM    8  C3  UNL     1      11.044  26.721 -38.439  1.00  0.00     0.053 A 
HETATM    9  C9  UNL     1      10.366  27.127 -37.305  1.00  0.00     0.172 A 
ENDROOT
BRANCH   9  10
HETATM   10  O2  UNL     1      10.899  27.640 -36.103  1.00  0.00    -0.344 OA
ATOM     11  H2  UNL     1      11.020  27.174 -35.284  1.00  0.00     0.219 HD
ENDBRANCH   9  10
BRANCH   8  12
HETATM   12  C4  UNL     1      12.419  26.607 -38.972  1.00  0.00     0.060 C 
BRANCH  12  13
HETATM   13  C5  UNL     1      12.761  27.597 -40.036  1.00  0.00    -0.047 C 
HETATM   14  C6  UNL     1      11.773  28.727 -40.132  1.00  0.00     0.015 C 
HETATM   15  C7  UNL     1      14.168  28.101 -39.796  1.00  0.00     0.015 C 
HETATM   16  C8  UNL     1      12.682  26.859 -41.371  1.00  0.00     0.015 C 
ENDBRANCH  12  13
ENDBRANCH   8  12
TORSDOF 3
ENDMDL
MODEL 5
REMARK VINA RESULT: -4.790202823      2.581      3.545
REMARK  3 active torsions:
REMARK  status: ('A' for Active; 'I' for Inactive)
REMARK       I    between atoms: N1_2  and  C2_4 
REMARK       I    between atoms: C2_4  and  N2_6 
REMARK    1  A    between atoms: C3_8  and  C4_9 
REMARK    2  A    between atoms: C4_9  and  C5_10 
REMARK    3  A    between atoms: C9_14  and  O2_15 
ROOT
HETATM    1  C1  UNL     1       5.776  27.009 -37.681  1.00  0.00     0.151 C 
HETATM    2  N1  UNL     1       7.104  27.435 -38.032  1.00  0.00    -0.346 N 
ATOM      3  H1  UNL     1       7.632  28.033 -37.396  1.00  0.00     0.163 HD
HETATM    4  C2  UNL     1       7.675  27.027 -39.254  1.00  0.00     0.334 C 
HETATM    5  O1  UNL     1       6.999  26.294 -40.014  1.00  0.00    -0.246 OA
HETATM    6  N2  UNL     1       9.003  27.430 -39.646  1.00  0.00    -0.210 N 
HETATM    7  S1  UNL     1       9.960  27.135 -40.991  1.00  0.00    -0.001 SA
HETATM    8  C3  UNL     1      11.003  28.126 -40.073  1.00  0.00     0.053 A 
HETATM    9  C9  UNL     1       9.997  28.179 -39.126  1.00  0.00     0.172 A 
ENDROOT
BRANCH   9  10
HETATM   10  O2  UNL     1       9.995  28.858 -37.888  1.00  0.00    -0.344 OA
ATOM     11  H2  UNL     1      10.568  29.568 -37.622  1.00  0.00     0.219 HD
ENDBRANCH   9  10
BRANCH   8  12
HETATM   12  C4  UNL     1      12.371  28.631 -40.320  1.00  0.00     0.060 C 
BRANCH  12  13
HETATM   13  C5  UNL     1      13.453  27.622 -40.123  1.00  0.00    -0.047 C 
HETATM   14  C6  UNL     1      13.251  26.766 -38.903  1.00  0.00     0.015 C 
HETATM   15  C7  UNL     1      13.573  26.787 -41.380  1.00  0.00     0.015 C 
HETATM   16  C8  UNL     1      14.746  28.400 -39.878  1.00  0.00     0.015 C 
ENDBRANCH  12  13
ENDBRANCH   8  12
TORSDOF 3
ENDMDL
