MODEL 1
REMARK VINA RESULT: -5.285019808      0.000      0.000
REMARK  4 active torsions:
REMARK  status: ('A' for Active; 'I' for Inactive)
REMARK    1  A    between atoms: C2_2  and  C3_3 
REMARK       I    between atoms: C3_3  and  N1_5 
REMARK    2  A    between atoms: N2_7  and  C4_9 
REMARK    3  A    between atoms: C5_11  and  N3_12 
REMARK    4  A    between atoms: C7_17  and  O2_18 
ROOT
HETATM    1  C4  UNL     1      10.086  26.191 -37.470  1.00  0.00     0.143 A 
HETATM    2  S1  UNL     1       9.598  27.361 -36.339  1.00  0.00    -0.031 SA
HETATM    3  C5  UNL     1       7.972  26.879 -36.158  1.00  0.00     0.148 A 
HETATM    4  N4  UNL     1       7.876  25.833 -36.982  1.00  0.00    -0.315 N 
ATOM      5  H4  UNL     1       6.995  25.329 -37.083  1.00  0.00     0.170 HD
HETATM    6  C7  UNL     1       8.934  25.467 -37.656  1.00  0.00     0.178 A 
ENDROOT
BRANCH   1   7
HETATM    7  N2  UNL     1      11.362  25.955 -38.113  1.00  0.00    -0.288 N 
HETATM    8  N1  UNL     1      11.704  26.533 -39.164  1.00  0.00    -0.269 N 
HETATM    9  C3  UNL     1      10.961  27.483 -39.893  1.00  0.00     0.235 C 
ATOM     10  H1  UNL     1      12.623  26.292 -39.537  1.00  0.00     0.190 HD
HETATM   11  O1  UNL     1       9.859  27.861 -39.451  1.00  0.00    -0.272 OA
ATOM     12  H2  UNL     1      12.007  25.289 -37.689  1.00  0.00     0.188 HD
BRANCH   9  13
HETATM   13  C2  UNL     1      11.470  28.027 -41.160  1.00  0.00     0.100 C 
HETATM   14  C1  UNL     1      12.814  27.314 -41.429  1.00  0.00     0.014 C 
ENDBRANCH   9  13
ENDBRANCH   1   7
BRANCH   6  15
HETATM   15  O2  UNL     1       8.936  24.362 -38.569  1.00  0.00    -0.344 OA
ATOM     16  H2  UNL     1       9.255  23.516 -38.278  1.00  0.00     0.219 HD
ENDBRANCH   6  15
BRANCH   3  17
HETATM   17  N3  UNL     1       7.023  27.396 -35.403  1.00  0.00    -0.375 N 
HETATM   18  C6  UNL     1       7.006  28.835 -35.292  1.00  0.00     0.148 C 
ATOM     19  H3  UNL     1       6.338  26.811 -34.923  1.00  0.00     0.161 HD
ENDBRANCH   3  17
TORSDOF 4
ENDMDL
MODEL 2
REMARK VINA RESULT: -5.243565750      1.562      1.872
REMARK  4 active torsions:
REMARK  status: ('A' for Active; 'I' for Inactive)
REMARK    1  A    between atoms: C2_2  and  C3_3 
REMARK       I    between atoms: C3_3  and  N1_5 
REMARK    2  A    between atoms: N2_7  and  C4_9 
REMARK    3  A    between atoms: C5_11  and  N3_12 
REMARK    4  A    between atoms: C7_17  and  O2_18 
ROOT
HETATM    1  C4  UNL     1      10.127  26.534 -37.115  1.00  0.00     0.143 A 
HETATM    2  S1  UNL     1       8.451  26.340 -37.310  1.00  0.00    -0.031 SA
HETATM    3  C5  UNL     1       7.927  27.335 -36.028  1.00  0.00     0.148 A 
HETATM    4  N4  UNL     1       9.073  27.775 -35.502  1.00  0.00    -0.315 N 
ATOM      5  H4  UNL     1       9.070  28.405 -34.700  1.00  0.00     0.170 HD
HETATM    6  C7  UNL     1      10.199  27.382 -36.037  1.00  0.00     0.178 A 
ENDROOT
BRANCH   1   7
HETATM    7  N2  UNL     1      11.247  25.984 -37.851  1.00  0.00    -0.288 N 
HETATM    8  N1  UNL     1      11.728  26.538 -38.860  1.00  0.00    -0.269 N 
HETATM    9  C3  UNL     1      11.305  27.745 -39.450  1.00  0.00     0.235 C 
ATOM     10  H1  UNL     1      12.514  26.064 -39.306  1.00  0.00     0.190 HD
HETATM   11  O1  UNL     1      10.390  28.398 -38.911  1.00  0.00    -0.272 OA
ATOM     12  H2  UNL     1      11.659  25.107 -37.531  1.00  0.00     0.188 HD
BRANCH   9  13
HETATM   13  C2  UNL     1      11.929  28.238 -40.687  1.00  0.00     0.100 C 
HETATM   14  C1  UNL     1      12.900  27.132 -41.154  1.00  0.00     0.014 C 
ENDBRANCH   9  13
ENDBRANCH   1   7
BRANCH   6  15
HETATM   15  O2  UNL     1      11.482  27.792 -35.547  1.00  0.00    -0.344 OA
ATOM     16  H2  UNL     1      11.986  28.433 -36.034  1.00  0.00     0.219 HD
ENDBRANCH   6  15
BRANCH   3  17
HETATM   17  N3  UNL     1       6.702  27.614 -35.629  1.00  0.00    -0.375 N 
HETATM   18  C6  UNL     1       6.539  28.826 -34.863  1.00  0.00     0.148 C 
ATOM     19  H3  UNL     1       5.912  27.007 -35.850  1.00  0.00     0.161 HD
ENDBRANCH   3  17
TORSDOF 4
ENDMDL
MODEL 3
REMARK VINA RESULT: -5.211317926      5.866      7.665
REMARK  4 active torsions:
REMARK  status: ('A' for Active; 'I' for Inactive)
REMARK    1  A    between atoms: C2_2  and  C3_3 
REMARK       I    between atoms: C3_3  and  N1_5 
REMARK    2  A    between atoms: N2_7  and  C4_9 
REMARK    3  A    between atoms: C5_11  and  N3_12 
REMARK    4  A    between atoms: C7_17  and  O2_18 
ROOT
HETATM    1  C4  UNL     1      11.302  27.356 -43.978  1.00  0.00     0.143 A 
HETATM    2  S1  UNL     1      12.416  26.919 -42.771  1.00  0.00    -0.031 SA
HETATM    3  C5  UNL     1      13.223  25.671 -43.608  1.00  0.00     0.148 A 
HETATM    4  N4  UNL     1      12.596  25.646 -44.786  1.00  0.00    -0.315 N 
ATOM      5  H4  UNL     1      12.872  24.981 -45.508  1.00  0.00     0.170 HD
HETATM    6  C7  UNL     1      11.620  26.490 -44.995  1.00  0.00     0.178 A 
ENDROOT
BRANCH   1   7
HETATM    7  N2  UNL     1      10.263  28.364 -44.002  1.00  0.00    -0.288 N 
HETATM    8  N1  UNL     1       9.052  28.087 -43.898  1.00  0.00    -0.269 N 
HETATM    9  C3  UNL     1       8.483  26.807 -43.742  1.00  0.00     0.235 C 
ATOM     10  H1  UNL     1       8.401  28.872 -43.931  1.00  0.00     0.190 HD
HETATM   11  O1  UNL     1       9.233  25.818 -43.632  1.00  0.00    -0.272 OA
ATOM     12  H2  UNL     1      10.534  29.342 -44.108  1.00  0.00     0.188 HD
BRANCH   9  13
HETATM   13  C2  UNL     1       7.024  26.631 -43.705  1.00  0.00     0.100 C 
HETATM   14  C1  UNL     1       6.572  27.047 -42.288  1.00  0.00     0.014 C 
ENDBRANCH   9  13
ENDBRANCH   1   7
BRANCH   6  15
HETATM   15  O2  UNL     1      10.881  26.541 -46.222  1.00  0.00    -0.344 OA
ATOM     16  H2  UNL     1      10.637  27.384 -46.586  1.00  0.00     0.219 HD
ENDBRANCH   6  15
BRANCH   3  17
HETATM   17  N3  UNL     1      14.219  24.904 -43.211  1.00  0.00    -0.375 N 
HETATM   18  C6  UNL     1      15.170  25.505 -42.309  1.00  0.00     0.148 C 
ATOM     19  H3  UNL     1      14.312  23.938 -43.526  1.00  0.00     0.161 HD
ENDBRANCH   3  17
TORSDOF 4
ENDMDL
MODEL 4
REMARK VINA RESULT: -5.063410798      1.400      1.496
REMARK  4 active torsions:
REMARK  status: ('A' for Active; 'I' for Inactive)
REMARK    1  A    between atoms: C2_2  and  C3_3 
REMARK       I    between atoms: C3_3  and  N1_5 
REMARK    2  A    between atoms: N2_7  and  C4_9 
REMARK    3  A    between atoms: C5_11  and  N3_12 
REMARK    4  A    between atoms: C7_17  and  O2_18 
ROOT
HETATM    1  C4  UNL     1       8.880  26.676 -38.886  1.00  0.00     0.143 A 
HETATM    2  S1  UNL     1       8.332  27.911 -37.856  1.00  0.00    -0.031 SA
HETATM    3  C5  UNL     1       7.835  26.946 -36.541  1.00  0.00     0.148 A 
HETATM    4  N4  UNL     1       8.114  25.707 -36.956  1.00  0.00    -0.315 N 
ATOM      5  H4  UNL     1       7.919  24.903 -36.361  1.00  0.00     0.170 HD
HETATM    6  C7  UNL     1       8.644  25.548 -38.140  1.00  0.00     0.178 A 
ENDROOT
BRANCH   1   7
HETATM    7  N2  UNL     1       9.457  26.723 -40.214  1.00  0.00    -0.288 N 
HETATM    8  N1  UNL     1      10.669  26.935 -40.416  1.00  0.00    -0.269 N 
HETATM    9  C3  UNL     1      11.667  27.157 -39.445  1.00  0.00     0.235 C 
ATOM     10  H1  UNL     1      10.972  26.951 -41.389  1.00  0.00     0.190 HD
HETATM   11  O1  UNL     1      11.366  27.087 -38.238  1.00  0.00    -0.272 OA
ATOM     12  H2  UNL     1       8.846  26.574 -41.017  1.00  0.00     0.188 HD
BRANCH   9  13
HETATM   13  C2  UNL     1      13.048  27.466 -39.842  1.00  0.00     0.100 C 
HETATM   14  C1  UNL     1      13.110  27.290 -41.375  1.00  0.00     0.014 C 
ENDBRANCH   9  13
ENDBRANCH   1   7
BRANCH   6  15
HETATM   15  O2  UNL     1       8.977  24.262 -38.680  1.00  0.00    -0.344 OA
ATOM     16  H2  UNL     1       8.907  24.116 -39.616  1.00  0.00     0.219 HD
ENDBRANCH   6  15
BRANCH   3  17
HETATM   17  N3  UNL     1       7.301  27.306 -35.391  1.00  0.00    -0.375 N 
HETATM   18  C6  UNL     1       6.062  28.041 -35.464  1.00  0.00     0.148 C 
ATOM     19  H3  UNL     1       7.739  27.077 -34.498  1.00  0.00     0.161 HD
ENDBRANCH   3  17
TORSDOF 4
ENDMDL
MODEL 5
REMARK VINA RESULT: -5.037063739      1.996      2.188
REMARK  4 active torsions:
REMARK  status: ('A' for Active; 'I' for Inactive)
REMARK    1  A    between atoms: C2_2  and  C3_3 
REMARK       I    between atoms: C3_3  and  N1_5 
REMARK    2  A    between atoms: N2_7  and  C4_9 
REMARK    3  A    between atoms: C5_11  and  N3_12 
REMARK    4  A    between atoms: C7_17  and  O2_18 
ROOT
HETATM    1  C4  UNL     1      10.006  27.155 -38.667  1.00  0.00     0.143 A 
HETATM    2  S1  UNL     1       9.363  28.490 -37.835  1.00  0.00    -0.031 SA
HETATM    3  C5  UNL     1       9.565  27.921 -36.241  1.00  0.00     0.148 A 
HETATM    4  N4  UNL     1      10.122  26.720 -36.420  1.00  0.00    -0.315 N 
ATOM      5  H4  UNL     1      10.361  26.133 -35.620  1.00  0.00     0.170 HD
HETATM    6  C7  UNL     1      10.354  26.312 -37.640  1.00  0.00     0.178 A 
ENDROOT
BRANCH   1   7
HETATM    7  N2  UNL     1      10.177  26.900 -40.082  1.00  0.00    -0.288 N 
HETATM    8  N1  UNL     1      11.273  27.028 -40.663  1.00  0.00    -0.269 N 
HETATM    9  C3  UNL     1      12.499  27.420 -40.089  1.00  0.00     0.235 C 
ATOM     10  H1  UNL     1      11.284  26.826 -41.663  1.00  0.00     0.190 HD
HETATM   11  O1  UNL     1      12.559  27.618 -38.860  1.00  0.00    -0.272 OA
ATOM     12  H2  UNL     1       9.367  26.604 -40.626  1.00  0.00     0.188 HD
BRANCH   9  13
HETATM   13  C2  UNL     1      13.698  27.595 -40.921  1.00  0.00     0.100 C 
HETATM   14  C1  UNL     1      14.795  28.156 -39.989  1.00  0.00     0.014 C 
ENDBRANCH   9  13
ENDBRANCH   1   7
BRANCH   6  15
HETATM   15  O2  UNL     1      10.944  25.041 -37.940  1.00  0.00    -0.344 OA
ATOM     16  H2  UNL     1      11.768  25.007 -38.409  1.00  0.00     0.219 HD
ENDBRANCH   6  15
BRANCH   3  17
HETATM   17  N3  UNL     1       9.253  28.499 -35.098  1.00  0.00    -0.375 N 
HETATM   18  C6  UNL     1       9.297  29.941 -35.077  1.00  0.00     0.148 C 
ATOM     19  H3  UNL     1       8.995  27.956 -34.273  1.00  0.00     0.161 HD
ENDBRANCH   3  17
TORSDOF 4
ENDMDL
