MODEL 1
REMARK VINA RESULT: -6.328794884      0.000      0.000
REMARK  3 active torsions:
REMARK  status: ('A' for Active; 'I' for Inactive)
REMARK    1  A    between atoms: C1_2  and  C2_7 
REMARK    2  A    between atoms: N2_3  and  O1_5 
REMARK    3  A    between atoms: C3_11  and  C4_12 
ROOT
HETATM    1  C2  UNL     1      11.337  26.223 -44.147  1.00  0.00     0.165 A 
HETATM    2  O2  UNL     1      12.335  25.356 -44.263  1.00  0.00    -0.233 OA
HETATM    3  N3  UNL     1      13.317  25.620 -43.502  1.00  0.00    -0.263 N 
ATOM      4  H3  UNL     1      14.181  25.082 -43.437  1.00  0.00     0.194 HD
HETATM    5  C3  UNL     1      13.024  26.737 -42.789  1.00  0.00     0.061 A 
HETATM    6  C9  UNL     1      11.771  27.108 -43.203  1.00  0.00     0.098 A 
HETATM    7 CL1  UNL     1      10.818  28.484 -42.678  1.00  0.00    -0.079 Cl
ENDROOT
BRANCH   1   8
HETATM    8  C1  UNL     1      10.080  26.191 -44.905  1.00  0.00     0.173 C 
HETATM    9  N1  UNL     1       8.899  25.987 -44.153  1.00  0.00    -0.078 NA
HETATM   10  N2  UNL     1      10.080  26.384 -46.150  1.00  0.00    -0.253 N 
ATOM     11  H2  UNL     1       9.209  26.404 -46.679  1.00  0.00     0.195 HD
BRANCH  10  12
HETATM   12  O1  UNL     1      11.311  26.568 -46.779  1.00  0.00    -0.288 OA
ATOM     13  H1  UNL     1      11.451  27.384 -47.246  1.00  0.00     0.244 HD
ENDBRANCH  10  12
ENDBRANCH   1   8
BRANCH   5  14
HETATM   14  C4  UNL     1      13.873  27.395 -41.769  1.00  0.00     0.039 C 
HETATM   15  C5  UNL     1      14.843  26.298 -41.199  1.00  0.00     0.011 C 
HETATM   16  C6  UNL     1      15.525  27.184 -40.169  1.00  0.00     0.001 C 
HETATM   17  C7  UNL     1      14.352  27.941 -39.514  1.00  0.00     0.001 C 
HETATM   18  C8  UNL     1      13.149  27.630 -40.434  1.00  0.00     0.011 C 
ENDBRANCH   5  14
TORSDOF 3
ENDMDL
MODEL 2
REMARK VINA RESULT: -5.937786335      4.704      5.560
REMARK  3 active torsions:
REMARK  status: ('A' for Active; 'I' for Inactive)
REMARK    1  A    between atoms: C1_2  and  C2_7 
REMARK    2  A    between atoms: N2_3  and  O1_5 
REMARK    3  A    between atoms: C3_11  and  C4_12 
ROOT
HETATM    1  C2  UNL     1       8.831  27.129 -38.804  1.00  0.00     0.165 A 
HETATM    2  O2  UNL     1       8.801  28.142 -39.661  1.00  0.00    -0.233 OA
HETATM    3  N3  UNL     1       9.855  28.233 -40.363  1.00  0.00    -0.263 N 
ATOM      4  H3  UNL     1      10.036  28.938 -41.077  1.00  0.00     0.194 HD
HETATM    5  C3  UNL     1      10.702  27.234 -40.005  1.00  0.00     0.061 A 
HETATM    6  C9  UNL     1      10.044  26.542 -39.020  1.00  0.00     0.098 A 
HETATM    7 CL1  UNL     1      10.599  25.141 -38.123  1.00  0.00    -0.079 Cl
ENDROOT
BRANCH   1   8
HETATM    8  C1  UNL     1       7.770  26.780 -37.851  1.00  0.00     0.173 C 
HETATM    9  N1  UNL     1       8.046  27.026 -36.486  1.00  0.00    -0.078 NA
HETATM   10  N2  UNL     1       6.667  26.329 -38.260  1.00  0.00    -0.253 N 
ATOM     11  H2  UNL     1       5.908  26.122 -37.611  1.00  0.00     0.195 HD
BRANCH  10  12
HETATM   12  O1  UNL     1       6.517  26.124 -39.632  1.00  0.00    -0.288 OA
ATOM     13  H1  UNL     1       5.634  26.073 -39.978  1.00  0.00     0.244 HD
ENDBRANCH  10  12
ENDBRANCH   1   8
BRANCH   5  14
HETATM   14  C4  UNL     1      12.039  26.948 -40.574  1.00  0.00     0.039 C 
HETATM   15  C5  UNL     1      12.991  28.114 -40.124  1.00  0.00     0.011 C 
HETATM   16  C6  UNL     1      14.225  27.630 -40.869  1.00  0.00     0.001 C 
HETATM   17  C7  UNL     1      13.678  27.246 -42.259  1.00  0.00     0.001 C 
HETATM   18  C8  UNL     1      12.143  27.269 -42.073  1.00  0.00     0.011 C 
ENDBRANCH   5  14
TORSDOF 3
ENDMDL
MODEL 3
REMARK VINA RESULT: -5.914685665      4.149      4.843
REMARK  3 active torsions:
REMARK  status: ('A' for Active; 'I' for Inactive)
REMARK    1  A    between atoms: C1_2  and  C2_7 
REMARK    2  A    between atoms: N2_3  and  O1_5 
REMARK    3  A    between atoms: C3_11  and  C4_12 
ROOT
HETATM    1  C2  UNL     1       8.941  27.001 -39.133  1.00  0.00     0.165 A 
HETATM    2  O2  UNL     1       9.640  26.050 -38.528  1.00  0.00    -0.233 OA
HETATM    3  N3  UNL     1      10.889  26.135 -38.743  1.00  0.00    -0.263 N 
ATOM      4  H3  UNL     1      11.601  25.505 -38.374  1.00  0.00     0.194 HD
HETATM    5  C3  UNL     1      11.118  27.205 -39.546  1.00  0.00     0.061 A 
HETATM    6  C9  UNL     1       9.881  27.746 -39.785  1.00  0.00     0.098 A 
HETATM    7 CL1  UNL     1       9.479  29.144 -40.764  1.00  0.00    -0.079 Cl
ENDROOT
BRANCH   1   8
HETATM    8  C1  UNL     1       7.481  27.155 -39.086  1.00  0.00     0.173 C 
HETATM    9  N1  UNL     1       6.994  28.328 -38.463  1.00  0.00    -0.078 NA
HETATM   10  N2  UNL     1       6.731  26.295 -39.620  1.00  0.00    -0.253 N 
ATOM     11  H2  UNL     1       5.718  26.413 -39.629  1.00  0.00     0.195 HD
BRANCH  10  12
HETATM   12  O1  UNL     1       7.332  25.178 -40.199  1.00  0.00    -0.288 OA
ATOM     13  H1  UNL     1       7.062  24.320 -39.891  1.00  0.00     0.244 HD
ENDBRANCH  10  12
ENDBRANCH   1   8
BRANCH   5  14
HETATM   14  C4  UNL     1      12.429  27.690 -40.037  1.00  0.00     0.039 C 
HETATM   15  C5  UNL     1      12.739  26.913 -41.367  1.00  0.00     0.011 C 
HETATM   16  C6  UNL     1      14.110  27.523 -41.611  1.00  0.00     0.001 C 
HETATM   17  C7  UNL     1      14.780  27.468 -40.224  1.00  0.00     0.001 C 
HETATM   18  C8  UNL     1      13.622  27.104 -39.266  1.00  0.00     0.011 C 
ENDBRANCH   5  14
TORSDOF 3
ENDMDL
MODEL 4
REMARK VINA RESULT: -5.870288310      3.881      4.688
REMARK  3 active torsions:
REMARK  status: ('A' for Active; 'I' for Inactive)
REMARK    1  A    between atoms: C1_2  and  C2_7 
REMARK    2  A    between atoms: N2_3  and  O1_5 
REMARK    3  A    between atoms: C3_11  and  C4_12 
ROOT
HETATM    1  C2  UNL     1      10.178  28.714 -40.490  1.00  0.00     0.165 A 
HETATM    2  O2  UNL     1      10.357  29.185 -41.717  1.00  0.00    -0.233 OA
HETATM    3  N3  UNL     1      11.215  28.528 -42.384  1.00  0.00    -0.263 N 
ATOM      4  H3  UNL     1      11.500  28.723 -43.343  1.00  0.00     0.194 HD
HETATM    5  C3  UNL     1      11.689  27.521 -41.607  1.00  0.00     0.061 A 
HETATM    6  C9  UNL     1      11.026  27.647 -40.413  1.00  0.00     0.098 A 
HETATM    7 CL1  UNL     1      11.191  26.662 -38.971  1.00  0.00    -0.079 Cl
ENDROOT
BRANCH   1   8
HETATM    8  C1  UNL     1       9.267  29.270 -39.481  1.00  0.00     0.173 C 
HETATM    9  N1  UNL     1       9.861  29.714 -38.277  1.00  0.00    -0.078 NA
HETATM   10  N2  UNL     1       8.035  29.374 -39.722  1.00  0.00    -0.253 N 
ATOM     11  H2  UNL     1       7.400  29.796 -39.045  1.00  0.00     0.195 HD
BRANCH  10  12
HETATM   12  O1  UNL     1       7.569  28.894 -40.946  1.00  0.00    -0.288 OA
ATOM     13  H1  UNL     1       7.338  29.530 -41.612  1.00  0.00     0.244 HD
ENDBRANCH  10  12
ENDBRANCH   1   8
BRANCH   5  14
HETATM   14  C4  UNL     1      12.693  26.498 -41.982  1.00  0.00     0.039 C 
HETATM   15  C5  UNL     1      14.110  27.132 -41.741  1.00  0.00     0.011 C 
HETATM   16  C6  UNL     1      14.920  25.950 -42.249  1.00  0.00     0.001 C 
HETATM   17  C7  UNL     1      14.194  25.550 -43.550  1.00  0.00     0.001 C 
HETATM   18  C8  UNL     1      12.874  26.353 -43.501  1.00  0.00     0.011 C 
ENDBRANCH   5  14
TORSDOF 3
ENDMDL
MODEL 5
REMARK VINA RESULT: -5.853097862      5.285      6.398
REMARK  3 active torsions:
REMARK  status: ('A' for Active; 'I' for Inactive)
REMARK    1  A    between atoms: C1_2  and  C2_7 
REMARK    2  A    between atoms: N2_3  and  O1_5 
REMARK    3  A    between atoms: C3_11  and  C4_12 
ROOT
HETATM    1  C2  UNL     1       9.696  27.768 -37.808  1.00  0.00     0.165 A 
HETATM    2  O2  UNL     1       9.877  28.924 -38.433  1.00  0.00    -0.233 OA
HETATM    3  N3  UNL     1      10.652  28.834 -39.435  1.00  0.00    -0.263 N 
ATOM      4  H3  UNL     1      10.923  29.601 -40.049  1.00  0.00     0.194 HD
HETATM    5  C3  UNL     1      11.059  27.544 -39.553  1.00  0.00     0.061 A 
HETATM    6  C9  UNL     1      10.448  26.880 -38.521  1.00  0.00     0.098 A 
HETATM    7 CL1  UNL     1      10.569  25.182 -38.101  1.00  0.00    -0.079 Cl
ENDROOT
BRANCH   1   8
HETATM    8  C1  UNL     1       8.870  27.560 -36.611  1.00  0.00     0.173 C 
HETATM    9  N1  UNL     1       7.700  26.784 -36.784  1.00  0.00    -0.078 NA
HETATM   10  N2  UNL     1       9.235  28.020 -35.497  1.00  0.00    -0.253 N 
ATOM     11  H2  UNL     1       8.690  27.846 -34.652  1.00  0.00     0.195 HD
BRANCH  10  12
HETATM   12  O1  UNL     1      10.407  28.774 -35.456  1.00  0.00    -0.288 OA
ATOM     13  H1  UNL     1      11.102  28.482 -34.878  1.00  0.00     0.244 HD
ENDBRANCH  10  12
ENDBRANCH   1   8
BRANCH   5  14
HETATM   14  C4  UNL     1      11.955  26.980 -40.589  1.00  0.00     0.039 C 
HETATM   15  C5  UNL     1      13.341  27.706 -40.445  1.00  0.00     0.011 C 
HETATM   16  C6  UNL     1      14.021  27.020 -41.619  1.00  0.00     0.001 C 
HETATM   17  C7  UNL     1      12.957  27.076 -42.733  1.00  0.00     0.001 C 
HETATM   18  C8  UNL     1      11.673  27.523 -41.998  1.00  0.00     0.011 C 
ENDBRANCH   5  14
TORSDOF 3
ENDMDL
