MODEL 1
REMARK VINA RESULT: -7.031943320      0.000      0.000
REMARK  8 active torsions:
REMARK  status: ('A' for Active; 'I' for Inactive)
REMARK    1  A    between atoms: C1_2  and  C2_4 
REMARK    2  A    between atoms: C2_4  and  O4_6 
REMARK    3  A    between atoms: O4_6  and  C3_7 
REMARK    4  A    between atoms: C7_11  and  C8_12 
REMARK    5  A    between atoms: C8_12  and  O5_13 
REMARK    6  A    between atoms: N1_15  and  O6_17 
REMARK    7  A    between atoms: C9_22  and  O7_23 
REMARK    8  A    between atoms: N3_26  and  O8_28 
ROOT
HETATM    1  C3  UNL     1      30.507   5.455   6.012  1.00  0.00     0.156 C 
HETATM    2  C4  UNL     1      31.434   4.467   6.660  1.00  0.00     0.035 C 
HETATM    3  C5  UNL     1      31.705   4.933   8.074  1.00  0.00     0.005 C 
HETATM    4  C6  UNL     1      31.125   3.958   9.093  1.00  0.00     0.042 C 
HETATM    5  C7  UNL     1      30.439   4.712  10.231  1.00  0.00     0.265 C 
HETATM    6  N2  UNL     1      29.256   4.009  10.683  1.00  0.00    -0.032 N 
ATOM      7  H21 UNL     1      29.156   4.026  11.698  1.00  0.00     0.281 HD
ATOM      8  H22 UNL     1      29.335   2.998  10.566  1.00  0.00     0.281 HD
HETATM    9  C9  UNL     1      28.099   4.554  10.005  1.00  0.00     0.368 C 
HETATM   10  C10 UNL     1      27.103   3.521   9.624  1.00  0.00     0.067 C 
HETATM   11  N3  UNL     1      26.964   2.456  10.307  1.00  0.00    -0.273 N 
ATOM     12  H3  UNL     1      26.270   1.768  10.015  1.00  0.00     0.193 HD
HETATM   13  C11 UNL     1      26.256   3.758   8.410  1.00  0.00     0.079 C 
HETATM   14  C12 UNL     1      27.179   4.048   7.276  1.00  0.00     0.126 C 
HETATM   15  N4  UNL     1      26.628   3.709   5.980  1.00  0.00    -0.387 N 
ATOM     16  H4  UNL     1      25.803   4.228   5.680  1.00  0.00     0.159 HD
HETATM   17  C13 UNL     1      27.130   2.724   5.087  1.00  0.00     0.061 A 
HETATM   18  C14 UNL     1      26.216   1.822   4.584  1.00  0.00     0.032 A 
HETATM   19  C15 UNL     1      26.548   0.779   3.722  1.00  0.00     0.002 A 
HETATM   20  C16 UNL     1      27.856   0.635   3.349  1.00  0.00     0.003 A 
HETATM   21  C17 UNL     1      28.772   1.531   3.846  1.00  0.00     0.039 A 
HETATM   22  C18 UNL     1      28.453   2.588   4.715  1.00  0.00     0.095 A 
HETATM   23  O9  UNL     1      29.446   3.446   5.160  1.00  0.00    -0.346 OA
HETATM   24  C19 UNL     1      29.587   4.821   4.997  1.00  0.00     0.208 C 
ENDROOT
BRANCH   5  25
HETATM   25  C8  UNL     1      31.401   4.856  11.361  1.00  0.00     0.167 C 
HETATM   26  N1  UNL     1      31.009   5.366  12.471  1.00  0.00    -0.249 N 
ATOM     27  H1  UNL     1      31.682   5.458  13.232  1.00  0.00     0.196 HD
BRANCH  25  28
HETATM   28  O5  UNL     1      32.709   4.453  11.240  1.00  0.00    -0.347 OA
ATOM     29  H5  UNL     1      33.421   4.978  11.584  1.00  0.00     0.219 HD
ENDBRANCH  25  28
BRANCH  26  30
HETATM   30  O6  UNL     1      29.735   5.790  12.674  1.00  0.00    -0.288 OA
ATOM     31  H6  UNL     1      29.436   6.136  13.507  1.00  0.00     0.244 HD
ENDBRANCH  26  30
ENDBRANCH   5  25
BRANCH   9  32
HETATM   32  O7  UNL     1      27.421   5.471  10.842  1.00  0.00    -0.365 OA
ATOM     33  H7  UNL     1      27.628   6.364  10.593  1.00  0.00     0.212 HD
ENDBRANCH   9  32
BRANCH   1  34
HETATM   34  O4  UNL     1      31.163   6.535   5.423  1.00  0.00    -0.305 OA
BRANCH  34  35
HETATM   35  C2  UNL     1      30.931   7.861   5.663  1.00  0.00     0.360 C 
HETATM   36  O3  UNL     1      30.127   8.456   4.902  1.00  0.00    -0.252 OA
BRANCH  35  37
HETATM   37  C1  UNL     1      31.609   8.519   6.765  1.00  0.00     0.277 C 
HETATM   38  O1  UNL     1      30.993   9.335   7.479  1.00  0.00    -0.640 OA
HETATM   39  O2  UNL     1      32.964   8.211   6.996  1.00  0.00    -0.640 OA
ENDBRANCH  35  37
ENDBRANCH  34  35
ENDBRANCH   1  34
BRANCH  11  40
HETATM   40  O8  UNL     1      27.715   2.205  11.418  1.00  0.00    -0.290 OA
ATOM     41  H8  UNL     1      27.503   1.503  12.022  1.00  0.00     0.244 HD
ENDBRANCH  11  40
TORSDOF 8
ENDMDL
MODEL 2
REMARK VINA RESULT: -6.976808499      1.126      1.713
REMARK  8 active torsions:
REMARK  status: ('A' for Active; 'I' for Inactive)
REMARK    1  A    between atoms: C1_2  and  C2_4 
REMARK    2  A    between atoms: C2_4  and  O4_6 
REMARK    3  A    between atoms: O4_6  and  C3_7 
REMARK    4  A    between atoms: C7_11  and  C8_12 
REMARK    5  A    between atoms: C8_12  and  O5_13 
REMARK    6  A    between atoms: N1_15  and  O6_17 
REMARK    7  A    between atoms: C9_22  and  O7_23 
REMARK    8  A    between atoms: N3_26  and  O8_28 
ROOT
HETATM    1  C3  UNL     1      30.531   5.400   5.987  1.00  0.00     0.156 C 
HETATM    2  C4  UNL     1      31.446   4.406   6.644  1.00  0.00     0.035 C 
HETATM    3  C5  UNL     1      31.716   4.877   8.056  1.00  0.00     0.005 C 
HETATM    4  C6  UNL     1      31.123   3.914   9.078  1.00  0.00     0.042 C 
HETATM    5  C7  UNL     1      30.439   4.680  10.209  1.00  0.00     0.265 C 
HETATM    6  N2  UNL     1      29.247   3.990  10.660  1.00  0.00    -0.032 N 
ATOM      7  H21 UNL     1      29.144   4.014  11.675  1.00  0.00     0.281 HD
ATOM      8  H22 UNL     1      29.318   2.979  10.549  1.00  0.00     0.281 HD
HETATM    9  C9  UNL     1      28.099   4.543   9.975  1.00  0.00     0.368 C 
HETATM   10  C10 UNL     1      27.094   3.517   9.595  1.00  0.00     0.067 C 
HETATM   11  N3  UNL     1      26.942   2.457  10.283  1.00  0.00    -0.273 N 
ATOM     12  H3  UNL     1      26.243   1.775   9.992  1.00  0.00     0.193 HD
HETATM   13  C11 UNL     1      26.255   3.755   8.377  1.00  0.00     0.079 C 
HETATM   14  C12 UNL     1      27.185   4.030   7.245  1.00  0.00     0.126 C 
HETATM   15  N4  UNL     1      26.637   3.690   5.949  1.00  0.00    -0.387 N 
ATOM     16  H4  UNL     1      25.817   4.215   5.642  1.00  0.00     0.159 HD
HETATM   17  C13 UNL     1      27.132   2.695   5.063  1.00  0.00     0.061 A 
HETATM   18  C14 UNL     1      26.212   1.799   4.560  1.00  0.00     0.032 A 
HETATM   19  C15 UNL     1      26.538   0.749   3.706  1.00  0.00     0.002 A 
HETATM   20  C16 UNL     1      27.846   0.590   3.338  1.00  0.00     0.003 A 
HETATM   21  C17 UNL     1      28.768   1.481   3.835  1.00  0.00     0.039 A 
HETATM   22  C18 UNL     1      28.456   2.545   4.696  1.00  0.00     0.095 A 
HETATM   23  O9  UNL     1      29.454   3.396   5.141  1.00  0.00    -0.346 OA
HETATM   24  C19 UNL     1      29.609   4.768   4.971  1.00  0.00     0.208 C 
ENDROOT
BRANCH   5  25
HETATM   25  C8  UNL     1      31.398   4.821  11.342  1.00  0.00     0.167 C 
HETATM   26  N1  UNL     1      31.008   5.345  12.447  1.00  0.00    -0.249 N 
ATOM     27  H1  UNL     1      31.678   5.435  13.210  1.00  0.00     0.196 HD
BRANCH  25  28
HETATM   28  O5  UNL     1      32.701   4.400  11.231  1.00  0.00    -0.347 OA
ATOM     29  H5  UNL     1      33.209   4.158  11.996  1.00  0.00     0.219 HD
ENDBRANCH  25  28
BRANCH  26  30
HETATM   30  O6  UNL     1      29.738   5.786  12.641  1.00  0.00    -0.288 OA
ATOM     31  H6  UNL     1      29.003   5.197  12.762  1.00  0.00     0.244 HD
ENDBRANCH  26  30
ENDBRANCH   5  25
BRANCH   9  32
HETATM   32  O7  UNL     1      27.426   5.471  10.804  1.00  0.00    -0.365 OA
ATOM     33  H7  UNL     1      26.965   5.019  11.501  1.00  0.00     0.212 HD
ENDBRANCH   9  32
BRANCH   1  34
HETATM   34  O4  UNL     1      31.200   6.470   5.395  1.00  0.00    -0.305 OA
BRANCH  34  35
HETATM   35  C2  UNL     1      32.522   6.514   5.047  1.00  0.00     0.360 C 
HETATM   36  O3  UNL     1      33.326   6.999   5.885  1.00  0.00    -0.252 OA
BRANCH  35  37
HETATM   37  C1  UNL     1      32.940   6.012   3.752  1.00  0.00     0.277 C 
HETATM   38  O1  UNL     1      32.705   4.830   3.434  1.00  0.00    -0.640 OA
HETATM   39  O2  UNL     1      33.613   6.891   2.880  1.00  0.00    -0.640 OA
ENDBRANCH  35  37
ENDBRANCH  34  35
ENDBRANCH   1  34
BRANCH  11  40
HETATM   40  O8  UNL     1      27.687   2.205  11.398  1.00  0.00    -0.290 OA
ATOM     41  H8  UNL     1      27.288   1.974  12.229  1.00  0.00     0.244 HD
ENDBRANCH  11  40
TORSDOF 8
ENDMDL
MODEL 3
REMARK VINA RESULT: -6.563368466      2.970      6.216
REMARK  8 active torsions:
REMARK  status: ('A' for Active; 'I' for Inactive)
REMARK    1  A    between atoms: C1_2  and  C2_4 
REMARK    2  A    between atoms: C2_4  and  O4_6 
REMARK    3  A    between atoms: O4_6  and  C3_7 
REMARK    4  A    between atoms: C7_11  and  C8_12 
REMARK    5  A    between atoms: C8_12  and  O5_13 
REMARK    6  A    between atoms: N1_15  and  O6_17 
REMARK    7  A    between atoms: C9_22  and  O7_23 
REMARK    8  A    between atoms: N3_26  and  O8_28 
ROOT
HETATM    1  C3  UNL     1      31.183   5.361   5.283  1.00  0.00     0.156 C 
HETATM    2  C4  UNL     1      30.435   6.664   5.317  1.00  0.00     0.035 C 
HETATM    3  C5  UNL     1      28.959   6.362   5.178  1.00  0.00     0.005 C 
HETATM    4  C6  UNL     1      28.203   6.729   6.451  1.00  0.00     0.042 C 
HETATM    5  C7  UNL     1      27.189   5.644   6.809  1.00  0.00     0.265 C 
HETATM    6  N2  UNL     1      27.097   5.470   8.244  1.00  0.00    -0.032 N 
ATOM      7  H21 UNL     1      26.137   5.332   8.559  1.00  0.00     0.281 HD
ATOM      8  H22 UNL     1      27.290   6.333   8.754  1.00  0.00     0.281 HD
HETATM    9  C9  UNL     1      27.970   4.387   8.642  1.00  0.00     0.368 C 
HETATM   10  C10 UNL     1      28.672   4.642   9.926  1.00  0.00     0.067 C 
HETATM   11  N3  UNL     1      28.147   5.366  10.831  1.00  0.00    -0.273 N 
ATOM     12  H3  UNL     1      28.659   5.520  11.699  1.00  0.00     0.193 HD
HETATM   13  C11 UNL     1      30.021   4.024  10.137  1.00  0.00     0.079 C 
HETATM   14  C12 UNL     1      30.875   4.417   8.980  1.00  0.00     0.126 C 
HETATM   15  N4  UNL     1      32.290   4.442   9.285  1.00  0.00    -0.387 N 
ATOM     16  H4  UNL     1      32.723   3.553   9.538  1.00  0.00     0.159 HD
HETATM   17  C13 UNL     1      33.132   5.586   9.267  1.00  0.00     0.061 A 
HETATM   18  C14 UNL     1      33.921   5.793  10.379  1.00  0.00     0.032 A 
HETATM   19  C15 UNL     1      34.777   6.881  10.531  1.00  0.00     0.002 A 
HETATM   20  C16 UNL     1      34.847   7.801   9.522  1.00  0.00     0.003 A 
HETATM   21  C17 UNL     1      34.065   7.600   8.410  1.00  0.00     0.039 A 
HETATM   22  C18 UNL     1      33.197   6.509   8.241  1.00  0.00     0.095 A 
HETATM   23  O9  UNL     1      32.450   6.388   7.080  1.00  0.00    -0.346 OA
HETATM   24  C19 UNL     1      32.442   5.384   6.116  1.00  0.00     0.208 C 
ENDROOT
BRANCH   5  25
HETATM   25  C8  UNL     1      25.858   6.032   6.262  1.00  0.00     0.167 C 
HETATM   26  N1  UNL     1      24.903   5.173   6.238  1.00  0.00    -0.249 N 
ATOM     27  H1  UNL     1      24.000   5.456   5.859  1.00  0.00     0.196 HD
BRANCH  25  28
HETATM   28  O5  UNL     1      25.625   7.296   5.777  1.00  0.00    -0.347 OA
ATOM     29  H5  UNL     1      24.795   7.526   5.378  1.00  0.00     0.219 HD
ENDBRANCH  25  28
BRANCH  26  30
HETATM   30  O6  UNL     1      25.048   3.903   6.697  1.00  0.00    -0.288 OA
ATOM     31  H6  UNL     1      24.621   3.158   6.290  1.00  0.00     0.244 HD
ENDBRANCH  26  30
ENDBRANCH   5  25
BRANCH   9  32
HETATM   32  O7  UNL     1      27.230   3.195   8.823  1.00  0.00    -0.365 OA
ATOM     33  H7  UNL     1      27.274   2.911   9.729  1.00  0.00     0.212 HD
ENDBRANCH   9  32
BRANCH   1  34
HETATM   34  O4  UNL     1      31.494   4.928   3.995  1.00  0.00    -0.305 OA
BRANCH  34  35
HETATM   35  C2  UNL     1      31.798   5.717   2.920  1.00  0.00     0.360 C 
HETATM   36  O3  UNL     1      30.868   5.983   2.115  1.00  0.00    -0.252 OA
BRANCH  35  37
HETATM   37  C1  UNL     1      33.153   6.207   2.749  1.00  0.00     0.277 C 
HETATM   38  O1  UNL     1      33.981   5.542   2.096  1.00  0.00    -0.640 OA
HETATM   39  O2  UNL     1      33.497   7.440   3.339  1.00  0.00    -0.640 OA
ENDBRANCH  35  37
ENDBRANCH  34  35
ENDBRANCH   1  34
BRANCH  11  40
HETATM   40  O8  UNL     1      26.922   5.944  10.675  1.00  0.00    -0.290 OA
ATOM     41  H8  UNL     1      26.320   6.056  11.402  1.00  0.00     0.244 HD
ENDBRANCH  11  40
TORSDOF 8
ENDMDL
MODEL 4
REMARK VINA RESULT: -6.429918461      2.975      7.892
REMARK  8 active torsions:
REMARK  status: ('A' for Active; 'I' for Inactive)
REMARK    1  A    between atoms: C1_2  and  C2_4 
REMARK    2  A    between atoms: C2_4  and  O4_6 
REMARK    3  A    between atoms: O4_6  and  C3_7 
REMARK    4  A    between atoms: C7_11  and  C8_12 
REMARK    5  A    between atoms: C8_12  and  O5_13 
REMARK    6  A    between atoms: N1_15  and  O6_17 
REMARK    7  A    between atoms: C9_22  and  O7_23 
REMARK    8  A    between atoms: N3_26  and  O8_28 
ROOT
HETATM    1  C3  UNL     1      29.965   4.472   9.649  1.00  0.00     0.156 C 
HETATM    2  C4  UNL     1      30.294   3.552   8.509  1.00  0.00     0.035 C 
HETATM    3  C5  UNL     1      29.535   4.025   7.288  1.00  0.00     0.005 C 
HETATM    4  C6  UNL     1      30.490   4.524   6.209  1.00  0.00     0.042 C 
HETATM    5  C7  UNL     1      29.968   5.815   5.580  1.00  0.00     0.265 C 
HETATM    6  N2  UNL     1      31.056   6.717   5.262  1.00  0.00    -0.032 N 
ATOM      7  H21 UNL     1      30.925   7.185   4.365  1.00  0.00     0.281 HD
ATOM      8  H22 UNL     1      31.919   6.221   5.037  1.00  0.00     0.281 HD
HETATM    9  C9  UNL     1      31.225   7.652   6.354  1.00  0.00     0.368 C 
HETATM   10  C10 UNL     1      32.648   7.960   6.646  1.00  0.00     0.067 C 
HETATM   11  N3  UNL     1      33.531   7.926   5.731  1.00  0.00    -0.273 N 
ATOM     12  H3  UNL     1      34.498   8.143   5.969  1.00  0.00     0.193 HD
HETATM   13  C11 UNL     1      33.027   8.316   8.052  1.00  0.00     0.079 C 
HETATM   14  C12 UNL     1      32.529   7.223   8.936  1.00  0.00     0.126 C 
HETATM   15  N4  UNL     1      33.286   7.079  10.161  1.00  0.00    -0.387 N 
ATOM     16  H4  UNL     1      33.265   7.864  10.813  1.00  0.00     0.159 HD
HETATM   17  C13 UNL     1      34.057   5.947  10.543  1.00  0.00     0.061 A 
HETATM   18  C14 UNL     1      35.347   6.190  10.966  1.00  0.00     0.032 A 
HETATM   19  C15 UNL     1      36.240   5.191  11.346  1.00  0.00     0.002 A 
HETATM   20  C16 UNL     1      35.821   3.890  11.299  1.00  0.00     0.003 A 
HETATM   21  C17 UNL     1      34.536   3.641  10.879  1.00  0.00     0.039 A 
HETATM   22  C18 UNL     1      33.623   4.636  10.494  1.00  0.00     0.095 A 
HETATM   23  O9  UNL     1      32.344   4.289  10.089  1.00  0.00    -0.346 OA
HETATM   24  C19 UNL     1      31.106   4.632  10.624  1.00  0.00     0.208 C 
ENDROOT
BRANCH   5  25
HETATM   25  C8  UNL     1      29.216   5.475   4.338  1.00  0.00     0.167 C 
HETATM   26  N1  UNL     1      28.496   6.369   3.764  1.00  0.00    -0.249 N 
ATOM     27  H1  UNL     1      27.987   6.117   2.917  1.00  0.00     0.196 HD
BRANCH  25  28
HETATM   28  O5  UNL     1      29.276   4.217   3.790  1.00  0.00    -0.347 OA
ATOM     29  H5  UNL     1      28.520   3.642   3.790  1.00  0.00     0.219 HD
ENDBRANCH  25  28
BRANCH  26  30
HETATM   30  O6  UNL     1      28.382   7.636   4.240  1.00  0.00    -0.288 OA
ATOM     31  H6  UNL     1      28.253   8.387   3.673  1.00  0.00     0.244 HD
ENDBRANCH  26  30
ENDBRANCH   5  25
BRANCH   9  32
HETATM   32  O7  UNL     1      30.605   8.886   6.049  1.00  0.00    -0.365 OA
ATOM     33  H7  UNL     1      30.886   9.559   6.658  1.00  0.00     0.212 HD
ENDBRANCH   9  32
BRANCH   1  34
HETATM   34  O4  UNL     1      28.814   4.109  10.347  1.00  0.00    -0.305 OA
BRANCH  34  35
HETATM   35  C2  UNL     1      27.521   4.335   9.963  1.00  0.00     0.360 C 
HETATM   36  O3  UNL     1      27.119   5.527   9.956  1.00  0.00    -0.252 OA
BRANCH  35  37
HETATM   37  C1  UNL     1      26.678   3.216   9.587  1.00  0.00     0.277 C 
HETATM   38  O1  UNL     1      26.053   3.238   8.509  1.00  0.00    -0.640 OA
HETATM   39  O2  UNL     1      26.589   2.121  10.470  1.00  0.00    -0.640 OA
ENDBRANCH  35  37
ENDBRANCH  34  35
ENDBRANCH   1  34
BRANCH  11  40
HETATM   40  O8  UNL     1      33.224   7.607   4.441  1.00  0.00    -0.290 OA
ATOM     41  H8  UNL     1      33.709   7.962   3.705  1.00  0.00     0.244 HD
ENDBRANCH  11  40
TORSDOF 8
ENDMDL
MODEL 5
REMARK VINA RESULT: -6.282070975      3.310      7.562
REMARK  8 active torsions:
REMARK  status: ('A' for Active; 'I' for Inactive)
REMARK    1  A    between atoms: C1_2  and  C2_4 
REMARK    2  A    between atoms: C2_4  and  O4_6 
REMARK    3  A    between atoms: O4_6  and  C3_7 
REMARK    4  A    between atoms: C7_11  and  C8_12 
REMARK    5  A    between atoms: C8_12  and  O5_13 
REMARK    6  A    between atoms: N1_15  and  O6_17 
REMARK    7  A    between atoms: C9_22  and  O7_23 
REMARK    8  A    between atoms: N3_26  and  O8_28 
ROOT
HETATM    1  C3  UNL     1      28.969   5.321   7.984  1.00  0.00     0.156 C 
HETATM    2  C4  UNL     1      28.891   3.845   7.717  1.00  0.00     0.035 C 
HETATM    3  C5  UNL     1      28.181   3.642   6.397  1.00  0.00     0.005 C 
HETATM    4  C6  UNL     1      29.120   3.045   5.355  1.00  0.00     0.042 C 
HETATM    5  C7  UNL     1      28.936   3.735   4.004  1.00  0.00     0.265 C 
HETATM    6  N2  UNL     1      30.201   3.867   3.310  1.00  0.00    -0.032 N 
ATOM      7  H21 UNL     1      30.118   3.681   2.311  1.00  0.00     0.281 HD
ATOM      8  H22 UNL     1      30.852   3.116   3.541  1.00  0.00     0.281 HD
HETATM    9  C9  UNL     1      30.750   5.178   3.584  1.00  0.00     0.368 C 
HETATM   10  C10 UNL     1      32.224   5.168   3.769  1.00  0.00     0.067 C 
HETATM   11  N3  UNL     1      32.956   4.310   3.180  1.00  0.00    -0.273 N 
ATOM     12  H3  UNL     1      33.964   4.333   3.332  1.00  0.00     0.193 HD
HETATM   13  C11 UNL     1      32.838   6.195   4.671  1.00  0.00     0.079 C 
HETATM   14  C12 UNL     1      32.137   6.107   5.985  1.00  0.00     0.126 C 
HETATM   15  N4  UNL     1      32.944   6.551   7.102  1.00  0.00    -0.387 N 
ATOM     16  H4  UNL     1      33.223   7.532   7.110  1.00  0.00     0.159 HD
HETATM   17  C13 UNL     1      33.385   5.749   8.189  1.00  0.00     0.061 A 
HETATM   18  C14 UNL     1      34.727   5.812   8.502  1.00  0.00     0.032 A 
HETATM   19  C15 UNL     1      35.322   5.068   9.518  1.00  0.00     0.002 A 
HETATM   20  C16 UNL     1      34.537   4.223  10.253  1.00  0.00     0.003 A 
HETATM   21  C17 UNL     1      33.199   4.156   9.947  1.00  0.00     0.039 A 
HETATM   22  C18 UNL     1      32.583   4.899   8.927  1.00  0.00     0.095 A 
HETATM   23  O9  UNL     1      31.223   4.769   8.695  1.00  0.00    -0.346 OA
HETATM   24  C19 UNL     1      30.204   5.714   8.759  1.00  0.00     0.208 C 
ENDROOT
BRANCH   5  25
HETATM   25  C8  UNL     1      27.991   2.930   3.179  1.00  0.00     0.167 C 
HETATM   26  N1  UNL     1      27.519   3.419   2.089  1.00  0.00    -0.249 N 
ATOM     27  H1  UNL     1      26.873   2.855   1.539  1.00  0.00     0.196 HD
BRANCH  25  28
HETATM   28  O5  UNL     1      27.607   1.667   3.560  1.00  0.00    -0.347 OA
ATOM     29  H5  UNL     1      26.729   1.346   3.391  1.00  0.00     0.219 HD
ENDBRANCH  25  28
BRANCH  26  30
HETATM   30  O6  UNL     1      27.846   4.659   1.640  1.00  0.00    -0.288 OA
ATOM     31  H6  UNL     1      27.283   5.160   1.063  1.00  0.00     0.244 HD
ENDBRANCH  26  30
ENDBRANCH   5  25
BRANCH   9  32
HETATM   32  O7  UNL     1      30.491   6.058   2.507  1.00  0.00    -0.365 OA
ATOM     33  H7  UNL     1      31.063   5.864   1.774  1.00  0.00     0.212 HD
ENDBRANCH   9  32
BRANCH   1  34
HETATM   34  O4  UNL     1      27.843   5.833   8.626  1.00  0.00    -0.305 OA
BRANCH  34  35
HETATM   35  C2  UNL     1      26.965   6.753   8.123  1.00  0.00     0.360 C 
HETATM   36  O3  UNL     1      26.942   6.911   6.876  1.00  0.00    -0.252 OA
BRANCH  35  37
HETATM   37  C1  UNL     1      26.109   7.497   9.029  1.00  0.00     0.277 C 
HETATM   38  O1  UNL     1      26.122   7.246  10.250  1.00  0.00    -0.640 OA
HETATM   39  O2  UNL     1      25.274   8.496   8.490  1.00  0.00    -0.640 OA
ENDBRANCH  35  37
ENDBRANCH  34  35
ENDBRANCH   1  34
BRANCH  11  40
HETATM   40  O8  UNL     1      32.435   3.360   2.352  1.00  0.00    -0.290 OA
ATOM     41  H8  UNL     1      32.965   2.906   1.707  1.00  0.00     0.244 HD
ENDBRANCH  11  40
TORSDOF 8
ENDMDL
