MODEL 1
REMARK VINA RESULT: -9.045517240      0.000      0.000
REMARK  8 active torsions:
REMARK  status: ('A' for Active; 'I' for Inactive)
REMARK    1  A    between atoms: C6_6  and  N1_7 
REMARK    2  A    between atoms: N1_7  and  C7_9 
REMARK    3  A    between atoms: C7_9  and  N2_11 
REMARK    4  A    between atoms: N2_11  and  C8_13 
REMARK    5  A    between atoms: C8_13  and  O1_14 
REMARK    6  A    between atoms: C10_17  and  N3_18 
REMARK    7  A    between atoms: C11_19  and  O2_20 
REMARK    8  A    between atoms: C16_35  and  N9_36 
ROOT
HETATM    1  C8  UNL     1      32.359   4.655   9.554  1.00  0.00     0.159 C 
HETATM    2  C9  UNL     1      30.936   4.742   9.580  1.00  0.00     0.102 A 
HETATM    3  C10 UNL     1      30.113   4.885   8.538  1.00  0.00     0.150 A 
HETATM    4  N8  UNL     1      28.724   4.952   8.761  1.00  0.00    -0.175 N 
ATOM      5  H8  UNL     1      28.107   5.063   7.956  1.00  0.00     0.186 HD
HETATM    6  C16 UNL     1      28.190   4.880   9.947  1.00  0.00     0.678 A 
HETATM    7  N10 UNL     1      28.976   4.736  11.023  1.00  0.00    -0.178 N 
ATOM      8  H10 UNL     1      28.568   4.678  11.956  1.00  0.00     0.185 HD
HETATM    9  C17 UNL     1      30.300   4.669  10.858  1.00  0.00     0.150 A 
HETATM   10  N11 UNL     1      31.074   4.516  12.045  1.00  0.00    -0.081 NA
ENDROOT
BRANCH   1  11
HETATM   11  N2  UNL     1      33.332   4.685   8.570  1.00  0.00    -0.313 N 
ATOM     12  H2  UNL     1      33.130   4.150   7.725  1.00  0.00     0.170 HD
BRANCH  11  13
HETATM   13  C7  UNL     1      34.578   5.368   8.591  1.00  0.00     0.178 C 
HETATM   14  S1  UNL     1      34.474   7.010   8.902  1.00  0.00    -0.040 SA
BRANCH  13  15
HETATM   15  N1  UNL     1      35.840   4.878   8.346  1.00  0.00    -0.333 N 
ATOM     16  H1  UNL     1      36.185   4.963   7.390  1.00  0.00     0.168 HD
BRANCH  15  17
HETATM   17  C6  UNL     1      36.727   4.260   9.293  1.00  0.00     0.034 A 
HETATM   18  C5  UNL     1      37.983   3.876   8.876  1.00  0.00     0.029 A 
HETATM   19  C4  UNL     1      38.901   3.243   9.692  1.00  0.00     0.003 A 
HETATM   20  C3  UNL     1      38.532   2.988  10.984  1.00  0.00     0.007 A 
HETATM   21  C2  UNL     1      37.297   3.348  11.446  1.00  0.00    -0.060 A 
HETATM   22  C1  UNL     1      36.930   3.056  12.855  1.00  0.00     0.048 C 
HETATM   23  C18 UNL     1      36.386   3.992  10.588  1.00  0.00     0.036 A 
ENDBRANCH  15  17
ENDBRANCH  13  15
ENDBRANCH  11  13
ENDBRANCH   1  11
BRANCH   1  24
HETATM   24  O1  UNL     1      32.873   4.513  10.752  1.00  0.00    -0.345 OA
ATOM     25  H1  UNL     1      33.284   3.664  10.867  1.00  0.00     0.219 HD
ENDBRANCH   1  24
BRANCH   3  26
HETATM   26  N3  UNL     1      30.477   4.982   7.180  1.00  0.00    -0.244 N 
HETATM   27  C11 UNL     1      30.349   4.062   6.179  1.00  0.00     0.231 A 
HETATM   28  N4  UNL     1      30.745   4.608   5.012  1.00  0.00    -0.316 N 
HETATM   29  C12 UNL     1      31.133   5.868   5.222  1.00  0.00     0.122 A 
ATOM     30  H4  UNL     1      30.748   4.133   4.109  1.00  0.00     0.169 HD
HETATM   31  C13 UNL     1      31.615   6.842   4.376  1.00  0.00     0.148 A 
HETATM   32  C15 UNL     1      30.965   6.104   6.582  1.00  0.00     0.148 A 
HETATM   33  N5  UNL     1      31.806   6.659   2.984  1.00  0.00    -0.080 NA
HETATM   34  N6  UNL     1      31.920   8.033   4.914  1.00  0.00    -0.339 N 
HETATM   35  C14 UNL     1      31.770   8.295   6.225  1.00  0.00     0.183 A 
ATOM     36  H6  UNL     1      32.279   8.769   4.306  1.00  0.00     0.167 HD
HETATM   37  N7  UNL     1      31.300   7.328   7.016  1.00  0.00    -0.336 N 
ATOM     38  H7  UNL     1      31.189   7.531   8.009  1.00  0.00     0.168 HD
BRANCH  27  39
HETATM   39  O2  UNL     1      29.885   2.773   6.333  1.00  0.00    -0.332 OA
ATOM     40  H2  UNL     1      30.017   2.063   5.715  1.00  0.00     0.221 HD
ENDBRANCH  27  39
ENDBRANCH   3  26
BRANCH   6  41
HETATM   41  N9  UNL     1      26.927   4.944  10.117  1.00  0.00    -0.234 N 
ATOM     42  H92 UNL     1      26.317   4.544   9.403  1.00  0.00     0.174 HD
ATOM     43  H91 UNL     1      26.520   5.381  10.944  1.00  0.00     0.174 HD
ENDBRANCH   6  41
TORSDOF 8
ENDMDL
MODEL 2
REMARK VINA RESULT: -8.927933252      0.852      1.431
REMARK  8 active torsions:
REMARK  status: ('A' for Active; 'I' for Inactive)
REMARK    1  A    between atoms: C6_6  and  N1_7 
REMARK    2  A    between atoms: N1_7  and  C7_9 
REMARK    3  A    between atoms: C7_9  and  N2_11 
REMARK    4  A    between atoms: N2_11  and  C8_13 
REMARK    5  A    between atoms: C8_13  and  O1_14 
REMARK    6  A    between atoms: C10_17  and  N3_18 
REMARK    7  A    between atoms: C11_19  and  O2_20 
REMARK    8  A    between atoms: C16_35  and  N9_36 
ROOT
HETATM    1  C8  UNL     1      32.647   4.878  10.210  1.00  0.00     0.159 C 
HETATM    2  C9  UNL     1      31.233   4.876  10.023  1.00  0.00     0.102 A 
HETATM    3  C10 UNL     1      30.569   4.917   8.865  1.00  0.00     0.150 A 
HETATM    4  N8  UNL     1      29.160   4.907   8.879  1.00  0.00    -0.175 N 
ATOM      5  H8  UNL     1      28.665   4.939   7.987  1.00  0.00     0.186 HD
HETATM    6  C16 UNL     1      28.460   4.857   9.976  1.00  0.00     0.678 A 
HETATM    7  N10 UNL     1      29.083   4.814  11.162  1.00  0.00    -0.178 N 
ATOM      8  H10 UNL     1      28.545   4.774  12.027  1.00  0.00     0.185 HD
HETATM    9  C17 UNL     1      30.419   4.823  11.196  1.00  0.00     0.150 A 
HETATM   10  N11 UNL     1      31.014   4.775  12.490  1.00  0.00    -0.081 NA
ENDROOT
BRANCH   1  11
HETATM   11  N2  UNL     1      33.753   4.922   9.379  1.00  0.00    -0.313 N 
ATOM     12  H2  UNL     1      33.744   4.278   8.588  1.00  0.00     0.170 HD
BRANCH  11  13
HETATM   13  C7  UNL     1      34.899   5.754   9.491  1.00  0.00     0.178 C 
HETATM   14  S1  UNL     1      34.582   7.327   9.972  1.00  0.00    -0.040 SA
BRANCH  13  15
HETATM   15  N1  UNL     1      36.215   5.461   9.214  1.00  0.00    -0.333 N 
ATOM     16  H1  UNL     1      36.664   6.023   8.491  1.00  0.00     0.168 HD
BRANCH  15  17
HETATM   17  C6  UNL     1      37.024   4.450   9.835  1.00  0.00     0.034 A 
HETATM   18  C5  UNL     1      36.823   4.163  11.169  1.00  0.00     0.029 A 
HETATM   19  C4  UNL     1      37.567   3.235  11.873  1.00  0.00     0.003 A 
HETATM   20  C3  UNL     1      38.555   2.571  11.200  1.00  0.00     0.007 A 
HETATM   21  C2  UNL     1      38.794   2.820   9.878  1.00  0.00    -0.060 A 
HETATM   22  C1  UNL     1      39.875   2.080   9.178  1.00  0.00     0.048 C 
HETATM   23  C18 UNL     1      38.018   3.771   9.190  1.00  0.00     0.036 A 
ENDBRANCH  15  17
ENDBRANCH  13  15
ENDBRANCH  11  13
ENDBRANCH   1  11
BRANCH   1  24
HETATM   24  O1  UNL     1      32.984   4.825  11.477  1.00  0.00    -0.345 OA
ATOM     25  H1  UNL     1      33.712   5.401  11.678  1.00  0.00     0.219 HD
ENDBRANCH   1  24
BRANCH   3  26
HETATM   26  N3  UNL     1      31.125   4.972   7.572  1.00  0.00    -0.244 N 
HETATM   27  C11 UNL     1      31.110   4.034   6.579  1.00  0.00     0.231 A 
HETATM   28  N4  UNL     1      31.686   4.541   5.472  1.00  0.00    -0.316 N 
HETATM   29  C12 UNL     1      32.081   5.794   5.712  1.00  0.00     0.122 A 
ATOM     30  H4  UNL     1      31.802   4.046   4.587  1.00  0.00     0.169 HD
HETATM   31  C13 UNL     1      32.711   6.734   4.926  1.00  0.00     0.148 A 
HETATM   32  C15 UNL     1      31.729   6.065   7.030  1.00  0.00     0.148 A 
HETATM   33  N5  UNL     1      33.092   6.514   3.580  1.00  0.00    -0.080 NA
HETATM   34  N6  UNL     1      32.974   7.927   5.481  1.00  0.00    -0.339 N 
HETATM   35  C14 UNL     1      32.648   8.223   6.752  1.00  0.00     0.183 A 
ATOM     36  H6  UNL     1      33.440   8.638   4.917  1.00  0.00     0.167 HD
HETATM   37  N7  UNL     1      32.039   7.288   7.485  1.00  0.00    -0.336 N 
ATOM     38  H7  UNL     1      31.795   7.517   8.449  1.00  0.00     0.168 HD
BRANCH  27  39
HETATM   39  O2  UNL     1      30.587   2.763   6.689  1.00  0.00    -0.332 OA
ATOM     40  H2  UNL     1      30.037   2.337   6.042  1.00  0.00     0.221 HD
ENDBRANCH  27  39
ENDBRANCH   3  26
BRANCH   6  41
HETATM   41  N9  UNL     1      27.184   4.849   9.956  1.00  0.00    -0.234 N 
ATOM     42  H92 UNL     1      26.709   5.006   9.067  1.00  0.00     0.174 HD
ATOM     43  H91 UNL     1      26.637   4.688  10.802  1.00  0.00     0.174 HD
ENDBRANCH   6  41
TORSDOF 8
ENDMDL
MODEL 3
REMARK VINA RESULT: -8.646151859      0.903      1.480
REMARK  8 active torsions:
REMARK  status: ('A' for Active; 'I' for Inactive)
REMARK    1  A    between atoms: C6_6  and  N1_7 
REMARK    2  A    between atoms: N1_7  and  C7_9 
REMARK    3  A    between atoms: C7_9  and  N2_11 
REMARK    4  A    between atoms: N2_11  and  C8_13 
REMARK    5  A    between atoms: C8_13  and  O1_14 
REMARK    6  A    between atoms: C10_17  and  N3_18 
REMARK    7  A    between atoms: C11_19  and  O2_20 
REMARK    8  A    between atoms: C16_35  and  N9_36 
ROOT
HETATM    1  C8  UNL     1      31.825   4.410   9.698  1.00  0.00     0.159 C 
HETATM    2  C9  UNL     1      30.442   4.714   9.523  1.00  0.00     0.102 A 
HETATM    3  C10 UNL     1      29.808   4.975   8.377  1.00  0.00     0.150 A 
HETATM    4  N8  UNL     1      28.428   5.255   8.402  1.00  0.00    -0.175 N 
ATOM      5  H8  UNL     1      27.956   5.453   7.519  1.00  0.00     0.186 HD
HETATM    6  C16 UNL     1      27.726   5.272   9.499  1.00  0.00     0.678 A 
HETATM    7  N10 UNL     1      28.318   5.016  10.673  1.00  0.00    -0.178 N 
ATOM      8  H10 UNL     1      27.778   5.026  11.538  1.00  0.00     0.185 HD
HETATM    9  C17 UNL     1      29.627   4.746  10.696  1.00  0.00     0.150 A 
HETATM   10  N11 UNL     1      30.191   4.483  11.979  1.00  0.00    -0.081 NA
ENDROOT
BRANCH   1  11
HETATM   11  N2  UNL     1      32.921   4.285   8.863  1.00  0.00    -0.313 N 
ATOM     12  H2  UNL     1      32.897   3.503   8.207  1.00  0.00     0.170 HD
BRANCH  11  13
HETATM   13  C7  UNL     1      34.076   5.110   8.805  1.00  0.00     0.178 C 
HETATM   14  S1  UNL     1      34.663   5.392   7.262  1.00  0.00    -0.040 SA
BRANCH  13  15
HETATM   15  N1  UNL     1      34.799   5.664   9.836  1.00  0.00    -0.333 N 
ATOM     16  H1  UNL     1      34.700   6.671   9.973  1.00  0.00     0.168 HD
BRANCH  15  17
HETATM   17  C6  UNL     1      35.679   4.979  10.741  1.00  0.00     0.034 A 
HETATM   18  C5  UNL     1      35.511   5.159  12.097  1.00  0.00     0.029 A 
HETATM   19  C4  UNL     1      36.321   4.577  13.054  1.00  0.00     0.003 A 
HETATM   20  C3  UNL     1      37.344   3.780  12.619  1.00  0.00     0.007 A 
HETATM   21  C2  UNL     1      37.553   3.570  11.286  1.00  0.00    -0.060 A 
HETATM   22  C1  UNL     1      38.674   2.698  10.849  1.00  0.00     0.048 C 
HETATM   23  C18 UNL     1      36.710   4.178  10.338  1.00  0.00     0.036 A 
ENDBRANCH  15  17
ENDBRANCH  13  15
ENDBRANCH  11  13
ENDBRANCH   1  11
BRANCH   1  24
HETATM   24  O1  UNL     1      32.135   4.198  10.955  1.00  0.00    -0.345 OA
ATOM     25  H1  UNL     1      32.814   4.788  11.260  1.00  0.00     0.219 HD
ENDBRANCH   1  24
BRANCH   3  26
HETATM   26  N3  UNL     1      30.373   5.007   7.087  1.00  0.00    -0.244 N 
HETATM   27  C11 UNL     1      30.330   4.067   6.096  1.00  0.00     0.231 A 
HETATM   28  N4  UNL     1      30.929   4.551   4.990  1.00  0.00    -0.316 N 
HETATM   29  C12 UNL     1      31.366   5.789   5.229  1.00  0.00     0.122 A 
ATOM     30  H4  UNL     1      31.032   4.049   4.108  1.00  0.00     0.169 HD
HETATM   31  C13 UNL     1      32.032   6.705   4.444  1.00  0.00     0.148 A 
HETATM   32  C15 UNL     1      31.017   6.076   6.544  1.00  0.00     0.148 A 
HETATM   33  N5  UNL     1      32.412   6.468   3.100  1.00  0.00    -0.080 NA
HETATM   34  N6  UNL     1      32.334   7.889   4.997  1.00  0.00    -0.339 N 
HETATM   35  C14 UNL     1      32.012   8.200   6.265  1.00  0.00     0.183 A 
ATOM     36  H6  UNL     1      32.827   8.582   4.433  1.00  0.00     0.167 HD
HETATM   37  N7  UNL     1      31.367   7.289   6.998  1.00  0.00    -0.336 N 
ATOM     38  H7  UNL     1      31.126   7.529   7.959  1.00  0.00     0.168 HD
BRANCH  27  39
HETATM   39  O2  UNL     1      29.763   2.815   6.207  1.00  0.00    -0.332 OA
ATOM     40  H2  UNL     1      29.958   2.180   6.887  1.00  0.00     0.221 HD
ENDBRANCH  27  39
ENDBRANCH   3  26
BRANCH   6  41
HETATM   41  N9  UNL     1      26.475   5.529   9.489  1.00  0.00    -0.234 N 
ATOM     42  H92 UNL     1      26.081   6.005   8.677  1.00  0.00     0.174 HD
ATOM     43  H91 UNL     1      25.870   5.270  10.268  1.00  0.00     0.174 HD
ENDBRANCH   6  41
TORSDOF 8
ENDMDL
MODEL 4
REMARK VINA RESULT: -8.645487544      1.142      1.604
REMARK  8 active torsions:
REMARK  status: ('A' for Active; 'I' for Inactive)
REMARK    1  A    between atoms: C6_6  and  N1_7 
REMARK    2  A    between atoms: N1_7  and  C7_9 
REMARK    3  A    between atoms: C7_9  and  N2_11 
REMARK    4  A    between atoms: N2_11  and  C8_13 
REMARK    5  A    between atoms: C8_13  and  O1_14 
REMARK    6  A    between atoms: C10_17  and  N3_18 
REMARK    7  A    between atoms: C11_19  and  O2_20 
REMARK    8  A    between atoms: C16_35  and  N9_36 
ROOT
HETATM    1  C8  UNL     1      32.624   5.816  10.088  1.00  0.00     0.159 C 
HETATM    2  C9  UNL     1      31.294   5.308  10.000  1.00  0.00     0.102 A 
HETATM    3  C10 UNL     1      30.537   5.204   8.905  1.00  0.00     0.150 A 
HETATM    4  N8  UNL     1      29.237   4.672   9.015  1.00  0.00    -0.175 N 
ATOM      5  H8  UNL     1      28.669   4.598   8.171  1.00  0.00     0.186 HD
HETATM    6  C16 UNL     1      28.727   4.270  10.144  1.00  0.00     0.678 A 
HETATM    7  N10 UNL     1      29.449   4.355  11.270  1.00  0.00    -0.178 N 
ATOM      8  H10 UNL     1      29.060   4.043  12.159  1.00  0.00     0.185 HD
HETATM    9  C17 UNL     1      30.688   4.855  11.212  1.00  0.00     0.150 A 
HETATM   10  N11 UNL     1      31.398   4.916  12.446  1.00  0.00    -0.081 NA
ENDROOT
BRANCH   1  11
HETATM   11  N2  UNL     1      33.542   6.340   9.194  1.00  0.00    -0.313 N 
ATOM     12  H2  UNL     1      33.292   7.232   8.766  1.00  0.00     0.170 HD
BRANCH  11  13
HETATM   13  C7  UNL     1      34.790   5.788   8.797  1.00  0.00     0.178 C 
HETATM   14  S1  UNL     1      34.755   4.934   7.356  1.00  0.00    -0.040 SA
BRANCH  13  15
HETATM   15  N1  UNL     1      36.000   5.818   9.452  1.00  0.00    -0.333 N 
ATOM     16  H1  UNL     1      36.468   6.723   9.503  1.00  0.00     0.168 HD
BRANCH  15  17
HETATM   17  C6  UNL     1      36.675   4.712  10.071  1.00  0.00     0.034 A 
HETATM   18  C5  UNL     1      36.238   4.270  11.302  1.00  0.00     0.029 A 
HETATM   19  C4  UNL     1      36.835   3.240  12.003  1.00  0.00     0.003 A 
HETATM   20  C3  UNL     1      37.920   2.631  11.433  1.00  0.00     0.007 A 
HETATM   21  C2  UNL     1      38.393   3.032  10.215  1.00  0.00    -0.060 A 
HETATM   22  C1  UNL     1      39.572   2.348   9.627  1.00  0.00     0.048 C 
HETATM   23  C18 UNL     1      37.761   4.085   9.529  1.00  0.00     0.036 A 
ENDBRANCH  15  17
ENDBRANCH  13  15
ENDBRANCH  11  13
ENDBRANCH   1  11
BRANCH   1  24
HETATM   24  O1  UNL     1      33.094   5.780  11.312  1.00  0.00    -0.345 OA
ATOM     25  H1  UNL     1      33.707   5.066  11.439  1.00  0.00     0.219 HD
ENDBRANCH   1  24
BRANCH   3  26
HETATM   26  N3  UNL     1      30.891   5.576   7.593  1.00  0.00    -0.244 N 
HETATM   27  C11 UNL     1      31.078   4.793   6.489  1.00  0.00     0.231 A 
HETATM   28  N4  UNL     1      31.320   5.575   5.419  1.00  0.00    -0.316 N 
HETATM   29  C12 UNL     1      31.298   6.856   5.793  1.00  0.00     0.122 A 
ATOM     30  H4  UNL     1      31.493   5.240   4.471  1.00  0.00     0.169 HD
HETATM   31  C13 UNL     1      31.483   8.029   5.093  1.00  0.00     0.148 A 
HETATM   32  C15 UNL     1      31.029   6.857   7.157  1.00  0.00     0.148 A 
HETATM   33  N5  UNL     1      31.758   8.088   3.705  1.00  0.00    -0.080 NA
HETATM   34  N6  UNL     1      31.393   9.178   5.780  1.00  0.00    -0.339 N 
HETATM   35  C14 UNL     1      31.135   9.216   7.099  1.00  0.00     0.183 A 
ATOM     36  H6  UNL     1      31.527  10.058   5.281  1.00  0.00     0.167 HD
HETATM   37  N7  UNL     1      30.962   8.060   7.746  1.00  0.00    -0.336 N 
ATOM     38  H7  UNL     1      30.767   8.094   8.746  1.00  0.00     0.168 HD
BRANCH  27  39
HETATM   39  O2  UNL     1      31.026   3.415   6.469  1.00  0.00    -0.332 OA
ATOM     40  H2  UNL     1      31.776   2.837   6.392  1.00  0.00     0.221 HD
ENDBRANCH  27  39
ENDBRANCH   3  26
BRANCH   6  41
HETATM   41  N9  UNL     1      27.545   3.792  10.212  1.00  0.00    -0.234 N 
ATOM     42  H92 UNL     1      26.852   4.282  10.778  1.00  0.00     0.174 HD
ATOM     43  H91 UNL     1      27.283   2.941   9.715  1.00  0.00     0.174 HD
ENDBRANCH   6  41
TORSDOF 8
ENDMDL
MODEL 5
REMARK VINA RESULT: -8.526449326      1.462      1.596
REMARK  8 active torsions:
REMARK  status: ('A' for Active; 'I' for Inactive)
REMARK    1  A    between atoms: C6_6  and  N1_7 
REMARK    2  A    between atoms: N1_7  and  C7_9 
REMARK    3  A    between atoms: C7_9  and  N2_11 
REMARK    4  A    between atoms: N2_11  and  C8_13 
REMARK    5  A    between atoms: C8_13  and  O1_14 
REMARK    6  A    between atoms: C10_17  and  N3_18 
REMARK    7  A    between atoms: C11_19  and  O2_20 
REMARK    8  A    between atoms: C16_35  and  N9_36 
ROOT
HETATM    1  C8  UNL     1      31.970   5.658   9.694  1.00  0.00     0.159 C 
HETATM    2  C9  UNL     1      30.711   4.988   9.710  1.00  0.00     0.102 A 
HETATM    3  C10 UNL     1      29.955   4.660   8.660  1.00  0.00     0.150 A 
HETATM    4  N8  UNL     1      28.731   3.995   8.873  1.00  0.00    -0.175 N 
ATOM      5  H8  UNL     1      28.163   3.750   8.062  1.00  0.00     0.186 HD
HETATM    6  C16 UNL     1      28.292   3.677  10.058  1.00  0.00     0.678 A 
HETATM    7  N10 UNL     1      29.017   3.986  11.142  1.00  0.00    -0.178 N 
ATOM      8  H10 UNL     1      28.683   3.741  12.074  1.00  0.00     0.185 HD
HETATM    9  C17 UNL     1      30.184   4.619  10.986  1.00  0.00     0.150 A 
HETATM   10  N11 UNL     1      30.902   4.916  12.181  1.00  0.00    -0.081 NA
ENDROOT
BRANCH   1  11
HETATM   11  N2  UNL     1      32.802   6.173   8.715  1.00  0.00    -0.313 N 
ATOM     12  H2  UNL     1      32.340   6.651   7.941  1.00  0.00     0.170 HD
BRANCH  11  13
HETATM   13  C7  UNL     1      34.221   6.118   8.655  1.00  0.00     0.178 C 
HETATM   14  S1  UNL     1      34.996   7.564   8.992  1.00  0.00    -0.040 SA
BRANCH  13  15
HETATM   15  N1  UNL     1      35.035   5.062   8.313  1.00  0.00    -0.333 N 
ATOM     16  H1  UNL     1      34.879   4.645   7.395  1.00  0.00     0.168 HD
BRANCH  15  17
HETATM   17  C6  UNL     1      36.080   4.483   9.110  1.00  0.00     0.034 A 
HETATM   18  C5  UNL     1      37.330   4.320   8.552  1.00  0.00     0.029 A 
HETATM   19  C4  UNL     1      38.396   3.743   9.215  1.00  0.00     0.003 A 
HETATM   20  C3  UNL     1      38.189   3.314  10.497  1.00  0.00     0.007 A 
HETATM   21  C2  UNL     1      36.968   3.453  11.096  1.00  0.00    -0.060 A 
HETATM   22  C1  UNL     1      36.779   2.975  12.490  1.00  0.00     0.048 C 
HETATM   23  C18 UNL     1      35.903   4.044  10.392  1.00  0.00     0.036 A 
ENDBRANCH  15  17
ENDBRANCH  13  15
ENDBRANCH  11  13
ENDBRANCH   1  11
BRANCH   1  24
HETATM   24  O1  UNL     1      32.461   5.829  10.899  1.00  0.00    -0.345 OA
ATOM     25  H1  UNL     1      33.344   6.178  10.879  1.00  0.00     0.219 HD
ENDBRANCH   1  24
BRANCH   3  26
HETATM   26  N3  UNL     1      30.239   4.906   7.302  1.00  0.00    -0.244 N 
HETATM   27  C11 UNL     1      31.250   4.417   6.524  1.00  0.00     0.231 A 
HETATM   28  N4  UNL     1      31.090   4.845   5.257  1.00  0.00    -0.316 N 
HETATM   29  C12 UNL     1      29.995   5.607   5.181  1.00  0.00     0.122 A 
ATOM     30  H4  UNL     1      31.708   4.622   4.476  1.00  0.00     0.169 HD
HETATM   31  C13 UNL     1      29.401   6.274   4.133  1.00  0.00     0.148 A 
HETATM   32  C15 UNL     1      29.461   5.645   6.464  1.00  0.00     0.148 A 
HETATM   33  N5  UNL     1      29.899   6.269   2.807  1.00  0.00    -0.080 NA
HETATM   34  N6  UNL     1      28.282   6.965   4.396  1.00  0.00    -0.339 N 
HETATM   35  C14 UNL     1      27.738   7.025   5.625  1.00  0.00     0.183 A 
ATOM     36  H6  UNL     1      27.825   7.467   3.634  1.00  0.00     0.167 HD
HETATM   37  N7  UNL     1      28.341   6.366   6.618  1.00  0.00    -0.336 N 
ATOM     38  H7  UNL     1      27.926   6.415   7.548  1.00  0.00     0.168 HD
BRANCH  27  39
HETATM   39  O2  UNL     1      32.278   3.610   6.963  1.00  0.00    -0.332 OA
ATOM     40  H2  UNL     1      32.272   2.660   6.958  1.00  0.00     0.221 HD
ENDBRANCH  27  39
ENDBRANCH   3  26
BRANCH   6  41
HETATM   41  N9  UNL     1      27.179   3.074  10.220  1.00  0.00    -0.234 N 
ATOM     42  H92 UNL     1      26.639   3.264  11.064  1.00  0.00     0.174 HD
ATOM     43  H91 UNL     1      26.823   2.415   9.527  1.00  0.00     0.174 HD
ENDBRANCH   6  41
TORSDOF 8
ENDMDL
