MODEL 1
REMARK VINA RESULT: -8.348545862      0.000      0.000
REMARK  7 active torsions:
REMARK  status: ('A' for Active; 'I' for Inactive)
REMARK    1  A    between atoms: N5_15  and  C6_16 
REMARK    2  A    between atoms: C9_19  and  C10_20 
REMARK    3  A    between atoms: C10_20  and  N7_25 
REMARK    4  A    between atoms: N6_21  and  O1_23 
REMARK    5  A    between atoms: C12_27  and  C13_28 
REMARK    6  A    between atoms: C19_37  and  O5_38 
REMARK    7  A    between atoms: C20_40  and  O6_41 
ROOT
HETATM    1  C6  UNL     1      33.266   4.812   9.833  1.00  0.00     0.078 A 
HETATM    2  C7  UNL     1      32.273   3.877   9.991  1.00  0.00     0.034 A 
HETATM    3  C8  UNL     1      31.071   3.963   9.303  1.00  0.00     0.020 A 
HETATM    4  C9  UNL     1      30.822   5.000   8.423  1.00  0.00     0.046 A 
HETATM    5  C19 UNL     1      31.820   5.961   8.247  1.00  0.00     0.115 A 
HETATM    6  C20 UNL     1      33.006   5.860   8.938  1.00  0.00     0.127 A 
ENDROOT
BRANCH   4   7
HETATM    7  C10 UNL     1      29.551   5.028   7.715  1.00  0.00     0.138 C 
HETATM    8  N6  UNL     1      29.563   4.695   6.464  1.00  0.00    -0.252 N 
ATOM      9  H6  UNL     1      28.669   4.716   5.974  1.00  0.00     0.196 HD
BRANCH   8  10
HETATM   10  O1  UNL     1      30.641   4.322   5.747  1.00  0.00    -0.288 OA
ATOM     11  H1  UNL     1      31.040   3.460   5.735  1.00  0.00     0.244 HD
ENDBRANCH   8  10
BRANCH   7  12
HETATM   12  N7  UNL     1      28.311   5.373   8.283  1.00  0.00    -0.330 N 
HETATM   13  C11 UNL     1      27.799   6.722   8.413  1.00  0.00     0.170 C 
HETATM   14  C12 UNL     1      26.294   6.433   8.272  1.00  0.00     0.243 C 
HETATM   15  O4  UNL     1      26.209   5.329   9.142  1.00  0.00    -0.343 OA
HETATM   16  C14 UNL     1      27.284   4.532   8.834  1.00  0.00     0.139 C 
HETATM   17  C15 UNL     1      27.703   3.677   9.983  1.00  0.00     0.061 C 
HETATM   18  C18 UNL     1      26.797   3.493   7.839  1.00  0.00     0.061 C 
HETATM   19  C16 UNL     1      26.489   2.749  10.130  1.00  0.00     0.005 C 
HETATM   20  C17 UNL     1      25.946   2.604   8.723  1.00  0.00     0.005 C 
BRANCH  14  21
HETATM   21  C13 UNL     1      25.487   7.562   8.769  1.00  0.00     0.204 C 
HETATM   22  O2  UNL     1      25.545   7.847   9.984  1.00  0.00    -0.646 OA
HETATM   23  O3  UNL     1      24.684   8.286   7.904  1.00  0.00    -0.646 OA
ENDBRANCH  14  21
ENDBRANCH   7  12
ENDBRANCH   4   7
BRANCH   5  24
HETATM   24  O5  UNL     1      31.535   6.972   7.365  1.00  0.00    -0.357 OA
ATOM     25  H5  UNL     1      31.149   7.756   7.737  1.00  0.00     0.217 HD
ENDBRANCH   5  24
BRANCH   6  26
HETATM   26  O6  UNL     1      33.996   6.791   8.780  1.00  0.00    -0.356 OA
ATOM     27  H6  UNL     1      34.766   6.516   8.297  1.00  0.00     0.218 HD
ENDBRANCH   6  26
BRANCH   1  28
HETATM   28  N5  UNL     1      34.499   4.725  10.537  1.00  0.00    -0.289 N 
HETATM   29  C3  UNL     1      35.730   4.500  10.023  1.00  0.00     0.145 A 
HETATM   30  N3  UNL     1      36.146   4.303   8.765  1.00  0.00    -0.336 N 
HETATM   31  C4  UNL     1      36.678   4.484  11.023  1.00  0.00     0.122 A 
HETATM   32  C2  UNL     1      37.441   4.098   8.484  1.00  0.00     0.183 A 
ATOM     33  H3  UNL     1      35.465   4.311   8.006  1.00  0.00     0.168 HD
HETATM   34  N2  UNL     1      38.380   4.078   9.444  1.00  0.00    -0.337 N 
HETATM   35  C1  UNL     1      38.003   4.271  10.717  1.00  0.00     0.131 A 
ATOM     36  H2  UNL     1      39.360   3.919   9.210  1.00  0.00     0.168 HD
HETATM   37  N1  UNL     1      38.847   4.266  11.694  1.00  0.00    -0.383 N 
ATOM     38  H12 UNL     1      39.829   4.108  11.467  1.00  0.00     0.157 HD
ATOM     39  H11 UNL     1      38.561   4.413  12.662  1.00  0.00     0.157 HD
HETATM   40  N4  UNL     1      35.999   4.705  12.171  1.00  0.00    -0.346 N 
HETATM   41  C5  UNL     1      34.696   4.847  11.874  1.00  0.00     0.191 A 
ATOM     42  H4  UNL     1      36.407   4.754  13.105  1.00  0.00     0.167 HD
ENDBRANCH   1  28
TORSDOF 7
ENDMDL
MODEL 2
REMARK VINA RESULT: -7.802516944      1.985      2.848
REMARK  7 active torsions:
REMARK  status: ('A' for Active; 'I' for Inactive)
REMARK    1  A    between atoms: N5_15  and  C6_16 
REMARK    2  A    between atoms: C9_19  and  C10_20 
REMARK    3  A    between atoms: C10_20  and  N7_25 
REMARK    4  A    between atoms: N6_21  and  O1_23 
REMARK    5  A    between atoms: C12_27  and  C13_28 
REMARK    6  A    between atoms: C19_37  and  O5_38 
REMARK    7  A    between atoms: C20_40  and  O6_41 
ROOT
HETATM    1  C6  UNL     1      32.181   4.494   9.080  1.00  0.00     0.078 A 
HETATM    2  C7  UNL     1      31.303   3.930   8.188  1.00  0.00     0.034 A 
HETATM    3  C8  UNL     1      29.953   3.790   8.479  1.00  0.00     0.020 A 
HETATM    4  C9  UNL     1      29.434   4.216   9.687  1.00  0.00     0.046 A 
HETATM    5  C19 UNL     1      30.310   4.793  10.608  1.00  0.00     0.115 A 
HETATM    6  C20 UNL     1      31.646   4.924  10.303  1.00  0.00     0.127 A 
ENDROOT
BRANCH   4   7
HETATM    7  C10 UNL     1      28.007   4.060   9.931  1.00  0.00     0.138 C 
HETATM    8  N6  UNL     1      27.649   3.157  10.786  1.00  0.00    -0.252 N 
ATOM      9  H6  UNL     1      26.648   3.053  10.953  1.00  0.00     0.196 HD
BRANCH   8  10
HETATM   10  O1  UNL     1      28.468   2.341  11.478  1.00  0.00    -0.288 OA
ATOM     11  H1  UNL     1      29.199   2.607  12.024  1.00  0.00     0.244 HD
ENDBRANCH   8  10
BRANCH   7  12
HETATM   12  N7  UNL     1      26.991   4.820   9.325  1.00  0.00    -0.330 N 
HETATM   13  C11 UNL     1      26.672   6.196   9.649  1.00  0.00     0.170 C 
HETATM   14  C12 UNL     1      26.195   6.674   8.265  1.00  0.00     0.243 C 
HETATM   15  O4  UNL     1      25.358   5.587   7.945  1.00  0.00    -0.343 OA
HETATM   16  C14 UNL     1      26.069   4.462   8.283  1.00  0.00     0.139 C 
HETATM   17  C15 UNL     1      25.181   3.300   8.582  1.00  0.00     0.061 C 
HETATM   18  C18 UNL     1      26.778   3.990   7.025  1.00  0.00     0.061 C 
HETATM   19  C16 UNL     1      24.553   3.035   7.206  1.00  0.00     0.005 C 
HETATM   20  C17 UNL     1      25.623   3.442   6.213  1.00  0.00     0.005 C 
BRANCH  14  21
HETATM   21  C13 UNL     1      25.421   7.924   8.373  1.00  0.00     0.204 C 
HETATM   22  O2  UNL     1      24.726   8.281   7.398  1.00  0.00    -0.646 OA
HETATM   23  O3  UNL     1      25.467   8.681   9.531  1.00  0.00    -0.646 OA
ENDBRANCH  14  21
ENDBRANCH   7  12
ENDBRANCH   4   7
BRANCH   5  24
HETATM   24  O5  UNL     1      29.756   5.204  11.794  1.00  0.00    -0.357 OA
ATOM     25  H5  UNL     1      30.086   4.782  12.579  1.00  0.00     0.217 HD
ENDBRANCH   5  24
BRANCH   6  26
HETATM   26  O6  UNL     1      32.521   5.486  11.191  1.00  0.00    -0.356 OA
ATOM     27  H6  UNL     1      32.569   5.087  12.052  1.00  0.00     0.218 HD
ENDBRANCH   6  26
BRANCH   1  28
HETATM   28  N5  UNL     1      33.565   4.639   8.782  1.00  0.00    -0.289 N 
HETATM   29  C3  UNL     1      34.617   4.303   9.564  1.00  0.00     0.145 A 
HETATM   30  N3  UNL     1      34.680   3.763  10.788  1.00  0.00    -0.336 N 
HETATM   31  C4  UNL     1      35.805   4.595   8.929  1.00  0.00     0.122 A 
HETATM   32  C2  UNL     1      35.856   3.511  11.379  1.00  0.00     0.183 A 
ATOM     33  H3  UNL     1      33.815   3.537  11.279  1.00  0.00     0.168 HD
HETATM   34  N2  UNL     1      37.025   3.788  10.778  1.00  0.00    -0.337 N 
HETATM   35  C1  UNL     1      37.004   4.332   9.551  1.00  0.00     0.131 A 
ATOM     36  H2  UNL     1      37.911   3.591  11.244  1.00  0.00     0.168 HD
HETATM   37  N1  UNL     1      38.086   4.625   8.909  1.00  0.00    -0.383 N 
ATOM     38  H12 UNL     1      38.975   4.430   9.370  1.00  0.00     0.157 HD
ATOM     39  H11 UNL     1      38.071   5.037   7.977  1.00  0.00     0.157 HD
HETATM   40  N4  UNL     1      35.459   5.120   7.733  1.00  0.00    -0.346 N 
HETATM   41  C5  UNL     1      34.117   5.144   7.651  1.00  0.00     0.191 A 
ATOM     42  H4  UNL     1      36.106   5.444   7.014  1.00  0.00     0.167 HD
ENDBRANCH   1  28
TORSDOF 7
ENDMDL
MODEL 3
REMARK VINA RESULT: -7.769458762      0.939      1.706
REMARK  7 active torsions:
REMARK  status: ('A' for Active; 'I' for Inactive)
REMARK    1  A    between atoms: N5_15  and  C6_16 
REMARK    2  A    between atoms: C9_19  and  C10_20 
REMARK    3  A    between atoms: C10_20  and  N7_25 
REMARK    4  A    between atoms: N6_21  and  O1_23 
REMARK    5  A    between atoms: C12_27  and  C13_28 
REMARK    6  A    between atoms: C19_37  and  O5_38 
REMARK    7  A    between atoms: C20_40  and  O6_41 
ROOT
HETATM    1  C6  UNL     1      33.434   5.064   8.495  1.00  0.00     0.078 A 
HETATM    2  C7  UNL     1      32.518   4.049   8.374  1.00  0.00     0.034 A 
HETATM    3  C8  UNL     1      31.223   4.280   7.935  1.00  0.00     0.020 A 
HETATM    4  C9  UNL     1      30.798   5.552   7.598  1.00  0.00     0.046 A 
HETATM    5  C19 UNL     1      31.714   6.599   7.714  1.00  0.00     0.115 A 
HETATM    6  C20 UNL     1      32.996   6.351   8.152  1.00  0.00     0.127 A 
ENDROOT
BRANCH   4   7
HETATM    7  C10 UNL     1      29.433   5.733   7.126  1.00  0.00     0.138 C 
HETATM    8  N6  UNL     1      29.235   5.663   5.849  1.00  0.00    -0.252 N 
ATOM      9  H6  UNL     1      28.276   5.789   5.524  1.00  0.00     0.196 HD
BRANCH   8  10
HETATM   10  O1  UNL     1      30.171   5.438   4.906  1.00  0.00    -0.288 OA
ATOM     11  H1  UNL     1      30.430   4.592   4.559  1.00  0.00     0.244 HD
ENDBRANCH   8  10
BRANCH   7  12
HETATM   12  N7  UNL     1      28.312   5.961   7.945  1.00  0.00    -0.330 N 
HETATM   13  C11 UNL     1      27.693   7.251   8.171  1.00  0.00     0.170 C 
HETATM   14  C12 UNL     1      26.234   6.798   8.360  1.00  0.00     0.243 C 
HETATM   15  O4  UNL     1      26.461   5.720   9.238  1.00  0.00    -0.343 OA
HETATM   16  C14 UNL     1      27.527   5.033   8.712  1.00  0.00     0.139 C 
HETATM   17  C15 UNL     1      28.274   4.265   9.751  1.00  0.00     0.061 C 
HETATM   18  C18 UNL     1      26.957   3.917   7.854  1.00  0.00     0.061 C 
HETATM   19  C16 UNL     1      27.229   3.218  10.164  1.00  0.00     0.005 C 
HETATM   20  C17 UNL     1      26.419   2.971   8.908  1.00  0.00     0.005 C 
BRANCH  14  21
HETATM   21  C13 UNL     1      25.431   7.850   9.010  1.00  0.00     0.204 C 
HETATM   22  O2  UNL     1      25.422   7.908  10.258  1.00  0.00    -0.646 OA
HETATM   23  O3  UNL     1      24.704   8.750   8.249  1.00  0.00    -0.646 OA
ENDBRANCH  14  21
ENDBRANCH   7  12
ENDBRANCH   4   7
BRANCH   5  24
HETATM   24  O5  UNL     1      31.254   7.845   7.369  1.00  0.00    -0.357 OA
ATOM     25  H5  UNL     1      30.443   8.120   7.781  1.00  0.00     0.217 HD
ENDBRANCH   5  24
BRANCH   6  26
HETATM   26  O6  UNL     1      33.908   7.363   8.272  1.00  0.00    -0.356 OA
ATOM     27  H6  UNL     1      33.703   8.176   7.827  1.00  0.00     0.218 HD
ENDBRANCH   6  26
BRANCH   1  28
HETATM   28  N5  UNL     1      34.763   4.827   8.945  1.00  0.00    -0.289 N 
HETATM   29  C3  UNL     1      35.208   4.789  10.223  1.00  0.00     0.145 A 
HETATM   30  N3  UNL     1      34.573   4.951  11.391  1.00  0.00    -0.336 N 
HETATM   31  C4  UNL     1      36.561   4.533  10.257  1.00  0.00     0.122 A 
HETATM   32  C2  UNL     1      35.229   4.867  12.558  1.00  0.00     0.183 A 
ATOM     33  H3  UNL     1      33.571   5.141  11.393  1.00  0.00     0.168 HD
HETATM   34  N2  UNL     1      36.548   4.619  12.613  1.00  0.00    -0.337 N 
HETATM   35  C1  UNL     1      37.220   4.451  11.463  1.00  0.00     0.131 A 
ATOM     36  H2  UNL     1      37.029   4.559  13.510  1.00  0.00     0.168 HD
HETATM   37  N1  UNL     1      38.488   4.208  11.436  1.00  0.00    -0.383 N 
ATOM     38  H12 UNL     1      38.975   4.148  12.330  1.00  0.00     0.157 HD
ATOM     39  H11 UNL     1      38.998   4.080  10.562  1.00  0.00     0.157 HD
HETATM   40  N4  UNL     1      36.943   4.414   8.966  1.00  0.00    -0.346 N 
HETATM   41  C5  UNL     1      35.862   4.591   8.186  1.00  0.00     0.191 A 
ATOM     42  H4  UNL     1      37.890   4.222   8.638  1.00  0.00     0.167 HD
ENDBRANCH   1  28
TORSDOF 7
ENDMDL
MODEL 4
REMARK VINA RESULT: -7.693750264      2.971      9.399
REMARK  7 active torsions:
REMARK  status: ('A' for Active; 'I' for Inactive)
REMARK    1  A    between atoms: N5_15  and  C6_16 
REMARK    2  A    between atoms: C9_19  and  C10_20 
REMARK    3  A    between atoms: C10_20  and  N7_25 
REMARK    4  A    between atoms: N6_21  and  O1_23 
REMARK    5  A    between atoms: C12_27  and  C13_28 
REMARK    6  A    between atoms: C19_37  and  O5_38 
REMARK    7  A    between atoms: C20_40  and  O6_41 
ROOT
HETATM    1  C6  UNL     1      31.630   4.202   8.155  1.00  0.00     0.078 A 
HETATM    2  C7  UNL     1      31.996   4.160   9.478  1.00  0.00     0.034 A 
HETATM    3  C8  UNL     1      33.290   4.445   9.889  1.00  0.00     0.020 A 
HETATM    4  C9  UNL     1      34.271   4.786   8.978  1.00  0.00     0.046 A 
HETATM    5  C19 UNL     1      33.920   4.836   7.627  1.00  0.00     0.115 A 
HETATM    6  C20 UNL     1      32.632   4.549   7.237  1.00  0.00     0.127 A 
ENDROOT
BRANCH   4   7
HETATM    7  C10 UNL     1      35.607   5.093   9.468  1.00  0.00     0.138 C 
HETATM    8  N6  UNL     1      35.926   6.343   9.572  1.00  0.00    -0.252 N 
ATOM      9  H6  UNL     1      36.863   6.552   9.917  1.00  0.00     0.196 HD
BRANCH   8  10
HETATM   10  O1  UNL     1      35.142   7.396   9.269  1.00  0.00    -0.288 OA
ATOM     11  H1  UNL     1      35.436   8.266   9.023  1.00  0.00     0.244 HD
ENDBRANCH   8  10
BRANCH   7  12
HETATM   12  N7  UNL     1      36.570   4.143   9.853  1.00  0.00    -0.330 N 
HETATM   13  C11 UNL     1      37.477   3.463   8.950  1.00  0.00     0.170 C 
HETATM   14  C12 UNL     1      38.684   3.292   9.891  1.00  0.00     0.243 C 
HETATM   15  O4  UNL     1      37.998   2.827  11.030  1.00  0.00    -0.343 OA
HETATM   16  C14 UNL     1      36.900   3.641  11.158  1.00  0.00     0.139 C 
HETATM   17  C15 UNL     1      35.783   2.974  11.890  1.00  0.00     0.061 C 
HETATM   18  C18 UNL     1      37.280   4.752  12.122  1.00  0.00     0.061 C 
HETATM   19  C16 UNL     1      36.389   2.820  13.292  1.00  0.00     0.005 C 
HETATM   20  C17 UNL     1      37.318   4.008  13.441  1.00  0.00     0.005 C 
BRANCH  14  21
HETATM   21  C13 UNL     1      39.615   2.270   9.380  1.00  0.00     0.204 C 
HETATM   22  O2  UNL     1      40.612   1.972  10.072  1.00  0.00    -0.646 OA
HETATM   23  O3  UNL     1      39.386   1.658   8.160  1.00  0.00    -0.646 OA
ENDBRANCH  14  21
ENDBRANCH   7  12
ENDBRANCH   4   7
BRANCH   5  24
HETATM   24  O5  UNL     1      34.922   5.180   6.755  1.00  0.00    -0.357 OA
ATOM     25  H5  UNL     1      35.583   4.516   6.595  1.00  0.00     0.217 HD
ENDBRANCH   5  24
BRANCH   6  26
HETATM   26  O6  UNL     1      32.268   4.592   5.919  1.00  0.00    -0.356 OA
ATOM     27  H6  UNL     1      32.973   4.576   5.282  1.00  0.00     0.218 HD
ENDBRANCH   6  26
BRANCH   1  28
HETATM   28  N5  UNL     1      30.303   3.910   7.733  1.00  0.00    -0.289 N 
HETATM   29  C3  UNL     1      29.148   4.236   8.356  1.00  0.00     0.145 A 
HETATM   30  N3  UNL     1      28.908   4.898   9.496  1.00  0.00    -0.336 N 
HETATM   31  C4  UNL     1      28.064   3.779   7.638  1.00  0.00     0.122 A 
HETATM   32  C2  UNL     1      27.656   5.110   9.929  1.00  0.00     0.183 A 
ATOM     33  H3  UNL     1      29.693   5.247  10.046  1.00  0.00     0.168 HD
HETATM   34  N2  UNL     1      26.586   4.673   9.244  1.00  0.00    -0.337 N 
HETATM   35  C1  UNL     1      26.786   4.005   8.097  1.00  0.00     0.131 A 
ATOM     36  H2  UNL     1      25.642   4.843   9.589  1.00  0.00     0.168 HD
HETATM   37  N1  UNL     1      25.808   3.555   7.384  1.00  0.00    -0.383 N 
ATOM     38  H12 UNL     1      24.861   3.722   7.723  1.00  0.00     0.157 HD
ATOM     39  H11 UNL     1      25.959   3.048   6.512  1.00  0.00     0.157 HD
HETATM   40  N4  UNL     1      28.580   3.160   6.554  1.00  0.00    -0.346 N 
HETATM   41  C5  UNL     1      29.920   3.242   6.616  1.00  0.00     0.191 A 
ATOM     42  H4  UNL     1      28.044   2.708   5.813  1.00  0.00     0.167 HD
ENDBRANCH   1  28
TORSDOF 7
ENDMDL
MODEL 5
REMARK VINA RESULT: -7.587169457      2.778      9.345
REMARK  7 active torsions:
REMARK  status: ('A' for Active; 'I' for Inactive)
REMARK    1  A    between atoms: N5_15  and  C6_16 
REMARK    2  A    between atoms: C9_19  and  C10_20 
REMARK    3  A    between atoms: C10_20  and  N7_25 
REMARK    4  A    between atoms: N6_21  and  O1_23 
REMARK    5  A    between atoms: C12_27  and  C13_28 
REMARK    6  A    between atoms: C19_37  and  O5_38 
REMARK    7  A    between atoms: C20_40  and  O6_41 
ROOT
HETATM    1  C6  UNL     1      27.601   6.347   8.445  1.00  0.00     0.078 A 
HETATM    2  C7  UNL     1      28.449   6.716   7.430  1.00  0.00     0.034 A 
HETATM    3  C8  UNL     1      29.718   6.169   7.301  1.00  0.00     0.020 A 
HETATM    4  C9  UNL     1      30.184   5.224   8.196  1.00  0.00     0.046 A 
HETATM    5  C19 UNL     1      29.337   4.835   9.235  1.00  0.00     0.115 A 
HETATM    6  C20 UNL     1      28.082   5.388   9.348  1.00  0.00     0.127 A 
ENDROOT
BRANCH   4   7
HETATM    7  C10 UNL     1      31.516   4.672   8.001  1.00  0.00     0.138 C 
HETATM    8  N6  UNL     1      31.619   3.629   7.241  1.00  0.00    -0.252 N 
ATOM      9  H6  UNL     1      32.555   3.247   7.108  1.00  0.00     0.196 HD
BRANCH   8  10
HETATM   10  O1  UNL     1      30.610   2.999   6.608  1.00  0.00    -0.288 OA
ATOM     11  H1  UNL     1      30.259   3.214   5.752  1.00  0.00     0.244 HD
ENDBRANCH   8  10
BRANCH   7  12
HETATM   12  N7  UNL     1      32.700   5.189   8.557  1.00  0.00    -0.330 N 
HETATM   13  C11 UNL     1      33.582   4.472   9.457  1.00  0.00     0.170 C 
HETATM   14  C12 UNL     1      34.924   5.101   9.045  1.00  0.00     0.243 C 
HETATM   15  O4  UNL     1      34.528   6.452   9.029  1.00  0.00    -0.343 OA
HETATM   16  C14 UNL     1      33.318   6.474   8.380  1.00  0.00     0.139 C 
HETATM   17  C15 UNL     1      32.484   7.647   8.776  1.00  0.00     0.061 C 
HETATM   18  C18 UNL     1      33.603   6.778   6.919  1.00  0.00     0.061 C 
HETATM   19  C16 UNL     1      33.312   8.811   8.214  1.00  0.00     0.005 C 
HETATM   20  C17 UNL     1      33.990   8.241   6.985  1.00  0.00     0.005 C 
BRANCH  14  21
HETATM   21  C13 UNL     1      35.958   4.865  10.070  1.00  0.00     0.204 C 
HETATM   22  O2  UNL     1      35.727   5.223  11.244  1.00  0.00    -0.646 OA
HETATM   23  O3  UNL     1      37.157   4.260   9.732  1.00  0.00    -0.646 OA
ENDBRANCH  14  21
ENDBRANCH   7  12
ENDBRANCH   4   7
BRANCH   5  24
HETATM   24  O5  UNL     1      29.836   3.895  10.101  1.00  0.00    -0.357 OA
ATOM     25  H5  UNL     1      30.437   4.214  10.764  1.00  0.00     0.217 HD
ENDBRANCH   5  24
BRANCH   6  26
HETATM   26  O6  UNL     1      27.237   5.021  10.360  1.00  0.00    -0.356 OA
ATOM     27  H6  UNL     1      26.946   4.117  10.363  1.00  0.00     0.218 HD
ENDBRANCH   6  26
BRANCH   1  28
HETATM   28  N5  UNL     1      26.300   6.907   8.578  1.00  0.00    -0.289 N 
HETATM   29  C3  UNL     1      25.125   6.369   8.176  1.00  0.00     0.145 A 
HETATM   30  N3  UNL     1      24.839   5.211   7.568  1.00  0.00    -0.336 N 
HETATM   31  C4  UNL     1      24.078   7.212   8.478  1.00  0.00     0.122 A 
HETATM   32  C2  UNL     1      23.576   4.878   7.260  1.00  0.00     0.183 A 
ATOM     33  H3  UNL     1      25.596   4.568   7.333  1.00  0.00     0.168 HD
HETATM   34  N2  UNL     1      22.542   5.686   7.546  1.00  0.00    -0.337 N 
HETATM   35  C1  UNL     1      22.788   6.856   8.155  1.00  0.00     0.131 A 
ATOM     36  H2  UNL     1      21.588   5.416   7.304  1.00  0.00     0.168 HD
HETATM   37  N1  UNL     1      21.846   7.684   8.462  1.00  0.00    -0.383 N 
ATOM     38  H12 UNL     1      20.890   7.420   8.223  1.00  0.00     0.157 HD
ATOM     39  H11 UNL     1      22.032   8.573   8.925  1.00  0.00     0.157 HD
HETATM   40  N4  UNL     1      24.636   8.287   9.077  1.00  0.00    -0.346 N 
HETATM   41  C5  UNL     1      25.966   8.099   9.133  1.00  0.00     0.191 A 
ATOM     42  H4  UNL     1      24.134   9.103   9.427  1.00  0.00     0.167 HD
ENDBRANCH   1  28
TORSDOF 7
ENDMDL
