MODEL 1
REMARK VINA RESULT: -8.195039168      0.000      0.000
REMARK  6 active torsions:
REMARK  status: ('A' for Active; 'I' for Inactive)
REMARK    1  A    between atoms: C3_3  and  N1_4 
REMARK    2  A    between atoms: N5_16  and  N6_18 
REMARK    3  A    between atoms: C9_20  and  C10_21 
REMARK    4  A    between atoms: C12_24  and  N7_25 
REMARK    5  A    between atoms: C13_30  and  O1_31 
REMARK    6  A    between atoms: C14_33  and  O2_34 
ROOT
HETATM    1  N1  UNL     1      32.453   6.576   8.184  1.00  0.00    -0.269 N 
HETATM    2  C4  UNL     1      33.428   7.164   9.078  1.00  0.00     0.202 C 
HETATM    3  N2  UNL     1      34.407   8.084   8.622  1.00  0.00    -0.062 NA
HETATM    4  N3  UNL     1      33.357   6.807  10.308  1.00  0.00    -0.319 N 
ATOM      5  H3  UNL     1      34.034   7.211  10.955  1.00  0.00     0.169 HD
HETATM    6  C5  UNL     1      32.413   5.901  10.835  1.00  0.00     0.088 C 
HETATM    7  N4  UNL     1      32.101   5.853  12.089  1.00  0.00    -0.388 N 
ATOM      8  H41 UNL     1      31.418   5.197  12.471  1.00  0.00     0.157 HD
ATOM      9  H42 UNL     1      32.562   6.501  12.727  1.00  0.00     0.157 HD
HETATM   10  C6  UNL     1      31.746   4.962   9.913  1.00  0.00     0.118 C 
HETATM   11  C7  UNL     1      32.757   3.836   9.671  1.00  0.00     0.026 C 
HETATM   12  C8  UNL     1      31.480   5.655   8.644  1.00  0.00     0.116 C 
HETATM   13  N5  UNL     1      30.403   5.459   7.938  1.00  0.00    -0.288 N 
ATOM     14  H5  UNL     1      30.306   5.985   7.069  1.00  0.00     0.188 HD
ENDROOT
BRANCH   1  15
HETATM   15  C3  UNL     1      32.449   6.956   6.813  1.00  0.00     0.087 A 
HETATM   16  C2  UNL     1      31.821   8.097   6.416  1.00  0.00    -0.003 A 
HETATM   17  C1  UNL     1      31.121   8.956   7.383  1.00  0.00     0.053 C 
HETATM   18  C18 UNL     1      31.799   8.508   5.076  1.00  0.00     0.070 A 
HETATM   19  C15 UNL     1      32.425   7.752   4.119  1.00  0.00     0.099 A 
HETATM   20  N10 UNL     1      31.164   9.647   4.741  1.00  0.00    -0.359 N 
HETATM   21  C14 UNL     1      33.067   6.591   4.503  1.00  0.00     0.130 A 
HETATM   22  N9  UNL     1      32.392   8.167   2.841  1.00  0.00    -0.318 N 
HETATM   23  C13 UNL     1      33.077   6.201   5.829  1.00  0.00     0.129 A 
HETATM   24  C16 UNL     1      31.757   9.298   2.520  1.00  0.00     0.261 A 
ATOM     25  H9  UNL     1      32.851   7.617   2.115  1.00  0.00     0.169 HD
HETATM   26  O3  UNL     1      31.760   9.635   1.309  1.00  0.00    -0.267 OA
HETATM   27  C17 UNL     1      31.128  10.063   3.469  1.00  0.00     0.163 A 
ATOM     28  H10 UNL     1      30.704  10.199   5.465  1.00  0.00     0.165 HD
BRANCH  21  29
HETATM   29  O2  UNL     1      33.690   5.844   3.521  1.00  0.00    -0.356 OA
ATOM     30  H2  UNL     1      33.752   6.150   2.624  1.00  0.00     0.218 HD
ENDBRANCH  21  29
BRANCH  23  31
HETATM   31  O1  UNL     1      33.714   5.042   6.232  1.00  0.00    -0.356 OA
ATOM     32  H1  UNL     1      34.053   4.473   5.551  1.00  0.00     0.218 HD
ENDBRANCH  23  31
ENDBRANCH   1  15
BRANCH  13  33
HETATM   33  N6  UNL     1      29.396   4.602   8.274  1.00  0.00    -0.308 N 
HETATM   34  C9  UNL     1      28.445   4.855   9.104  1.00  0.00     0.137 C 
ATOM     35  H6  UNL     1      29.396   3.683   7.829  1.00  0.00     0.186 HD
BRANCH  34  36
HETATM   36  C10 UNL     1      27.382   3.863   9.414  1.00  0.00     0.057 A 
HETATM   37  C11 UNL     1      26.227   3.856   8.683  1.00  0.00     0.084 A 
HETATM   38  S1  UNL     1      25.357   2.576   9.405  1.00  0.00    -0.064 SA
HETATM   39  C12 UNL     1      26.500   2.129  10.582  1.00  0.00     0.142 A 
HETATM   40  N8  UNL     1      27.503   2.979  10.373  1.00  0.00    -0.335 N 
ATOM     41  H8  UNL     1      28.345   2.942  10.946  1.00  0.00     0.168 HD
BRANCH  39  42
HETATM   42  N7  UNL     1      26.427   1.178  11.484  1.00  0.00    -0.380 N 
ATOM     43  H72 UNL     1      25.932   1.200  12.376  1.00  0.00     0.158 HD
ATOM     44  H71 UNL     1      26.844   0.248  11.471  1.00  0.00     0.158 HD
ENDBRANCH  39  42
ENDBRANCH  34  36
ENDBRANCH  13  33
TORSDOF 6
ENDMDL
MODEL 2
REMARK VINA RESULT: -7.567658918      1.403      2.143
REMARK  6 active torsions:
REMARK  status: ('A' for Active; 'I' for Inactive)
REMARK    1  A    between atoms: C3_3  and  N1_4 
REMARK    2  A    between atoms: N5_16  and  N6_18 
REMARK    3  A    between atoms: C9_20  and  C10_21 
REMARK    4  A    between atoms: C12_24  and  N7_25 
REMARK    5  A    between atoms: C13_30  and  O1_31 
REMARK    6  A    between atoms: C14_33  and  O2_34 
ROOT
HETATM    1  N1  UNL     1      32.347   6.581   8.414  1.00  0.00    -0.269 N 
HETATM    2  C4  UNL     1      33.329   7.150   9.312  1.00  0.00     0.202 C 
HETATM    3  N2  UNL     1      34.291   8.096   8.872  1.00  0.00    -0.062 NA
HETATM    4  N3  UNL     1      33.282   6.751  10.531  1.00  0.00    -0.319 N 
ATOM      5  H3  UNL     1      33.966   7.139  11.180  1.00  0.00     0.169 HD
HETATM    6  C5  UNL     1      32.357   5.816  11.040  1.00  0.00     0.088 C 
HETATM    7  N4  UNL     1      32.066   5.721  12.298  1.00  0.00    -0.388 N 
ATOM      8  H41 UNL     1      31.397   5.045  12.667  1.00  0.00     0.157 HD
ATOM      9  H42 UNL     1      32.531   6.353  12.950  1.00  0.00     0.157 HD
HETATM   10  C6  UNL     1      31.686   4.902  10.098  1.00  0.00     0.118 C 
HETATM   11  C7  UNL     1      32.706   3.796   9.801  1.00  0.00     0.026 C 
HETATM   12  C8  UNL     1      31.391   5.634   8.858  1.00  0.00     0.116 C 
HETATM   13  N5  UNL     1      30.306   5.450   8.163  1.00  0.00    -0.288 N 
ATOM     14  H5  UNL     1      30.188   6.005   7.314  1.00  0.00     0.188 HD
ENDROOT
BRANCH   1  15
HETATM   15  C3  UNL     1      32.316   7.009   7.058  1.00  0.00     0.087 A 
HETATM   16  C2  UNL     1      32.800   6.206   6.071  1.00  0.00    -0.003 A 
HETATM   17  C1  UNL     1      33.377   4.887   6.376  1.00  0.00     0.053 C 
HETATM   18  C18 UNL     1      32.781   6.588   4.722  1.00  0.00     0.070 A 
HETATM   19  C15 UNL     1      32.264   7.807   4.365  1.00  0.00     0.099 A 
HETATM   20  N10 UNL     1      33.272   5.753   3.787  1.00  0.00    -0.359 N 
HETATM   21  C14 UNL     1      31.769   8.635   5.353  1.00  0.00     0.130 A 
HETATM   22  N9  UNL     1      32.257   8.152   3.066  1.00  0.00    -0.318 N 
HETATM   23  C13 UNL     1      31.797   8.241   6.677  1.00  0.00     0.129 A 
HETATM   24  C16 UNL     1      32.747   7.315   2.147  1.00  0.00     0.261 A 
ATOM     25  H9  UNL     1      31.877   9.055   2.781  1.00  0.00     0.169 HD
HETATM   26  O3  UNL     1      32.714   7.693   0.949  1.00  0.00    -0.267 OA
HETATM   27  C17 UNL     1      33.267   6.093   2.493  1.00  0.00     0.163 A 
ATOM     28  H10 UNL     1      33.652   4.849   4.069  1.00  0.00     0.165 HD
BRANCH  21  29
HETATM   29  O2  UNL     1      31.254   9.860   4.969  1.00  0.00    -0.356 OA
ATOM     30  H2  UNL     1      30.318  10.014   4.917  1.00  0.00     0.218 HD
ENDBRANCH  21  29
BRANCH  23  31
HETATM   31  O1  UNL     1      31.306   9.057   7.680  1.00  0.00    -0.356 OA
ATOM     32  H1  UNL     1      31.639   9.946   7.718  1.00  0.00     0.218 HD
ENDBRANCH  23  31
ENDBRANCH   1  15
BRANCH  13  33
HETATM   33  N6  UNL     1      29.313   4.570   8.485  1.00  0.00    -0.308 N 
HETATM   34  C9  UNL     1      28.506   4.687   9.481  1.00  0.00     0.137 C 
ATOM     35  H6  UNL     1      29.202   3.752   7.886  1.00  0.00     0.186 HD
BRANCH  34  36
HETATM   36  C10 UNL     1      27.448   3.680   9.762  1.00  0.00     0.057 A 
HETATM   37  C11 UNL     1      26.285   3.702   9.044  1.00  0.00     0.084 A 
HETATM   38  S1  UNL     1      25.425   2.391   9.723  1.00  0.00    -0.064 SA
HETATM   39  C12 UNL     1      26.582   1.898  10.868  1.00  0.00     0.142 A 
HETATM   40  N8  UNL     1      27.581   2.758  10.682  1.00  0.00    -0.335 N 
ATOM     41  H8  UNL     1      28.430   2.700  11.244  1.00  0.00     0.168 HD
BRANCH  39  42
HETATM   42  N7  UNL     1      26.521   0.912  11.731  1.00  0.00    -0.380 N 
ATOM     43  H72 UNL     1      27.297   0.412  12.164  1.00  0.00     0.158 HD
ATOM     44  H71 UNL     1      25.699   0.459  12.131  1.00  0.00     0.158 HD
ENDBRANCH  39  42
ENDBRANCH  34  36
ENDBRANCH  13  33
TORSDOF 6
ENDMDL
MODEL 3
REMARK VINA RESULT: -7.489289478      1.017      1.131
REMARK  6 active torsions:
REMARK  status: ('A' for Active; 'I' for Inactive)
REMARK    1  A    between atoms: C3_3  and  N1_4 
REMARK    2  A    between atoms: N5_16  and  N6_18 
REMARK    3  A    between atoms: C9_20  and  C10_21 
REMARK    4  A    between atoms: C12_24  and  N7_25 
REMARK    5  A    between atoms: C13_30  and  O1_31 
REMARK    6  A    between atoms: C14_33  and  O2_34 
ROOT
HETATM    1  N1  UNL     1      32.446   6.621   8.060  1.00  0.00    -0.269 N 
HETATM    2  C4  UNL     1      33.414   7.210   8.961  1.00  0.00     0.202 C 
HETATM    3  N2  UNL     1      34.392   8.135   8.513  1.00  0.00    -0.062 NA
HETATM    4  N3  UNL     1      33.339   6.848  10.190  1.00  0.00    -0.319 N 
ATOM      5  H3  UNL     1      34.012   7.251  10.841  1.00  0.00     0.169 HD
HETATM    6  C5  UNL     1      32.396   5.936  10.708  1.00  0.00     0.088 C 
HETATM    7  N4  UNL     1      32.078   5.882  11.961  1.00  0.00    -0.388 N 
ATOM      8  H41 UNL     1      31.396   5.222  12.336  1.00  0.00     0.157 HD
ATOM      9  H42 UNL     1      32.534   6.530  12.603  1.00  0.00     0.157 HD
HETATM   10  C6  UNL     1      31.737   4.998   9.779  1.00  0.00     0.118 C 
HETATM   11  C7  UNL     1      32.754   3.877   9.538  1.00  0.00     0.026 C 
HETATM   12  C8  UNL     1      31.474   5.695   8.512  1.00  0.00     0.116 C 
HETATM   13  N5  UNL     1      30.402   5.498   7.800  1.00  0.00    -0.288 N 
ATOM     14  H5  UNL     1      30.306   6.027   6.933  1.00  0.00     0.188 HD
ENDROOT
BRANCH   1  15
HETATM   15  C3  UNL     1      32.447   7.007   6.691  1.00  0.00     0.087 A 
HETATM   16  C2  UNL     1      31.808   8.142   6.294  1.00  0.00    -0.003 A 
HETATM   17  C1  UNL     1      31.091   8.989   7.259  1.00  0.00     0.053 C 
HETATM   18  C18 UNL     1      31.791   8.558   4.955  1.00  0.00     0.070 A 
HETATM   19  C15 UNL     1      32.433   7.813   4.000  1.00  0.00     0.099 A 
HETATM   20  N10 UNL     1      31.144   9.691   4.620  1.00  0.00    -0.359 N 
HETATM   21  C14 UNL     1      33.086   6.658   4.384  1.00  0.00     0.130 A 
HETATM   22  N9  UNL     1      32.403   8.233   2.723  1.00  0.00    -0.318 N 
HETATM   23  C13 UNL     1      33.091   6.263   5.709  1.00  0.00     0.129 A 
HETATM   24  C16 UNL     1      31.757   9.358   2.402  1.00  0.00     0.261 A 
ATOM     25  H9  UNL     1      32.874   7.691   1.998  1.00  0.00     0.169 HD
HETATM   26  O3  UNL     1      31.765   9.699   1.192  1.00  0.00    -0.267 OA
HETATM   27  C17 UNL     1      31.112  10.111   3.349  1.00  0.00     0.163 A 
ATOM     28  H10 UNL     1      30.673  10.235   5.343  1.00  0.00     0.165 HD
BRANCH  21  29
HETATM   29  O2  UNL     1      33.724   5.922   3.403  1.00  0.00    -0.356 OA
ATOM     30  H2  UNL     1      33.814   6.246   2.515  1.00  0.00     0.218 HD
ENDBRANCH  21  29
BRANCH  23  31
HETATM   31  O1  UNL     1      33.739   5.111   6.111  1.00  0.00    -0.356 OA
ATOM     32  H1  UNL     1      33.213   4.324   6.198  1.00  0.00     0.218 HD
ENDBRANCH  23  31
ENDBRANCH   1  15
BRANCH  13  33
HETATM   33  N6  UNL     1      29.396   4.635   8.128  1.00  0.00    -0.308 N 
HETATM   34  C9  UNL     1      28.159   4.955   8.283  1.00  0.00     0.137 C 
ATOM     35  H6  UNL     1      29.646   3.655   8.261  1.00  0.00     0.186 HD
BRANCH  34  36
HETATM   36  C10 UNL     1      27.122   3.951   8.640  1.00  0.00     0.057 A 
HETATM   37  C11 UNL     1      27.017   3.517   9.933  1.00  0.00     0.084 A 
HETATM   38  S1  UNL     1      25.722   2.407   9.831  1.00  0.00    -0.064 SA
HETATM   39  C12 UNL     1      25.395   2.557   8.168  1.00  0.00     0.142 A 
HETATM   40  N8  UNL     1      26.291   3.453   7.760  1.00  0.00    -0.335 N 
ATOM     41  H8  UNL     1      26.329   3.745   6.784  1.00  0.00     0.168 HD
BRANCH  39  42
HETATM   42  N7  UNL     1      24.484   1.946   7.448  1.00  0.00    -0.380 N 
ATOM     43  H72 UNL     1      23.505   2.207   7.326  1.00  0.00     0.158 HD
ATOM     44  H71 UNL     1      24.574   1.104   6.879  1.00  0.00     0.158 HD
ENDBRANCH  39  42
ENDBRANCH  34  36
ENDBRANCH  13  33
TORSDOF 6
ENDMDL
MODEL 4
REMARK VINA RESULT: -7.408107152      3.645      5.857
REMARK  6 active torsions:
REMARK  status: ('A' for Active; 'I' for Inactive)
REMARK    1  A    between atoms: C3_3  and  N1_4 
REMARK    2  A    between atoms: N5_16  and  N6_18 
REMARK    3  A    between atoms: C9_20  and  C10_21 
REMARK    4  A    between atoms: C12_24  and  N7_25 
REMARK    5  A    between atoms: C13_30  and  O1_31 
REMARK    6  A    between atoms: C14_33  and  O2_34 
ROOT
HETATM    1  N1  UNL     1      31.403   6.046   4.300  1.00  0.00    -0.269 N 
HETATM    2  C4  UNL     1      30.232   5.343   3.820  1.00  0.00     0.202 C 
HETATM    3  N2  UNL     1      29.683   5.587   2.535  1.00  0.00    -0.062 NA
HETATM    4  N3  UNL     1      29.717   4.485   4.624  1.00  0.00    -0.319 N 
ATOM      5  H3  UNL     1      28.891   3.979   4.305  1.00  0.00     0.169 HD
HETATM    6  C5  UNL     1      30.206   4.189   5.913  1.00  0.00     0.088 C 
HETATM    7  N4  UNL     1      29.939   3.087   6.536  1.00  0.00    -0.388 N 
ATOM      8  H41 UNL     1      30.293   2.872   7.468  1.00  0.00     0.157 HD
ATOM      9  H42 UNL     1      29.345   2.401   6.070  1.00  0.00     0.157 HD
HETATM   10  C6  UNL     1      31.066   5.180   6.587  1.00  0.00     0.118 C 
HETATM   11  C7  UNL     1      30.109   6.240   7.145  1.00  0.00     0.026 C 
HETATM   12  C8  UNL     1      31.945   5.801   5.586  1.00  0.00     0.116 C 
HETATM   13  N5  UNL     1      33.181   6.130   5.830  1.00  0.00    -0.288 N 
ATOM     14  H5  UNL     1      33.715   6.557   5.072  1.00  0.00     0.188 HD
ENDROOT
BRANCH   1  15
HETATM   15  C3  UNL     1      32.049   6.983   3.446  1.00  0.00     0.087 A 
HETATM   16  C2  UNL     1      31.602   8.266   3.368  1.00  0.00    -0.003 A 
HETATM   17  C1  UNL     1      30.438   8.716   4.147  1.00  0.00     0.053 C 
HETATM   18  C18 UNL     1      32.215   9.220   2.543  1.00  0.00     0.070 A 
HETATM   19  C15 UNL     1      33.300   8.869   1.783  1.00  0.00     0.099 A 
HETATM   20  N10 UNL     1      31.731  10.476   2.506  1.00  0.00    -0.359 N 
HETATM   21  C14 UNL     1      33.767   7.571   1.849  1.00  0.00     0.130 A 
HETATM   22  N9  UNL     1      33.871   9.801   1.000  1.00  0.00    -0.318 N 
HETATM   23  C13 UNL     1      33.149   6.645   2.667  1.00  0.00     0.129 A 
HETATM   24  C16 UNL     1      33.382  11.044   0.971  1.00  0.00     0.261 A 
ATOM     25  H9  UNL     1      34.679   9.558   0.427  1.00  0.00     0.169 HD
HETATM   26  O3  UNL     1      33.958  11.871   0.220  1.00  0.00    -0.267 OA
HETATM   27  C17 UNL     1      32.297  11.406   1.728  1.00  0.00     0.163 A 
ATOM     28  H10 UNL     1      30.923  10.722   3.079  1.00  0.00     0.165 HD
BRANCH  21  29
HETATM   29  O2  UNL     1      34.863   7.240   1.072  1.00  0.00    -0.356 OA
ATOM     30  H2  UNL     1      35.673   7.733   1.115  1.00  0.00     0.218 HD
ENDBRANCH  21  29
BRANCH  23  31
HETATM   31  O1  UNL     1      33.603   5.341   2.746  1.00  0.00    -0.356 OA
ATOM     32  H1  UNL     1      33.007   4.656   2.467  1.00  0.00     0.218 HD
ENDBRANCH  23  31
ENDBRANCH   1  15
BRANCH  13  33
HETATM   33  N6  UNL     1      33.816   5.946   7.024  1.00  0.00    -0.308 N 
HETATM   34  C9  UNL     1      34.640   4.994   7.293  1.00  0.00     0.137 C 
ATOM     35  H6  UNL     1      33.621   6.619   7.765  1.00  0.00     0.186 HD
BRANCH  34  36
HETATM   36  C10 UNL     1      35.291   4.865   8.623  1.00  0.00     0.057 A 
HETATM   37  C11 UNL     1      34.577   5.141   9.756  1.00  0.00     0.084 A 
HETATM   38  S1  UNL     1      35.731   4.855  10.982  1.00  0.00    -0.064 SA
HETATM   39  C12 UNL     1      37.040   4.407   9.993  1.00  0.00     0.142 A 
HETATM   40  N8  UNL     1      36.538   4.494   8.763  1.00  0.00    -0.335 N 
ATOM     41  H8  UNL     1      37.113   4.276   7.949  1.00  0.00     0.168 HD
BRANCH  39  42
HETATM   42  N7  UNL     1      38.256   4.056  10.342  1.00  0.00    -0.380 N 
ATOM     43  H72 UNL     1      39.097   4.634  10.342  1.00  0.00     0.158 HD
ATOM     44  H71 UNL     1      38.593   3.153  10.675  1.00  0.00     0.158 HD
ENDBRANCH  39  42
ENDBRANCH  34  36
ENDBRANCH  13  33
TORSDOF 6
ENDMDL
MODEL 5
REMARK VINA RESULT: -7.007519275      3.674      5.976
REMARK  6 active torsions:
REMARK  status: ('A' for Active; 'I' for Inactive)
REMARK    1  A    between atoms: C3_3  and  N1_4 
REMARK    2  A    between atoms: N5_16  and  N6_18 
REMARK    3  A    between atoms: C9_20  and  C10_21 
REMARK    4  A    between atoms: C12_24  and  N7_25 
REMARK    5  A    between atoms: C13_30  and  O1_31 
REMARK    6  A    between atoms: C14_33  and  O2_34 
ROOT
HETATM    1  N1  UNL     1      31.181   5.498   4.375  1.00  0.00    -0.269 N 
HETATM    2  C4  UNL     1      29.762   5.351   4.133  1.00  0.00     0.202 C 
HETATM    3  N2  UNL     1      29.167   5.727   2.901  1.00  0.00    -0.062 NA
HETATM    4  N3  UNL     1      29.069   4.861   5.096  1.00  0.00    -0.319 N 
ATOM      5  H3  UNL     1      28.067   4.750   4.945  1.00  0.00     0.169 HD
HETATM    6  C5  UNL     1      29.589   4.464   6.345  1.00  0.00     0.088 C 
HETATM    7  N4  UNL     1      28.984   3.635   7.133  1.00  0.00    -0.388 N 
ATOM      8  H41 UNL     1      29.360   3.347   8.037  1.00  0.00     0.157 HD
ATOM      9  H42 UNL     1      28.087   3.252   6.834  1.00  0.00     0.157 HD
HETATM   10  C6  UNL     1      30.885   5.019   6.779  1.00  0.00     0.118 C 
HETATM   11  C7  UNL     1      30.575   6.425   7.305  1.00  0.00     0.026 C 
HETATM   12  C8  UNL     1      31.769   5.124   5.609  1.00  0.00     0.116 C 
HETATM   13  N5  UNL     1      33.049   4.890   5.660  1.00  0.00    -0.288 N 
ATOM     14  H5  UNL     1      33.583   4.989   4.796  1.00  0.00     0.188 HD
ENDROOT
BRANCH   1  15
HETATM   15  C3  UNL     1      32.015   5.998   3.337  1.00  0.00     0.087 A 
HETATM   16  C2  UNL     1      32.172   7.339   3.165  1.00  0.00    -0.003 A 
HETATM   17  C1  UNL     1      31.479   8.304   4.032  1.00  0.00     0.053 C 
HETATM   18  C18 UNL     1      32.990   7.870   2.158  1.00  0.00     0.070 A 
HETATM   19  C15 UNL     1      33.661   7.029   1.308  1.00  0.00     0.099 A 
HETATM   20  N10 UNL     1      33.110   9.206   2.034  1.00  0.00    -0.359 N 
HETATM   21  C14 UNL     1      33.513   5.665   1.467  1.00  0.00     0.130 A 
HETATM   22  N9  UNL     1      34.439   7.562   0.351  1.00  0.00    -0.318 N 
HETATM   23  C13 UNL     1      32.702   5.160   2.466  1.00  0.00     0.129 A 
HETATM   24  C16 UNL     1      34.550   8.889   0.237  1.00  0.00     0.261 A 
ATOM     25  H9  UNL     1      34.946   6.952  -0.291  1.00  0.00     0.169 HD
HETATM   26  O3  UNL     1      35.292   9.328  -0.677  1.00  0.00    -0.267 OA
HETATM   27  C17 UNL     1      33.883   9.739   1.081  1.00  0.00     0.163 A 
ATOM     28  H10 UNL     1      32.604   9.818   2.675  1.00  0.00     0.165 HD
BRANCH  21  29
HETATM   29  O2  UNL     1      34.199   4.837   0.598  1.00  0.00    -0.356 OA
ATOM     30  H2  UNL     1      34.538   5.153  -0.230  1.00  0.00     0.218 HD
ENDBRANCH  21  29
BRANCH  23  31
HETATM   31  O1  UNL     1      32.542   3.798   2.640  1.00  0.00    -0.356 OA
ATOM     32  H1  UNL     1      32.345   3.281   1.868  1.00  0.00     0.218 HD
ENDBRANCH  23  31
ENDBRANCH   1  15
BRANCH  13  33
HETATM   33  N6  UNL     1      33.730   4.524   6.785  1.00  0.00    -0.308 N 
HETATM   34  C9  UNL     1      34.698   5.183   7.320  1.00  0.00     0.137 C 
ATOM     35  H6  UNL     1      33.448   3.655   7.239  1.00  0.00     0.186 HD
BRANCH  34  36
HETATM   36  C10 UNL     1      35.389   4.713   8.550  1.00  0.00     0.057 A 
HETATM   37  C11 UNL     1      34.661   4.453   9.678  1.00  0.00     0.084 A 
HETATM   38  S1  UNL     1      35.872   3.960  10.776  1.00  0.00    -0.064 SA
HETATM   39  C12 UNL     1      37.219   4.112   9.749  1.00  0.00     0.142 A 
HETATM   40  N8  UNL     1      36.685   4.534   8.605  1.00  0.00    -0.335 N 
ATOM     41  H8  UNL     1      37.271   4.713   7.790  1.00  0.00     0.168 HD
BRANCH  39  42
HETATM   42  N7  UNL     1      38.484   3.874  10.005  1.00  0.00    -0.380 N 
ATOM     43  H72 UNL     1      38.883   3.069  10.488  1.00  0.00     0.158 HD
ATOM     44  H71 UNL     1      39.302   4.438   9.775  1.00  0.00     0.158 HD
ENDBRANCH  39  42
ENDBRANCH  34  36
ENDBRANCH  13  33
TORSDOF 6
ENDMDL
