MODEL 1
REMARK VINA RESULT: -7.744090755      0.000      0.000
REMARK  7 active torsions:
REMARK  status: ('A' for Active; 'I' for Inactive)
REMARK    1  A    between atoms: C2_2  and  C3_3 
REMARK    2  A    between atoms: C3_3  and  C4_4 
REMARK    3  A    between atoms: C4_4  and  C5_5 
REMARK    4  A    between atoms: N1_7  and  N2_9 
REMARK    5  A    between atoms: N2_9  and  C7_11 
REMARK    6  A    between atoms: C7_11  and  N3_13 
REMARK    7  A    between atoms: N3_13  and  N4_15 
ROOT
HETATM    1  N3  UNL     1      20.705  -2.881  11.980  1.00  0.00    -0.276 N 
ATOM      2  H3  UNL     1      20.142  -2.698  11.151  1.00  0.00     0.189 HD
ENDROOT
BRANCH   1   3
HETATM    3  C7  UNL     1      20.656  -4.163  12.624  1.00  0.00     0.205 C 
HETATM    4  S1  UNL     1      22.012  -5.098  12.724  1.00  0.00    -0.038 SA
BRANCH   3   5
HETATM    5  N2  UNL     1      19.466  -4.671  13.191  1.00  0.00    -0.275 N 
ATOM      6  H2  UNL     1      19.491  -5.062  14.133  1.00  0.00     0.189 HD
BRANCH   5   7
HETATM    7  N1  UNL     1      18.265  -4.653  12.498  1.00  0.00    -0.307 N 
HETATM    8  C5  UNL     1      17.759  -5.722  11.960  1.00  0.00    -0.000 C 
HETATM    9  C6  UNL     1      18.511  -6.990  12.107  1.00  0.00     0.065 C 
ATOM     10  H1  UNL     1      17.762  -3.770  12.408  1.00  0.00     0.186 HD
BRANCH   8  11
HETATM   11  C4  UNL     1      16.487  -5.696  11.227  1.00  0.00     0.053 C 
BRANCH  11  12
HETATM   12  C3  UNL     1      15.610  -6.891  11.497  1.00  0.00     0.005 C 
BRANCH  12  13
HETATM   13  C2  UNL     1      15.491  -7.652  10.174  1.00  0.00    -0.004 C 
HETATM   14  C1  UNL     1      15.897  -9.093  10.395  1.00  0.00     0.005 C 
ENDBRANCH  12  13
ENDBRANCH  11  12
ENDBRANCH   8  11
ENDBRANCH   5   7
ENDBRANCH   3   5
ENDBRANCH   1   3
BRANCH   1  15
HETATM   15  N4  UNL     1      21.510  -1.923  12.489  1.00  0.00    -0.312 N 
HETATM   16  C8  UNL     1      21.092  -1.296  13.699  1.00  0.00     0.174 C 
HETATM   17  C9  UNL     1      22.321  -0.665  14.332  1.00  0.00     0.293 C 
HETATM   18  N5  UNL     1      23.041   0.166  13.391  1.00  0.00     0.088 N 
HETATM   19  C10 UNL     1      24.180   0.721  14.070  1.00  0.00     0.310 C 
HETATM   20  C11 UNL     1      23.416  -0.576  12.193  1.00  0.00     0.304 C 
HETATM   21  C12 UNL     1      22.119  -1.028  11.552  1.00  0.00     0.074 C 
HETATM   22  C13 UNL     1      22.337  -1.700  10.227  1.00  0.00     0.034 C 
HETATM   23  C16 UNL     1      21.298   0.212  11.284  1.00  0.00     0.034 C 
HETATM   24  C14 UNL     1      21.487  -0.928   9.238  1.00  0.00     0.003 C 
HETATM   25  C15 UNL     1      21.574   0.482   9.810  1.00  0.00     0.003 C 
ENDBRANCH   1  15
TORSDOF 7
ENDMDL
MODEL 2
REMARK VINA RESULT: -7.638500936      1.622      2.604
REMARK  7 active torsions:
REMARK  status: ('A' for Active; 'I' for Inactive)
REMARK    1  A    between atoms: C2_2  and  C3_3 
REMARK    2  A    between atoms: C3_3  and  C4_4 
REMARK    3  A    between atoms: C4_4  and  C5_5 
REMARK    4  A    between atoms: N1_7  and  N2_9 
REMARK    5  A    between atoms: N2_9  and  C7_11 
REMARK    6  A    between atoms: C7_11  and  N3_13 
REMARK    7  A    between atoms: N3_13  and  N4_15 
ROOT
HETATM    1  N3  UNL     1      20.343  -2.438  12.912  1.00  0.00    -0.276 N 
ATOM      2  H3  UNL     1      20.075  -1.481  13.144  1.00  0.00     0.189 HD
ENDROOT
BRANCH   1   3
HETATM    3  C7  UNL     1      19.609  -3.548  13.447  1.00  0.00     0.205 C 
HETATM    4  S1  UNL     1      19.232  -3.603  15.053  1.00  0.00    -0.038 SA
BRANCH   3   5
HETATM    5  N2  UNL     1      19.183  -4.626  12.637  1.00  0.00    -0.275 N 
ATOM      6  H2  UNL     1      19.876  -5.283  12.280  1.00  0.00     0.189 HD
BRANCH   5   7
HETATM    7  N1  UNL     1      17.847  -4.809  12.316  1.00  0.00    -0.307 N 
HETATM    8  C5  UNL     1      17.364  -5.973  11.998  1.00  0.00    -0.000 C 
HETATM    9  C6  UNL     1      18.295  -7.126  11.987  1.00  0.00     0.065 C 
ATOM     10  H1  UNL     1      17.222  -4.004  12.328  1.00  0.00     0.186 HD
BRANCH   8  11
HETATM   11  C4  UNL     1      15.948  -6.162  11.658  1.00  0.00     0.053 C 
BRANCH  11  12
HETATM   12  C3  UNL     1      15.729  -7.015  10.436  1.00  0.00     0.005 C 
BRANCH  12  13
HETATM   13  C2  UNL     1      14.992  -8.272  10.910  1.00  0.00    -0.004 C 
HETATM   14  C1  UNL     1      15.694  -9.493  10.356  1.00  0.00     0.005 C 
ENDBRANCH  12  13
ENDBRANCH  11  12
ENDBRANCH   8  11
ENDBRANCH   5   7
ENDBRANCH   3   5
ENDBRANCH   1   3
BRANCH   1  15
HETATM   15  N4  UNL     1      21.393  -2.678  12.097  1.00  0.00    -0.312 N 
HETATM   16  C8  UNL     1      22.299  -3.706  12.488  1.00  0.00     0.174 C 
HETATM   17  C9  UNL     1      23.061  -4.137  11.245  1.00  0.00     0.293 C 
HETATM   18  N5  UNL     1      23.633  -3.005  10.548  1.00  0.00     0.088 N 
HETATM   19  C10 UNL     1      24.332  -3.501   9.394  1.00  0.00     0.310 C 
HETATM   20  C11 UNL     1      22.619  -2.017  10.200  1.00  0.00     0.304 C 
HETATM   21  C12 UNL     1      22.028  -1.537  11.511  1.00  0.00     0.074 C 
HETATM   22  C13 UNL     1      21.052  -0.411  11.324  1.00  0.00     0.034 C 
HETATM   23  C16 UNL     1      23.169  -0.991  12.340  1.00  0.00     0.034 C 
HETATM   24  C14 UNL     1      21.562   0.717  12.197  1.00  0.00     0.003 C 
HETATM   25  C15 UNL     1      23.069   0.509  12.099  1.00  0.00     0.003 C 
ENDBRANCH   1  15
TORSDOF 7
ENDMDL
MODEL 3
REMARK VINA RESULT: -7.611932209      1.947      3.363
REMARK  7 active torsions:
REMARK  status: ('A' for Active; 'I' for Inactive)
REMARK    1  A    between atoms: C2_2  and  C3_3 
REMARK    2  A    between atoms: C3_3  and  C4_4 
REMARK    3  A    between atoms: C4_4  and  C5_5 
REMARK    4  A    between atoms: N1_7  and  N2_9 
REMARK    5  A    between atoms: N2_9  and  C7_11 
REMARK    6  A    between atoms: C7_11  and  N3_13 
REMARK    7  A    between atoms: N3_13  and  N4_15 
ROOT
HETATM    1  N3  UNL     1      20.453  -1.981  13.118  1.00  0.00    -0.276 N 
ATOM      2  H3  UNL     1      20.332  -0.994  13.344  1.00  0.00     0.189 HD
ENDROOT
BRANCH   1   3
HETATM    3  C7  UNL     1      19.603  -2.972  13.713  1.00  0.00     0.205 C 
HETATM    4  S1  UNL     1      19.536  -3.135  15.354  1.00  0.00    -0.038 SA
BRANCH   3   5
HETATM    5  N2  UNL     1      18.801  -3.837  12.935  1.00  0.00    -0.275 N 
ATOM      6  H2  UNL     1      17.982  -3.461  12.458  1.00  0.00     0.189 HD
BRANCH   5   7
HETATM    7  N1  UNL     1      19.101  -5.185  12.805  1.00  0.00    -0.307 N 
HETATM    8  C5  UNL     1      18.303  -6.017  12.206  1.00  0.00    -0.000 C 
HETATM    9  C6  UNL     1      17.038  -5.482  11.652  1.00  0.00     0.065 C 
ATOM     10  H1  UNL     1      19.976  -5.534  13.194  1.00  0.00     0.186 HD
BRANCH   8  11
HETATM   11  C4  UNL     1      18.625  -7.444  12.072  1.00  0.00     0.053 C 
BRANCH  11  12
HETATM   12  C3  UNL     1      20.103  -7.735  12.104  1.00  0.00     0.005 C 
BRANCH  12  13
HETATM   13  C2  UNL     1      20.245  -9.259  12.150  1.00  0.00    -0.004 C 
HETATM   14  C1  UNL     1      21.715  -9.617  12.172  1.00  0.00     0.005 C 
ENDBRANCH  12  13
ENDBRANCH  11  12
ENDBRANCH   8  11
ENDBRANCH   5   7
ENDBRANCH   3   5
ENDBRANCH   1   3
BRANCH   1  15
HETATM   15  N4  UNL     1      21.414  -2.375  12.255  1.00  0.00    -0.312 N 
HETATM   16  C8  UNL     1      22.273  -3.432  12.673  1.00  0.00     0.174 C 
HETATM   17  C9  UNL     1      22.898  -4.031  11.425  1.00  0.00     0.293 C 
HETATM   18  N5  UNL     1      23.492  -3.015  10.582  1.00  0.00     0.088 N 
HETATM   19  C10 UNL     1      24.058  -3.666   9.433  1.00  0.00     0.310 C 
HETATM   20  C11 UNL     1      22.526  -1.985  10.218  1.00  0.00     0.304 C 
HETATM   21  C12 UNL     1      22.080  -1.344  11.517  1.00  0.00     0.074 C 
HETATM   22  C13 UNL     1      21.175  -0.167  11.296  1.00  0.00     0.034 C 
HETATM   23  C16 UNL     1      23.320  -0.818  12.204  1.00  0.00     0.034 C 
HETATM   24  C14 UNL     1      21.833   0.992  12.017  1.00  0.00     0.003 C 
HETATM   25  C15 UNL     1      23.308   0.658  11.829  1.00  0.00     0.003 C 
ENDBRANCH   1  15
TORSDOF 7
ENDMDL
MODEL 4
REMARK VINA RESULT: -7.606377265      1.775      2.757
REMARK  7 active torsions:
REMARK  status: ('A' for Active; 'I' for Inactive)
REMARK    1  A    between atoms: C2_2  and  C3_3 
REMARK    2  A    between atoms: C3_3  and  C4_4 
REMARK    3  A    between atoms: C4_4  and  C5_5 
REMARK    4  A    between atoms: N1_7  and  N2_9 
REMARK    5  A    between atoms: N2_9  and  C7_11 
REMARK    6  A    between atoms: C7_11  and  N3_13 
REMARK    7  A    between atoms: N3_13  and  N4_15 
ROOT
HETATM    1  N3  UNL     1      20.956  -2.229  13.708  1.00  0.00    -0.276 N 
ATOM      2  H3  UNL     1      21.140  -1.415  14.293  1.00  0.00     0.189 HD
ENDROOT
BRANCH   1   3
HETATM    3  C7  UNL     1      19.781  -3.025  13.918  1.00  0.00     0.205 C 
HETATM    4  S1  UNL     1      19.325  -3.452  15.446  1.00  0.00    -0.038 SA
BRANCH   3   5
HETATM    5  N2  UNL     1      18.976  -3.471  12.845  1.00  0.00    -0.275 N 
ATOM      6  H2  UNL     1      18.808  -2.847  12.056  1.00  0.00     0.189 HD
BRANCH   5   7
HETATM    7  N1  UNL     1      18.409  -4.737  12.840  1.00  0.00    -0.307 N 
HETATM    8  C5  UNL     1      18.838  -5.685  12.062  1.00  0.00    -0.000 C 
HETATM    9  C6  UNL     1      19.972  -5.377  11.161  1.00  0.00     0.065 C 
ATOM     10  H1  UNL     1      17.628  -4.929  13.467  1.00  0.00     0.186 HD
BRANCH   8  11
HETATM   11  C4  UNL     1      18.233  -7.023  12.060  1.00  0.00     0.053 C 
BRANCH  11  12
HETATM   12  C3  UNL     1      16.897  -7.081  11.365  1.00  0.00     0.005 C 
BRANCH  12  13
HETATM   13  C2  UNL     1      16.693  -8.537  10.936  1.00  0.00    -0.004 C 
HETATM   14  C1  UNL     1      15.228  -8.760  10.629  1.00  0.00     0.005 C 
ENDBRANCH  12  13
ENDBRANCH  11  12
ENDBRANCH   8  11
ENDBRANCH   5   7
ENDBRANCH   3   5
ENDBRANCH   1   3
BRANCH   1  15
HETATM   15  N4  UNL     1      21.814  -2.574  12.723  1.00  0.00    -0.312 N 
HETATM   16  C8  UNL     1      22.861  -3.481  13.059  1.00  0.00     0.174 C 
HETATM   17  C9  UNL     1      23.358  -4.102  11.764  1.00  0.00     0.293 C 
HETATM   18  N5  UNL     1      23.671  -3.096  10.773  1.00  0.00     0.088 N 
HETATM   19  C10 UNL     1      24.133  -3.766   9.589  1.00  0.00     0.310 C 
HETATM   20  C11 UNL     1      22.532  -2.225  10.510  1.00  0.00     0.304 C 
HETATM   21  C12 UNL     1      22.213  -1.536  11.822  1.00  0.00     0.074 C 
HETATM   22  C13 UNL     1      21.135  -0.500  11.680  1.00  0.00     0.034 C 
HETATM   23  C16 UNL     1      23.463  -0.808  12.259  1.00  0.00     0.034 C 
HETATM   24  C14 UNL     1      21.738   0.786  12.209  1.00  0.00     0.003 C 
HETATM   25  C15 UNL     1      23.196   0.619  11.799  1.00  0.00     0.003 C 
ENDBRANCH   1  15
TORSDOF 7
ENDMDL
MODEL 5
REMARK VINA RESULT: -7.605996644      1.261      2.837
REMARK  7 active torsions:
REMARK  status: ('A' for Active; 'I' for Inactive)
REMARK    1  A    between atoms: C2_2  and  C3_3 
REMARK    2  A    between atoms: C3_3  and  C4_4 
REMARK    3  A    between atoms: C4_4  and  C5_5 
REMARK    4  A    between atoms: N1_7  and  N2_9 
REMARK    5  A    between atoms: N2_9  and  C7_11 
REMARK    6  A    between atoms: C7_11  and  N3_13 
REMARK    7  A    between atoms: N3_13  and  N4_15 
ROOT
HETATM    1  N3  UNL     1      21.350  -3.393  13.267  1.00  0.00    -0.276 N 
ATOM      2  H3  UNL     1      22.129  -3.642  13.877  1.00  0.00     0.189 HD
ENDROOT
BRANCH   1   3
HETATM    3  C7  UNL     1      20.096  -4.081  13.371  1.00  0.00     0.205 C 
HETATM    4  S1  UNL     1      19.240  -4.045  14.781  1.00  0.00    -0.038 SA
BRANCH   3   5
HETATM    5  N2  UNL     1      19.547  -4.806  12.289  1.00  0.00    -0.275 N 
ATOM      6  H2  UNL     1      20.174  -5.255  11.622  1.00  0.00     0.189 HD
BRANCH   5   7
HETATM    7  N1  UNL     1      18.176  -4.922  12.113  1.00  0.00    -0.307 N 
HETATM    8  C5  UNL     1      17.593  -6.072  11.953  1.00  0.00    -0.000 C 
HETATM    9  C6  UNL     1      18.444  -7.284  11.963  1.00  0.00     0.065 C 
ATOM     10  H1  UNL     1      17.607  -4.076  12.109  1.00  0.00     0.186 HD
BRANCH   8  11
HETATM   11  C4  UNL     1      16.141  -6.189  11.766  1.00  0.00     0.053 C 
BRANCH  11  12
HETATM   12  C3  UNL     1      15.751  -6.911  10.503  1.00  0.00     0.005 C 
BRANCH  12  13
HETATM   13  C2  UNL     1      15.048  -8.201  10.939  1.00  0.00    -0.004 C 
HETATM   14  C1  UNL     1      15.736  -9.382  10.288  1.00  0.00     0.005 C 
ENDBRANCH  12  13
ENDBRANCH  11  12
ENDBRANCH   8  11
ENDBRANCH   5   7
ENDBRANCH   3   5
ENDBRANCH   1   3
BRANCH   1  15
HETATM   15  N4  UNL     1      21.485  -2.411  12.350  1.00  0.00    -0.312 N 
HETATM   16  C8  UNL     1      22.164  -2.738  11.140  1.00  0.00     0.174 C 
HETATM   17  C9  UNL     1      21.765  -1.703  10.101  1.00  0.00     0.293 C 
HETATM   18  N5  UNL     1      21.941  -0.354  10.593  1.00  0.00     0.088 N 
HETATM   19  C10 UNL     1      21.544   0.554   9.552  1.00  0.00     0.310 C 
HETATM   20  C11 UNL     1      21.206  -0.132  11.833  1.00  0.00     0.304 C 
HETATM   21  C12 UNL     1      21.783  -1.101  12.846  1.00  0.00     0.074 C 
HETATM   22  C13 UNL     1      21.213  -0.902  14.221  1.00  0.00     0.034 C 
HETATM   23  C16 UNL     1      23.264  -0.816  12.942  1.00  0.00     0.034 C 
HETATM   24  C14 UNL     1      22.407  -0.676  15.126  1.00  0.00     0.003 C 
HETATM   25  C15 UNL     1      23.355   0.059  14.186  1.00  0.00     0.003 C 
ENDBRANCH   1  15
TORSDOF 7
ENDMDL
