MODEL 1
REMARK VINA RESULT: -8.213478690      0.000      0.000
REMARK  5 active torsions:
REMARK  status: ('A' for Active; 'I' for Inactive)
REMARK       I    between atoms: C1_2  and  N1_3 
REMARK       I    between atoms: C1_2  and  N3_18 
REMARK    1  A    between atoms: N1_3  and  C2_5 
REMARK    2  A    between atoms: C2_5  and  C3_6 
REMARK    3  A    between atoms: C3_6  and  C4_7 
REMARK    4  A    between atoms: C4_7  and  N2_8 
REMARK    5  A    between atoms: N3_18  and  C13_20 
ROOT
HETATM    1  C2  UNL     1      20.283  -1.531  15.271  1.00  0.00     0.126 C 
ENDROOT
BRANCH   1   2
HETATM    2  N1  UNL     1      19.696  -2.847  14.988  1.00  0.00    -0.343 N 
HETATM    3  C1  UNL     1      19.493  -3.260  13.668  1.00  0.00     0.316 C 
HETATM    4  O1  UNL     1      19.815  -2.575  12.694  1.00  0.00    -0.247 OA
HETATM    5  N3  UNL     1      18.888  -4.525  13.430  1.00  0.00    -0.339 N 
ATOM      6  H3  UNL     1      18.615  -5.078  14.242  1.00  0.00     0.164 HD
ATOM      7  H1  UNL     1      19.436  -3.463  15.758  1.00  0.00     0.164 HD
BRANCH   5   8
HETATM    8  C13 UNL     1      18.631  -5.084  12.124  1.00  0.00     0.086 C 
HETATM    9  C14 UNL     1      19.773  -5.838  11.544  1.00  0.00     0.025 C 
HETATM   10  C15 UNL     1      19.860  -7.272  11.981  1.00  0.00     0.002 C 
HETATM   11  C16 UNL     1      18.533  -7.997  11.929  1.00  0.00     0.000 C 
HETATM   12  C17 UNL     1      17.443  -7.123  11.335  1.00  0.00     0.002 C 
HETATM   13  C18 UNL     1      17.359  -5.902  12.219  1.00  0.00     0.025 C 
ENDBRANCH   5   8
ENDBRANCH   1   2
BRANCH   1  14
HETATM   14  C3  UNL     1      21.739  -1.620  15.482  1.00  0.00     0.050 C 
BRANCH  14  15
HETATM   15  C4  UNL     1      22.531  -0.459  15.050  1.00  0.00     0.274 C 
BRANCH  15  16
HETATM   16  N2  UNL     1      23.456  -0.559  13.966  1.00  0.00     0.088 N 
HETATM   17  C5  UNL     1      23.084   0.519  13.042  1.00  0.00     0.275 C 
HETATM   18  C6  UNL     1      21.975   0.031  12.156  1.00  0.00     0.068 C 
HETATM   19  C7  UNL     1      22.661  -0.845  11.122  1.00  0.00     0.064 C 
HETATM   20  C8  UNL     1      21.718  -1.319  10.077  1.00  0.00     0.040 C 
HETATM   21  O2  UNL     1      23.557  -0.042  10.415  1.00  0.00    -0.380 OA
HETATM   22  C11 UNL     1      23.450  -1.869  11.838  1.00  0.00     0.068 C 
HETATM   23  C9  UNL     1      21.562  -0.066   9.202  1.00  0.00     0.029 C 
HETATM   24  C10 UNL     1      22.765   0.770   9.641  1.00  0.00     0.168 C 
HETATM   25  C12 UNL     1      23.416  -1.831  13.338  1.00  0.00     0.275 C 
ENDBRANCH  15  16
ENDBRANCH  14  15
ENDBRANCH   1  14
TORSDOF 5
ENDMDL
MODEL 2
REMARK VINA RESULT: -8.083485358      2.010      2.878
REMARK  5 active torsions:
REMARK  status: ('A' for Active; 'I' for Inactive)
REMARK       I    between atoms: C1_2  and  N1_3 
REMARK       I    between atoms: C1_2  and  N3_18 
REMARK    1  A    between atoms: N1_3  and  C2_5 
REMARK    2  A    between atoms: C2_5  and  C3_6 
REMARK    3  A    between atoms: C3_6  and  C4_7 
REMARK    4  A    between atoms: C4_7  and  N2_8 
REMARK    5  A    between atoms: N3_18  and  C13_20 
ROOT
HETATM    1  C2  UNL     1      20.595  -1.086  14.898  1.00  0.00     0.126 C 
ENDROOT
BRANCH   1   2
HETATM    2  N1  UNL     1      20.045  -2.437  14.732  1.00  0.00    -0.343 N 
HETATM    3  C1  UNL     1      19.730  -2.918  13.457  1.00  0.00     0.316 C 
HETATM    4  O1  UNL     1      19.920  -2.266  12.428  1.00  0.00    -0.247 OA
HETATM    5  N3  UNL     1      19.163  -4.217  13.335  1.00  0.00    -0.339 N 
ATOM      6  H3  UNL     1      19.000  -4.744  14.193  1.00  0.00     0.164 HD
ATOM      7  H1  UNL     1      19.892  -3.028  15.549  1.00  0.00     0.164 HD
BRANCH   5   8
HETATM    8  C13 UNL     1      18.803  -4.847  12.087  1.00  0.00     0.086 C 
HETATM    9  C14 UNL     1      19.904  -5.613  11.446  1.00  0.00     0.025 C 
HETATM   10  C15 UNL     1      20.055  -7.022  11.946  1.00  0.00     0.002 C 
HETATM   11  C16 UNL     1      18.742  -7.766  12.047  1.00  0.00     0.000 C 
HETATM   12  C17 UNL     1      17.588  -6.939  11.509  1.00  0.00     0.002 C 
HETATM   13  C18 UNL     1      17.560  -5.676  12.335  1.00  0.00     0.025 C 
ENDBRANCH   5   8
ENDBRANCH   1   2
BRANCH   1  14
HETATM   14  C3  UNL     1      22.057  -1.113  15.081  1.00  0.00     0.050 C 
BRANCH  14  15
HETATM   15  C4  UNL     1      22.868  -0.890  13.874  1.00  0.00     0.274 C 
BRANCH  15  16
HETATM   16  N2  UNL     1      24.071  -1.626  13.647  1.00  0.00     0.088 N 
HETATM   17  C5  UNL     1      24.003  -2.052  12.245  1.00  0.00     0.275 C 
HETATM   18  C6  UNL     1      23.200  -3.318  12.165  1.00  0.00     0.068 C 
HETATM   19  C7  UNL     1      24.151  -4.410  12.624  1.00  0.00     0.064 C 
HETATM   20  C8  UNL     1      23.554  -5.763  12.489  1.00  0.00     0.040 C 
HETATM   21  O2  UNL     1      25.226  -4.436  11.735  1.00  0.00    -0.380 OA
HETATM   22  C11 UNL     1      24.680  -4.031  13.951  1.00  0.00     0.068 C 
HETATM   23  C9  UNL     1      23.680  -6.014  10.979  1.00  0.00     0.029 C 
HETATM   24  C10 UNL     1      24.710  -4.958  10.574  1.00  0.00     0.168 C 
HETATM   25  C12 UNL     1      24.203  -2.731  14.529  1.00  0.00     0.275 C 
ENDBRANCH  15  16
ENDBRANCH  14  15
ENDBRANCH   1  14
TORSDOF 5
ENDMDL
MODEL 3
REMARK VINA RESULT: -8.070109007      1.814      2.588
REMARK  5 active torsions:
REMARK  status: ('A' for Active; 'I' for Inactive)
REMARK       I    between atoms: C1_2  and  N1_3 
REMARK       I    between atoms: C1_2  and  N3_18 
REMARK    1  A    between atoms: N1_3  and  C2_5 
REMARK    2  A    between atoms: C2_5  and  C3_6 
REMARK    3  A    between atoms: C3_6  and  C4_7 
REMARK    4  A    between atoms: C4_7  and  N2_8 
REMARK    5  A    between atoms: N3_18  and  C13_20 
ROOT
HETATM    1  C2  UNL     1      21.307  -0.731  14.481  1.00  0.00     0.126 C 
ENDROOT
BRANCH   1   2
HETATM    2  N1  UNL     1      21.210  -2.190  14.339  1.00  0.00    -0.343 N 
HETATM    3  C1  UNL     1      20.517  -2.750  13.262  1.00  0.00     0.316 C 
HETATM    4  O1  UNL     1      19.989  -2.071  12.379  1.00  0.00    -0.247 OA
HETATM    5  N3  UNL     1      20.411  -4.166  13.176  1.00  0.00    -0.339 N 
ATOM      6  H3  UNL     1      20.841  -4.718  13.918  1.00  0.00     0.164 HD
ATOM      7  H1  UNL     1      21.652  -2.798  15.029  1.00  0.00     0.164 HD
BRANCH   5   8
HETATM    8  C13 UNL     1      19.739  -4.880  12.116  1.00  0.00     0.086 C 
HETATM    9  C14 UNL     1      20.642  -5.679  11.248  1.00  0.00     0.025 C 
HETATM   10  C15 UNL     1      20.960  -7.050  11.773  1.00  0.00     0.002 C 
HETATM   11  C16 UNL     1      19.744  -7.796  12.277  1.00  0.00     0.000 C 
HETATM   12  C17 UNL     1      18.467  -7.016  12.026  1.00  0.00     0.002 C 
HETATM   13  C18 UNL     1      18.633  -5.701  12.747  1.00  0.00     0.025 C 
ENDBRANCH   5   8
ENDBRANCH   1   2
BRANCH   1  14
HETATM   14  C3  UNL     1      22.567  -0.213  13.918  1.00  0.00     0.050 C 
BRANCH  14  15
HETATM   15  C4  UNL     1      22.515   0.245  12.521  1.00  0.00     0.274 C 
BRANCH  15  16
HETATM   16  N2  UNL     1      23.592  -0.014  11.619  1.00  0.00     0.088 N 
HETATM   17  C5  UNL     1      23.058  -0.975  10.648  1.00  0.00     0.275 C 
HETATM   18  C6  UNL     1      23.188  -2.358  11.218  1.00  0.00     0.068 C 
HETATM   19  C7  UNL     1      24.650  -2.722  11.025  1.00  0.00     0.064 C 
HETATM   20  C8  UNL     1      24.935  -4.123  11.425  1.00  0.00     0.040 C 
HETATM   21  O2  UNL     1      24.910  -2.713   9.654  1.00  0.00    -0.380 OA
HETATM   22  C11 UNL     1      25.473  -1.659  11.640  1.00  0.00     0.068 C 
HETATM   23  C9  UNL     1      24.376  -4.911  10.232  1.00  0.00     0.029 C 
HETATM   24  C10 UNL     1      24.259  -3.820   9.166  1.00  0.00     0.168 C 
HETATM   25  C12 UNL     1      24.742  -0.516  12.282  1.00  0.00     0.275 C 
ENDBRANCH  15  16
ENDBRANCH  14  15
ENDBRANCH   1  14
TORSDOF 5
ENDMDL
MODEL 4
REMARK VINA RESULT: -8.007213750      1.266      1.456
REMARK  5 active torsions:
REMARK  status: ('A' for Active; 'I' for Inactive)
REMARK       I    between atoms: C1_2  and  N1_3 
REMARK       I    between atoms: C1_2  and  N3_18 
REMARK    1  A    between atoms: N1_3  and  C2_5 
REMARK    2  A    between atoms: C2_5  and  C3_6 
REMARK    3  A    between atoms: C3_6  and  C4_7 
REMARK    4  A    between atoms: C4_7  and  N2_8 
REMARK    5  A    between atoms: N3_18  and  C13_20 
ROOT
HETATM    1  C2  UNL     1      20.082  -1.864  15.541  1.00  0.00     0.126 C 
ENDROOT
BRANCH   1   2
HETATM    2  N1  UNL     1      19.575  -3.183  15.140  1.00  0.00    -0.343 N 
HETATM    3  C1  UNL     1      19.367  -3.479  13.790  1.00  0.00     0.316 C 
HETATM    4  O1  UNL     1      19.621  -2.684  12.882  1.00  0.00    -0.247 OA
HETATM    5  N3  UNL     1      18.840  -4.752  13.439  1.00  0.00    -0.339 N 
ATOM      6  H3  UNL     1      18.623  -5.399  14.198  1.00  0.00     0.164 HD
ATOM      7  H1  UNL     1      19.373  -3.887  15.850  1.00  0.00     0.164 HD
BRANCH   5   8
HETATM    8  C13 UNL     1      18.589  -5.199  12.089  1.00  0.00     0.086 C 
HETATM    9  C14 UNL     1      19.577  -6.183  11.575  1.00  0.00     0.025 C 
HETATM   10  C15 UNL     1      19.287  -7.609  11.946  1.00  0.00     0.002 C 
HETATM   11  C16 UNL     1      17.840  -8.000  11.741  1.00  0.00     0.000 C 
HETATM   12  C17 UNL     1      17.045  -6.879  11.098  1.00  0.00     0.002 C 
HETATM   13  C18 UNL     1      17.160  -5.698  12.031  1.00  0.00     0.025 C 
ENDBRANCH   5   8
ENDBRANCH   1   2
BRANCH   1  14
HETATM   14  C3  UNL     1      21.536  -1.892  15.780  1.00  0.00     0.050 C 
BRANCH  14  15
HETATM   15  C4  UNL     1      22.291  -0.711  15.335  1.00  0.00     0.274 C 
BRANCH  15  16
HETATM   16  N2  UNL     1      23.629  -0.831  14.850  1.00  0.00     0.088 N 
HETATM   17  C5  UNL     1      23.908   0.439  14.171  1.00  0.00     0.275 C 
HETATM   18  C6  UNL     1      23.382   0.361  12.768  1.00  0.00     0.068 C 
HETATM   19  C7  UNL     1      24.411  -0.461  12.012  1.00  0.00     0.064 C 
HETATM   20  C8  UNL     1      24.109  -0.536  10.560  1.00  0.00     0.040 C 
HETATM   21  O2  UNL     1      25.622   0.231  12.060  1.00  0.00    -0.380 OA
HETATM   22  C11 UNL     1      24.599  -1.737  12.733  1.00  0.00     0.068 C 
HETATM   23  C9  UNL     1      24.564   0.848  10.071  1.00  0.00     0.029 C 
HETATM   24  C10 UNL     1      25.440   1.315  11.235  1.00  0.00     0.168 C 
HETATM   25  C12 UNL     1      23.791  -1.941  13.981  1.00  0.00     0.275 C 
ENDBRANCH  15  16
ENDBRANCH  14  15
ENDBRANCH   1  14
TORSDOF 5
ENDMDL
MODEL 5
REMARK VINA RESULT: -7.909557605      2.276      4.096
REMARK  5 active torsions:
REMARK  status: ('A' for Active; 'I' for Inactive)
REMARK       I    between atoms: C1_2  and  N1_3 
REMARK       I    between atoms: C1_2  and  N3_18 
REMARK    1  A    between atoms: N1_3  and  C2_5 
REMARK    2  A    between atoms: C2_5  and  C3_6 
REMARK    3  A    between atoms: C3_6  and  C4_7 
REMARK    4  A    between atoms: C4_7  and  N2_8 
REMARK    5  A    between atoms: N3_18  and  C13_20 
ROOT
HETATM    1  C2  UNL     1      22.218  -2.484   8.701  1.00  0.00     0.126 C 
ENDROOT
BRANCH   1   2
HETATM    2  N1  UNL     1      21.399  -3.652   9.050  1.00  0.00    -0.343 N 
HETATM    3  C1  UNL     1      21.446  -4.186  10.341  1.00  0.00     0.316 C 
HETATM    4  O1  UNL     1      22.133  -3.702  11.243  1.00  0.00    -0.247 OA
HETATM    5  N3  UNL     1      20.669  -5.340  10.634  1.00  0.00    -0.339 N 
ATOM      6  H3  UNL     1      20.113  -5.740   9.878  1.00  0.00     0.164 HD
ATOM      7  H1  UNL     1      20.794  -4.075   8.347  1.00  0.00     0.164 HD
BRANCH   5   8
HETATM    8  C13 UNL     1      20.608  -5.989  11.923  1.00  0.00     0.086 C 
HETATM    9  C14 UNL     1      19.231  -6.191  12.443  1.00  0.00     0.025 C 
HETATM   10  C15 UNL     1      18.553  -7.435  11.947  1.00  0.00     0.002 C 
HETATM   11  C16 UNL     1      19.436  -8.663  12.003  1.00  0.00     0.000 C 
HETATM   12  C17 UNL     1      20.771  -8.360  12.658  1.00  0.00     0.002 C 
HETATM   13  C18 UNL     1      21.406  -7.273  11.826  1.00  0.00     0.025 C 
ENDBRANCH   5   8
ENDBRANCH   1   2
BRANCH   1  14
HETATM   14  C3  UNL     1      21.452  -1.230   8.816  1.00  0.00     0.050 C 
BRANCH  14  15
HETATM   15  C4  UNL     1      22.187  -0.062   9.326  1.00  0.00     0.274 C 
BRANCH  15  16
HETATM   16  N2  UNL     1      21.842   0.537  10.576  1.00  0.00     0.088 N 
HETATM   17  C5  UNL     1      23.111   0.679  11.298  1.00  0.00     0.275 C 
HETATM   18  C6  UNL     1      23.418  -0.617  11.992  1.00  0.00     0.068 C 
HETATM   19  C7  UNL     1      22.526  -0.618  13.222  1.00  0.00     0.064 C 
HETATM   20  C8  UNL     1      22.790  -1.785  14.102  1.00  0.00     0.040 C 
HETATM   21  O2  UNL     1      22.890   0.475  14.009  1.00  0.00    -0.380 OA
HETATM   22  C11 UNL     1      21.132  -0.404  12.779  1.00  0.00     0.068 C 
HETATM   23  C9  UNL     1      24.091  -1.363  14.802  1.00  0.00     0.029 C 
HETATM   24  C10 UNL     1      24.116   0.142  14.529  1.00  0.00     0.168 C 
HETATM   25  C12 UNL     1      20.903  -0.237  11.305  1.00  0.00     0.275 C 
ENDBRANCH  15  16
ENDBRANCH  14  15
ENDBRANCH   1  14
TORSDOF 5
ENDMDL
