MODEL 1
REMARK VINA RESULT: -6.992252889      0.000      0.000
REMARK  6 active torsions:
REMARK  status: ('A' for Active; 'I' for Inactive)
REMARK    1  A    between atoms: C2_2  and  C3_3 
REMARK    2  A    between atoms: C2_2  and  N2_8 
REMARK    3  A    between atoms: C3_3  and  C4_4 
REMARK    4  A    between atoms: C4_4  and  N1_5 
REMARK       I    between atoms: C7_10  and  N3_11 
REMARK       I    between atoms: C7_10  and  N6_18 
REMARK    5  A    between atoms: N4_13  and  C8_15 
REMARK    6  A    between atoms: N6_18  and  C9_20 
ROOT
HETATM    1  N2  UNL     1      21.460  -3.543  10.717  1.00  0.00    -0.221 N 
ATOM      2  H2  UNL     1      20.955  -3.966   9.938  1.00  0.00     0.178 HD
HETATM    3  C7  UNL     1      21.142  -3.881  11.908  1.00  0.00     0.689 C 
HETATM    4  N3  UNL     1      21.825  -3.310  13.000  1.00  0.00    -0.131 N 
ATOM      5  H3  UNL     1      22.631  -2.714  12.813  1.00  0.00     0.205 HD
HETATM    6  N4  UNL     1      21.481  -3.503  14.211  1.00  0.00    -0.264 N 
ATOM      7  H4  UNL     1      20.675  -4.098  14.403  1.00  0.00     0.189 HD
HETATM    8  N6  UNL     1      20.116  -4.814  12.127  1.00  0.00    -0.221 N 
ATOM      9  H6  UNL     1      19.283  -4.492  12.621  1.00  0.00     0.178 HD
ENDROOT
BRANCH   1  10
HETATM   10  C2  UNL     1      22.500  -2.588  10.430  1.00  0.00     0.097 C 
HETATM   11  C1  UNL     1      21.940  -1.585   9.438  1.00  0.00     0.032 C 
BRANCH  10  12
HETATM   12  C3  UNL     1      23.659  -3.349   9.808  1.00  0.00     0.055 C 
BRANCH  12  13
HETATM   13  C4  UNL     1      24.767  -3.625  10.774  1.00  0.00     0.273 C 
BRANCH  13  14
HETATM   14  N1  UNL     1      25.014  -5.002  11.051  1.00  0.00     0.080 N 
HETATM   15  C5  UNL     1      24.817  -5.403  12.417  1.00  0.00     0.309 C 
HETATM   16  C6  UNL     1      24.421  -5.899  10.100  1.00  0.00     0.309 C 
ENDBRANCH  13  14
ENDBRANCH  12  13
ENDBRANCH  10  12
ENDBRANCH   1  10
BRANCH   8  17
HETATM   17  C9  UNL     1      20.154  -6.193  11.706  1.00  0.00     0.099 C 
HETATM   18  C10 UNL     1      18.977  -6.920  12.326  1.00  0.00     0.026 C 
HETATM   19  C11 UNL     1      18.985  -8.320  11.783  1.00  0.00     0.002 C 
HETATM   20  C12 UNL     1      20.203  -9.040  12.292  1.00  0.00     0.000 C 
HETATM   21  C13 UNL     1      21.483  -8.298  12.051  1.00  0.00     0.002 C 
HETATM   22  C14 UNL     1      21.403  -6.829  12.245  1.00  0.00     0.026 C 
ENDBRANCH   8  17
BRANCH   6  23
HETATM   23  C8  UNL     1      22.171  -2.927  15.297  1.00  0.00     0.200 C 
HETATM   24  N5  UNL     1      21.499  -2.018  16.184  1.00  0.00    -0.068 NA
HETATM   25  S1  UNL     1      23.739  -3.311  15.523  1.00  0.00    -0.043 SA
ENDBRANCH   6  23
TORSDOF 6
ENDMDL
MODEL 2
REMARK VINA RESULT: -6.914543593      2.143      2.667
REMARK  6 active torsions:
REMARK  status: ('A' for Active; 'I' for Inactive)
REMARK    1  A    between atoms: C2_2  and  C3_3 
REMARK    2  A    between atoms: C2_2  and  N2_8 
REMARK    3  A    between atoms: C3_3  and  C4_4 
REMARK    4  A    between atoms: C4_4  and  N1_5 
REMARK       I    between atoms: C7_10  and  N3_11 
REMARK       I    between atoms: C7_10  and  N6_18 
REMARK    5  A    between atoms: N4_13  and  C8_15 
REMARK    6  A    between atoms: N6_18  and  C9_20 
ROOT
HETATM    1  N2  UNL     1      20.318  -2.840  12.360  1.00  0.00    -0.221 N 
ATOM      2  H2  UNL     1      19.911  -2.851  11.425  1.00  0.00     0.178 HD
HETATM    3  C7  UNL     1      19.738  -3.500  13.287  1.00  0.00     0.689 C 
HETATM    4  N3  UNL     1      20.281  -3.500  14.588  1.00  0.00    -0.131 N 
ATOM      5  H3  UNL     1      21.187  -3.055  14.737  1.00  0.00     0.205 HD
HETATM    6  N4  UNL     1      19.693  -4.029  15.586  1.00  0.00    -0.264 N 
ATOM      7  H4  UNL     1      18.787  -4.474  15.442  1.00  0.00     0.189 HD
HETATM    8  N6  UNL     1      18.563  -4.219  13.015  1.00  0.00    -0.221 N 
ATOM      9  H6  UNL     1      17.709  -3.926  13.490  1.00  0.00     0.178 HD
ENDROOT
BRANCH   1  10
HETATM   10  C2  UNL     1      21.522  -2.081  12.581  1.00  0.00     0.097 C 
HETATM   11  C1  UNL     1      21.292  -0.685  12.030  1.00  0.00     0.032 C 
BRANCH  10  12
HETATM   12  C3  UNL     1      22.642  -2.768  11.816  1.00  0.00     0.055 C 
BRANCH  12  13
HETATM   13  C4  UNL     1      22.800  -2.254  10.419  1.00  0.00     0.273 C 
BRANCH  13  14
HETATM   14  N1  UNL     1      23.019  -3.247   9.419  1.00  0.00     0.080 N 
HETATM   15  C5  UNL     1      24.104  -4.154   9.676  1.00  0.00     0.309 C 
HETATM   16  C6  UNL     1      21.819  -3.900   8.980  1.00  0.00     0.309 C 
ENDBRANCH  13  14
ENDBRANCH  12  13
ENDBRANCH  10  12
ENDBRANCH   1  10
BRANCH   8  17
HETATM   17  C9  UNL     1      18.475  -5.340  12.111  1.00  0.00     0.099 C 
HETATM   18  C10 UNL     1      17.032  -5.799  12.050  1.00  0.00     0.026 C 
HETATM   19  C11 UNL     1      16.958  -6.893  11.024  1.00  0.00     0.002 C 
HETATM   20  C12 UNL     1      17.728  -8.086  11.517  1.00  0.00     0.000 C 
HETATM   21  C13 UNL     1      19.127  -7.762  11.945  1.00  0.00     0.002 C 
HETATM   22  C14 UNL     1      19.279  -6.478  12.673  1.00  0.00     0.026 C 
ENDBRANCH   8  17
BRANCH   6  23
HETATM   23  C8  UNL     1      20.246  -4.023  16.882  1.00  0.00     0.200 C 
HETATM   24  N5  UNL     1      21.445  -3.281  17.157  1.00  0.00    -0.068 NA
HETATM   25  S1  UNL     1      19.499  -4.872  18.058  1.00  0.00    -0.043 SA
ENDBRANCH   6  23
TORSDOF 6
ENDMDL
MODEL 3
REMARK VINA RESULT: -6.890017321      1.193      1.193
REMARK  6 active torsions:
REMARK  status: ('A' for Active; 'I' for Inactive)
REMARK    1  A    between atoms: C2_2  and  C3_3 
REMARK    2  A    between atoms: C2_2  and  N2_8 
REMARK    3  A    between atoms: C3_3  and  C4_4 
REMARK    4  A    between atoms: C4_4  and  N1_5 
REMARK       I    between atoms: C7_10  and  N3_11 
REMARK       I    between atoms: C7_10  and  N6_18 
REMARK    5  A    between atoms: N4_13  and  C8_15 
REMARK    6  A    between atoms: N6_18  and  C9_20 
ROOT
HETATM    1  N2  UNL     1      21.423  -3.212  10.978  1.00  0.00    -0.221 N 
ATOM      2  H2  UNL     1      21.316  -3.742  10.113  1.00  0.00     0.178 HD
HETATM    3  C7  UNL     1      20.718  -3.545  11.991  1.00  0.00     0.689 C 
HETATM    4  N3  UNL     1      20.848  -2.828  13.197  1.00  0.00    -0.131 N 
ATOM      5  H3  UNL     1      21.580  -2.121  13.267  1.00  0.00     0.205 HD
HETATM    6  N4  UNL     1      20.092  -3.020  14.204  1.00  0.00    -0.264 N 
ATOM      7  H4  UNL     1      19.358  -3.726  14.138  1.00  0.00     0.189 HD
HETATM    8  N6  UNL     1      19.815  -4.617  11.902  1.00  0.00    -0.221 N 
ATOM      9  H6  UNL     1      18.823  -4.409  12.013  1.00  0.00     0.178 HD
ENDROOT
BRANCH   1  10
HETATM   10  C2  UNL     1      22.361  -2.120  11.008  1.00  0.00     0.097 C 
HETATM   11  C1  UNL     1      21.811  -1.017  10.121  1.00  0.00     0.032 C 
BRANCH  10  12
HETATM   12  C3  UNL     1      23.678  -2.632  10.449  1.00  0.00     0.055 C 
BRANCH  12  13
HETATM   13  C4  UNL     1      24.493  -3.381  11.456  1.00  0.00     0.273 C 
BRANCH  13  14
HETATM   14  N1  UNL     1      25.005  -4.639  11.021  1.00  0.00     0.080 N 
HETATM   15  C5  UNL     1      25.327  -5.570  12.067  1.00  0.00     0.309 C 
HETATM   16  C6  UNL     1      24.263  -5.225   9.941  1.00  0.00     0.309 C 
ENDBRANCH  13  14
ENDBRANCH  12  13
ENDBRANCH  10  12
ENDBRANCH   1  10
BRANCH   8  17
HETATM   17  C9  UNL     1      20.189  -5.990  11.664  1.00  0.00     0.099 C 
HETATM   18  C10 UNL     1      19.185  -6.891  12.355  1.00  0.00     0.026 C 
HETATM   19  C11 UNL     1      19.541  -8.305  11.999  1.00  0.00     0.002 C 
HETATM   20  C12 UNL     1      20.866  -8.652  12.617  1.00  0.00     0.000 C 
HETATM   21  C13 UNL     1      21.951  -7.666  12.302  1.00  0.00     0.002 C 
HETATM   22  C14 UNL     1      21.526  -6.244  12.301  1.00  0.00     0.026 C 
ENDBRANCH   8  17
BRANCH   6  23
HETATM   23  C8  UNL     1      20.230  -2.298  15.405  1.00  0.00     0.200 C 
HETATM   24  N5  UNL     1      19.412  -2.617  16.543  1.00  0.00    -0.068 NA
HETATM   25  S1  UNL     1      21.333  -1.098  15.477  1.00  0.00    -0.043 SA
ENDBRANCH   6  23
TORSDOF 6
ENDMDL
MODEL 4
REMARK VINA RESULT: -6.887251931      2.083      2.434
REMARK  6 active torsions:
REMARK  status: ('A' for Active; 'I' for Inactive)
REMARK    1  A    between atoms: C2_2  and  C3_3 
REMARK    2  A    between atoms: C2_2  and  N2_8 
REMARK    3  A    between atoms: C3_3  and  C4_4 
REMARK    4  A    between atoms: C4_4  and  N1_5 
REMARK       I    between atoms: C7_10  and  N3_11 
REMARK       I    between atoms: C7_10  and  N6_18 
REMARK    5  A    between atoms: N4_13  and  C8_15 
REMARK    6  A    between atoms: N6_18  and  C9_20 
ROOT
HETATM    1  N2  UNL     1      20.336  -2.847  12.376  1.00  0.00    -0.221 N 
ATOM      2  H2  UNL     1      19.933  -2.855  11.439  1.00  0.00     0.178 HD
HETATM    3  C7  UNL     1      19.751  -3.507  13.300  1.00  0.00     0.689 C 
HETATM    4  N3  UNL     1      20.290  -3.510  14.602  1.00  0.00    -0.131 N 
ATOM      5  H3  UNL     1      21.196  -3.068  14.756  1.00  0.00     0.205 HD
HETATM    6  N4  UNL     1      19.696  -4.039  15.597  1.00  0.00    -0.264 N 
ATOM      7  H4  UNL     1      18.789  -4.482  15.449  1.00  0.00     0.189 HD
HETATM    8  N6  UNL     1      18.575  -4.222  13.021  1.00  0.00    -0.221 N 
ATOM      9  H6  UNL     1      17.720  -3.929  13.494  1.00  0.00     0.178 HD
ENDROOT
BRANCH   1  10
HETATM   10  C2  UNL     1      21.541  -2.091  12.602  1.00  0.00     0.097 C 
HETATM   11  C1  UNL     1      21.193  -0.619  12.464  1.00  0.00     0.032 C 
BRANCH  10  12
HETATM   12  C3  UNL     1      22.542  -2.494  11.532  1.00  0.00     0.055 C 
BRANCH  12  13
HETATM   13  C4  UNL     1      23.668  -3.324  12.063  1.00  0.00     0.273 C 
BRANCH  13  14
HETATM   14  N1  UNL     1      24.551  -3.862  11.081  1.00  0.00     0.080 N 
HETATM   15  C5  UNL     1      25.165  -5.116  11.424  1.00  0.00     0.309 C 
HETATM   16  C6  UNL     1      24.025  -3.829   9.747  1.00  0.00     0.309 C 
ENDBRANCH  13  14
ENDBRANCH  12  13
ENDBRANCH  10  12
ENDBRANCH   1  10
BRANCH   8  17
HETATM   17  C9  UNL     1      18.489  -5.342  12.116  1.00  0.00     0.099 C 
HETATM   18  C10 UNL     1      17.048  -5.808  12.060  1.00  0.00     0.026 C 
HETATM   19  C11 UNL     1      16.974  -6.900  11.032  1.00  0.00     0.002 C 
HETATM   20  C12 UNL     1      17.752  -8.090  11.518  1.00  0.00     0.000 C 
HETATM   21  C13 UNL     1      19.152  -7.760  11.941  1.00  0.00     0.002 C 
HETATM   22  C14 UNL     1      19.302  -6.477  12.671  1.00  0.00     0.026 C 
ENDBRANCH   8  17
BRANCH   6  23
HETATM   23  C8  UNL     1      20.244  -4.037  16.896  1.00  0.00     0.200 C 
HETATM   24  N5  UNL     1      21.432  -3.281  17.181  1.00  0.00    -0.068 NA
HETATM   25  S1  UNL     1      19.505  -4.906  18.061  1.00  0.00    -0.043 SA
ENDBRANCH   6  23
TORSDOF 6
ENDMDL
MODEL 5
REMARK VINA RESULT: -6.873940770      2.552      3.135
REMARK  6 active torsions:
REMARK  status: ('A' for Active; 'I' for Inactive)
REMARK    1  A    between atoms: C2_2  and  C3_3 
REMARK    2  A    between atoms: C2_2  and  N2_8 
REMARK    3  A    between atoms: C3_3  and  C4_4 
REMARK    4  A    between atoms: C4_4  and  N1_5 
REMARK       I    between atoms: C7_10  and  N3_11 
REMARK       I    between atoms: C7_10  and  N6_18 
REMARK    5  A    between atoms: N4_13  and  C8_15 
REMARK    6  A    between atoms: N6_18  and  C9_20 
ROOT
HETATM    1  N2  UNL     1      20.299  -2.823  12.383  1.00  0.00    -0.221 N 
ATOM      2  H2  UNL     1      19.893  -2.833  11.448  1.00  0.00     0.178 HD
HETATM    3  C7  UNL     1      19.723  -3.491  13.308  1.00  0.00     0.689 C 
HETATM    4  N3  UNL     1      20.266  -3.492  14.609  1.00  0.00    -0.131 N 
ATOM      5  H3  UNL     1      21.169  -3.041  14.760  1.00  0.00     0.205 HD
HETATM    6  N4  UNL     1      19.681  -4.029  15.604  1.00  0.00    -0.264 N 
ATOM      7  H4  UNL     1      18.778  -4.480  15.458  1.00  0.00     0.189 HD
HETATM    8  N6  UNL     1      18.554  -4.216  13.031  1.00  0.00    -0.221 N 
ATOM      9  H6  UNL     1      17.697  -3.932  13.508  1.00  0.00     0.178 HD
ENDROOT
BRANCH   1  10
HETATM   10  C2  UNL     1      21.498  -2.056  12.608  1.00  0.00     0.097 C 
HETATM   11  C1  UNL     1      21.108  -0.589  12.627  1.00  0.00     0.032 C 
BRANCH  10  12
HETATM   12  C3  UNL     1      22.441  -2.331  11.448  1.00  0.00     0.055 C 
BRANCH  12  13
HETATM   13  C4  UNL     1      22.797  -1.101  10.675  1.00  0.00     0.273 C 
BRANCH  13  14
HETATM   14  N1  UNL     1      24.154  -0.678  10.782  1.00  0.00     0.080 N 
HETATM   15  C5  UNL     1      25.139  -1.678  10.477  1.00  0.00     0.309 C 
HETATM   16  C6  UNL     1      24.416   0.590  10.163  1.00  0.00     0.309 C 
ENDBRANCH  13  14
ENDBRANCH  12  13
ENDBRANCH  10  12
ENDBRANCH   1  10
BRANCH   8  17
HETATM   17  C9  UNL     1      18.475  -5.335  12.124  1.00  0.00     0.099 C 
HETATM   18  C10 UNL     1      17.034  -5.800  12.054  1.00  0.00     0.026 C 
HETATM   19  C11 UNL     1      16.969  -6.890  11.024  1.00  0.00     0.002 C 
HETATM   20  C12 UNL     1      17.742  -8.081  11.516  1.00  0.00     0.000 C 
HETATM   21  C13 UNL     1      19.138  -7.753  11.951  1.00  0.00     0.002 C 
HETATM   22  C14 UNL     1      19.282  -6.471  12.684  1.00  0.00     0.026 C 
ENDBRANCH   8  17
BRANCH   6  23
HETATM   23  C8  UNL     1      20.233  -4.024  16.901  1.00  0.00     0.200 C 
HETATM   24  N5  UNL     1      21.417  -3.260  17.183  1.00  0.00    -0.068 NA
HETATM   25  S1  UNL     1      19.503  -4.899  18.068  1.00  0.00    -0.043 SA
ENDBRANCH   6  23
TORSDOF 6
ENDMDL
