MODEL 1
REMARK VINA RESULT: -7.431190301      0.000      0.000
REMARK  10 active torsions:
REMARK  status: ('A' for Active; 'I' for Inactive)
REMARK    1  A    between atoms: C2_2  and  C3_3 
REMARK    2  A    between atoms: C3_3  and  N1_4 
REMARK    3  A    between atoms: C7_15  and  C8_16 
REMARK    4  A    between atoms: C8_16  and  S1_17 
REMARK    5  A    between atoms: S1_17  and  C10_20 
REMARK    6  A    between atoms: C10_20  and  C11_21 
REMARK    7  A    between atoms: C11_21  and  C12_22 
REMARK    8  A    between atoms: C12_22  and  O2_23 
REMARK    9  A    between atoms: C14_26  and  C15_27 
REMARK   10  A    between atoms: C16_33  and  N7_34 
ROOT
HETATM    1  N1  UNL     1      37.698  60.248  12.888  1.00  0.00    -0.221 N 
ATOM      2  H1  UNL     1      37.887  59.455  12.275  1.00  0.00     0.178 HD
HETATM    3  C4  UNL     1      36.700  60.911  12.538  1.00  0.00     0.693 C 
HETATM    4  N2  UNL     1      36.034  60.399  11.350  1.00  0.00    -0.186 N 
ATOM      5  H2  UNL     1      36.593  60.106  10.548  1.00  0.00     0.184 HD
HETATM    6  C5  UNL     1      34.590  60.300  11.287  1.00  0.00     0.106 A 
HETATM    7  C6  UNL     1      33.627  60.991  11.926  1.00  0.00     0.123 A 
HETATM    8  N3  UNL     1      32.472  60.345  11.651  1.00  0.00    -0.295 N 
ATOM      9  H3  UNL     1      31.549  60.613  11.992  1.00  0.00     0.187 HD
HETATM   10  N4  UNL     1      32.727  59.318  10.873  1.00  0.00    -0.301 N 
ATOM     11  H4  UNL     1      32.015  58.674  10.527  1.00  0.00     0.186 HD
HETATM   12  C7  UNL     1      34.006  59.217  10.594  1.00  0.00     0.066 A 
HETATM   13  C17 UNL     1      33.725  62.208  12.752  1.00  0.00     0.152 C 
HETATM   14  N8  UNL     1      33.143  63.073  13.491  1.00  0.00    -0.355 N 
ATOM     15  H8  UNL     1      32.173  63.159  13.796  1.00  0.00     0.163 HD
HETATM   16  C18 UNL     1      34.306  63.891  13.752  1.00  0.00     0.274 C 
HETATM   17  N9  UNL     1      35.006  62.712  13.272  1.00  0.00    -0.242 N 
HETATM   18  N10 UNL     1      36.231  62.073  13.247  1.00  0.00    -0.127 N 
ATOM     19  H10 UNL     1      36.936  62.507  13.844  1.00  0.00     0.206 HD
ENDROOT
BRANCH  12  20
HETATM   20  C8  UNL     1      34.839  58.424   9.655  1.00  0.00     0.156 C 
BRANCH  20  21
HETATM   21  S1  UNL     1      34.579  58.635   7.834  1.00  0.00    -0.053 S 
HETATM   22  C9  UNL     1      35.796  60.102   7.717  1.00  0.00     0.114 C 
HETATM   23  O1  UNL     1      33.927  57.225   7.564  1.00  0.00    -0.270 OA
BRANCH  21  24
HETATM   24  C10 UNL     1      33.135  59.605   7.156  1.00  0.00     0.099 C 
BRANCH  24  25
HETATM   25  C11 UNL     1      33.133  61.114   7.326  1.00  0.00     0.053 C 
BRANCH  25  26
HETATM   26  C12 UNL     1      31.763  61.584   7.577  1.00  0.00     0.115 C 
HETATM   27  C13 UNL     1      30.636  60.861   6.946  1.00  0.00     0.084 C 
HETATM   28  C14 UNL     1      29.500  61.764   7.479  1.00  0.00     0.279 C 
HETATM   29  N6  UNL     1      30.016  63.066   7.094  1.00  0.00    -0.031 N 
HETATM   30  C16 UNL     1      31.465  63.026   7.188  1.00  0.00     0.415 C 
ATOM     31  H62 UNL     1      29.689  63.362   6.175  1.00  0.00     0.280 HD
ATOM     32  H61 UNL     1      29.607  63.828   7.636  1.00  0.00     0.280 HD
BRANCH  26  33
HETATM   33  O2  UNL     1      31.583  61.501   8.999  1.00  0.00    -0.386 OA
ATOM     34  H2  UNL     1      30.708  61.831   9.163  1.00  0.00     0.210 HD
ENDBRANCH  26  33
BRANCH  28  35
HETATM   35  C15 UNL     1      28.216  61.415   6.894  1.00  0.00     0.262 C 
HETATM   36  N5  UNL     1      27.613  62.236   5.923  1.00  0.00    -0.060 NA
HETATM   37  O3  UNL     1      27.637  60.352   7.249  1.00  0.00    -0.275 OA
ENDBRANCH  28  35
BRANCH  30  38
HETATM   38  N7  UNL     1      32.027  63.400   5.937  1.00  0.00    -0.047 N 
ATOM     39  H73 UNL     1      32.839  64.004   6.072  1.00  0.00     0.276 HD
ATOM     40  H72 UNL     1      32.480  62.602   5.491  1.00  0.00     0.276 HD
ATOM     41  H71 UNL     1      31.355  63.834   5.305  1.00  0.00     0.276 HD
ENDBRANCH  30  38
ENDBRANCH  25  26
ENDBRANCH  24  25
ENDBRANCH  21  24
ENDBRANCH  20  21
ENDBRANCH  12  20
BRANCH   1  42
HETATM   42  C3  UNL     1      38.627  60.363  13.955  1.00  0.00     0.164 C 
BRANCH  42  43
HETATM   43  C2  UNL     1      39.712  59.319  13.694  1.00  0.00    -0.017 C 
HETATM   44  C1  UNL     1      39.704  58.634  12.559  1.00  0.00     0.008 C 
ENDBRANCH  42  43
ENDBRANCH   1  42
TORSDOF 10
ENDMDL
MODEL 2
REMARK VINA RESULT: -7.179333531      2.270      3.113
REMARK  10 active torsions:
REMARK  status: ('A' for Active; 'I' for Inactive)
REMARK    1  A    between atoms: C2_2  and  C3_3 
REMARK    2  A    between atoms: C3_3  and  N1_4 
REMARK    3  A    between atoms: C7_15  and  C8_16 
REMARK    4  A    between atoms: C8_16  and  S1_17 
REMARK    5  A    between atoms: S1_17  and  C10_20 
REMARK    6  A    between atoms: C10_20  and  C11_21 
REMARK    7  A    between atoms: C11_21  and  C12_22 
REMARK    8  A    between atoms: C12_22  and  O2_23 
REMARK    9  A    between atoms: C14_26  and  C15_27 
REMARK   10  A    between atoms: C16_33  and  N7_34 
ROOT
HETATM    1  N1  UNL     1      36.771  60.308  11.929  1.00  0.00    -0.221 N 
ATOM      2  H1  UNL     1      37.046  60.607  10.994  1.00  0.00     0.178 HD
HETATM    3  C4  UNL     1      35.625  59.814  11.968  1.00  0.00     0.693 C 
HETATM    4  N2  UNL     1      34.953  59.772  10.678  1.00  0.00    -0.186 N 
ATOM      5  H2  UNL     1      34.993  60.585  10.064  1.00  0.00     0.184 HD
HETATM    6  C5  UNL     1      34.227  58.591  10.253  1.00  0.00     0.106 A 
HETATM    7  C6  UNL     1      33.628  57.617  10.963  1.00  0.00     0.123 A 
HETATM    8  N3  UNL     1      33.290  56.667  10.064  1.00  0.00    -0.295 N 
ATOM      9  H3  UNL     1      32.822  55.787  10.281  1.00  0.00     0.187 HD
HETATM   10  N4  UNL     1      33.661  57.055   8.865  1.00  0.00    -0.301 N 
ATOM     11  H4  UNL     1      33.515  56.507   8.017  1.00  0.00     0.186 HD
HETATM   12  C7  UNL     1      34.242  58.233   8.886  1.00  0.00     0.066 A 
HETATM   13  C17 UNL     1      33.344  57.536  12.407  1.00  0.00     0.152 C 
HETATM   14  N8  UNL     1      32.886  56.862  13.392  1.00  0.00    -0.355 N 
ATOM     15  H8  UNL     1      32.492  55.923  13.443  1.00  0.00     0.163 HD
HETATM   16  C18 UNL     1      33.108  57.866  14.408  1.00  0.00     0.274 C 
HETATM   17  N9  UNL     1      33.975  58.432  13.389  1.00  0.00    -0.242 N 
HETATM   18  N10 UNL     1      35.017  59.314  13.173  1.00  0.00    -0.127 N 
ATOM     19  H10 UNL     1      35.434  59.680  14.030  1.00  0.00     0.206 HD
ENDROOT
BRANCH  12  20
HETATM   20  C8  UNL     1      34.673  59.234   7.879  1.00  0.00     0.156 C 
BRANCH  20  21
HETATM   21  S1  UNL     1      33.382  60.123   6.894  1.00  0.00    -0.053 S 
HETATM   22  C9  UNL     1      34.476  61.669   6.648  1.00  0.00     0.114 C 
HETATM   23  O1  UNL     1      32.496  58.865   6.550  1.00  0.00    -0.270 OA
BRANCH  21  24
HETATM   24  C10 UNL     1      31.999  61.067   7.718  1.00  0.00     0.099 C 
BRANCH  24  25
HETATM   25  C11 UNL     1      31.300  62.161   6.930  1.00  0.00     0.053 C 
BRANCH  25  26
HETATM   26  C12 UNL     1      29.847  62.077   7.144  1.00  0.00     0.115 C 
HETATM   27  C13 UNL     1      29.347  61.575   8.443  1.00  0.00     0.084 C 
HETATM   28  C14 UNL     1      27.838  61.649   8.115  1.00  0.00     0.279 C 
HETATM   29  N6  UNL     1      27.825  60.935   6.849  1.00  0.00    -0.031 N 
HETATM   30  C16 UNL     1      29.072  61.215   6.157  1.00  0.00     0.415 C 
ATOM     31  H62 UNL     1      27.653  59.937   6.962  1.00  0.00     0.280 HD
ATOM     32  H61 UNL     1      27.004  61.152   6.284  1.00  0.00     0.280 HD
BRANCH  26  33
HETATM   33  O2  UNL     1      29.359  63.418   6.985  1.00  0.00    -0.386 OA
ATOM     34  H2  UNL     1      29.196  63.519   6.055  1.00  0.00     0.210 HD
ENDBRANCH  26  33
BRANCH  28  35
HETATM   35  C15 UNL     1      27.030  61.051   9.164  1.00  0.00     0.262 C 
HETATM   36  N5  UNL     1      27.617  60.270  10.177  1.00  0.00    -0.060 NA
HETATM   37  O3  UNL     1      25.785  61.246   9.179  1.00  0.00    -0.275 OA
ENDBRANCH  28  35
BRANCH  30  38
HETATM   38  N7  UNL     1      29.721  59.990   5.845  1.00  0.00    -0.047 N 
ATOM     39  H73 UNL     1      29.611  59.765   4.856  1.00  0.00     0.276 HD
ATOM     40  H72 UNL     1      30.734  60.099   5.884  1.00  0.00     0.276 HD
ATOM     41  H71 UNL     1      29.418  59.211   6.430  1.00  0.00     0.276 HD
ENDBRANCH  30  38
ENDBRANCH  25  26
ENDBRANCH  24  25
ENDBRANCH  21  24
ENDBRANCH  20  21
ENDBRANCH  12  20
BRANCH   1  42
HETATM   42  C3  UNL     1      37.771  60.542  12.908  1.00  0.00     0.164 C 
BRANCH  42  43
HETATM   43  C2  UNL     1      38.423  59.189  13.187  1.00  0.00    -0.017 C 
HETATM   44  C1  UNL     1      39.582  58.889  12.618  1.00  0.00     0.008 C 
ENDBRANCH  42  43
ENDBRANCH   1  42
TORSDOF 10
ENDMDL
MODEL 3
REMARK VINA RESULT: -7.028579538      2.450      2.811
REMARK  10 active torsions:
REMARK  status: ('A' for Active; 'I' for Inactive)
REMARK    1  A    between atoms: C2_2  and  C3_3 
REMARK    2  A    between atoms: C3_3  and  N1_4 
REMARK    3  A    between atoms: C7_15  and  C8_16 
REMARK    4  A    between atoms: C8_16  and  S1_17 
REMARK    5  A    between atoms: S1_17  and  C10_20 
REMARK    6  A    between atoms: C10_20  and  C11_21 
REMARK    7  A    between atoms: C11_21  and  C12_22 
REMARK    8  A    between atoms: C12_22  and  O2_23 
REMARK    9  A    between atoms: C14_26  and  C15_27 
REMARK   10  A    between atoms: C16_33  and  N7_34 
ROOT
HETATM    1  N1  UNL     1      37.003  58.799  13.980  1.00  0.00    -0.221 N 
ATOM      2  H1  UNL     1      37.266  59.144  13.057  1.00  0.00     0.178 HD
HETATM    3  C4  UNL     1      35.768  58.725  14.142  1.00  0.00     0.693 C 
HETATM    4  N2  UNL     1      34.991  59.138  12.983  1.00  0.00    -0.186 N 
ATOM      5  H2  UNL     1      35.256  59.982  12.476  1.00  0.00     0.184 HD
HETATM    6  C5  UNL     1      33.847  58.367  12.538  1.00  0.00     0.106 A 
HETATM    7  C6  UNL     1      33.017  57.547  13.209  1.00  0.00     0.123 A 
HETATM    8  N3  UNL     1      32.264  56.939  12.266  1.00  0.00    -0.295 N 
ATOM      9  H3  UNL     1      31.536  56.248  12.445  1.00  0.00     0.187 HD
HETATM   10  N4  UNL     1      32.620  57.380  11.080  1.00  0.00    -0.301 N 
ATOM     11  H4  UNL     1      32.195  57.069  10.205  1.00  0.00     0.186 HD
HETATM   12  C7  UNL     1      33.584  58.267  11.153  1.00  0.00     0.066 A 
HETATM   13  C17 UNL     1      32.880  57.319  14.659  1.00  0.00     0.152 C 
HETATM   14  N8  UNL     1      32.318  56.681  15.614  1.00  0.00    -0.355 N 
ATOM     15  H8  UNL     1      31.620  55.938  15.611  1.00  0.00     0.163 HD
HETATM   16  C18 UNL     1      32.995  57.357  16.698  1.00  0.00     0.274 C 
HETATM   17  N9  UNL     1      33.893  57.763  15.630  1.00  0.00    -0.242 N 
HETATM   18  N10 UNL     1      35.153  58.261  15.359  1.00  0.00    -0.127 N 
ATOM     19  H10 UNL     1      35.764  58.309  16.175  1.00  0.00     0.206 HD
ENDROOT
BRANCH  12  20
HETATM   20  C8  UNL     1      34.237  59.220  10.221  1.00  0.00     0.156 C 
BRANCH  20  21
HETATM   21  S1  UNL     1      34.366  58.771   8.430  1.00  0.00    -0.053 S 
HETATM   22  C9  UNL     1      35.504  60.249   8.025  1.00  0.00     0.114 C 
HETATM   23  O1  UNL     1      33.859  57.283   8.563  1.00  0.00    -0.270 OA
BRANCH  21  24
HETATM   24  C10 UNL     1      33.055  59.271   7.198  1.00  0.00     0.099 C 
BRANCH  24  25
HETATM   25  C11 UNL     1      32.960  60.731   6.795  1.00  0.00     0.053 C 
BRANCH  25  26
HETATM   26  C12 UNL     1      31.678  61.290   7.248  1.00  0.00     0.115 C 
HETATM   27  C13 UNL     1      30.426  60.761   6.663  1.00  0.00     0.084 C 
HETATM   28  C14 UNL     1      29.447  61.688   7.420  1.00  0.00     0.279 C 
HETATM   29  N6  UNL     1      30.058  62.976   7.138  1.00  0.00    -0.031 N 
HETATM   30  C16 UNL     1      31.497  62.790   7.067  1.00  0.00     0.415 C 
ATOM     31  H62 UNL     1      29.676  63.417   6.302  1.00  0.00     0.280 HD
ATOM     32  H61 UNL     1      29.786  63.696   7.809  1.00  0.00     0.280 HD
BRANCH  26  33
HETATM   33  O2  UNL     1      31.630  61.040   8.661  1.00  0.00    -0.386 OA
ATOM     34  H2  UNL     1      31.242  61.820   9.042  1.00  0.00     0.210 HD
ENDBRANCH  26  33
BRANCH  28  35
HETATM   35  C15 UNL     1      28.084  61.537   6.942  1.00  0.00     0.262 C 
HETATM   36  N5  UNL     1      27.169  60.697   7.605  1.00  0.00    -0.060 NA
HETATM   37  O3  UNL     1      27.705  62.179   5.925  1.00  0.00    -0.275 OA
ENDBRANCH  28  35
BRANCH  30  38
HETATM   38  N7  UNL     1      31.971  63.269   5.816  1.00  0.00    -0.047 N 
ATOM     39  H73 UNL     1      32.981  63.146   5.741  1.00  0.00     0.276 HD
ATOM     40  H72 UNL     1      31.668  62.659   5.057  1.00  0.00     0.276 HD
ATOM     41  H71 UNL     1      31.710  64.237   5.628  1.00  0.00     0.276 HD
ENDBRANCH  30  38
ENDBRANCH  25  26
ENDBRANCH  24  25
ENDBRANCH  21  24
ENDBRANCH  20  21
ENDBRANCH  12  20
BRANCH   1  42
HETATM   42  C3  UNL     1      38.120  58.506  14.805  1.00  0.00     0.164 C 
BRANCH  42  43
HETATM   43  C2  UNL     1      39.343  59.077  14.091  1.00  0.00    -0.017 C 
HETATM   44  C1  UNL     1      39.557  58.782  12.816  1.00  0.00     0.008 C 
ENDBRANCH  42  43
ENDBRANCH   1  42
TORSDOF 10
ENDMDL
MODEL 4
REMARK VINA RESULT: -6.967253866      2.456      4.155
REMARK  10 active torsions:
REMARK  status: ('A' for Active; 'I' for Inactive)
REMARK    1  A    between atoms: C2_2  and  C3_3 
REMARK    2  A    between atoms: C3_3  and  N1_4 
REMARK    3  A    between atoms: C7_15  and  C8_16 
REMARK    4  A    between atoms: C8_16  and  S1_17 
REMARK    5  A    between atoms: S1_17  and  C10_20 
REMARK    6  A    between atoms: C10_20  and  C11_21 
REMARK    7  A    between atoms: C11_21  and  C12_22 
REMARK    8  A    between atoms: C12_22  and  O2_23 
REMARK    9  A    between atoms: C14_26  and  C15_27 
REMARK   10  A    between atoms: C16_33  and  N7_34 
ROOT
HETATM    1  N1  UNL     1      32.031  58.039  12.780  1.00  0.00    -0.221 N 
ATOM      2  H1  UNL     1      31.729  58.091  11.807  1.00  0.00     0.178 HD
HETATM    3  C4  UNL     1      33.271  57.980  12.905  1.00  0.00     0.693 C 
HETATM    4  N2  UNL     1      33.998  58.008  11.644  1.00  0.00    -0.186 N 
ATOM      5  H2  UNL     1      33.670  57.440  10.863  1.00  0.00     0.184 HD
HETATM    6  C5  UNL     1      35.180  58.830  11.481  1.00  0.00     0.106 A 
HETATM    7  C6  UNL     1      36.074  59.283  12.380  1.00  0.00     0.123 A 
HETATM    8  N3  UNL     1      36.845  60.168  11.712  1.00  0.00    -0.295 N 
ATOM      9  H3  UNL     1      37.620  60.698  12.113  1.00  0.00     0.187 HD
HETATM   10  N4  UNL     1      36.440  60.239  10.464  1.00  0.00    -0.301 N 
ATOM     11  H4  UNL     1      36.866  60.841   9.759  1.00  0.00     0.186 HD
HETATM   12  C7  UNL     1      35.422  59.443  10.232  1.00  0.00     0.066 A 
HETATM   13  C17 UNL     1      36.253  58.926  13.800  1.00  0.00     0.152 C 
HETATM   14  N8  UNL     1      36.873  59.116  14.901  1.00  0.00    -0.355 N 
ATOM     15  H8  UNL     1      37.617  59.766  15.155  1.00  0.00     0.163 HD
HETATM   16  C18 UNL     1      36.175  58.110  15.669  1.00  0.00     0.274 C 
HETATM   17  N9  UNL     1      35.233  58.195  14.567  1.00  0.00    -0.242 N 
HETATM   18  N10 UNL     1      33.938  57.906  14.179  1.00  0.00    -0.127 N 
ATOM     19  H10 UNL     1      33.341  57.578  14.940  1.00  0.00     0.206 HD
ENDROOT
BRANCH  12  20
HETATM   20  C8  UNL     1      34.691  58.959   9.034  1.00  0.00     0.156 C 
BRANCH  20  21
HETATM   21  S1  UNL     1      33.147  59.838   8.514  1.00  0.00    -0.053 S 
HETATM   22  C9  UNL     1      33.127  59.019   6.790  1.00  0.00     0.114 C 
HETATM   23  O1  UNL     1      32.673  60.271   9.955  1.00  0.00    -0.270 OA
BRANCH  21  24
HETATM   24  C10 UNL     1      33.190  61.577   7.836  1.00  0.00     0.099 C 
BRANCH  24  25
HETATM   25  C11 UNL     1      32.519  62.681   8.633  1.00  0.00     0.053 C 
BRANCH  25  26
HETATM   26  C12 UNL     1      31.084  62.722   8.316  1.00  0.00     0.115 C 
HETATM   27  C13 UNL     1      30.602  62.017   7.108  1.00  0.00     0.084 C 
HETATM   28  C14 UNL     1      29.112  62.412   7.230  1.00  0.00     0.279 C 
HETATM   29  N6  UNL     1      29.250  63.849   7.395  1.00  0.00    -0.031 N 
HETATM   30  C16 UNL     1      30.476  64.106   8.133  1.00  0.00     0.415 C 
ATOM     31  H62 UNL     1      29.212  64.353   6.509  1.00  0.00     0.280 HD
ATOM     32  H61 UNL     1      28.432  64.276   7.830  1.00  0.00     0.280 HD
BRANCH  26  33
HETATM   33  O2  UNL     1      30.425  62.134   9.448  1.00  0.00    -0.386 OA
ATOM     34  H2  UNL     1      30.088  61.301   9.139  1.00  0.00     0.210 HD
ENDBRANCH  26  33
BRANCH  28  35
HETATM   35  C15 UNL     1      28.349  61.999   6.064  1.00  0.00     0.262 C 
HETATM   36  N5  UNL     1      27.221  62.726   5.639  1.00  0.00    -0.060 NA
HETATM   37  O3  UNL     1      28.709  60.982   5.412  1.00  0.00    -0.275 OA
ENDBRANCH  28  35
BRANCH  30  38
HETATM   38  N7  UNL     1      31.299  64.989   7.383  1.00  0.00    -0.047 N 
ATOM     39  H73 UNL     1      31.589  65.784   7.954  1.00  0.00     0.276 HD
ATOM     40  H72 UNL     1      32.210  64.568   7.202  1.00  0.00     0.276 HD
ATOM     41  H71 UNL     1      30.867  65.306   6.515  1.00  0.00     0.276 HD
ENDBRANCH  30  38
ENDBRANCH  25  26
ENDBRANCH  24  25
ENDBRANCH  21  24
ENDBRANCH  20  21
ENDBRANCH  12  20
BRANCH   1  42
HETATM   42  C3  UNL     1      30.951  58.048  13.701  1.00  0.00     0.164 C 
BRANCH  42  43
HETATM   43  C2  UNL     1      30.607  59.516  13.944  1.00  0.00    -0.017 C 
HETATM   44  C1  UNL     1      30.242  60.282  12.926  1.00  0.00     0.008 C 
ENDBRANCH  42  43
ENDBRANCH   1  42
TORSDOF 10
ENDMDL
MODEL 5
REMARK VINA RESULT: -6.954430602      2.944      7.041
REMARK  10 active torsions:
REMARK  status: ('A' for Active; 'I' for Inactive)
REMARK    1  A    between atoms: C2_2  and  C3_3 
REMARK    2  A    between atoms: C3_3  and  N1_4 
REMARK    3  A    between atoms: C7_15  and  C8_16 
REMARK    4  A    between atoms: C8_16  and  S1_17 
REMARK    5  A    between atoms: S1_17  and  C10_20 
REMARK    6  A    between atoms: C10_20  and  C11_21 
REMARK    7  A    between atoms: C11_21  and  C12_22 
REMARK    8  A    between atoms: C12_22  and  O2_23 
REMARK    9  A    between atoms: C14_26  and  C15_27 
REMARK   10  A    between atoms: C16_33  and  N7_34 
ROOT
HETATM    1  N1  UNL     1      28.672  61.585   9.077  1.00  0.00    -0.221 N 
ATOM      2  H1  UNL     1      28.978  60.613   9.035  1.00  0.00     0.178 HD
HETATM    3  C4  UNL     1      29.607  62.399   8.939  1.00  0.00     0.693 C 
HETATM    4  N2  UNL     1      30.910  61.780   8.743  1.00  0.00    -0.186 N 
ATOM      5  H2  UNL     1      31.182  60.988   9.324  1.00  0.00     0.184 HD
HETATM    6  C5  UNL     1      31.827  62.273   7.734  1.00  0.00     0.106 A 
HETATM    7  C6  UNL     1      31.960  63.491   7.179  1.00  0.00     0.123 A 
HETATM    8  N3  UNL     1      32.826  63.332   6.154  1.00  0.00    -0.295 N 
ATOM      9  H3  UNL     1      33.137  64.070   5.522  1.00  0.00     0.187 HD
HETATM   10  N4  UNL     1      33.203  62.074   6.100  1.00  0.00    -0.301 N 
ATOM     11  H4  UNL     1      33.857  61.704   5.408  1.00  0.00     0.186 HD
HETATM   12  C7  UNL     1      32.641  61.351   7.040  1.00  0.00     0.066 A 
HETATM   13  C17 UNL     1      31.347  64.777   7.559  1.00  0.00     0.152 C 
HETATM   14  N8  UNL     1      31.185  66.021   7.316  1.00  0.00    -0.355 N 
ATOM     15  H8  UNL     1      31.538  66.615   6.565  1.00  0.00     0.163 HD
HETATM   16  C18 UNL     1      30.340  66.313   8.452  1.00  0.00     0.274 C 
HETATM   17  N9  UNL     1      30.200  64.867   8.476  1.00  0.00    -0.242 N 
HETATM   18  N10 UNL     1      29.425  63.828   8.955  1.00  0.00    -0.127 N 
ATOM     19  H10 UNL     1      28.561  64.129   9.406  1.00  0.00     0.206 HD
ENDROOT
BRANCH  12  20
HETATM   20  C8  UNL     1      32.815  59.982   7.587  1.00  0.00     0.156 C 
BRANCH  20  21
HETATM   21  S1  UNL     1      34.524  59.387   7.980  1.00  0.00    -0.053 S 
HETATM   22  C9  UNL     1      34.309  57.769   6.991  1.00  0.00     0.114 C 
HETATM   23  O1  UNL     1      35.113  60.776   8.441  1.00  0.00    -0.270 OA
BRANCH  21  24
HETATM   24  C10 UNL     1      34.912  58.514   9.583  1.00  0.00     0.099 C 
BRANCH  24  25
HETATM   25  C11 UNL     1      35.494  59.325  10.727  1.00  0.00     0.053 C 
BRANCH  25  26
HETATM   26  C12 UNL     1      34.493  59.471  11.793  1.00  0.00     0.115 C 
HETATM   27  C13 UNL     1      33.192  58.782  11.646  1.00  0.00     0.084 C 
HETATM   28  C14 UNL     1      32.549  59.293  12.956  1.00  0.00     0.279 C 
HETATM   29  N6  UNL     1      32.794  60.718  12.813  1.00  0.00    -0.031 N 
HETATM   30  C16 UNL     1      34.058  60.893  12.118  1.00  0.00     0.415 C 
ATOM     31  H62 UNL     1      32.024  61.206  12.358  1.00  0.00     0.280 HD
ATOM     32  H61 UNL     1      32.763  61.214  13.704  1.00  0.00     0.280 HD
BRANCH  26  33
HETATM   33  O2  UNL     1      35.119  58.956  12.979  1.00  0.00    -0.386 OA
ATOM     34  H2  UNL     1      35.448  58.097  12.738  1.00  0.00     0.210 HD
ENDBRANCH  26  33
BRANCH  28  35
HETATM   35  C15 UNL     1      31.148  58.918  13.049  1.00  0.00     0.262 C 
HETATM   36  N5  UNL     1      30.144  59.701  12.448  1.00  0.00    -0.060 NA
HETATM   37  O3  UNL     1      30.823  57.868  13.666  1.00  0.00    -0.275 OA
ENDBRANCH  28  35
BRANCH  30  38
HETATM   38  N7  UNL     1      33.852  61.697  10.964  1.00  0.00    -0.047 N 
ATOM     39  H73 UNL     1      34.400  61.348  10.178  1.00  0.00     0.276 HD
ATOM     40  H72 UNL     1      32.913  61.559  10.591  1.00  0.00     0.276 HD
ATOM     41  H71 UNL     1      34.036  62.687  11.123  1.00  0.00     0.276 HD
ENDBRANCH  30  38
ENDBRANCH  25  26
ENDBRANCH  24  25
ENDBRANCH  21  24
ENDBRANCH  20  21
ENDBRANCH  12  20
BRANCH   1  42
HETATM   42  C3  UNL     1      27.274  61.722   9.281  1.00  0.00     0.164 C 
BRANCH  42  43
HETATM   43  C2  UNL     1      26.914  60.783  10.431  1.00  0.00    -0.017 C 
HETATM   44  C1  UNL     1      26.962  61.226  11.679  1.00  0.00     0.008 C 
ENDBRANCH  42  43
ENDBRANCH   1  42
TORSDOF 10
ENDMDL
