MODEL 1
REMARK VINA RESULT: -7.337598640      0.000      0.000
REMARK  11 active torsions:
REMARK  status: ('A' for Active; 'I' for Inactive)
REMARK    1  A    between atoms: N1_2  and  C3_4 
REMARK    2  A    between atoms: C3_4  and  C4_5 
REMARK    3  A    between atoms: C4_5  and  C5_6 
REMARK    4  A    between atoms: C5_6  and  C6_7 
REMARK    5  A    between atoms: C6_7  and  N2_8 
REMARK    6  A    between atoms: C7_9  and  N3_10 
REMARK    7  A    between atoms: N3_10  and  N4_12 
REMARK    8  A    between atoms: N4_12  and  S1_14 
REMARK    9  A    between atoms: S1_14  and  C8_17 
REMARK   10  A    between atoms: N7_26  and  O4_27 
REMARK   11  A    between atoms: C12_31  and  N9_32 
ROOT
HETATM    1  N2  UNL     1      30.360  62.935   8.325  1.00  0.00    -0.164 N 
HETATM    2  C7  UNL     1      29.799  63.387   9.450  1.00  0.00     0.703 A 
HETATM    3  N8  UNL     1      28.580  62.874   9.903  1.00  0.00    -0.173 N 
ATOM      4  H8  UNL     1      28.181  63.242  10.766  1.00  0.00     0.186 HD
HETATM    5  C12 UNL     1      27.931  61.930   9.253  1.00  0.00     0.146 A 
HETATM    6  C13 UNL     1      28.487  61.444   8.089  1.00  0.00     0.138 A 
HETATM    7  N10 UNL     1      28.125  60.508   7.183  1.00  0.00    -0.184 N 
ATOM      8  H10 UNL     1      27.277  59.942   7.223  1.00  0.00     0.184 HD
HETATM    9  C14 UNL     1      29.062  60.440   6.221  1.00  0.00     0.678 A 
HETATM   10  N11 UNL     1      29.000  59.633   5.207  1.00  0.00    -0.234 N 
ATOM     11 1H11 UNL     1      29.710  59.582   4.476  1.00  0.00     0.174 HD
ATOM     12 2H11 UNL     1      28.262  58.960   4.999  1.00  0.00     0.174 HD
HETATM   13  N12 UNL     1      30.034  61.326   6.493  1.00  0.00    -0.174 N 
ATOM     14  H12 UNL     1      30.873  61.497   5.940  1.00  0.00     0.186 HD
HETATM   15  C15 UNL     1      29.687  61.950   7.643  1.00  0.00     0.170 A 
ENDROOT
BRANCH   2  16
HETATM   16  N3  UNL     1      30.275  64.264  10.170  1.00  0.00    -0.122 N 
ATOM     17  H3  UNL     1      31.293  64.217  10.118  1.00  0.00     0.206 HD
BRANCH  16  18
HETATM   18  N4  UNL     1      29.937  65.237  10.982  1.00  0.00    -0.208 N 
ATOM     19  H4  UNL     1      29.940  65.020  11.978  1.00  0.00     0.201 HD
BRANCH  18  20
HETATM   20  S1  UNL     1      29.483  66.859  10.545  1.00  0.00     0.280 S 
HETATM   21  O1  UNL     1      28.007  67.087  10.679  1.00  0.00    -0.199 OA
HETATM   22  O2  UNL     1      30.222  67.819  11.420  1.00  0.00    -0.199 OA
BRANCH  20  23
HETATM   23  C8  UNL     1      29.879  67.116   8.862  1.00  0.00     0.129 A 
HETATM   24  C9  UNL     1      29.198  66.671   7.746  1.00  0.00     0.117 A 
HETATM   25  N5  UNL     1      29.849  67.095   6.620  1.00  0.00    -0.345 N 
HETATM   26  C10 UNL     1      30.924  67.798   6.988  1.00  0.00     0.191 A 
ATOM     27  H5  UNL     1      29.561  66.907   5.659  1.00  0.00     0.167 HD
HETATM   28  C11 UNL     1      30.962  67.825   8.366  1.00  0.00     0.130 A 
HETATM   29  N7  UNL     1      31.973  68.485   6.537  1.00  0.00    -0.082 N 
HETATM   30  N6  UNL     1      32.070  68.549   8.680  1.00  0.00    -0.234 N 
HETATM   31  O3  UNL     1      32.640  68.920   7.564  1.00  0.00    -0.126 OA
ATOM     32  H6  UNL     1      32.398  68.765   9.621  1.00  0.00     0.197 HD
BRANCH  29  33
HETATM   33  O4  UNL     1      32.357  68.734   5.237  1.00  0.00    -0.260 OA
ATOM     34  H4  UNL     1      32.991  69.360   4.908  1.00  0.00     0.247 HD
ENDBRANCH  29  33
ENDBRANCH  20  23
ENDBRANCH  18  20
ENDBRANCH  16  18
ENDBRANCH   2  16
BRANCH   1  35
HETATM   35  C6  UNL     1      31.608  63.402   7.793  1.00  0.00     0.149 C 
BRANCH  35  36
HETATM   36  C5  UNL     1      32.815  62.647   8.299  1.00  0.00     0.023 C 
BRANCH  36  37
HETATM   37  C4  UNL     1      33.579  62.131   7.100  1.00  0.00     0.032 C 
BRANCH  37  38
HETATM   38  C3  UNL     1      34.264  60.812   7.347  1.00  0.00     0.271 C 
BRANCH  38  39
HETATM   39  N1  UNL     1      33.224  59.857   7.708  1.00  0.00     0.080 N 
HETATM   40  C1  UNL     1      33.657  59.001   8.801  1.00  0.00     0.309 C 
HETATM   41  C2  UNL     1      32.809  59.076   6.557  1.00  0.00     0.309 C 
ENDBRANCH  38  39
ENDBRANCH  37  38
ENDBRANCH  36  37
ENDBRANCH  35  36
ENDBRANCH   1  35
BRANCH   5  42
HETATM   42  N9  UNL     1      26.804  61.441   9.656  1.00  0.00    -0.383 N 
ATOM     43  H92 UNL     1      26.780  60.485  10.009  1.00  0.00     0.157 HD
ATOM     44  H91 UNL     1      25.931  61.967   9.640  1.00  0.00     0.157 HD
ENDBRANCH   5  42
TORSDOF 11
ENDMDL
MODEL 2
REMARK VINA RESULT: -7.310761613      4.931      7.969
REMARK  11 active torsions:
REMARK  status: ('A' for Active; 'I' for Inactive)
REMARK    1  A    between atoms: N1_2  and  C3_4 
REMARK    2  A    between atoms: C3_4  and  C4_5 
REMARK    3  A    between atoms: C4_5  and  C5_6 
REMARK    4  A    between atoms: C5_6  and  C6_7 
REMARK    5  A    between atoms: C6_7  and  N2_8 
REMARK    6  A    between atoms: C7_9  and  N3_10 
REMARK    7  A    between atoms: N3_10  and  N4_12 
REMARK    8  A    between atoms: N4_12  and  S1_14 
REMARK    9  A    between atoms: S1_14  and  C8_17 
REMARK   10  A    between atoms: N7_26  and  O4_27 
REMARK   11  A    between atoms: C12_31  and  N9_32 
ROOT
HETATM    1  N2  UNL     1      31.622  62.043   9.660  1.00  0.00    -0.164 N 
HETATM    2  C7  UNL     1      32.951  61.919   9.601  1.00  0.00     0.703 A 
HETATM    3  N8  UNL     1      33.618  61.905   8.372  1.00  0.00    -0.173 N 
ATOM      4  H8  UNL     1      34.633  61.810   8.364  1.00  0.00     0.186 HD
HETATM    5  C12 UNL     1      32.979  62.012   7.225  1.00  0.00     0.146 A 
HETATM    6  C13 UNL     1      31.608  62.142   7.257  1.00  0.00     0.138 A 
HETATM    7  N10 UNL     1      30.645  62.272   6.316  1.00  0.00    -0.184 N 
ATOM      8  H10 UNL     1      30.802  62.298   5.308  1.00  0.00     0.184 HD
HETATM    9  C14 UNL     1      29.447  62.362   6.920  1.00  0.00     0.678 A 
HETATM   10  N11 UNL     1      28.324  62.494   6.285  1.00  0.00    -0.234 N 
ATOM     11 1H11 UNL     1      27.415  62.562   6.743  1.00  0.00     0.174 HD
ATOM     12 2H11 UNL     1      28.191  62.548   5.274  1.00  0.00     0.174 HD
HETATM   13  N12 UNL     1      29.622  62.291   8.250  1.00  0.00    -0.174 N 
ATOM     14  H12 UNL     1      28.893  62.333   8.962  1.00  0.00     0.186 HD
HETATM   15  C15 UNL     1      30.951  62.155   8.466  1.00  0.00     0.170 A 
ENDROOT
BRANCH   2  16
HETATM   16  N3  UNL     1      33.691  61.809  10.577  1.00  0.00    -0.122 N 
ATOM     17  H3  UNL     1      33.696  62.691  11.089  1.00  0.00     0.206 HD
BRANCH  16  18
HETATM   18  N4  UNL     1      34.477  60.957  11.193  1.00  0.00    -0.208 N 
ATOM     19  H4  UNL     1      34.477  60.994  12.212  1.00  0.00     0.201 HD
BRANCH  18  20
HETATM   20  S1  UNL     1      35.519  59.772  10.461  1.00  0.00     0.280 S 
HETATM   21  O1  UNL     1      36.119  60.264   9.177  1.00  0.00    -0.199 OA
HETATM   22  O2  UNL     1      36.609  59.427  11.424  1.00  0.00    -0.199 OA
BRANCH  20  23
HETATM   23  C8  UNL     1      34.568  58.362  10.062  1.00  0.00     0.129 A 
HETATM   24  C9  UNL     1      33.973  57.460  10.923  1.00  0.00     0.117 A 
HETATM   25  N5  UNL     1      33.322  56.503  10.195  1.00  0.00    -0.345 N 
HETATM   26  C10 UNL     1      33.485  56.769   8.896  1.00  0.00     0.191 A 
ATOM     27  H5  UNL     1      32.798  55.716  10.580  1.00  0.00     0.167 HD
HETATM   28  C11 UNL     1      34.250  57.911   8.790  1.00  0.00     0.130 A 
HETATM   29  N7  UNL     1      33.193  56.357   7.662  1.00  0.00    -0.082 N 
HETATM   30  N6  UNL     1      34.382  58.132   7.455  1.00  0.00    -0.234 N 
HETATM   31  O3  UNL     1      33.740  57.185   6.823  1.00  0.00    -0.126 OA
ATOM     32  H6  UNL     1      34.893  58.901   7.022  1.00  0.00     0.197 HD
BRANCH  29  33
HETATM   33  O4  UNL     1      32.456  55.264   7.261  1.00  0.00    -0.260 OA
ATOM     34  H4  UNL     1      31.534  55.081   7.396  1.00  0.00     0.247 HD
ENDBRANCH  29  33
ENDBRANCH  20  23
ENDBRANCH  18  20
ENDBRANCH  16  18
ENDBRANCH   2  16
BRANCH   1  35
HETATM   35  C6  UNL     1      30.861  62.071  10.875  1.00  0.00     0.149 C 
BRANCH  35  36
HETATM   36  C5  UNL     1      30.532  63.463  11.365  1.00  0.00     0.023 C 
BRANCH  36  37
HETATM   37  C4  UNL     1      29.045  63.523  11.634  1.00  0.00     0.032 C 
BRANCH  37  38
HETATM   38  C3  UNL     1      28.417  62.169  11.837  1.00  0.00     0.271 C 
BRANCH  38  39
HETATM   39  N1  UNL     1      27.121  62.199  11.170  1.00  0.00     0.080 N 
HETATM   40  C1  UNL     1      26.952  61.045  10.303  1.00  0.00     0.309 C 
HETATM   41  C2  UNL     1      26.937  63.440  10.440  1.00  0.00     0.309 C 
ENDBRANCH  38  39
ENDBRANCH  37  38
ENDBRANCH  36  37
ENDBRANCH  35  36
ENDBRANCH   1  35
BRANCH   5  42
HETATM   42  N9  UNL     1      33.578  62.003   6.079  1.00  0.00    -0.383 N 
ATOM     43  H92 UNL     1      33.700  62.884   5.580  1.00  0.00     0.157 HD
ATOM     44  H91 UNL     1      33.938  61.153   5.645  1.00  0.00     0.157 HD
ENDBRANCH   5  42
TORSDOF 11
ENDMDL
MODEL 3
REMARK VINA RESULT: -7.195280330      4.151      6.284
REMARK  11 active torsions:
REMARK  status: ('A' for Active; 'I' for Inactive)
REMARK    1  A    between atoms: N1_2  and  C3_4 
REMARK    2  A    between atoms: C3_4  and  C4_5 
REMARK    3  A    between atoms: C4_5  and  C5_6 
REMARK    4  A    between atoms: C5_6  and  C6_7 
REMARK    5  A    between atoms: C6_7  and  N2_8 
REMARK    6  A    between atoms: C7_9  and  N3_10 
REMARK    7  A    between atoms: N3_10  and  N4_12 
REMARK    8  A    between atoms: N4_12  and  S1_14 
REMARK    9  A    between atoms: S1_14  and  C8_17 
REMARK   10  A    between atoms: N7_26  and  O4_27 
REMARK   11  A    between atoms: C12_31  and  N9_32 
ROOT
HETATM    1  N2  UNL     1      30.418  62.422   8.724  1.00  0.00    -0.164 N 
HETATM    2  C7  UNL     1      29.915  62.205   9.943  1.00  0.00     0.703 A 
HETATM    3  N8  UNL     1      28.633  61.674  10.107  1.00  0.00    -0.173 N 
ATOM      4  H8  UNL     1      28.280  61.520  11.051  1.00  0.00     0.186 HD
HETATM    5  C12 UNL     1      27.864  61.365   9.083  1.00  0.00     0.146 A 
HETATM    6  C13 UNL     1      28.358  61.579   7.814  1.00  0.00     0.138 A 
HETATM    7  N10 UNL     1      27.877  61.389   6.564  1.00  0.00    -0.184 N 
ATOM      8  H10 UNL     1      26.958  61.011   6.335  1.00  0.00     0.184 HD
HETATM    9  C14 UNL     1      28.804  61.779   5.672  1.00  0.00     0.678 A 
HETATM   10  N11 UNL     1      28.640  61.721   4.386  1.00  0.00    -0.234 N 
ATOM     11 1H11 UNL     1      29.343  62.018   3.709  1.00  0.00     0.174 HD
ATOM     12 2H11 UNL     1      27.817  61.385   3.885  1.00  0.00     0.174 HD
HETATM   13  N12 UNL     1      29.888  62.221   6.331  1.00  0.00    -0.174 N 
ATOM     14  H12 UNL     1      30.748  62.579   5.916  1.00  0.00     0.186 HD
HETATM   15  C15 UNL     1      29.620  62.102   7.652  1.00  0.00     0.170 A 
ENDROOT
BRANCH   2  16
HETATM   16  N3  UNL     1      30.503  62.439  10.998  1.00  0.00    -0.122 N 
ATOM     17  H3  UNL     1      30.978  63.338  10.919  1.00  0.00     0.206 HD
BRANCH  16  18
HETATM   18  N4  UNL     1      30.733  61.942  12.190  1.00  0.00    -0.208 N 
ATOM     19  H4  UNL     1      29.943  61.921  12.834  1.00  0.00     0.201 HD
BRANCH  18  20
HETATM   20  S1  UNL     1      32.239  61.312  12.792  1.00  0.00     0.280 S 
HETATM   21  O1  UNL     1      33.421  62.046  12.232  1.00  0.00    -0.199 OA
HETATM   22  O2  UNL     1      32.244  61.414  14.283  1.00  0.00    -0.199 OA
BRANCH  20  23
HETATM   23  C8  UNL     1      32.395  59.649  12.279  1.00  0.00     0.129 A 
HETATM   24  C9  UNL     1      31.539  58.593  12.529  1.00  0.00     0.117 A 
HETATM   25  N5  UNL     1      32.035  57.461  11.944  1.00  0.00    -0.345 N 
HETATM   26  C10 UNL     1      33.182  57.765  11.329  1.00  0.00     0.191 A 
ATOM     27  H5  UNL     1      31.602  56.538  11.972  1.00  0.00     0.167 HD
HETATM   28  C11 UNL     1      33.422  59.109  11.521  1.00  0.00     0.130 A 
HETATM   29  N7  UNL     1      34.182  57.271  10.599  1.00  0.00    -0.082 N 
HETATM   30  N6  UNL     1      34.594  59.360  10.877  1.00  0.00    -0.234 N 
HETATM   31  O3  UNL     1      35.009  58.241  10.344  1.00  0.00    -0.126 OA
ATOM     32  H6  UNL     1      35.065  60.262  10.819  1.00  0.00     0.197 HD
BRANCH  29  33
HETATM   33  O4  UNL     1      34.381  55.983  10.154  1.00  0.00    -0.260 OA
ATOM     34  H4  UNL     1      35.185  55.563   9.874  1.00  0.00     0.247 HD
ENDBRANCH  29  33
ENDBRANCH  20  23
ENDBRANCH  18  20
ENDBRANCH  16  18
ENDBRANCH   2  16
BRANCH   1  35
HETATM   35  C6  UNL     1      31.724  62.958   8.467  1.00  0.00     0.149 C 
BRANCH  35  36
HETATM   36  C5  UNL     1      32.851  61.984   8.722  1.00  0.00     0.023 C 
BRANCH  36  37
HETATM   37  C4  UNL     1      33.338  61.473   7.385  1.00  0.00     0.032 C 
BRANCH  37  38
HETATM   38  C3  UNL     1      34.200  60.242   7.491  1.00  0.00     0.271 C 
BRANCH  38  39
HETATM   39  N1  UNL     1      33.314  59.093   7.353  1.00  0.00     0.080 N 
HETATM   40  C1  UNL     1      34.061  57.897   6.999  1.00  0.00     0.309 C 
HETATM   41  C2  UNL     1      32.257  59.359   6.395  1.00  0.00     0.309 C 
ENDBRANCH  38  39
ENDBRANCH  37  38
ENDBRANCH  36  37
ENDBRANCH  35  36
ENDBRANCH   1  35
BRANCH   5  42
HETATM   42  N9  UNL     1      26.676  60.872   9.214  1.00  0.00    -0.383 N 
ATOM     43  H92 UNL     1      26.175  61.023  10.089  1.00  0.00     0.157 HD
ATOM     44  H91 UNL     1      26.210  60.337   8.482  1.00  0.00     0.157 HD
ENDBRANCH   5  42
TORSDOF 11
ENDMDL
MODEL 4
REMARK VINA RESULT: -7.165411304      4.765      7.927
REMARK  11 active torsions:
REMARK  status: ('A' for Active; 'I' for Inactive)
REMARK    1  A    between atoms: N1_2  and  C3_4 
REMARK    2  A    between atoms: C3_4  and  C4_5 
REMARK    3  A    between atoms: C4_5  and  C5_6 
REMARK    4  A    between atoms: C5_6  and  C6_7 
REMARK    5  A    between atoms: C6_7  and  N2_8 
REMARK    6  A    between atoms: C7_9  and  N3_10 
REMARK    7  A    between atoms: N3_10  and  N4_12 
REMARK    8  A    between atoms: N4_12  and  S1_14 
REMARK    9  A    between atoms: S1_14  and  C8_17 
REMARK   10  A    between atoms: N7_26  and  O4_27 
REMARK   11  A    between atoms: C12_31  and  N9_32 
ROOT
HETATM    1  N2  UNL     1      31.590  62.451   9.467  1.00  0.00    -0.164 N 
HETATM    2  C7  UNL     1      32.774  61.834   9.428  1.00  0.00     0.703 A 
HETATM    3  N8  UNL     1      33.189  61.145   8.284  1.00  0.00    -0.173 N 
ATOM      4  H8  UNL     1      34.099  60.686   8.289  1.00  0.00     0.186 HD
HETATM    5  C12 UNL     1      32.443  61.068   7.201  1.00  0.00     0.146 A 
HETATM    6  C13 UNL     1      31.216  61.695   7.214  1.00  0.00     0.138 A 
HETATM    7  N10 UNL     1      30.210  61.831   6.321  1.00  0.00    -0.184 N 
ATOM      8  H10 UNL     1      30.199  61.441   5.378  1.00  0.00     0.184 HD
HETATM    9  C14 UNL     1      29.225  62.562   6.872  1.00  0.00     0.678 A 
HETATM   10  N11 UNL     1      28.121  62.865   6.263  1.00  0.00    -0.234 N 
ATOM     11 1H11 UNL     1      27.374  63.420   6.682  1.00  0.00     0.174 HD
ATOM     12 2H11 UNL     1      27.849  62.606   5.314  1.00  0.00     0.174 HD
HETATM   13  N12 UNL     1      29.582  62.905   8.121  1.00  0.00    -0.174 N 
ATOM     14  H12 UNL     1      29.035  63.459   8.779  1.00  0.00     0.186 HD
HETATM   15  C15 UNL     1      30.808  62.374   8.340  1.00  0.00     0.170 A 
ENDROOT
BRANCH   2  16
HETATM   16  N3  UNL     1      33.586  61.811  10.352  1.00  0.00    -0.122 N 
ATOM     17  H3  UNL     1      33.705  62.758  10.712  1.00  0.00     0.206 HD
BRANCH  16  18
HETATM   18  N4  UNL     1      34.353  60.998  11.039  1.00  0.00    -0.208 N 
ATOM     19  H4  UNL     1      34.296  61.068  12.055  1.00  0.00     0.201 HD
BRANCH  18  20
HETATM   20  S1  UNL     1      35.458  59.812  10.407  1.00  0.00     0.280 S 
HETATM   21  O1  UNL     1      36.106  60.266   9.134  1.00  0.00    -0.199 OA
HETATM   22  O2  UNL     1      36.507  59.534  11.434  1.00  0.00    -0.199 OA
BRANCH  20  23
HETATM   23  C8  UNL     1      34.561  58.362  10.023  1.00  0.00     0.129 A 
HETATM   24  C9  UNL     1      33.931  57.490  10.890  1.00  0.00     0.117 A 
HETATM   25  N5  UNL     1      33.345  56.484  10.173  1.00  0.00    -0.345 N 
HETATM   26  C10 UNL     1      33.584  56.689   8.875  1.00  0.00     0.191 A 
ATOM     27  H5  UNL     1      32.814  55.705  10.564  1.00  0.00     0.167 HD
HETATM   28  C11 UNL     1      34.332  57.841   8.758  1.00  0.00     0.130 A 
HETATM   29  N7  UNL     1      33.378  56.210   7.648  1.00  0.00    -0.082 N 
HETATM   30  N6  UNL     1      34.543  57.999   7.424  1.00  0.00    -0.234 N 
HETATM   31  O3  UNL     1      33.960  57.008   6.803  1.00  0.00    -0.126 OA
ATOM     32  H6  UNL     1      35.064  58.757   6.985  1.00  0.00     0.197 HD
BRANCH  29  33
HETATM   33  O4  UNL     1      32.689  55.083   7.259  1.00  0.00    -0.260 OA
ATOM     34  H4  UNL     1      31.987  54.625   7.705  1.00  0.00     0.247 HD
ENDBRANCH  29  33
ENDBRANCH  20  23
ENDBRANCH  18  20
ENDBRANCH  16  18
ENDBRANCH   2  16
BRANCH   1  35
HETATM   35  C6  UNL     1      31.092  63.183  10.595  1.00  0.00     0.149 C 
BRANCH  35  36
HETATM   36  C5  UNL     1      31.693  64.561  10.751  1.00  0.00     0.023 C 
BRANCH  36  37
HETATM   37  C4  UNL     1      30.704  65.567  10.205  1.00  0.00     0.032 C 
BRANCH  37  38
HETATM   38  C3  UNL     1      31.315  66.537   9.228  1.00  0.00     0.271 C 
BRANCH  38  39
HETATM   39  N1  UNL     1      30.696  66.280   7.933  1.00  0.00     0.080 N 
HETATM   40  C1  UNL     1      31.335  67.059   6.885  1.00  0.00     0.309 C 
HETATM   41  C2  UNL     1      29.266  66.527   7.978  1.00  0.00     0.309 C 
ENDBRANCH  38  39
ENDBRANCH  37  38
ENDBRANCH  36  37
ENDBRANCH  35  36
ENDBRANCH   1  35
BRANCH   5  42
HETATM   42  N9  UNL     1      32.808  60.436   6.135  1.00  0.00    -0.383 N 
ATOM     43  H92 UNL     1      32.959  60.966   5.276  1.00  0.00     0.157 HD
ATOM     44  H91 UNL     1      32.955  59.428   6.107  1.00  0.00     0.157 HD
ENDBRANCH   5  42
TORSDOF 11
ENDMDL
MODEL 5
REMARK VINA RESULT: -7.149693833      4.387      6.680
REMARK  11 active torsions:
REMARK  status: ('A' for Active; 'I' for Inactive)
REMARK    1  A    between atoms: N1_2  and  C3_4 
REMARK    2  A    between atoms: C3_4  and  C4_5 
REMARK    3  A    between atoms: C4_5  and  C5_6 
REMARK    4  A    between atoms: C5_6  and  C6_7 
REMARK    5  A    between atoms: C6_7  and  N2_8 
REMARK    6  A    between atoms: C7_9  and  N3_10 
REMARK    7  A    between atoms: N3_10  and  N4_12 
REMARK    8  A    between atoms: N4_12  and  S1_14 
REMARK    9  A    between atoms: S1_14  and  C8_17 
REMARK   10  A    between atoms: N7_26  and  O4_27 
REMARK   11  A    between atoms: C12_31  and  N9_32 
ROOT
HETATM    1  N2  UNL     1      30.782  62.661   8.579  1.00  0.00    -0.164 N 
HETATM    2  C7  UNL     1      30.452  62.407   9.848  1.00  0.00     0.703 A 
HETATM    3  N8  UNL     1      29.240  61.785  10.165  1.00  0.00    -0.173 N 
ATOM      4  H8  UNL     1      29.020  61.606  11.145  1.00  0.00     0.186 HD
HETATM    5  C12 UNL     1      28.374  61.422   9.242  1.00  0.00     0.146 A 
HETATM    6  C13 UNL     1      28.690  61.672   7.924  1.00  0.00     0.138 A 
HETATM    7  N10 UNL     1      28.072  61.450   6.741  1.00  0.00    -0.184 N 
ATOM      8  H10 UNL     1      27.161  61.006   6.624  1.00  0.00     0.184 HD
HETATM    9  C14 UNL     1      28.851  61.906   5.745  1.00  0.00     0.678 A 
HETATM   10  N11 UNL     1      28.532  61.837   4.489  1.00  0.00    -0.234 N 
ATOM     11 1H11 UNL     1      29.123  62.184   3.732  1.00  0.00     0.174 HD
ATOM     12 2H11 UNL     1      27.680  61.443   4.090  1.00  0.00     0.174 HD
HETATM   13  N12 UNL     1      29.973  62.424   6.269  1.00  0.00    -0.174 N 
ATOM     14  H12 UNL     1      30.747  62.843   5.754  1.00  0.00     0.186 HD
HETATM   15  C15 UNL     1      29.882  62.285   7.612  1.00  0.00     0.170 A 
ENDROOT
BRANCH   2  16
HETATM   16  N3  UNL     1      31.148  62.682  10.825  1.00  0.00    -0.122 N 
ATOM     17  H3  UNL     1      30.918  63.626  11.139  1.00  0.00     0.206 HD
BRANCH  16  18
HETATM   18  N4  UNL     1      32.080  62.192  11.606  1.00  0.00    -0.208 N 
ATOM     19  H4  UNL     1      32.938  62.736  11.687  1.00  0.00     0.201 HD
BRANCH  18  20
HETATM   20  S1  UNL     1      32.014  60.713  12.520  1.00  0.00     0.280 S 
HETATM   21  O1  UNL     1      32.386  60.921  13.958  1.00  0.00    -0.199 OA
HETATM   22  O2  UNL     1      30.630  60.155  12.436  1.00  0.00    -0.199 OA
BRANCH  20  23
HETATM   23  C8  UNL     1      33.180  59.593  11.858  1.00  0.00     0.129 A 
HETATM   24  C9  UNL     1      34.503  59.827  11.536  1.00  0.00     0.117 A 
HETATM   25  N5  UNL     1      35.059  58.678  11.045  1.00  0.00    -0.345 N 
HETATM   26  C10 UNL     1      34.128  57.719  11.046  1.00  0.00     0.191 A 
ATOM     27  H5  UNL     1      36.024  58.570  10.731  1.00  0.00     0.167 HD
HETATM   28  C11 UNL     1      32.962  58.261  11.543  1.00  0.00     0.130 A 
HETATM   29  N7  UNL     1      33.892  56.441  10.752  1.00  0.00    -0.082 N 
HETATM   30  N6  UNL     1      32.057  57.245  11.521  1.00  0.00    -0.234 N 
HETATM   31  O3  UNL     1      32.652  56.184  11.044  1.00  0.00    -0.126 OA
ATOM     32  H6  UNL     1      31.085  57.302  11.824  1.00  0.00     0.197 HD
BRANCH  29  33
HETATM   33  O4  UNL     1      34.748  55.495  10.231  1.00  0.00    -0.260 OA
ATOM     34  H4  UNL     1      35.279  55.535   9.444  1.00  0.00     0.247 HD
ENDBRANCH  29  33
ENDBRANCH  20  23
ENDBRANCH  18  20
ENDBRANCH  16  18
ENDBRANCH   2  16
BRANCH   1  35
HETATM   35  C6  UNL     1      32.004  63.289   8.167  1.00  0.00     0.149 C 
BRANCH  35  36
HETATM   36  C5  UNL     1      32.918  62.393   7.362  1.00  0.00     0.023 C 
BRANCH  36  37
HETATM   37  C4  UNL     1      33.574  61.419   8.315  1.00  0.00     0.032 C 
BRANCH  37  38
HETATM   38  C3  UNL     1      33.084  60.004   8.156  1.00  0.00     0.271 C 
BRANCH  38  39
HETATM   39  N1  UNL     1      34.065  59.306   7.335  1.00  0.00     0.080 N 
HETATM   40  C1  UNL     1      33.849  57.869   7.370  1.00  0.00     0.309 C 
HETATM   41  C2  UNL     1      35.418  59.647   7.735  1.00  0.00     0.309 C 
ENDBRANCH  38  39
ENDBRANCH  37  38
ENDBRANCH  36  37
ENDBRANCH  35  36
ENDBRANCH   1  35
BRANCH   5  42
HETATM   42  N9  UNL     1      27.250  60.845   9.515  1.00  0.00    -0.383 N 
ATOM     43  H92 UNL     1      26.416  61.123   8.997  1.00  0.00     0.157 HD
ATOM     44  H91 UNL     1      27.153  60.121  10.226  1.00  0.00     0.157 HD
ENDBRANCH   5  42
TORSDOF 11
ENDMDL
