MODEL 1
REMARK VINA RESULT: -7.682132887      0.000      0.000
REMARK  12 active torsions:
REMARK  status: ('A' for Active; 'I' for Inactive)
REMARK    1  A    between atoms: N1_1  and  C1_5 
REMARK    2  A    between atoms: C1_5  and  C2_6 
REMARK    3  A    between atoms: C2_6  and  N2_7 
REMARK    4  A    between atoms: N2_7  and  C3_9 
REMARK    5  A    between atoms: C6_16  and  N5_17 
REMARK    6  A    between atoms: N5_17  and  O1_19 
REMARK    7  A    between atoms: O1_19  and  C7_20 
REMARK    8  A    between atoms: C7_20  and  C8_21 
REMARK    9  A    between atoms: C11_24  and  C12_25 
REMARK   10  A    between atoms: C13_28  and  N7_29 
REMARK   11  A    between atoms: N7_29  and  C14_31 
REMARK   12  A    between atoms: C14_31  and  C15_32 
ROOT
HETATM    1  N5  UNL     1      35.639  60.195   9.366  1.00  0.00    -0.248 N 
ATOM      2  H5  UNL     1      36.015  61.141   9.303  1.00  0.00     0.196 HD
ENDROOT
BRANCH   1   3
HETATM    3  C6  UNL     1      34.744  59.819   8.530  1.00  0.00     0.155 A 
HETATM    4  C5  UNL     1      33.639  60.616   8.344  1.00  0.00     0.110 A 
HETATM    5  N4  UNL     1      33.441  61.775   8.993  1.00  0.00    -0.347 N 
HETATM    6  C19 UNL     1      32.676  60.183   7.428  1.00  0.00     0.108 A 
HETATM    7  C4  UNL     1      32.358  62.545   8.804  1.00  0.00     0.182 A 
ATOM      8  H4  UNL     1      34.147  62.085   9.661  1.00  0.00     0.167 HD
HETATM    9  N3  UNL     1      31.409  62.147   7.920  1.00  0.00    -0.337 N 
HETATM   10  C3  UNL     1      31.567  60.980   7.240  1.00  0.00     0.131 A 
ATOM     11  H3  UNL     1      30.581  62.722   7.765  1.00  0.00     0.168 HD
HETATM   12  N13 UNL     1      32.875  59.029   6.783  1.00  0.00    -0.347 N 
HETATM   13  C18 UNL     1      33.963  58.242   6.964  1.00  0.00     0.182 A 
ATOM     14  H13 UNL     1      32.166  58.723   6.116  1.00  0.00     0.167 HD
HETATM   15  N12 UNL     1      34.893  58.668   7.853  1.00  0.00    -0.335 N 
ATOM     16  H12 UNL     1      35.726  58.101   8.013  1.00  0.00     0.168 HD
BRANCH  10  17
HETATM   17  N2  UNL     1      30.700  60.564   6.397  1.00  0.00    -0.373 N 
ATOM     18  H2  UNL     1      31.033  60.260   5.482  1.00  0.00     0.161 HD
BRANCH  17  19
HETATM   19  C2  UNL     1      29.284  60.494   6.656  1.00  0.00     0.148 C 
BRANCH  19  20
HETATM   20  C1  UNL     1      28.564  61.727   6.132  1.00  0.00     0.249 C 
BRANCH  20  21
HETATM   21  N1  UNL     1      28.706  61.671   4.672  1.00  0.00    -0.078 N 
ATOM     22  H13 UNL     1      28.289  60.841   4.250  1.00  0.00     0.274 HD
ATOM     23  H12 UNL     1      28.136  62.356   4.177  1.00  0.00     0.274 HD
ATOM     24  H11 UNL     1      29.707  61.763   4.494  1.00  0.00     0.274 HD
ENDBRANCH  20  21
ENDBRANCH  19  20
ENDBRANCH  17  19
ENDBRANCH  10  17
ENDBRANCH   1   3
BRANCH   1  25
HETATM   25  O1  UNL     1      36.103  59.350  10.343  1.00  0.00    -0.274 OA
BRANCH  25  26
HETATM   26  C7  UNL     1      36.088  59.759  11.721  1.00  0.00     0.240 C 
BRANCH  26  27
HETATM   27  C8  UNL     1      34.650  59.999  12.048  1.00  0.00    -0.030 A 
HETATM   28  C9  UNL     1      34.161  61.261  12.312  1.00  0.00     0.010 A 
HETATM   29  C10 UNL     1      32.826  61.464  12.612  1.00  0.00     0.018 A 
HETATM   30  C11 UNL     1      31.927  60.421  12.658  1.00  0.00     0.034 A 
HETATM   31  C16 UNL     1      32.417  59.159  12.393  1.00  0.00     0.060 A 
HETATM   32  N11 UNL     1      31.505  58.074  12.438  1.00  0.00    -0.101 NA
HETATM   33  C17 UNL     1      33.767  58.942  12.089  1.00  0.00     0.037 A 
BRANCH  30  34
HETATM   34  C12 UNL     1      30.510  60.632  12.970  1.00  0.00     0.148 A 
HETATM   35  N6  UNL     1      29.539  60.856  12.086  1.00  0.00    -0.173 N 
HETATM   36  C13 UNL     1      28.399  60.996  12.782  1.00  0.00     0.694 A 
ATOM     37  H6  UNL     1      29.642  60.910  11.072  1.00  0.00     0.186 HD
HETATM   38  N9  UNL     1      28.673  60.856  14.091  1.00  0.00    -0.131 N 
HETATM   39  N10 UNL     1      29.960  60.636  14.184  1.00  0.00    -0.270 N 
ATOM     40  H9  UNL     1      28.006  60.911  14.861  1.00  0.00     0.205 HD
ATOM     41  H10 UNL     1      30.467  60.489  15.056  1.00  0.00     0.189 HD
BRANCH  36  42
HETATM   42  N7  UNL     1      27.198  61.224  12.334  1.00  0.00    -0.216 N 
ATOM     43  H7  UNL     1      26.386  60.846  12.821  1.00  0.00     0.178 HD
BRANCH  42  44
HETATM   44  C14 UNL     1      27.029  62.017  11.144  1.00  0.00     0.237 C 
BRANCH  44  45
HETATM   45  C15 UNL     1      26.834  61.110   9.993  1.00  0.00     0.249 C 
HETATM   46  N8  UNL     1      25.924  61.398   8.941  1.00  0.00    -0.061 NA
HETATM   47  O2  UNL     1      27.483  60.045   9.918  1.00  0.00    -0.275 OA
ENDBRANCH  44  45
ENDBRANCH  42  44
ENDBRANCH  36  42
ENDBRANCH  30  34
ENDBRANCH  26  27
ENDBRANCH  25  26
ENDBRANCH   1  25
TORSDOF 12
ENDMDL
MODEL 2
REMARK VINA RESULT: -7.673334640      1.847      5.801
REMARK  12 active torsions:
REMARK  status: ('A' for Active; 'I' for Inactive)
REMARK    1  A    between atoms: N1_1  and  C1_5 
REMARK    2  A    between atoms: C1_5  and  C2_6 
REMARK    3  A    between atoms: C2_6  and  N2_7 
REMARK    4  A    between atoms: N2_7  and  C3_9 
REMARK    5  A    between atoms: C6_16  and  N5_17 
REMARK    6  A    between atoms: N5_17  and  O1_19 
REMARK    7  A    between atoms: O1_19  and  C7_20 
REMARK    8  A    between atoms: C7_20  and  C8_21 
REMARK    9  A    between atoms: C11_24  and  C12_25 
REMARK   10  A    between atoms: C13_28  and  N7_29 
REMARK   11  A    between atoms: N7_29  and  C14_31 
REMARK   12  A    between atoms: C14_31  and  C15_32 
ROOT
HETATM    1  N5  UNL     1      35.939  59.959  10.568  1.00  0.00    -0.248 N 
ATOM      2  H5  UNL     1      36.869  60.133  10.949  1.00  0.00     0.196 HD
ENDROOT
BRANCH   1   3
HETATM    3  C6  UNL     1      34.909  60.240  11.277  1.00  0.00     0.155 A 
HETATM    4  C5  UNL     1      33.965  59.260  11.484  1.00  0.00     0.110 A 
HETATM    5  N4  UNL     1      34.060  58.019  10.983  1.00  0.00    -0.347 N 
HETATM    6  C19 UNL     1      32.851  59.592  12.259  1.00  0.00     0.108 A 
HETATM    7  C4  UNL     1      33.133  57.072  11.191  1.00  0.00     0.182 A 
ATOM      8  H4  UNL     1      34.876  57.784  10.417  1.00  0.00     0.167 HD
HETATM    9  N3  UNL     1      32.042  57.367  11.941  1.00  0.00    -0.337 N 
HETATM   10  C3  UNL     1      31.903  58.613  12.468  1.00  0.00     0.131 A 
ATOM     11  H3  UNL     1      31.328  56.658  12.108  1.00  0.00     0.168 HD
HETATM   12  N13 UNL     1      32.757  60.829  12.757  1.00  0.00    -0.347 N 
HETATM   13  C18 UNL     1      33.686  61.795  12.555  1.00  0.00     0.182 A 
ATOM     14  H13 UNL     1      31.939  61.059  13.322  1.00  0.00     0.167 HD
HETATM   15  N12 UNL     1      34.765  61.467  11.803  1.00  0.00    -0.335 N 
ATOM     16  H12 UNL     1      35.485  62.169  11.632  1.00  0.00     0.168 HD
BRANCH  10  17
HETATM   17  N2  UNL     1      30.892  58.939  13.180  1.00  0.00    -0.373 N 
ATOM     18  H2  UNL     1      30.295  59.695  12.843  1.00  0.00     0.161 HD
BRANCH  17  19
HETATM   19  C2  UNL     1      30.540  58.308  14.428  1.00  0.00     0.148 C 
BRANCH  19  20
HETATM   20  C1  UNL     1      31.740  58.216  15.359  1.00  0.00     0.249 C 
BRANCH  20  21
HETATM   21  N1  UNL     1      31.837  56.799  15.729  1.00  0.00    -0.078 N 
ATOM     22  H13 UNL     1      31.365  56.569  16.604  1.00  0.00     0.274 HD
ATOM     23  H12 UNL     1      31.289  56.180  15.132  1.00  0.00     0.274 HD
ATOM     24  H11 UNL     1      32.836  56.588  15.734  1.00  0.00     0.274 HD
ENDBRANCH  20  21
ENDBRANCH  19  20
ENDBRANCH  17  19
ENDBRANCH  10  17
ENDBRANCH   1   3
BRANCH   1  25
HETATM   25  O1  UNL     1      35.816  59.429   9.308  1.00  0.00    -0.274 OA
BRANCH  25  26
HETATM   26  C7  UNL     1      35.838  60.288   8.155  1.00  0.00     0.240 C 
BRANCH  26  27
HETATM   27  C8  UNL     1      34.404  60.548   7.828  1.00  0.00    -0.030 A 
HETATM   28  C9  UNL     1      33.772  61.720   8.188  1.00  0.00     0.010 A 
HETATM   29  C10 UNL     1      32.444  61.944   7.874  1.00  0.00     0.018 A 
HETATM   30  C11 UNL     1      31.694  61.012   7.190  1.00  0.00     0.034 A 
HETATM   31  C16 UNL     1      32.326  59.841   6.829  1.00  0.00     0.060 A 
HETATM   32  N11 UNL     1      31.568  58.871   6.126  1.00  0.00    -0.101 NA
HETATM   33  C17 UNL     1      33.671  59.604   7.143  1.00  0.00     0.037 A 
BRANCH  30  34
HETATM   34  C12 UNL     1      30.286  61.248   6.851  1.00  0.00     0.148 A 
HETATM   35  N6  UNL     1      29.252  60.509   7.248  1.00  0.00    -0.173 N 
HETATM   36  C13 UNL     1      28.148  61.062   6.719  1.00  0.00     0.694 A 
ATOM     37  H6  UNL     1      29.291  59.680   7.842  1.00  0.00     0.186 HD
HETATM   38  N9  UNL     1      28.508  62.139   6.000  1.00  0.00    -0.131 N 
HETATM   39  N10 UNL     1      29.811  62.235   6.092  1.00  0.00    -0.270 N 
ATOM     40  H9  UNL     1      27.887  62.761   5.483  1.00  0.00     0.205 HD
ATOM     41  H10 UNL     1      30.377  62.958   5.650  1.00  0.00     0.189 HD
BRANCH  36  42
HETATM   42  N7  UNL     1      26.910  60.678   6.841  1.00  0.00    -0.216 N 
ATOM     43  H7  UNL     1      26.467  60.124   6.108  1.00  0.00     0.178 HD
BRANCH  42  44
HETATM   44  C14 UNL     1      26.173  61.043   8.023  1.00  0.00     0.237 C 
BRANCH  44  45
HETATM   45  C15 UNL     1      27.130  61.271   9.127  1.00  0.00     0.249 C 
HETATM   46  N8  UNL     1      27.501  60.245  10.037  1.00  0.00    -0.061 NA
HETATM   47  O2  UNL     1      27.645  62.397   9.287  1.00  0.00    -0.275 OA
ENDBRANCH  44  45
ENDBRANCH  42  44
ENDBRANCH  36  42
ENDBRANCH  30  34
ENDBRANCH  26  27
ENDBRANCH  25  26
ENDBRANCH   1  25
TORSDOF 12
ENDMDL
MODEL 3
REMARK VINA RESULT: -7.641864654      3.891      7.021
REMARK  12 active torsions:
REMARK  status: ('A' for Active; 'I' for Inactive)
REMARK    1  A    between atoms: N1_1  and  C1_5 
REMARK    2  A    between atoms: C1_5  and  C2_6 
REMARK    3  A    between atoms: C2_6  and  N2_7 
REMARK    4  A    between atoms: N2_7  and  C3_9 
REMARK    5  A    between atoms: C6_16  and  N5_17 
REMARK    6  A    between atoms: N5_17  and  O1_19 
REMARK    7  A    between atoms: O1_19  and  C7_20 
REMARK    8  A    between atoms: C7_20  and  C8_21 
REMARK    9  A    between atoms: C11_24  and  C12_25 
REMARK   10  A    between atoms: C13_28  and  N7_29 
REMARK   11  A    between atoms: N7_29  and  C14_31 
REMARK   12  A    between atoms: C14_31  and  C15_32 
ROOT
HETATM    1  N5  UNL     1      34.832  58.066   8.535  1.00  0.00    -0.248 N 
ATOM      2  H5  UNL     1      35.663  57.612   8.157  1.00  0.00     0.196 HD
ENDROOT
BRANCH   1   3
HETATM    3  C6  UNL     1      34.325  57.636   9.631  1.00  0.00     0.155 A 
HETATM    4  C5  UNL     1      34.668  58.263  10.807  1.00  0.00     0.110 A 
HETATM    5  N4  UNL     1      35.510  59.306  10.875  1.00  0.00    -0.347 N 
HETATM    6  C19 UNL     1      34.103  57.774  11.988  1.00  0.00     0.108 A 
HETATM    7  C4  UNL     1      35.838  59.910  12.027  1.00  0.00     0.182 A 
ATOM      8  H4  UNL     1      35.920  59.657  10.009  1.00  0.00     0.167 HD
HETATM    9  N3  UNL     1      35.302  59.455  13.188  1.00  0.00    -0.337 N 
HETATM   10  C3  UNL     1      34.445  58.400  13.168  1.00  0.00     0.131 A 
ATOM     11  H3  UNL     1      35.541  59.903  14.073  1.00  0.00     0.168 HD
HETATM   12  N13 UNL     1      33.265  56.735  11.918  1.00  0.00    -0.347 N 
HETATM   13  C18 UNL     1      32.926  56.116  10.761  1.00  0.00     0.182 A 
ATOM     14  H13 UNL     1      32.858  56.387  12.787  1.00  0.00     0.167 HD
HETATM   15  N12 UNL     1      33.477  56.595   9.620  1.00  0.00    -0.335 N 
ATOM     16  H12 UNL     1      33.242  56.155   8.730  1.00  0.00     0.168 HD
BRANCH  10  17
HETATM   17  N2  UNL     1      33.915  57.935  14.235  1.00  0.00    -0.373 N 
ATOM     18  H2  UNL     1      33.995  56.933  14.409  1.00  0.00     0.161 HD
BRANCH  17  19
HETATM   19  C2  UNL     1      33.215  58.735  15.208  1.00  0.00     0.148 C 
BRANCH  19  20
HETATM   20  C1  UNL     1      31.819  59.100  14.724  1.00  0.00     0.249 C 
BRANCH  20  21
HETATM   21  N1  UNL     1      31.070  57.837  14.707  1.00  0.00    -0.078 N 
ATOM     22  H13 UNL     1      31.659  57.011  14.606  1.00  0.00     0.274 HD
ATOM     23  H12 UNL     1      30.667  57.587  15.610  1.00  0.00     0.274 HD
ATOM     24  H11 UNL     1      30.379  57.942  13.963  1.00  0.00     0.274 HD
ENDBRANCH  20  21
ENDBRANCH  19  20
ENDBRANCH  17  19
ENDBRANCH  10  17
ENDBRANCH   1   3
BRANCH   1  25
HETATM   25  O1  UNL     1      34.279  59.126   7.861  1.00  0.00    -0.274 OA
BRANCH  25  26
HETATM   26  C7  UNL     1      35.035  60.332   7.661  1.00  0.00     0.240 C 
BRANCH  26  27
HETATM   27  C8  UNL     1      34.022  61.427   7.583  1.00  0.00    -0.030 A 
HETATM   28  C9  UNL     1      33.799  62.137   6.422  1.00  0.00     0.010 A 
HETATM   29  C10 UNL     1      32.855  63.146   6.369  1.00  0.00     0.018 A 
HETATM   30  C11 UNL     1      32.096  63.487   7.467  1.00  0.00     0.034 A 
HETATM   31  C16 UNL     1      32.319  62.776   8.628  1.00  0.00     0.060 A 
HETATM   32  N11 UNL     1      31.547  63.117   9.768  1.00  0.00    -0.101 NA
HETATM   33  C17 UNL     1      33.273  61.753   8.693  1.00  0.00     0.037 A 
BRANCH  30  34
HETATM   34  C12 UNL     1      31.091  64.554   7.413  1.00  0.00     0.148 A 
HETATM   35  N6  UNL     1      31.330  65.843   7.180  1.00  0.00    -0.173 N 
HETATM   36  C13 UNL     1      30.145  66.475   7.218  1.00  0.00     0.694 A 
ATOM     37  H6  UNL     1      32.240  66.270   7.005  1.00  0.00     0.186 HD
HETATM   38  N9  UNL     1      29.182  65.572   7.474  1.00  0.00    -0.131 N 
HETATM   39  N10 UNL     1      29.777  64.411   7.589  1.00  0.00    -0.270 N 
ATOM     40  H9  UNL     1      28.183  65.755   7.560  1.00  0.00     0.205 HD
ATOM     41  H10 UNL     1      29.305  63.528   7.784  1.00  0.00     0.189 HD
BRANCH  36  42
HETATM   42  N7  UNL     1      29.895  67.741   7.044  1.00  0.00    -0.216 N 
ATOM     43  H7  UNL     1      29.068  68.036   6.525  1.00  0.00     0.178 HD
BRANCH  42  44
HETATM   44  C14 UNL     1      30.798  68.719   7.591  1.00  0.00     0.237 C 
BRANCH  44  45
HETATM   45  C15 UNL     1      31.231  69.625   6.505  1.00  0.00     0.249 C 
HETATM   46  N8  UNL     1      32.453  69.443   5.803  1.00  0.00    -0.061 NA
HETATM   47  O2  UNL     1      30.514  70.592   6.173  1.00  0.00    -0.275 OA
ENDBRANCH  44  45
ENDBRANCH  42  44
ENDBRANCH  36  42
ENDBRANCH  30  34
ENDBRANCH  26  27
ENDBRANCH  25  26
ENDBRANCH   1  25
TORSDOF 12
ENDMDL
MODEL 4
REMARK VINA RESULT: -7.575318289      3.924      7.242
REMARK  12 active torsions:
REMARK  status: ('A' for Active; 'I' for Inactive)
REMARK    1  A    between atoms: N1_1  and  C1_5 
REMARK    2  A    between atoms: C1_5  and  C2_6 
REMARK    3  A    between atoms: C2_6  and  N2_7 
REMARK    4  A    between atoms: N2_7  and  C3_9 
REMARK    5  A    between atoms: C6_16  and  N5_17 
REMARK    6  A    between atoms: N5_17  and  O1_19 
REMARK    7  A    between atoms: O1_19  and  C7_20 
REMARK    8  A    between atoms: C7_20  and  C8_21 
REMARK    9  A    between atoms: C11_24  and  C12_25 
REMARK   10  A    between atoms: C13_28  and  N7_29 
REMARK   11  A    between atoms: N7_29  and  C14_31 
REMARK   12  A    between atoms: C14_31  and  C15_32 
ROOT
HETATM    1  N5  UNL     1      34.962  58.044   9.076  1.00  0.00    -0.248 N 
ATOM      2  H5  UNL     1      35.876  57.637   8.881  1.00  0.00     0.196 HD
ENDROOT
BRANCH   1   3
HETATM    3  C6  UNL     1      34.309  57.654  10.107  1.00  0.00     0.155 A 
HETATM    4  C5  UNL     1      34.517  58.301  11.303  1.00  0.00     0.110 A 
HETATM    5  N4  UNL     1      35.371  59.325  11.456  1.00  0.00    -0.347 N 
HETATM    6  C19 UNL     1      33.793  57.856  12.413  1.00  0.00     0.108 A 
HETATM    7  C4  UNL     1      35.567  59.949  12.627  1.00  0.00     0.182 A 
ATOM      8  H4  UNL     1      35.898  59.644  10.642  1.00  0.00     0.167 HD
HETATM    9  N3  UNL     1      34.876  59.536  13.720  1.00  0.00    -0.337 N 
HETATM   10  C3  UNL     1      34.000  58.502  13.613  1.00  0.00     0.131 A 
ATOM     11  H3  UNL     1      35.013  60.000  14.618  1.00  0.00     0.168 HD
HETATM   12  N13 UNL     1      32.942  56.836  12.259  1.00  0.00    -0.347 N 
HETATM   13  C18 UNL     1      32.736  56.198  11.082  1.00  0.00     0.182 A 
ATOM     14  H13 UNL     1      32.419  56.520  13.076  1.00  0.00     0.167 HD
HETATM   15  N12 UNL     1      33.440  56.635  10.010  1.00  0.00    -0.335 N 
ATOM     16  H12 UNL     1      33.308  56.178   9.108  1.00  0.00     0.168 HD
BRANCH  10  17
HETATM   17  N2  UNL     1      33.327  58.077  14.614  1.00  0.00    -0.373 N 
ATOM     18  H2  UNL     1      32.340  58.332  14.667  1.00  0.00     0.161 HD
BRANCH  17  19
HETATM   19  C2  UNL     1      33.870  57.262  15.671  1.00  0.00     0.148 C 
BRANCH  19  20
HETATM   20  C1  UNL     1      32.822  56.312  16.232  1.00  0.00     0.249 C 
BRANCH  20  21
HETATM   21  N1  UNL     1      31.544  56.766  15.671  1.00  0.00    -0.078 N 
ATOM     22  H13 UNL     1      31.314  57.733  15.900  1.00  0.00     0.274 HD
ATOM     23  H12 UNL     1      31.560  56.885  14.658  1.00  0.00     0.274 HD
ATOM     24  H11 UNL     1      30.851  56.091  15.995  1.00  0.00     0.274 HD
ENDBRANCH  20  21
ENDBRANCH  19  20
ENDBRANCH  17  19
ENDBRANCH  10  17
ENDBRANCH   1   3
BRANCH   1  25
HETATM   25  O1  UNL     1      34.456  58.999   8.229  1.00  0.00    -0.274 OA
BRANCH  25  26
HETATM   26  C7  UNL     1      35.165  60.232   8.021  1.00  0.00     0.240 C 
BRANCH  26  27
HETATM   27  C8  UNL     1      34.109  61.285   7.927  1.00  0.00    -0.030 A 
HETATM   28  C9  UNL     1      33.258  61.564   8.976  1.00  0.00     0.010 A 
HETATM   29  C10 UNL     1      32.288  62.544   8.871  1.00  0.00     0.018 A 
HETATM   30  C11 UNL     1      32.128  63.285   7.721  1.00  0.00     0.034 A 
HETATM   31  C16 UNL     1      32.980  63.006   6.672  1.00  0.00     0.060 A 
HETATM   32  N11 UNL     1      32.827  63.759   5.480  1.00  0.00    -0.101 NA
HETATM   33  C17 UNL     1      33.965  62.015   6.767  1.00  0.00     0.037 A 
BRANCH  30  34
HETATM   34  C12 UNL     1      31.104  64.328   7.607  1.00  0.00     0.148 A 
HETATM   35  N6  UNL     1      31.326  65.622   7.379  1.00  0.00    -0.173 N 
HETATM   36  C13 UNL     1      30.128  66.227   7.350  1.00  0.00     0.694 A 
ATOM     37  H6  UNL     1      32.235  66.068   7.250  1.00  0.00     0.186 HD
HETATM   38  N9  UNL     1      29.173  65.304   7.560  1.00  0.00    -0.131 N 
HETATM   39  N10 UNL     1      29.786  64.157   7.714  1.00  0.00    -0.270 N 
ATOM     40  H9  UNL     1      28.166  65.466   7.592  1.00  0.00     0.205 HD
ATOM     41  H10 UNL     1      29.324  63.265   7.889  1.00  0.00     0.189 HD
BRANCH  36  42
HETATM   42  N7  UNL     1      29.859  67.486   7.154  1.00  0.00    -0.216 N 
ATOM     43  H7  UNL     1      28.999  67.762   6.682  1.00  0.00     0.178 HD
BRANCH  42  44
HETATM   44  C14 UNL     1      30.790  68.484   7.613  1.00  0.00     0.237 C 
BRANCH  44  45
HETATM   45  C15 UNL     1      31.280  69.248   6.445  1.00  0.00     0.249 C 
HETATM   46  N8  UNL     1      30.669  70.456   6.014  1.00  0.00    -0.061 NA
HETATM   47  O2  UNL     1      32.266  68.838   5.797  1.00  0.00    -0.275 OA
ENDBRANCH  44  45
ENDBRANCH  42  44
ENDBRANCH  36  42
ENDBRANCH  30  34
ENDBRANCH  26  27
ENDBRANCH  25  26
ENDBRANCH   1  25
TORSDOF 12
ENDMDL
MODEL 5
REMARK VINA RESULT: -7.516591013      4.050      7.478
REMARK  12 active torsions:
REMARK  status: ('A' for Active; 'I' for Inactive)
REMARK    1  A    between atoms: N1_1  and  C1_5 
REMARK    2  A    between atoms: C1_5  and  C2_6 
REMARK    3  A    between atoms: C2_6  and  N2_7 
REMARK    4  A    between atoms: N2_7  and  C3_9 
REMARK    5  A    between atoms: C6_16  and  N5_17 
REMARK    6  A    between atoms: N5_17  and  O1_19 
REMARK    7  A    between atoms: O1_19  and  C7_20 
REMARK    8  A    between atoms: C7_20  and  C8_21 
REMARK    9  A    between atoms: C11_24  and  C12_25 
REMARK   10  A    between atoms: C13_28  and  N7_29 
REMARK   11  A    between atoms: N7_29  and  C14_31 
REMARK   12  A    between atoms: C14_31  and  C15_32 
ROOT
HETATM    1  N5  UNL     1      35.333  58.875   9.266  1.00  0.00    -0.248 N 
ATOM      2  H5  UNL     1      35.980  58.200   8.859  1.00  0.00     0.196 HD
ENDROOT
BRANCH   1   3
HETATM    3  C6  UNL     1      35.355  59.081  10.530  1.00  0.00     0.155 A 
HETATM    4  C5  UNL     1      34.445  58.419  11.322  1.00  0.00     0.110 A 
HETATM    5  N4  UNL     1      33.529  57.562  10.844  1.00  0.00    -0.347 N 
HETATM    6  C19 UNL     1      34.489  58.662  12.697  1.00  0.00     0.108 A 
HETATM    7  C4  UNL     1      32.646  56.922  11.625  1.00  0.00     0.182 A 
ATOM      8  H4  UNL     1      33.502  57.390   9.838  1.00  0.00     0.167 HD
HETATM    9  N3  UNL     1      32.668  57.140  12.964  1.00  0.00    -0.337 N 
HETATM   10  C3  UNL     1      33.578  58.000  13.493  1.00  0.00     0.131 A 
ATOM     11  H3  UNL     1      32.003  56.660  13.572  1.00  0.00     0.168 HD
HETATM   12  N13 UNL     1      35.402  59.516  13.172  1.00  0.00    -0.347 N 
HETATM   13  C18 UNL     1      36.299  60.169  12.394  1.00  0.00     0.182 A 
ATOM     14  H13 UNL     1      35.424  59.685  14.178  1.00  0.00     0.167 HD
HETATM   15  N12 UNL     1      36.252  59.928  11.061  1.00  0.00    -0.335 N 
ATOM     16  H12 UNL     1      36.914  60.401  10.446  1.00  0.00     0.168 HD
BRANCH  10  17
HETATM   17  N2  UNL     1      33.636  58.239  14.748  1.00  0.00    -0.373 N 
ATOM     18  H2  UNL     1      33.648  59.214  15.048  1.00  0.00     0.161 HD
BRANCH  17  19
HETATM   19  C2  UNL     1      33.687  57.220  15.767  1.00  0.00     0.148 C 
BRANCH  19  20
HETATM   20  C1  UNL     1      32.308  56.956  16.355  1.00  0.00     0.249 C 
BRANCH  20  21
HETATM   21  N1  UNL     1      32.034  55.539  16.086  1.00  0.00    -0.078 N 
ATOM     22  H13 UNL     1      32.458  55.195  15.225  1.00  0.00     0.274 HD
ATOM     23  H12 UNL     1      32.516  54.901  16.719  1.00  0.00     0.274 HD
ATOM     24  H11 UNL     1      31.018  55.451  16.108  1.00  0.00     0.274 HD
ENDBRANCH  20  21
ENDBRANCH  19  20
ENDBRANCH  17  19
ENDBRANCH  10  17
ENDBRANCH   1   3
BRANCH   1  25
HETATM   25  O1  UNL     1      34.457  59.544   8.448  1.00  0.00    -0.274 OA
BRANCH  25  26
HETATM   26  C7  UNL     1      34.947  60.461   7.455  1.00  0.00     0.240 C 
BRANCH  26  27
HETATM   27  C8  UNL     1      33.953  61.575   7.419  1.00  0.00    -0.030 A 
HETATM   28  C9  UNL     1      33.730  62.320   6.280  1.00  0.00     0.010 A 
HETATM   29  C10 UNL     1      32.805  63.348   6.266  1.00  0.00     0.018 A 
HETATM   30  C11 UNL     1      32.065  63.672   7.382  1.00  0.00     0.034 A 
HETATM   31  C16 UNL     1      32.288  62.926   8.521  1.00  0.00     0.060 A 
HETATM   32  N11 UNL     1      31.536  63.249   9.678  1.00  0.00    -0.101 NA
HETATM   33  C17 UNL     1      33.223  61.884   8.547  1.00  0.00     0.037 A 
BRANCH  30  34
HETATM   34  C12 UNL     1      31.079  64.758   7.370  1.00  0.00     0.148 A 
HETATM   35  N6  UNL     1      31.321  66.032   7.064  1.00  0.00    -0.173 N 
HETATM   36  C13 UNL     1      30.156  66.691   7.176  1.00  0.00     0.694 A 
ATOM     37  H6  UNL     1      32.221  66.431   6.795  1.00  0.00     0.186 HD
HETATM   38  N9  UNL     1      29.202  65.820   7.549  1.00  0.00    -0.131 N 
HETATM   39  N10 UNL     1      29.782  64.651   7.661  1.00  0.00    -0.270 N 
ATOM     40  H9  UNL     1      28.217  66.029   7.712  1.00  0.00     0.205 HD
ATOM     41  H10 UNL     1      29.313  63.788   7.932  1.00  0.00     0.189 HD
BRANCH  36  42
HETATM   42  N7  UNL     1      29.916  67.954   6.971  1.00  0.00    -0.216 N 
ATOM     43  H7  UNL     1      29.031  68.249   6.557  1.00  0.00     0.178 HD
BRANCH  42  44
HETATM   44  C14 UNL     1      30.911  68.928   7.335  1.00  0.00     0.237 C 
BRANCH  44  45
HETATM   45  C15 UNL     1      31.522  69.465   6.101  1.00  0.00     0.249 C 
HETATM   46  N8  UNL     1      31.158  70.725   5.555  1.00  0.00    -0.061 NA
HETATM   47  O2  UNL     1      32.396  68.807   5.496  1.00  0.00    -0.275 OA
ENDBRANCH  44  45
ENDBRANCH  42  44
ENDBRANCH  36  42
ENDBRANCH  30  34
ENDBRANCH  26  27
ENDBRANCH  25  26
ENDBRANCH   1  25
TORSDOF 12
ENDMDL
