MODEL 1
REMARK VINA RESULT: -6.382928139      0.000      0.000
REMARK  6 active torsions:
REMARK  status: ('A' for Active; 'I' for Inactive)
REMARK    1  A    between atoms: N3_4  and  C2_6 
REMARK    2  A    between atoms: C2_6  and  C3_7 
REMARK    3  A    between atoms: C6_10  and  O1_11 
REMARK    4  A    between atoms: O1_11  and  C7_12 
REMARK    5  A    between atoms: C7_12  and  C8_13 
REMARK    6  A    between atoms: C8_13  and  N4_14 
ROOT
HETATM    1  C3  UNL     1      23.632  -8.374  13.604  1.00  0.00    -0.038 A 
HETATM    2  C4  UNL     1      24.217  -9.436  12.957  1.00  0.00     0.012 A 
HETATM    3  C5  UNL     1      24.298 -10.630  13.622  1.00  0.00     0.039 A 
HETATM    4  C6  UNL     1      23.823 -10.827  14.909  1.00  0.00     0.093 A 
HETATM    5  C14 UNL     1      23.232  -9.752  15.560  1.00  0.00     0.080 A 
HETATM    6  N5  UNL     1      22.735  -9.925  16.878  1.00  0.00    -0.100 NA
HETATM    7  C15 UNL     1      23.143  -8.543  14.902  1.00  0.00     0.038 A 
ENDROOT
BRANCH   4   8
HETATM    8  O1  UNL     1      23.923 -12.054  15.551  1.00  0.00    -0.348 OA
BRANCH   8   9
HETATM    9  C7  UNL     1      25.173 -12.716  15.520  1.00  0.00     0.196 C 
BRANCH   9  10
HETATM   10  C8  UNL     1      26.068 -12.271  16.650  1.00  0.00     0.154 C 
BRANCH  10  11
HETATM   11  N4  UNL     1      27.064 -11.329  16.260  1.00  0.00    -0.364 N 
HETATM   12  C9  UNL     1      28.065 -11.766  15.457  1.00  0.00     0.090 A 
HETATM   13  C10 UNL     1      29.080 -10.939  15.019  1.00  0.00     0.017 A 
HETATM   14  C11 UNL     1      29.102  -9.612  15.397  1.00  0.00     0.003 A 
HETATM   15  C12 UNL     1      28.070  -9.184  16.217  1.00  0.00     0.017 A 
HETATM   16  C13 UNL     1      27.073 -10.036  16.636  1.00  0.00     0.090 A 
ENDBRANCH  10  11
ENDBRANCH   9  10
ENDBRANCH   8   9
ENDBRANCH   4   8
BRANCH   1  17
HETATM   17  C2  UNL     1      23.537  -7.079  12.900  1.00  0.00     0.160 C 
BRANCH  17  18
HETATM   18  N3  UNL     1      24.301  -7.070  11.668  1.00  0.00    -0.363 N 
HETATM   19  C1  UNL     1      25.170  -6.141  11.483  1.00  0.00     0.197 C 
HETATM   20  N1  UNL     1      25.393  -5.134  12.457  1.00  0.00    -0.067 NA
HETATM   21  N2  UNL     1      25.905  -6.150  10.273  1.00  0.00    -0.067 NA
ATOM     22  H3  UNL     1      24.150  -7.789  10.960  1.00  0.00     0.162 HD
ENDBRANCH  17  18
ENDBRANCH   1  17
TORSDOF 6
ENDMDL
MODEL 2
REMARK VINA RESULT: -6.367396659      1.233      1.460
REMARK  6 active torsions:
REMARK  status: ('A' for Active; 'I' for Inactive)
REMARK    1  A    between atoms: N3_4  and  C2_6 
REMARK    2  A    between atoms: C2_6  and  C3_7 
REMARK    3  A    between atoms: C6_10  and  O1_11 
REMARK    4  A    between atoms: O1_11  and  C7_12 
REMARK    5  A    between atoms: C7_12  and  C8_13 
REMARK    6  A    between atoms: C8_13  and  N4_14 
ROOT
HETATM    1  C3  UNL     1      24.023  -8.688  12.727  1.00  0.00    -0.038 A 
HETATM    2  C4  UNL     1      24.897  -9.727  12.941  1.00  0.00     0.012 A 
HETATM    3  C5  UNL     1      24.882 -10.339  14.166  1.00  0.00     0.039 A 
HETATM    4  C6  UNL     1      24.035  -9.970  15.199  1.00  0.00     0.093 A 
HETATM    5  C14 UNL     1      23.153  -8.919  14.978  1.00  0.00     0.080 A 
HETATM    6  N5  UNL     1      22.273  -8.519  16.018  1.00  0.00    -0.100 NA
HETATM    7  C15 UNL     1      23.157  -8.294  13.749  1.00  0.00     0.038 A 
ENDROOT
BRANCH   4   8
HETATM    8  O1  UNL     1      24.048 -10.614  16.428  1.00  0.00    -0.348 OA
BRANCH   8   9
HETATM    9  C7  UNL     1      24.797 -10.027  17.475  1.00  0.00     0.196 C 
BRANCH   9  10
HETATM   10  C8  UNL     1      26.029 -10.835  17.801  1.00  0.00     0.154 C 
BRANCH  10  11
HETATM   11  N4  UNL     1      27.078 -10.699  16.845  1.00  0.00    -0.364 N 
HETATM   12  C9  UNL     1      27.538 -11.827  16.250  1.00  0.00     0.090 A 
HETATM   13  C10 UNL     1      28.549 -11.810  15.311  1.00  0.00     0.017 A 
HETATM   14  C11 UNL     1      29.132 -10.615  14.943  1.00  0.00     0.003 A 
HETATM   15  C12 UNL     1      28.647  -9.473  15.563  1.00  0.00     0.017 A 
HETATM   16  C13 UNL     1      27.637  -9.526  16.496  1.00  0.00     0.090 A 
ENDBRANCH  10  11
ENDBRANCH   9  10
ENDBRANCH   8   9
ENDBRANCH   4   8
BRANCH   1  17
HETATM   17  C2  UNL     1      24.029  -8.019  11.410  1.00  0.00     0.160 C 
BRANCH  17  18
HETATM   18  N3  UNL     1      25.345  -8.015  10.804  1.00  0.00    -0.363 N 
HETATM   19  C1  UNL     1      25.902  -6.888  10.536  1.00  0.00     0.197 C 
HETATM   20  N1  UNL     1      25.256  -5.658  10.821  1.00  0.00    -0.067 NA
HETATM   21  N2  UNL     1      27.189  -6.906   9.943  1.00  0.00    -0.067 NA
ATOM     22  H3  UNL     1      25.821  -8.892  10.594  1.00  0.00     0.162 HD
ENDBRANCH  17  18
ENDBRANCH   1  17
TORSDOF 6
ENDMDL
MODEL 3
REMARK VINA RESULT: -6.353474430      1.167      1.411
REMARK  6 active torsions:
REMARK  status: ('A' for Active; 'I' for Inactive)
REMARK    1  A    between atoms: N3_4  and  C2_6 
REMARK    2  A    between atoms: C2_6  and  C3_7 
REMARK    3  A    between atoms: C6_10  and  O1_11 
REMARK    4  A    between atoms: O1_11  and  C7_12 
REMARK    5  A    between atoms: C7_12  and  C8_13 
REMARK    6  A    between atoms: C8_13  and  N4_14 
ROOT
HETATM    1  C3  UNL     1      23.568  -8.967  13.254  1.00  0.00    -0.038 A 
HETATM    2  C4  UNL     1      24.628  -9.833  13.385  1.00  0.00     0.012 A 
HETATM    3  C5  UNL     1      24.819 -10.439  14.598  1.00  0.00     0.039 A 
HETATM    4  C6  UNL     1      24.004 -10.228  15.699  1.00  0.00     0.093 A 
HETATM    5  C14 UNL     1      22.934  -9.352  15.563  1.00  0.00     0.080 A 
HETATM    6  N5  UNL     1      22.083  -9.118  16.674  1.00  0.00    -0.100 NA
HETATM    7  C15 UNL     1      22.730  -8.735  14.347  1.00  0.00     0.038 A 
ENDROOT
BRANCH   4   8
HETATM    8  O1  UNL     1      24.229 -10.861  16.914  1.00  0.00    -0.348 OA
BRANCH   8   9
HETATM    9  C7  UNL     1      25.074 -10.217  17.848  1.00  0.00     0.196 C 
BRANCH   9  10
HETATM   10  C8  UNL     1      26.373 -10.962  18.032  1.00  0.00     0.154 C 
BRANCH  10  11
HETATM   11  N4  UNL     1      27.307 -10.763  16.973  1.00  0.00    -0.364 N 
HETATM   12  C9  UNL     1      27.766 -11.861  16.324  1.00  0.00     0.090 A 
HETATM   13  C10 UNL     1      28.671 -11.782  15.284  1.00  0.00     0.017 A 
HETATM   14  C11 UNL     1      29.144 -10.554  14.869  1.00  0.00     0.003 A 
HETATM   15  C12 UNL     1      28.662  -9.444  15.546  1.00  0.00     0.017 A 
HETATM   16  C13 UNL     1      27.759  -9.558  16.579  1.00  0.00     0.090 A 
ENDBRANCH  10  11
ENDBRANCH   9  10
ENDBRANCH   8   9
ENDBRANCH   4   8
BRANCH   1  17
HETATM   17  C2  UNL     1      23.350  -8.306  11.952  1.00  0.00     0.160 C 
BRANCH  17  18
HETATM   18  N3  UNL     1      24.395  -7.352  11.641  1.00  0.00    -0.363 N 
HETATM   19  C1  UNL     1      24.333  -6.174  12.151  1.00  0.00     0.197 C 
HETATM   20  N1  UNL     1      23.267  -5.795  13.006  1.00  0.00    -0.067 NA
HETATM   21  N2  UNL     1      25.364  -5.256  11.835  1.00  0.00    -0.067 NA
ATOM     22  H3  UNL     1      25.168  -7.611  11.027  1.00  0.00     0.162 HD
ENDBRANCH  17  18
ENDBRANCH   1  17
TORSDOF 6
ENDMDL
MODEL 4
REMARK VINA RESULT: -6.328560905      1.174      1.655
REMARK  6 active torsions:
REMARK  status: ('A' for Active; 'I' for Inactive)
REMARK    1  A    between atoms: N3_4  and  C2_6 
REMARK    2  A    between atoms: C2_6  and  C3_7 
REMARK    3  A    between atoms: C6_10  and  O1_11 
REMARK    4  A    between atoms: O1_11  and  C7_12 
REMARK    5  A    between atoms: C7_12  and  C8_13 
REMARK    6  A    between atoms: C8_13  and  N4_14 
ROOT
HETATM    1  C3  UNL     1      23.267  -9.051  12.291  1.00  0.00    -0.038 A 
HETATM    2  C4  UNL     1      24.331  -9.912  12.168  1.00  0.00     0.012 A 
HETATM    3  C5  UNL     1      24.403 -10.974  13.029  1.00  0.00     0.039 A 
HETATM    4  C6  UNL     1      23.463 -11.229  14.016  1.00  0.00     0.093 A 
HETATM    5  C14 UNL     1      22.389 -10.356  14.137  1.00  0.00     0.080 A 
HETATM    6  N5  UNL     1      21.411 -10.592  15.138  1.00  0.00    -0.100 NA
HETATM    7  C15 UNL     1      22.304  -9.282  13.276  1.00  0.00     0.038 A 
ENDROOT
BRANCH   4   8
HETATM    8  O1  UNL     1      23.570 -12.316  14.871  1.00  0.00    -0.348 OA
BRANCH   8   9
HETATM    9  C7  UNL     1      24.816 -12.541  15.502  1.00  0.00     0.196 C 
BRANCH   9  10
HETATM   10  C8  UNL     1      25.224 -11.372  16.365  1.00  0.00     0.154 C 
BRANCH  10  11
HETATM   11  N4  UNL     1      26.522 -10.861  16.067  1.00  0.00    -0.364 N 
HETATM   12  C9  UNL     1      26.829  -9.621  16.519  1.00  0.00     0.090 A 
HETATM   13  C10 UNL     1      28.055  -9.030  16.287  1.00  0.00     0.017 A 
HETATM   14  C11 UNL     1      29.024  -9.704  15.572  1.00  0.00     0.003 A 
HETATM   15  C12 UNL     1      28.689 -10.970  15.118  1.00  0.00     0.017 A 
HETATM   16  C13 UNL     1      27.457 -11.530  15.366  1.00  0.00     0.090 A 
ENDBRANCH  10  11
ENDBRANCH   9  10
ENDBRANCH   8   9
ENDBRANCH   4   8
BRANCH   1  17
HETATM   17  C2  UNL     1      23.176  -7.901  11.369  1.00  0.00     0.160 C 
BRANCH  17  18
HETATM   18  N3  UNL     1      24.346  -7.049  11.440  1.00  0.00    -0.363 N 
HETATM   19  C1  UNL     1      24.347  -6.062  12.261  1.00  0.00     0.197 C 
HETATM   20  N1  UNL     1      23.230  -5.793  13.095  1.00  0.00    -0.067 NA
HETATM   21  N2  UNL     1      25.500  -5.241  12.316  1.00  0.00    -0.067 NA
ATOM     22  H3  UNL     1      25.156  -7.231  10.846  1.00  0.00     0.162 HD
ENDBRANCH  17  18
ENDBRANCH   1  17
TORSDOF 6
ENDMDL
MODEL 5
REMARK VINA RESULT: -6.315866359      1.399      2.079
REMARK  6 active torsions:
REMARK  status: ('A' for Active; 'I' for Inactive)
REMARK    1  A    between atoms: N3_4  and  C2_6 
REMARK    2  A    between atoms: C2_6  and  C3_7 
REMARK    3  A    between atoms: C6_10  and  O1_11 
REMARK    4  A    between atoms: O1_11  and  C7_12 
REMARK    5  A    between atoms: C7_12  and  C8_13 
REMARK    6  A    between atoms: C8_13  and  N4_14 
ROOT
HETATM    1  C3  UNL     1      23.865  -8.710  12.570  1.00  0.00    -0.038 A 
HETATM    2  C4  UNL     1      23.363  -8.097  13.693  1.00  0.00     0.012 A 
HETATM    3  C5  UNL     1      23.414  -8.781  14.878  1.00  0.00     0.039 A 
HETATM    4  C6  UNL     1      23.943 -10.056  15.007  1.00  0.00     0.093 A 
HETATM    5  C14 UNL     1      24.450 -10.672  13.870  1.00  0.00     0.080 A 
HETATM    6  N5  UNL     1      24.999 -11.977  13.972  1.00  0.00    -0.100 NA
HETATM    7  C15 UNL     1      24.405  -9.994  12.670  1.00  0.00     0.038 A 
ENDROOT
BRANCH   4   8
HETATM    8  O1  UNL     1      23.977 -10.719  16.226  1.00  0.00    -0.348 OA
BRANCH   8   9
HETATM    9  C7  UNL     1      24.266  -9.958  17.384  1.00  0.00     0.196 C 
BRANCH   9  10
HETATM   10  C8  UNL     1      25.563 -10.389  18.026  1.00  0.00     0.154 C 
BRANCH  10  11
HETATM   11  N4  UNL     1      26.577 -10.747  17.090  1.00  0.00    -0.364 N 
HETATM   12  C9  UNL     1      26.905 -12.059  16.987  1.00  0.00     0.090 A 
HETATM   13  C10 UNL     1      27.872 -12.515  16.115  1.00  0.00     0.017 A 
HETATM   14  C11 UNL     1      28.547 -11.627  15.304  1.00  0.00     0.003 A 
HETATM   15  C12 UNL     1      28.197 -10.290  15.424  1.00  0.00     0.017 A 
HETATM   16  C13 UNL     1      27.228  -9.869  16.305  1.00  0.00     0.090 A 
ENDBRANCH  10  11
ENDBRANCH   9  10
ENDBRANCH   8   9
ENDBRANCH   4   8
BRANCH   1  17
HETATM   17  C2  UNL     1      23.817  -7.984  11.285  1.00  0.00     0.160 C 
BRANCH  17  18
HETATM   18  N3  UNL     1      25.100  -7.978  10.612  1.00  0.00    -0.363 N 
HETATM   19  C1  UNL     1      25.750  -6.873  10.524  1.00  0.00     0.197 C 
HETATM   20  N1  UNL     1      25.238  -5.668  11.071  1.00  0.00    -0.067 NA
HETATM   21  N2  UNL     1      27.003  -6.888   9.863  1.00  0.00    -0.067 NA
ATOM     22  H3  UNL     1      25.481  -8.837  10.214  1.00  0.00     0.162 HD
ENDBRANCH  17  18
ENDBRANCH   1  17
TORSDOF 6
ENDMDL
