MODEL 1
REMARK VINA RESULT: -6.244921429      0.000      0.000
REMARK  6 active torsions:
REMARK  status: ('A' for Active; 'I' for Inactive)
REMARK    1  A    between atoms: C3_3  and  C4_4 
REMARK    2  A    between atoms: C4_4  and  N1_5 
REMARK       I    between atoms: N1_5  and  C5_7 
REMARK       I    between atoms: C5_7  and  N5_22 
REMARK    3  A    between atoms: N2_8  and  C6_10 
REMARK    4  A    between atoms: C6_10  and  C7_11 
REMARK    5  A    between atoms: C7_11  and  N3_12 
REMARK    6  A    between atoms: N3_12  and  C8_14 
ROOT
HETATM    1  C1  UNL     1      22.519 -13.732  15.143  1.00  0.00     0.012 C 
HETATM    2  C2  UNL     1      22.571 -13.037  14.168  1.00  0.00    -0.116 C 
HETATM    3  C3  UNL     1      22.655 -12.204  12.971  1.00  0.00     0.113 C 
ENDROOT
BRANCH   3   4
HETATM    4  C4  UNL     1      21.448 -11.284  12.942  1.00  0.00     0.150 C 
BRANCH   4   5
HETATM    5  N1  UNL     1      21.862  -9.896  13.025  1.00  0.00    -0.225 N 
HETATM    6  C5  UNL     1      22.270  -9.279  14.236  1.00  0.00     0.681 C 
HETATM    7  N2  UNL     1      21.823  -9.721  15.367  1.00  0.00    -0.221 N 
HETATM    8  N5  UNL     1      23.167  -8.185  14.155  1.00  0.00    -0.150 N 
ATOM      9  H2  UNL     1      21.179 -10.512  15.378  1.00  0.00     0.178 HD
HETATM   10  C15 UNL     1      24.254  -8.242  13.295  1.00  0.00     0.015 C 
ATOM     11  H5  UNL     1      23.014  -7.356  14.729  1.00  0.00     0.195 HD
HETATM   12  C16 UNL     1      25.206  -8.310  12.553  1.00  0.00     0.037 C 
ATOM     13  H1  UNL     1      21.859  -9.337  12.171  1.00  0.00     0.177 HD
BRANCH   7  14
HETATM   14  C6  UNL     1      22.227  -9.105  16.626  1.00  0.00     0.182 C 
BRANCH  14  15
HETATM   15  C7  UNL     1      23.114 -10.024  17.421  1.00  0.00     0.076 C 
BRANCH  15  16
HETATM   16  N3  UNL     1      24.454  -9.716  17.458  1.00  0.00    -0.394 N 
ATOM     17  H3  UNL     1      24.734  -9.049  18.178  1.00  0.00     0.159 HD
BRANCH  16  18
HETATM   18  C8  UNL     1      25.463 -10.187  16.656  1.00  0.00     0.113 C 
HETATM   19  C9  UNL     1      26.889 -10.144  17.224  1.00  0.00     0.297 C 
HETATM   20  N4  UNL     1      27.732 -10.654  16.163  1.00  0.00     0.090 N 
HETATM   21  C10 UNL     1      27.205 -10.453  14.833  1.00  0.00     0.273 C 
HETATM   22  C14 UNL     1      27.771 -12.117  16.328  1.00  0.00     0.273 C 
HETATM   23  C11 UNL     1      25.956 -11.310  14.568  1.00  0.00     0.037 C 
HETATM   24  C12 UNL     1      25.367 -11.529  15.987  1.00  0.00     0.013 C 
HETATM   25  C13 UNL     1      26.358 -12.553  16.564  1.00  0.00     0.037 C 
ENDBRANCH  16  18
ENDBRANCH  15  16
ENDBRANCH  14  15
ENDBRANCH   7  14
ENDBRANCH   4   5
ENDBRANCH   3   4
TORSDOF 6
ENDMDL
MODEL 2
REMARK VINA RESULT: -6.233853853      0.771      1.542
REMARK  6 active torsions:
REMARK  status: ('A' for Active; 'I' for Inactive)
REMARK    1  A    between atoms: C3_3  and  C4_4 
REMARK    2  A    between atoms: C4_4  and  N1_5 
REMARK       I    between atoms: N1_5  and  C5_7 
REMARK       I    between atoms: C5_7  and  N5_22 
REMARK    3  A    between atoms: N2_8  and  C6_10 
REMARK    4  A    between atoms: C6_10  and  C7_11 
REMARK    5  A    between atoms: C7_11  and  N3_12 
REMARK    6  A    between atoms: N3_12  and  C8_14 
ROOT
HETATM    1  C1  UNL     1      22.203 -13.546  15.129  1.00  0.00     0.012 C 
HETATM    2  C2  UNL     1      22.192 -12.839  14.161  1.00  0.00    -0.116 C 
HETATM    3  C3  UNL     1      22.195 -11.995  12.968  1.00  0.00     0.113 C 
ENDROOT
BRANCH   3   4
HETATM    4  C4  UNL     1      21.160 -10.900  13.155  1.00  0.00     0.150 C 
BRANCH   4   5
HETATM    5  N1  UNL     1      21.802  -9.606  13.282  1.00  0.00    -0.225 N 
HETATM    6  C5  UNL     1      22.266  -9.089  14.521  1.00  0.00     0.681 C 
HETATM    7  N2  UNL     1      21.710  -9.467  15.625  1.00  0.00    -0.221 N 
HETATM    8  N5  UNL     1      23.340  -8.165  14.494  1.00  0.00    -0.150 N 
ATOM      9  H2  UNL     1      20.939 -10.135  15.597  1.00  0.00     0.178 HD
HETATM   10  C15 UNL     1      24.432  -8.394  13.669  1.00  0.00     0.015 C 
ATOM     11  H5  UNL     1      23.311  -7.332  15.082  1.00  0.00     0.195 HD
HETATM   12  C16 UNL     1      25.384  -8.613  12.957  1.00  0.00     0.037 C 
ATOM     13  H1  UNL     1      21.927  -9.040  12.442  1.00  0.00     0.177 HD
BRANCH   7  14
HETATM   14  C6  UNL     1      22.167  -8.951  16.911  1.00  0.00     0.182 C 
BRANCH  14  15
HETATM   15  C7  UNL     1      23.013  -9.964  17.633  1.00  0.00     0.076 C 
BRANCH  15  16
HETATM   16  N3  UNL     1      24.377  -9.802  17.556  1.00  0.00    -0.394 N 
ATOM     17  H3  UNL     1      24.736  -8.907  17.887  1.00  0.00     0.159 HD
BRANCH  16  18
HETATM   18  C8  UNL     1      25.319 -10.687  17.092  1.00  0.00     0.113 C 
HETATM   19  C9  UNL     1      25.073 -11.315  15.713  1.00  0.00     0.297 C 
HETATM   20  N4  UNL     1      26.186 -12.219  15.507  1.00  0.00     0.090 N 
HETATM   21  C10 UNL     1      26.768 -12.735  16.724  1.00  0.00     0.273 C 
HETATM   22  C14 UNL     1      27.261 -11.423  14.891  1.00  0.00     0.273 C 
HETATM   23  C11 UNL     1      27.501 -11.644  17.524  1.00  0.00     0.037 C 
HETATM   24  C12 UNL     1      26.781 -10.340  17.090  1.00  0.00     0.013 C 
HETATM   25  C13 UNL     1      27.345 -10.148  15.673  1.00  0.00     0.037 C 
ENDBRANCH  16  18
ENDBRANCH  15  16
ENDBRANCH  14  15
ENDBRANCH   7  14
ENDBRANCH   4   5
ENDBRANCH   3   4
TORSDOF 6
ENDMDL
MODEL 3
REMARK VINA RESULT: -6.203752882      1.631      5.484
REMARK  6 active torsions:
REMARK  status: ('A' for Active; 'I' for Inactive)
REMARK    1  A    between atoms: C3_3  and  C4_4 
REMARK    2  A    between atoms: C4_4  and  N1_5 
REMARK       I    between atoms: N1_5  and  C5_7 
REMARK       I    between atoms: C5_7  and  N5_22 
REMARK    3  A    between atoms: N2_8  and  C6_10 
REMARK    4  A    between atoms: C6_10  and  C7_11 
REMARK    5  A    between atoms: C7_11  and  N3_12 
REMARK    6  A    between atoms: N3_12  and  C8_14 
ROOT
HETATM    1  C1  UNL     1      27.052 -13.020  17.082  1.00  0.00     0.012 C 
HETATM    2  C2  UNL     1      27.533 -12.561  16.085  1.00  0.00    -0.116 C 
HETATM    3  C3  UNL     1      28.101 -12.013  14.855  1.00  0.00     0.113 C 
ENDROOT
BRANCH   3   4
HETATM    4  C4  UNL     1      29.192 -11.025  15.230  1.00  0.00     0.150 C 
BRANCH   4   5
HETATM    5  N1  UNL     1      28.679 -10.019  16.141  1.00  0.00    -0.225 N 
HETATM    6  C5  UNL     1      27.720  -9.044  15.759  1.00  0.00     0.681 C 
HETATM    7  N2  UNL     1      27.640  -8.669  14.524  1.00  0.00    -0.221 N 
HETATM    8  N5  UNL     1      26.874  -8.515  16.765  1.00  0.00    -0.150 N 
ATOM      9  H2  UNL     1      28.269  -9.077  13.832  1.00  0.00     0.178 HD
HETATM   10  C15 UNL     1      26.302  -9.360  17.705  1.00  0.00     0.015 C 
ATOM     11  H5  UNL     1      26.686  -7.513  16.798  1.00  0.00     0.195 HD
HETATM   12  C16 UNL     1      25.798 -10.108  18.509  1.00  0.00     0.037 C 
ATOM     13  H1  UNL     1      29.023 -10.012  17.101  1.00  0.00     0.177 HD
BRANCH   7  14
HETATM   14  C6  UNL     1      26.663  -7.669  14.105  1.00  0.00     0.182 C 
BRANCH  14  15
HETATM   15  C7  UNL     1      25.477  -8.312  13.441  1.00  0.00     0.076 C 
BRANCH  15  16
HETATM   16  N3  UNL     1      24.233  -7.900  13.858  1.00  0.00    -0.394 N 
ATOM     17  H3  UNL     1      24.017  -6.916  13.699  1.00  0.00     0.159 HD
BRANCH  16  18
HETATM   18  C8  UNL     1      23.243  -8.638  14.460  1.00  0.00     0.113 C 
HETATM   19  C9  UNL     1      22.507  -9.666  13.589  1.00  0.00     0.297 C 
HETATM   20  N4  UNL     1      21.511 -10.253  14.461  1.00  0.00     0.090 N 
HETATM   21  C10 UNL     1      21.071  -9.388  15.531  1.00  0.00     0.273 C 
HETATM   22  C14 UNL     1      22.166 -11.382  15.143  1.00  0.00     0.273 C 
HETATM   23  C11 UNL     1      22.177  -9.147  16.573  1.00  0.00     0.037 C 
HETATM   24  C12 UNL     1      23.482  -9.351  15.760  1.00  0.00     0.013 C 
HETATM   25  C13 UNL     1      23.499 -10.881  15.605  1.00  0.00     0.037 C 
ENDBRANCH  16  18
ENDBRANCH  15  16
ENDBRANCH  14  15
ENDBRANCH   7  14
ENDBRANCH   4   5
ENDBRANCH   3   4
TORSDOF 6
ENDMDL
MODEL 4
REMARK VINA RESULT: -6.053413319      1.717      5.410
REMARK  6 active torsions:
REMARK  status: ('A' for Active; 'I' for Inactive)
REMARK    1  A    between atoms: C3_3  and  C4_4 
REMARK    2  A    between atoms: C4_4  and  N1_5 
REMARK       I    between atoms: N1_5  and  C5_7 
REMARK       I    between atoms: C5_7  and  N5_22 
REMARK    3  A    between atoms: N2_8  and  C6_10 
REMARK    4  A    between atoms: C6_10  and  C7_11 
REMARK    5  A    between atoms: C7_11  and  N3_12 
REMARK    6  A    between atoms: N3_12  and  C8_14 
ROOT
HETATM    1  C1  UNL     1      27.056 -13.046  17.044  1.00  0.00     0.012 C 
HETATM    2  C2  UNL     1      27.521 -12.564  16.050  1.00  0.00    -0.116 C 
HETATM    3  C3  UNL     1      28.069 -11.988  14.824  1.00  0.00     0.113 C 
ENDROOT
BRANCH   3   4
HETATM    4  C4  UNL     1      29.127 -10.968  15.206  1.00  0.00     0.150 C 
BRANCH   4   5
HETATM    5  N1  UNL     1      28.573  -9.968  16.099  1.00  0.00    -0.225 N 
HETATM    6  C5  UNL     1      27.652  -8.974  15.674  1.00  0.00     0.681 C 
HETATM    7  N2  UNL     1      27.652  -8.580  14.442  1.00  0.00    -0.221 N 
HETATM    8  N5  UNL     1      26.753  -8.447  16.635  1.00  0.00    -0.150 N 
ATOM      9  H2  UNL     1      28.316  -8.987  13.784  1.00  0.00     0.178 HD
HETATM   10  C15 UNL     1      26.114  -9.297  17.525  1.00  0.00     0.015 C 
ATOM     11  H5  UNL     1      26.577  -7.443  16.672  1.00  0.00     0.195 HD
HETATM   12  C16 UNL     1      25.552 -10.050  18.286  1.00  0.00     0.037 C 
ATOM     13  H1  UNL     1      28.858  -9.980  17.078  1.00  0.00     0.177 HD
BRANCH   7  14
HETATM   14  C6  UNL     1      26.716  -7.561  13.980  1.00  0.00     0.182 C 
BRANCH  14  15
HETATM   15  C7  UNL     1      25.525  -8.182  13.302  1.00  0.00     0.076 C 
BRANCH  15  16
HETATM   16  N3  UNL     1      24.328  -8.128  13.977  1.00  0.00    -0.394 N 
ATOM     17  H3  UNL     1      23.914  -7.200  14.068  1.00  0.00     0.159 HD
BRANCH  16  18
HETATM   18  C8  UNL     1      23.617  -9.157  14.543  1.00  0.00     0.113 C 
HETATM   19  C9  UNL     1      22.834  -8.845  15.827  1.00  0.00     0.297 C 
HETATM   20  N4  UNL     1      22.227 -10.102  16.212  1.00  0.00     0.090 N 
HETATM   21  C10 UNL     1      22.948 -11.273  15.769  1.00  0.00     0.273 C 
HETATM   22  C14 UNL     1      20.936 -10.174  15.509  1.00  0.00     0.273 C 
HETATM   23  C11 UNL     1      22.890 -11.446  14.242  1.00  0.00     0.037 C 
HETATM   24  C12 UNL     1      22.677  -9.999  13.727  1.00  0.00     0.013 C 
HETATM   25  C13 UNL     1      21.202  -9.767  14.093  1.00  0.00     0.037 C 
ENDBRANCH  16  18
ENDBRANCH  15  16
ENDBRANCH  14  15
ENDBRANCH   7  14
ENDBRANCH   4   5
ENDBRANCH   3   4
TORSDOF 6
ENDMDL
MODEL 5
REMARK VINA RESULT: -5.949004536      1.138      1.627
REMARK  6 active torsions:
REMARK  status: ('A' for Active; 'I' for Inactive)
REMARK    1  A    between atoms: C3_3  and  C4_4 
REMARK    2  A    between atoms: C4_4  and  N1_5 
REMARK       I    between atoms: N1_5  and  C5_7 
REMARK       I    between atoms: C5_7  and  N5_22 
REMARK    3  A    between atoms: N2_8  and  C6_10 
REMARK    4  A    between atoms: C6_10  and  C7_11 
REMARK    5  A    between atoms: C7_11  and  N3_12 
REMARK    6  A    between atoms: N3_12  and  C8_14 
ROOT
HETATM    1  C1  UNL     1      23.871 -11.704  11.862  1.00  0.00     0.012 C 
HETATM    2  C2  UNL     1      23.052 -12.262  12.538  1.00  0.00    -0.116 C 
HETATM    3  C3  UNL     1      22.050 -12.958  13.341  1.00  0.00     0.113 C 
ENDROOT
BRANCH   3   4
HETATM    4  C4  UNL     1      22.077 -12.382  14.745  1.00  0.00     0.150 C 
BRANCH   4   5
HETATM    5  N1  UNL     1      21.935 -10.939  14.707  1.00  0.00    -0.225 N 
HETATM    6  C5  UNL     1      22.367 -10.089  15.760  1.00  0.00     0.681 C 
HETATM    7  N2  UNL     1      22.422 -10.541  16.971  1.00  0.00    -0.221 N 
HETATM    8  N5  UNL     1      22.726  -8.758  15.435  1.00  0.00    -0.150 N 
ATOM      9  H2  UNL     1      22.154 -11.507  17.159  1.00  0.00     0.178 HD
HETATM   10  C15 UNL     1      23.499  -8.504  14.311  1.00  0.00     0.015 C 
ATOM     11  H5  UNL     1      22.417  -7.986  16.026  1.00  0.00     0.195 HD
HETATM   12  C16 UNL     1      24.185  -8.297  13.337  1.00  0.00     0.037 C 
ATOM     13  H1  UNL     1      21.506 -10.514  13.885  1.00  0.00     0.177 HD
BRANCH   7  14
HETATM   14  C6  UNL     1      22.862  -9.689  18.071  1.00  0.00     0.182 C 
BRANCH  14  15
HETATM   15  C7  UNL     1      24.192 -10.140  18.609  1.00  0.00     0.076 C 
BRANCH  15  16
HETATM   16  N3  UNL     1      25.311  -9.738  17.917  1.00  0.00    -0.394 N 
ATOM     17  H3  UNL     1      25.771  -8.899  18.268  1.00  0.00     0.159 HD
BRANCH  16  18
HETATM   18  C8  UNL     1      25.890 -10.318  16.815  1.00  0.00     0.113 C 
HETATM   19  C9  UNL     1      27.279  -9.810  16.403  1.00  0.00     0.297 C 
HETATM   20  N4  UNL     1      27.615 -10.558  15.210  1.00  0.00     0.090 N 
HETATM   21  C10 UNL     1      26.474 -11.007  14.446  1.00  0.00     0.273 C 
HETATM   22  C14 UNL     1      28.266 -11.798  15.665  1.00  0.00     0.273 C 
HETATM   23  C11 UNL     1      25.673 -12.094  15.183  1.00  0.00     0.037 C 
HETATM   24  C12 UNL     1      25.982 -11.812  16.677  1.00  0.00     0.013 C 
HETATM   25  C13 UNL     1      27.426 -12.330  16.784  1.00  0.00     0.037 C 
ENDBRANCH  16  18
ENDBRANCH  15  16
ENDBRANCH  14  15
ENDBRANCH   7  14
ENDBRANCH   4   5
ENDBRANCH   3   4
TORSDOF 6
ENDMDL
