MODEL 1
REMARK VINA RESULT: -7.326933292      0.000      0.000
REMARK  6 active torsions:
REMARK  status: ('A' for Active; 'I' for Inactive)
REMARK    1  A    between atoms: N3_4  and  C2_6 
REMARK    2  A    between atoms: C2_6  and  C3_7 
REMARK    3  A    between atoms: C3_7  and  N4_8 
REMARK    4  A    between atoms: C5_13  and  C6_14 
REMARK    5  A    between atoms: C6_14  and  C7_15 
REMARK    6  A    between atoms: C7_15  and  C8_16 
ROOT
HETATM    1  N4  UNL     1      24.167 -10.918  11.920  1.00  0.00    -0.221 N 
ATOM      2  H4  UNL     1      25.007 -11.174  11.401  1.00  0.00     0.178 HD
HETATM    3  C4  UNL     1      24.287 -10.086  12.889  1.00  0.00     0.683 A 
HETATM    4  N5  UNL     1      25.513  -9.567  13.200  1.00  0.00    -0.180 N 
ATOM      5  H5  UNL     1      26.335  -9.841  12.663  1.00  0.00     0.185 HD
HETATM    6  C5  UNL     1      25.629  -8.700  14.211  1.00  0.00     0.101 A 
HETATM    7  N6  UNL     1      24.594  -8.294  14.962  1.00  0.00    -0.297 N 
ATOM      8  H6  UNL     1      24.719  -7.632  15.727  1.00  0.00     0.172 HD
HETATM    9  C14 UNL     1      23.387  -8.798  14.663  1.00  0.00     0.339 A 
HETATM   10  O1  UNL     1      22.388  -8.438  15.348  1.00  0.00    -0.246 OA
HETATM   11  N7  UNL     1      23.244  -9.684  13.635  1.00  0.00    -0.141 N 
ATOM     12  H7  UNL     1      22.316 -10.054  13.426  1.00  0.00     0.189 HD
ENDROOT
BRANCH   1  13
HETATM   13  C3  UNL     1      22.897 -11.522  11.515  1.00  0.00     0.182 C 
BRANCH  13  14
HETATM   14  C2  UNL     1      22.923 -12.976  11.850  1.00  0.00     0.083 C 
BRANCH  14  15
HETATM   15  N3  UNL     1      22.420 -13.328  13.115  1.00  0.00    -0.345 N 
HETATM   16  C1  UNL     1      22.957 -13.398  14.241  1.00  0.00     0.200 C 
HETATM   17  N1  UNL     1      22.206 -13.794  15.415  1.00  0.00    -0.067 NA
HETATM   18  N2  UNL     1      24.306 -13.108  14.473  1.00  0.00    -0.067 NA
ATOM     19  H3  UNL     1      21.430 -13.572  13.113  1.00  0.00     0.167 HD
ENDBRANCH  14  15
ENDBRANCH  13  14
ENDBRANCH   1  13
BRANCH   6  20
HETATM   20  C6  UNL     1      26.976  -8.153  14.528  1.00  0.00     0.082 C 
BRANCH  20  21
HETATM   21  C7  UNL     1      27.367  -8.425  15.971  1.00  0.00     0.046 C 
BRANCH  21  22
HETATM   22  C8  UNL     1      27.442  -9.912  16.110  1.00  0.00    -0.058 A 
HETATM   23  C9  UNL     1      28.251 -10.690  15.308  1.00  0.00     0.007 A 
HETATM   24  C10 UNL     1      28.278 -12.071  15.485  1.00  0.00     0.001 A 
HETATM   25  C11 UNL     1      27.517 -12.705  16.446  1.00  0.00     0.000 A 
HETATM   26  C12 UNL     1      26.705 -11.926  17.250  1.00  0.00     0.001 A 
HETATM   27  C13 UNL     1      26.683 -10.561  17.071  1.00  0.00     0.007 A 
ENDBRANCH  21  22
ENDBRANCH  20  21
ENDBRANCH   6  20
TORSDOF 6
ENDMDL
MODEL 2
REMARK VINA RESULT: -7.186407485      4.028      5.721
REMARK  6 active torsions:
REMARK  status: ('A' for Active; 'I' for Inactive)
REMARK    1  A    between atoms: N3_4  and  C2_6 
REMARK    2  A    between atoms: C2_6  and  C3_7 
REMARK    3  A    between atoms: C3_7  and  N4_8 
REMARK    4  A    between atoms: C5_13  and  C6_14 
REMARK    5  A    between atoms: C6_14  and  C7_15 
REMARK    6  A    between atoms: C7_15  and  C8_16 
ROOT
HETATM    1  N4  UNL     1      24.803  -8.018   9.136  1.00  0.00    -0.221 N 
ATOM      2  H4  UNL     1      24.709  -9.000   8.878  1.00  0.00     0.178 HD
HETATM    3  C4  UNL     1      24.960  -7.733  10.376  1.00  0.00     0.683 A 
HETATM    4  N5  UNL     1      24.999  -8.731  11.310  1.00  0.00    -0.180 N 
ATOM      5  H5  UNL     1      24.904  -9.704  11.023  1.00  0.00     0.185 HD
HETATM    6  C5  UNL     1      25.164  -8.425  12.601  1.00  0.00     0.101 A 
HETATM    7  N6  UNL     1      25.296  -7.169  13.054  1.00  0.00    -0.297 N 
ATOM      8  H6  UNL     1      25.419  -6.971  14.047  1.00  0.00     0.172 HD
HETATM    9  C14 UNL     1      25.259  -6.183  12.145  1.00  0.00     0.339 A 
HETATM   10  O1  UNL     1      25.381  -4.988  12.534  1.00  0.00    -0.246 OA
HETATM   11  N7  UNL     1      25.092  -6.472  10.821  1.00  0.00    -0.141 N 
ATOM     12  H7  UNL     1      25.067  -5.706  10.148  1.00  0.00     0.189 HD
ENDROOT
BRANCH   1  13
HETATM   13  C3  UNL     1      24.750  -7.019   8.068  1.00  0.00     0.182 C 
BRANCH  13  14
HETATM   14  C2  UNL     1      26.004  -7.099   7.265  1.00  0.00     0.083 C 
BRANCH  14  15
HETATM   15  N3  UNL     1      26.930  -6.058   7.458  1.00  0.00    -0.345 N 
HETATM   16  C1  UNL     1      27.794  -5.857   8.338  1.00  0.00     0.200 C 
HETATM   17  N1  UNL     1      28.642  -4.683   8.312  1.00  0.00    -0.067 NA
HETATM   18  N2  UNL     1      28.023  -6.727   9.409  1.00  0.00    -0.067 NA
ATOM     19  H3  UNL     1      26.887  -5.330   6.746  1.00  0.00     0.167 HD
ENDBRANCH  14  15
ENDBRANCH  13  14
ENDBRANCH   1  13
BRANCH   6  20
HETATM   20  C6  UNL     1      25.202  -9.532  13.596  1.00  0.00     0.082 C 
BRANCH  20  21
HETATM   21  C7  UNL     1      25.639  -9.040  14.965  1.00  0.00     0.046 C 
BRANCH  21  22
HETATM   22  C8  UNL     1      26.325 -10.194  15.624  1.00  0.00    -0.058 A 
HETATM   23  C9  UNL     1      26.198 -10.459  16.971  1.00  0.00     0.007 A 
HETATM   24  C10 UNL     1      26.862 -11.550  17.528  1.00  0.00     0.001 A 
HETATM   25  C11 UNL     1      27.655 -12.391  16.774  1.00  0.00     0.000 A 
HETATM   26  C12 UNL     1      27.784 -12.126  15.423  1.00  0.00     0.001 A 
HETATM   27  C13 UNL     1      27.124 -11.047  14.878  1.00  0.00     0.007 A 
ENDBRANCH  21  22
ENDBRANCH  20  21
ENDBRANCH   6  20
TORSDOF 6
ENDMDL
MODEL 3
REMARK VINA RESULT: -7.178469910      3.988      5.743
REMARK  6 active torsions:
REMARK  status: ('A' for Active; 'I' for Inactive)
REMARK    1  A    between atoms: N3_4  and  C2_6 
REMARK    2  A    between atoms: C2_6  and  C3_7 
REMARK    3  A    between atoms: C3_7  and  N4_8 
REMARK    4  A    between atoms: C5_13  and  C6_14 
REMARK    5  A    between atoms: C6_14  and  C7_15 
REMARK    6  A    between atoms: C7_15  and  C8_16 
ROOT
HETATM    1  N4  UNL     1      25.041  -8.428   9.462  1.00  0.00    -0.221 N 
ATOM      2  H4  UNL     1      24.925  -9.429   9.313  1.00  0.00     0.178 HD
HETATM    3  C4  UNL     1      25.063  -7.997  10.671  1.00  0.00     0.683 A 
HETATM    4  N5  UNL     1      24.935  -8.872  11.713  1.00  0.00    -0.180 N 
ATOM      5  H5  UNL     1      24.820  -9.869  11.533  1.00  0.00     0.185 HD
HETATM    6  C5  UNL     1      24.960  -8.415  12.970  1.00  0.00     0.101 A 
HETATM    7  N6  UNL     1      25.106  -7.119  13.284  1.00  0.00    -0.297 N 
ATOM      8  H6  UNL     1      25.120  -6.805  14.254  1.00  0.00     0.172 HD
HETATM    9  C14 UNL     1      25.233  -6.253  12.267  1.00  0.00     0.339 A 
HETATM   10  O1  UNL     1      25.373  -5.025  12.525  1.00  0.00    -0.246 OA
HETATM   11  N7  UNL     1      25.211  -6.697  10.976  1.00  0.00    -0.141 N 
ATOM     12  H7  UNL     1      25.309  -6.020  10.219  1.00  0.00     0.189 HD
ENDROOT
BRANCH   1  13
HETATM   13  C3  UNL     1      25.172  -7.567   8.286  1.00  0.00     0.182 C 
BRANCH  13  14
HETATM   14  C2  UNL     1      26.497  -7.815   7.648  1.00  0.00     0.083 C 
BRANCH  14  15
HETATM   15  N3  UNL     1      27.599  -7.173   8.240  1.00  0.00    -0.345 N 
HETATM   16  C1  UNL     1      28.042  -6.009   8.145  1.00  0.00     0.200 C 
HETATM   17  N1  UNL     1      29.219  -5.585   8.875  1.00  0.00    -0.067 NA
HETATM   18  N2  UNL     1      27.458  -5.023   7.341  1.00  0.00    -0.067 NA
ATOM     19  H3  UNL     1      28.138  -7.771   8.866  1.00  0.00     0.167 HD
ENDBRANCH  14  15
ENDBRANCH  13  14
ENDBRANCH   1  13
BRANCH   6  20
HETATM   20  C6  UNL     1      24.817  -9.390  14.085  1.00  0.00     0.082 C 
BRANCH  20  21
HETATM   21  C7  UNL     1      25.584 -10.672  13.810  1.00  0.00     0.046 C 
BRANCH  21  22
HETATM   22  C8  UNL     1      26.213 -11.069  15.109  1.00  0.00    -0.058 A 
HETATM   23  C9  UNL     1      25.818 -10.532  16.316  1.00  0.00     0.007 A 
HETATM   24  C10 UNL     1      26.442 -10.941  17.492  1.00  0.00     0.001 A 
HETATM   25  C11 UNL     1      27.456 -11.877  17.499  1.00  0.00     0.000 A 
HETATM   26  C12 UNL     1      27.854 -12.415  16.289  1.00  0.00     0.001 A 
HETATM   27  C13 UNL     1      27.233 -12.008  15.130  1.00  0.00     0.007 A 
ENDBRANCH  21  22
ENDBRANCH  20  21
ENDBRANCH   6  20
TORSDOF 6
ENDMDL
MODEL 4
REMARK VINA RESULT: -7.158915227      1.851      2.713
REMARK  6 active torsions:
REMARK  status: ('A' for Active; 'I' for Inactive)
REMARK    1  A    between atoms: N3_4  and  C2_6 
REMARK    2  A    between atoms: C2_6  and  C3_7 
REMARK    3  A    between atoms: C3_7  and  N4_8 
REMARK    4  A    between atoms: C5_13  and  C6_14 
REMARK    5  A    between atoms: C6_14  and  C7_15 
REMARK    6  A    between atoms: C7_15  and  C8_16 
ROOT
HETATM    1  N4  UNL     1      23.956 -10.397  11.676  1.00  0.00    -0.221 N 
ATOM      2  H4  UNL     1      24.753 -10.617  11.080  1.00  0.00     0.178 HD
HETATM    3  C4  UNL     1      24.172  -9.733  12.751  1.00  0.00     0.683 A 
HETATM    4  N5  UNL     1      25.441  -9.339  13.071  1.00  0.00    -0.180 N 
ATOM      5  H5  UNL     1      26.220  -9.573  12.456  1.00  0.00     0.185 HD
HETATM    6  C5  UNL     1      25.658  -8.646  14.194  1.00  0.00     0.101 A 
HETATM    7  N6  UNL     1      24.685  -8.302  15.052  1.00  0.00    -0.297 N 
ATOM      8  H6  UNL     1      24.886  -7.773  15.900  1.00  0.00     0.172 HD
HETATM    9  C14 UNL     1      23.436  -8.684  14.745  1.00  0.00     0.339 A 
HETATM   10  O1  UNL     1      22.494  -8.378  15.529  1.00  0.00    -0.246 OA
HETATM   11  N7  UNL     1      23.191  -9.392  13.604  1.00  0.00    -0.141 N 
ATOM     12  H7  UNL     1      22.233  -9.672  13.392  1.00  0.00     0.189 HD
ENDROOT
BRANCH   1  13
HETATM   13  C3  UNL     1      22.634 -10.859  11.253  1.00  0.00     0.182 C 
BRANCH  13  14
HETATM   14  C2  UNL     1      21.982  -9.790  10.441  1.00  0.00     0.083 C 
BRANCH  14  15
HETATM   15  N3  UNL     1      20.589  -9.664  10.589  1.00  0.00    -0.345 N 
HETATM   16  C1  UNL     1      19.882  -9.198  11.508  1.00  0.00     0.200 C 
HETATM   17  N1  UNL     1      18.436  -9.183  11.416  1.00  0.00    -0.067 NA
HETATM   18  N2  UNL     1      20.405  -8.660  12.688  1.00  0.00    -0.067 NA
ATOM     19  H3  UNL     1      20.056 -10.019   9.796  1.00  0.00     0.167 HD
ENDBRANCH  14  15
ENDBRANCH  13  14
ENDBRANCH   1  13
BRANCH   6  20
HETATM   20  C6  UNL     1      27.050  -8.231  14.517  1.00  0.00     0.082 C 
BRANCH  20  21
HETATM   21  C7  UNL     1      27.402  -8.528  15.965  1.00  0.00     0.046 C 
BRANCH  21  22
HETATM   22  C8  UNL     1      27.434 -10.018  16.089  1.00  0.00    -0.058 A 
HETATM   23  C9  UNL     1      28.237 -10.810  15.295  1.00  0.00     0.007 A 
HETATM   24  C10 UNL     1      28.223 -12.192  15.458  1.00  0.00     0.001 A 
HETATM   25  C11 UNL     1      27.426 -12.815  16.397  1.00  0.00     0.000 A 
HETATM   26  C12 UNL     1      26.620 -12.022  17.194  1.00  0.00     0.001 A 
HETATM   27  C13 UNL     1      26.638 -10.655  17.029  1.00  0.00     0.007 A 
ENDBRANCH  21  22
ENDBRANCH  20  21
ENDBRANCH   6  20
TORSDOF 6
ENDMDL
MODEL 5
REMARK VINA RESULT: -7.147716473      3.842      5.495
REMARK  6 active torsions:
REMARK  status: ('A' for Active; 'I' for Inactive)
REMARK    1  A    between atoms: N3_4  and  C2_6 
REMARK    2  A    between atoms: C2_6  and  C3_7 
REMARK    3  A    between atoms: C3_7  and  N4_8 
REMARK    4  A    between atoms: C5_13  and  C6_14 
REMARK    5  A    between atoms: C6_14  and  C7_15 
REMARK    6  A    between atoms: C7_15  and  C8_16 
ROOT
HETATM    1  N4  UNL     1      24.782  -8.500   9.447  1.00  0.00    -0.221 N 
ATOM      2  H4  UNL     1      24.630  -9.500   9.316  1.00  0.00     0.178 HD
HETATM    3  C4  UNL     1      24.899  -8.060  10.646  1.00  0.00     0.683 A 
HETATM    4  N5  UNL     1      24.820  -8.922  11.704  1.00  0.00    -0.180 N 
ATOM      5  H5  UNL     1      24.667  -9.918  11.543  1.00  0.00     0.185 HD
HETATM    6  C5  UNL     1      24.943  -8.456  12.951  1.00  0.00     0.101 A 
HETATM    7  N6  UNL     1      25.145  -7.161  13.241  1.00  0.00    -0.297 N 
ATOM      8  H6  UNL     1      25.233  -6.839  14.204  1.00  0.00     0.172 HD
HETATM    9  C14 UNL     1      25.224  -6.308  12.208  1.00  0.00     0.339 A 
HETATM   10  O1  UNL     1      25.414  -5.081  12.443  1.00  0.00    -0.246 OA
HETATM   11  N7  UNL     1      25.101  -6.762  10.926  1.00  0.00    -0.141 N 
ATOM     12  H7  UNL     1      25.165  -6.094  10.158  1.00  0.00     0.189 HD
ENDROOT
BRANCH   1  13
HETATM   13  C3  UNL     1      24.853  -7.654   8.255  1.00  0.00     0.182 C 
BRANCH  13  14
HETATM   14  C2  UNL     1      26.211  -7.780   7.650  1.00  0.00     0.083 C 
BRANCH  14  15
HETATM   15  N3  UNL     1      27.002  -6.617   7.655  1.00  0.00    -0.345 N 
HETATM   16  C1  UNL     1      27.826  -6.167   8.479  1.00  0.00     0.200 C 
HETATM   17  N1  UNL     1      28.524  -4.920   8.246  1.00  0.00    -0.067 NA
HETATM   18  N2  UNL     1      28.148  -6.809   9.680  1.00  0.00    -0.067 NA
ATOM     19  H3  UNL     1      26.878  -6.030   6.831  1.00  0.00     0.167 HD
ENDBRANCH  14  15
ENDBRANCH  13  14
ENDBRANCH   1  13
BRANCH   6  20
HETATM   20  C6  UNL     1      24.852  -9.417  14.083  1.00  0.00     0.082 C 
BRANCH  20  21
HETATM   21  C7  UNL     1      25.593 -10.709  13.783  1.00  0.00     0.046 C 
BRANCH  21  22
HETATM   22  C8  UNL     1      26.247 -11.122  15.063  1.00  0.00    -0.058 A 
HETATM   23  C9  UNL     1      27.299 -12.013  15.102  1.00  0.00     0.007 A 
HETATM   24  C10 UNL     1      27.867 -12.359  16.326  1.00  0.00     0.001 A 
HETATM   25  C11 UNL     1      27.413 -11.839  17.521  1.00  0.00     0.000 A 
HETATM   26  C12 UNL     1      26.358 -10.947  17.483  1.00  0.00     0.001 A 
HETATM   27  C13 UNL     1      25.801 -10.607  16.270  1.00  0.00     0.007 A 
ENDBRANCH  21  22
ENDBRANCH  20  21
ENDBRANCH   6  20
TORSDOF 6
ENDMDL
