MODEL 1
REMARK VINA RESULT: -6.940771663      0.000      0.000
REMARK  8 active torsions:
REMARK  status: ('A' for Active; 'I' for Inactive)
REMARK    1  A    between atoms: C2_5  and  C3_6 
REMARK    2  A    between atoms: C2_5  and  N3_8 
REMARK    3  A    between atoms: N3_8  and  C4_10 
REMARK    4  A    between atoms: C4_10  and  C5_11 
REMARK    5  A    between atoms: C5_11  and  C6_12 
REMARK    6  A    between atoms: C6_12  and  C7_13 
REMARK    7  A    between atoms: C7_13  and  N4_14 
REMARK    8  A    between atoms: N4_14  and  C8_16 
ROOT
HETATM    1  N1  UNL     1      22.252  -7.910  12.795  1.00  0.00    -0.172 NA
HETATM    2  C1  UNL     1      23.352  -7.980  13.140  1.00  0.00     0.183 C 
HETATM    3  N2  UNL     1      24.672  -8.084  13.568  1.00  0.00    -0.277 N 
ATOM      4  H2  UNL     1      24.874  -8.797  14.269  1.00  0.00     0.179 HD
HETATM    5  C2  UNL     1      25.652  -7.371  13.169  1.00  0.00     0.148 C 
ENDROOT
BRANCH   5   6
HETATM    6  C3  UNL     1      25.494  -6.324  12.181  1.00  0.00     0.307 C 
HETATM    7  O1  UNL     1      25.416  -5.131  12.539  1.00  0.00    -0.298 OA
ENDBRANCH   5   6
BRANCH   5   8
HETATM    8  N3  UNL     1      26.935  -7.620  13.718  1.00  0.00    -0.373 N 
ATOM      9  H3  UNL     1      27.771  -7.397  13.177  1.00  0.00     0.161 HD
BRANCH   8  10
HETATM   10  C4  UNL     1      27.065  -8.190  15.041  1.00  0.00     0.121 C 
BRANCH  10  11
HETATM   11  C5  UNL     1      28.038  -9.343  14.980  1.00  0.00     0.021 C 
BRANCH  11  12
HETATM   12  C6  UNL     1      28.497  -9.798  16.330  1.00  0.00     0.022 C 
BRANCH  12  13
HETATM   13  C7  UNL     1      27.863 -11.090  16.769  1.00  0.00     0.138 C 
BRANCH  13  14
HETATM   14  N4  UNL     1      26.723 -10.822  17.585  1.00  0.00    -0.226 N 
ATOM     15  H4  UNL     1      26.860 -10.771  18.594  1.00  0.00     0.177 HD
BRANCH  14  16
HETATM   16  C8  UNL     1      25.528 -10.641  17.124  1.00  0.00     0.679 A 
HETATM   17  N5  UNL     1      24.585  -9.765  17.476  1.00  0.00    -0.190 N 
HETATM   18  C9  UNL     1      23.475  -9.908  16.745  1.00  0.00     0.076 A 
ATOM     19  H5  UNL     1      24.698  -9.069  18.213  1.00  0.00     0.184 HD
HETATM   20  C10 UNL     1      22.237  -9.288  16.691  1.00  0.00     0.032 A 
HETATM   21  C14 UNL     1      23.739 -10.953  15.869  1.00  0.00     0.076 A 
HETATM   22  C11 UNL     1      21.268  -9.687  15.788  1.00  0.00     0.002 A 
HETATM   23  C12 UNL     1      21.519 -10.721  14.914  1.00  0.00     0.002 A 
HETATM   24  C13 UNL     1      22.755 -11.329  14.980  1.00  0.00     0.032 A 
HETATM   25  N6  UNL     1      24.999 -11.380  16.124  1.00  0.00    -0.190 N 
ATOM     26  H6  UNL     1      25.474 -12.140  15.638  1.00  0.00     0.184 HD
ENDBRANCH  14  16
ENDBRANCH  13  14
ENDBRANCH  12  13
ENDBRANCH  11  12
ENDBRANCH  10  11
ENDBRANCH   8  10
ENDBRANCH   5   8
TORSDOF 8
ENDMDL
MODEL 2
REMARK VINA RESULT: -6.865895012      2.004      4.892
REMARK  8 active torsions:
REMARK  status: ('A' for Active; 'I' for Inactive)
REMARK    1  A    between atoms: C2_5  and  C3_6 
REMARK    2  A    between atoms: C2_5  and  N3_8 
REMARK    3  A    between atoms: N3_8  and  C4_10 
REMARK    4  A    between atoms: C4_10  and  C5_11 
REMARK    5  A    between atoms: C5_11  and  C6_12 
REMARK    6  A    between atoms: C6_12  and  C7_13 
REMARK    7  A    between atoms: C7_13  and  N4_14 
REMARK    8  A    between atoms: N4_14  and  C8_16 
ROOT
HETATM    1  N1  UNL     1      24.890 -12.122  14.483  1.00  0.00    -0.172 NA
HETATM    2  C1  UNL     1      24.423 -11.333  13.781  1.00  0.00     0.183 C 
HETATM    3  N2  UNL     1      23.868 -10.396  12.915  1.00  0.00    -0.277 N 
ATOM      4  H2  UNL     1      24.019 -10.544  11.917  1.00  0.00     0.179 HD
HETATM    5  C2  UNL     1      23.187  -9.370  13.251  1.00  0.00     0.148 C 
ENDROOT
BRANCH   5   6
HETATM    6  C3  UNL     1      22.906  -9.049  14.635  1.00  0.00     0.307 C 
HETATM    7  O1  UNL     1      23.218  -7.932  15.095  1.00  0.00    -0.298 OA
ENDBRANCH   5   6
BRANCH   5   8
HETATM    8  N3  UNL     1      22.695  -8.521  12.227  1.00  0.00    -0.373 N 
ATOM      9  H3  UNL     1      21.691  -8.461  12.056  1.00  0.00     0.161 HD
BRANCH   8  10
HETATM   10  C4  UNL     1      23.610  -7.740  11.424  1.00  0.00     0.121 C 
BRANCH  10  11
HETATM   11  C5  UNL     1      23.700  -6.349  12.004  1.00  0.00     0.021 C 
BRANCH  11  12
HETATM   12  C6  UNL     1      25.078  -5.991  12.464  1.00  0.00     0.022 C 
BRANCH  12  13
HETATM   13  C7  UNL     1      26.032  -7.154  12.445  1.00  0.00     0.138 C 
BRANCH  13  14
HETATM   14  N4  UNL     1      26.845  -7.138  13.619  1.00  0.00    -0.226 N 
ATOM     15  H4  UNL     1      27.363  -6.284  13.830  1.00  0.00     0.177 HD
BRANCH  14  16
HETATM   16  C8  UNL     1      26.965  -8.137  14.431  1.00  0.00     0.679 A 
HETATM   17  N5  UNL     1      27.825  -9.157  14.432  1.00  0.00    -0.190 N 
HETATM   18  C9  UNL     1      27.612  -9.987  15.458  1.00  0.00     0.076 A 
ATOM     19  H5  UNL     1      28.557  -9.288  13.734  1.00  0.00     0.184 HD
HETATM   20  C10 UNL     1      28.188 -11.160  15.920  1.00  0.00     0.032 A 
HETATM   21  C14 UNL     1      26.537  -9.449  16.154  1.00  0.00     0.076 A 
HETATM   22  C11 UNL     1      27.716 -11.798  17.054  1.00  0.00     0.002 A 
HETATM   23  C12 UNL     1      26.651 -11.273  17.752  1.00  0.00     0.002 A 
HETATM   24  C13 UNL     1      26.088 -10.107  17.279  1.00  0.00     0.032 A 
HETATM   25  N6  UNL     1      26.164  -8.321  15.504  1.00  0.00    -0.190 N 
ATOM     26  H6  UNL     1      25.398  -7.706  15.780  1.00  0.00     0.184 HD
ENDBRANCH  14  16
ENDBRANCH  13  14
ENDBRANCH  12  13
ENDBRANCH  11  12
ENDBRANCH  10  11
ENDBRANCH   8  10
ENDBRANCH   5   8
TORSDOF 8
ENDMDL
MODEL 3
REMARK VINA RESULT: -6.781283389      1.642      4.627
REMARK  8 active torsions:
REMARK  status: ('A' for Active; 'I' for Inactive)
REMARK    1  A    between atoms: C2_5  and  C3_6 
REMARK    2  A    between atoms: C2_5  and  N3_8 
REMARK    3  A    between atoms: N3_8  and  C4_10 
REMARK    4  A    between atoms: C4_10  and  C5_11 
REMARK    5  A    between atoms: C5_11  and  C6_12 
REMARK    6  A    between atoms: C6_12  and  C7_13 
REMARK    7  A    between atoms: C7_13  and  N4_14 
REMARK    8  A    between atoms: N4_14  and  C8_16 
ROOT
HETATM    1  N1  UNL     1      25.179  -5.269  12.204  1.00  0.00    -0.172 NA
HETATM    2  C1  UNL     1      24.353  -6.047  12.418  1.00  0.00     0.183 C 
HETATM    3  N2  UNL     1      23.341  -6.970  12.666  1.00  0.00    -0.277 N 
ATOM      4  H2  UNL     1      22.392  -6.692  12.414  1.00  0.00     0.179 HD
HETATM    5  C2  UNL     1      23.487  -8.130  13.178  1.00  0.00     0.148 C 
ENDROOT
BRANCH   5   6
HETATM    6  C3  UNL     1      24.782  -8.638  13.580  1.00  0.00     0.307 C 
HETATM    7  O1  UNL     1      25.310  -8.243  14.640  1.00  0.00    -0.298 OA
ENDBRANCH   5   6
BRANCH   5   8
HETATM    8  N3  UNL     1      22.337  -8.939  13.356  1.00  0.00    -0.373 N 
ATOM      9  H3  UNL     1      21.526  -8.809  12.751  1.00  0.00     0.161 HD
BRANCH   8  10
HETATM   10  C4  UNL     1      22.308  -9.949  14.392  1.00  0.00     0.121 C 
BRANCH  10  11
HETATM   11  C5  UNL     1      21.558  -9.402  15.582  1.00  0.00     0.021 C 
BRANCH  11  12
HETATM   12  C6  UNL     1      22.457  -8.963  16.694  1.00  0.00     0.022 C 
BRANCH  12  13
HETATM   13  C7  UNL     1      22.816 -10.074  17.643  1.00  0.00     0.138 C 
BRANCH  13  14
HETATM   14  N4  UNL     1      24.142  -9.885  18.137  1.00  0.00    -0.226 N 
ATOM     15  H4  UNL     1      24.252  -9.526  19.085  1.00  0.00     0.177 HD
BRANCH  14  16
HETATM   16  C8  UNL     1      25.212 -10.140  17.457  1.00  0.00     0.679 A 
HETATM   17  N5  UNL     1      25.550 -11.211  16.737  1.00  0.00    -0.190 N 
HETATM   18  C9  UNL     1      26.759 -11.079  16.183  1.00  0.00     0.076 A 
ATOM     19  H5  UNL     1      24.956 -12.033  16.623  1.00  0.00     0.184 HD
HETATM   20  C10 UNL     1      27.569 -11.858  15.372  1.00  0.00     0.032 A 
HETATM   21  C14 UNL     1      27.217  -9.831  16.586  1.00  0.00     0.076 A 
HETATM   22  C11 UNL     1      28.814 -11.417  14.958  1.00  0.00     0.002 A 
HETATM   23  C12 UNL     1      29.277 -10.182  15.351  1.00  0.00     0.002 A 
HETATM   24  C13 UNL     1      28.461  -9.419  16.159  1.00  0.00     0.032 A 
HETATM   25  N6  UNL     1      26.252  -9.282  17.362  1.00  0.00    -0.190 N 
ATOM     26  H6  UNL     1      26.302  -8.364  17.805  1.00  0.00     0.184 HD
ENDBRANCH  14  16
ENDBRANCH  13  14
ENDBRANCH  12  13
ENDBRANCH  11  12
ENDBRANCH  10  11
ENDBRANCH   8  10
ENDBRANCH   5   8
TORSDOF 8
ENDMDL
MODEL 4
REMARK VINA RESULT: -6.748988283      1.537      4.411
REMARK  8 active torsions:
REMARK  status: ('A' for Active; 'I' for Inactive)
REMARK    1  A    between atoms: C2_5  and  C3_6 
REMARK    2  A    between atoms: C2_5  and  N3_8 
REMARK    3  A    between atoms: N3_8  and  C4_10 
REMARK    4  A    between atoms: C4_10  and  C5_11 
REMARK    5  A    between atoms: C5_11  and  C6_12 
REMARK    6  A    between atoms: C6_12  and  C7_13 
REMARK    7  A    between atoms: C7_13  and  N4_14 
REMARK    8  A    between atoms: N4_14  and  C8_16 
ROOT
HETATM    1  N1  UNL     1      26.220  -6.631  10.280  1.00  0.00    -0.172 NA
HETATM    2  C1  UNL     1      25.906  -7.186  11.243  1.00  0.00     0.183 C 
HETATM    3  N2  UNL     1      25.551  -7.866  12.403  1.00  0.00    -0.277 N 
ATOM      4  H2  UNL     1      26.223  -8.543  12.766  1.00  0.00     0.179 HD
HETATM    5  C2  UNL     1      24.464  -7.725  13.058  1.00  0.00     0.148 C 
ENDROOT
BRANCH   5   6
HETATM    6  C3  UNL     1      23.430  -6.798  12.644  1.00  0.00     0.307 C 
HETATM    7  O1  UNL     1      23.340  -5.677  13.186  1.00  0.00    -0.298 OA
ENDBRANCH   5   6
BRANCH   5   8
HETATM    8  N3  UNL     1      24.272  -8.504  14.226  1.00  0.00    -0.373 N 
ATOM      9  H3  UNL     1      24.686  -8.206  15.109  1.00  0.00     0.161 HD
BRANCH   8  10
HETATM   10  C4  UNL     1      23.493  -9.722  14.171  1.00  0.00     0.121 C 
BRANCH  10  11
HETATM   11  C5  UNL     1      22.248  -9.540  15.006  1.00  0.00     0.021 C 
BRANCH  11  12
HETATM   12  C6  UNL     1      22.525  -8.956  16.356  1.00  0.00     0.022 C 
BRANCH  12  13
HETATM   13  C7  UNL     1      22.750  -9.996  17.418  1.00  0.00     0.138 C 
BRANCH  13  14
HETATM   14  N4  UNL     1      24.061  -9.860  17.966  1.00  0.00    -0.226 N 
ATOM     15  H4  UNL     1      24.146  -9.517  18.923  1.00  0.00     0.177 HD
BRANCH  14  16
HETATM   16  C8  UNL     1      25.148 -10.142  17.325  1.00  0.00     0.679 A 
HETATM   17  N5  UNL     1      25.564 -11.288  16.782  1.00  0.00    -0.190 N 
HETATM   18  C9  UNL     1      26.761 -11.159  16.202  1.00  0.00     0.076 A 
ATOM     19  H5  UNL     1      25.032 -12.158  16.807  1.00  0.00     0.184 HD
HETATM   20  C10 UNL     1      27.627 -11.998  15.518  1.00  0.00     0.032 A 
HETATM   21  C14 UNL     1      27.127  -9.833  16.396  1.00  0.00     0.076 A 
HETATM   22  C11 UNL     1      28.837 -11.541  15.027  1.00  0.00     0.002 A 
HETATM   23  C12 UNL     1      29.209 -10.229  15.212  1.00  0.00     0.002 A 
HETATM   24  C13 UNL     1      28.338  -9.407  15.895  1.00  0.00     0.032 A 
HETATM   25  N6  UNL     1      26.123  -9.238  17.083  1.00  0.00    -0.190 N 
ATOM     26  H6  UNL     1      26.105  -8.260  17.373  1.00  0.00     0.184 HD
ENDBRANCH  14  16
ENDBRANCH  13  14
ENDBRANCH  12  13
ENDBRANCH  11  12
ENDBRANCH  10  11
ENDBRANCH   8  10
ENDBRANCH   5   8
TORSDOF 8
ENDMDL
MODEL 5
REMARK VINA RESULT: -6.733956858      1.556      4.270
REMARK  8 active torsions:
REMARK  status: ('A' for Active; 'I' for Inactive)
REMARK    1  A    between atoms: C2_5  and  C3_6 
REMARK    2  A    between atoms: C2_5  and  N3_8 
REMARK    3  A    between atoms: N3_8  and  C4_10 
REMARK    4  A    between atoms: C4_10  and  C5_11 
REMARK    5  A    between atoms: C5_11  and  C6_12 
REMARK    6  A    between atoms: C6_12  and  C7_13 
REMARK    7  A    between atoms: C7_13  and  N4_14 
REMARK    8  A    between atoms: N4_14  and  C8_16 
ROOT
HETATM    1  N1  UNL     1      26.199  -6.642  10.196  1.00  0.00    -0.172 NA
HETATM    2  C1  UNL     1      25.908  -7.183  11.174  1.00  0.00     0.183 C 
HETATM    3  N2  UNL     1      25.579  -7.845  12.353  1.00  0.00    -0.277 N 
ATOM      4  H2  UNL     1      26.264  -8.507  12.716  1.00  0.00     0.179 HD
HETATM    5  C2  UNL     1      24.501  -7.703  13.022  1.00  0.00     0.148 C 
ENDROOT
BRANCH   5   6
HETATM    6  C3  UNL     1      23.450  -6.795  12.609  1.00  0.00     0.307 C 
HETATM    7  O1  UNL     1      23.336  -5.679  13.155  1.00  0.00    -0.298 OA
ENDBRANCH   5   6
BRANCH   5   8
HETATM    8  N3  UNL     1      24.337  -8.463  14.207  1.00  0.00    -0.373 N 
ATOM      9  H3  UNL     1      24.785  -8.159  15.072  1.00  0.00     0.161 HD
BRANCH   8  10
HETATM   10  C4  UNL     1      23.537  -9.668  14.197  1.00  0.00     0.121 C 
BRANCH  10  11
HETATM   11  C5  UNL     1      22.282  -9.425  15.000  1.00  0.00     0.021 C 
BRANCH  11  12
HETATM   12  C6  UNL     1      22.557  -8.930  16.385  1.00  0.00     0.022 C 
BRANCH  12  13
HETATM   13  C7  UNL     1      22.759 -10.036  17.384  1.00  0.00     0.138 C 
BRANCH  13  14
HETATM   14  N4  UNL     1      24.046  -9.917  17.991  1.00  0.00    -0.226 N 
ATOM     15  H4  UNL     1      24.086  -9.686  18.983  1.00  0.00     0.177 HD
BRANCH  14  16
HETATM   16  C8  UNL     1      25.163 -10.084  17.361  1.00  0.00     0.679 A 
HETATM   17  N5  UNL     1      26.147  -9.224  17.094  1.00  0.00    -0.190 N 
HETATM   18  C9  UNL     1      27.141  -9.800  16.411  1.00  0.00     0.076 A 
ATOM     19  H5  UNL     1      26.141  -8.243  17.376  1.00  0.00     0.184 HD
HETATM   20  C10 UNL     1      28.358  -9.386  15.893  1.00  0.00     0.032 A 
HETATM   21  C14 UNL     1      26.753 -11.122  16.234  1.00  0.00     0.076 A 
HETATM   22  C11 UNL     1      29.187 -10.259  15.210  1.00  0.00     0.002 A 
HETATM   23  C12 UNL     1      28.812 -11.571  15.030  1.00  0.00     0.002 A 
HETATM   24  C13 UNL     1      27.599 -11.968  15.550  1.00  0.00     0.032 A 
HETATM   25  N6  UNL     1      25.542 -11.265  16.824  1.00  0.00    -0.190 N 
ATOM     26  H6  UNL     1      25.001 -12.129  16.859  1.00  0.00     0.184 HD
ENDBRANCH  14  16
ENDBRANCH  13  14
ENDBRANCH  12  13
ENDBRANCH  11  12
ENDBRANCH  10  11
ENDBRANCH   8  10
ENDBRANCH   5   8
TORSDOF 8
ENDMDL
