MODEL 1
REMARK VINA RESULT: -6.329134104      0.000      0.000
REMARK  8 active torsions:
REMARK  status: ('A' for Active; 'I' for Inactive)
REMARK    1  A    between atoms: N1_3  and  C4_5 
REMARK    2  A    between atoms: C4_5  and  C5_6 
REMARK    3  A    between atoms: C5_6  and  N2_7 
REMARK    4  A    between atoms: N2_7  and  C6_9 
REMARK    5  A    between atoms: C7_14  and  N5_15 
REMARK    6  A    between atoms: N5_15  and  C8_17 
REMARK    7  A    between atoms: C8_17  and  C9_18 
REMARK    8  A    between atoms: C9_18  and  C10_19 
ROOT
HETATM    1  C1  UNL     1      11.607  24.636  12.502  1.00  0.00     0.123 C 
HETATM    2  C2  UNL     1      11.618  24.529  13.720  1.00  0.00    -0.078 C 
HETATM    3  N1  UNL     1      11.653  24.411  15.112  1.00  0.00    -0.355 N 
HETATM    4  C3  UNL     1      12.303  23.248  15.673  1.00  0.00     0.159 C 
ENDROOT
BRANCH   3   5
HETATM    5  C4  UNL     1      11.052  25.430  15.945  1.00  0.00     0.151 C 
BRANCH   5   6
HETATM    6  C5  UNL     1      11.644  26.802  15.645  1.00  0.00     0.158 C 
BRANCH   6   7
HETATM    7  N2  UNL     1      12.891  26.970  16.307  1.00  0.00    -0.223 N 
ATOM      8  H2  UNL     1      12.865  26.976  17.327  1.00  0.00     0.177 HD
BRANCH   7   9
HETATM    9  C6  UNL     1      14.044  27.116  15.767  1.00  0.00     0.707 A 
HETATM   10  N3  UNL     1      15.282  26.968  16.283  1.00  0.00    -0.117 N 
HETATM   11  N4  UNL     1      16.163  27.232  15.318  1.00  0.00    -0.117 N 
ATOM     12  H3  UNL     1      15.504  26.702  17.242  1.00  0.00     0.206 HD
HETATM   13  C7  UNL     1      15.513  27.550  14.183  1.00  0.00     0.707 A 
ATOM     14  H4  UNL     1      17.176  27.198  15.424  1.00  0.00     0.206 HD
HETATM   15  N6  UNL     1      14.194  27.474  14.476  1.00  0.00    -0.020 N 
ATOM     16  H6  UNL     1      13.433  27.658  13.822  1.00  0.00     0.203 HD
BRANCH  13  17
HETATM   17  N5  UNL     1      16.016  27.872  13.017  1.00  0.00    -0.224 N 
ATOM     18  H5  UNL     1      16.020  28.852  12.733  1.00  0.00     0.177 HD
BRANCH  17  19
HETATM   19  C8  UNL     1      16.566  26.878  12.118  1.00  0.00     0.142 C 
BRANCH  19  20
HETATM   20  C9  UNL     1      15.399  26.228  11.410  1.00  0.00     0.058 C 
BRANCH  20  21
HETATM   21  C10 UNL     1      15.215  24.813  11.729  1.00  0.00    -0.057 A 
HETATM   22  C11 UNL     1      14.841  23.906  10.744  1.00  0.00     0.007 A 
HETATM   23  C12 UNL     1      14.664  22.561  11.014  1.00  0.00     0.001 A 
HETATM   24  C13 UNL     1      14.858  22.068  12.296  1.00  0.00     0.000 A 
HETATM   25  C14 UNL     1      15.229  22.982  13.261  1.00  0.00     0.001 A 
HETATM   26  C15 UNL     1      15.407  24.304  13.012  1.00  0.00     0.007 A 
ENDBRANCH  20  21
ENDBRANCH  19  20
ENDBRANCH  17  19
ENDBRANCH  13  17
ENDBRANCH   7   9
ENDBRANCH   6   7
ENDBRANCH   5   6
ENDBRANCH   3   5
TORSDOF 8
ENDMDL
MODEL 2
REMARK VINA RESULT: -6.328437116      0.054      1.033
REMARK  8 active torsions:
REMARK  status: ('A' for Active; 'I' for Inactive)
REMARK    1  A    between atoms: N1_3  and  C4_5 
REMARK    2  A    between atoms: C4_5  and  C5_6 
REMARK    3  A    between atoms: C5_6  and  N2_7 
REMARK    4  A    between atoms: N2_7  and  C6_9 
REMARK    5  A    between atoms: C7_14  and  N5_15 
REMARK    6  A    between atoms: N5_15  and  C8_17 
REMARK    7  A    between atoms: C8_17  and  C9_18 
REMARK    8  A    between atoms: C9_18  and  C10_19 
ROOT
HETATM    1  C1  UNL     1      11.623  24.649  12.495  1.00  0.00     0.123 C 
HETATM    2  C2  UNL     1      11.641  24.525  13.712  1.00  0.00    -0.078 C 
HETATM    3  N1  UNL     1      11.683  24.387  15.102  1.00  0.00    -0.355 N 
HETATM    4  C3  UNL     1      12.350  23.224  15.643  1.00  0.00     0.159 C 
ENDROOT
BRANCH   3   5
HETATM    5  C4  UNL     1      11.074  25.387  15.952  1.00  0.00     0.151 C 
BRANCH   5   6
HETATM    6  C5  UNL     1      11.635  26.772  15.658  1.00  0.00     0.158 C 
BRANCH   6   7
HETATM    7  N2  UNL     1      12.884  26.960  16.310  1.00  0.00    -0.223 N 
ATOM      8  H2  UNL     1      12.864  26.985  17.329  1.00  0.00     0.177 HD
BRANCH   7   9
HETATM    9  C6  UNL     1      14.034  27.102  15.760  1.00  0.00     0.707 A 
HETATM   10  N3  UNL     1      15.276  26.964  16.271  1.00  0.00    -0.117 N 
HETATM   11  N4  UNL     1      16.150  27.218  15.297  1.00  0.00    -0.117 N 
ATOM     12  H3  UNL     1      15.504  26.711  17.232  1.00  0.00     0.206 HD
HETATM   13  C7  UNL     1      15.493  27.519  14.162  1.00  0.00     0.707 A 
ATOM     14  H4  UNL     1      17.164  27.188  15.397  1.00  0.00     0.206 HD
HETATM   15  N6  UNL     1      14.175  27.443  14.464  1.00  0.00    -0.020 N 
ATOM     16  H6  UNL     1      13.409  27.617  13.812  1.00  0.00     0.203 HD
BRANCH  13  17
HETATM   17  N5  UNL     1      15.987  27.827  12.989  1.00  0.00    -0.224 N 
ATOM     18  H5  UNL     1      15.991  28.804  12.695  1.00  0.00     0.177 HD
BRANCH  17  19
HETATM   19  C8  UNL     1      16.528  26.822  12.097  1.00  0.00     0.142 C 
BRANCH  19  20
HETATM   20  C9  UNL     1      15.354  26.170  11.402  1.00  0.00     0.058 C 
BRANCH  20  21
HETATM   21  C10 UNL     1      15.194  24.747  11.702  1.00  0.00    -0.057 A 
HETATM   22  C11 UNL     1      15.401  24.264  12.988  1.00  0.00     0.007 A 
HETATM   23  C12 UNL     1      15.253  22.927  13.304  1.00  0.00     0.001 A 
HETATM   24  C13 UNL     1      14.886  22.010  12.330  1.00  0.00     0.000 A 
HETATM   25  C14 UNL     1      14.683  22.506  11.058  1.00  0.00     0.001 A 
HETATM   26  C15 UNL     1      14.825  23.816  10.733  1.00  0.00     0.007 A 
ENDBRANCH  20  21
ENDBRANCH  19  20
ENDBRANCH  17  19
ENDBRANCH  13  17
ENDBRANCH   7   9
ENDBRANCH   6   7
ENDBRANCH   5   6
ENDBRANCH   3   5
TORSDOF 8
ENDMDL
MODEL 3
REMARK VINA RESULT: -6.151365445      2.330      3.364
REMARK  8 active torsions:
REMARK  status: ('A' for Active; 'I' for Inactive)
REMARK    1  A    between atoms: N1_3  and  C4_5 
REMARK    2  A    between atoms: C4_5  and  C5_6 
REMARK    3  A    between atoms: C5_6  and  N2_7 
REMARK    4  A    between atoms: N2_7  and  C6_9 
REMARK    5  A    between atoms: C7_14  and  N5_15 
REMARK    6  A    between atoms: N5_15  and  C8_17 
REMARK    7  A    between atoms: C8_17  and  C9_18 
REMARK    8  A    between atoms: C9_18  and  C10_19 
ROOT
HETATM    1  C1  UNL     1       9.271  30.500  15.681  1.00  0.00     0.123 C 
HETATM    2  C2  UNL     1       9.550  29.377  15.287  1.00  0.00    -0.078 C 
HETATM    3  N1  UNL     1       9.864  28.099  14.816  1.00  0.00    -0.355 N 
HETATM    4  C3  UNL     1       8.781  27.278  14.324  1.00  0.00     0.159 C 
ENDROOT
BRANCH   3   5
HETATM    5  C4  UNL     1      11.235  27.635  14.828  1.00  0.00     0.151 C 
BRANCH   5   6
HETATM    6  C5  UNL     1      11.944  27.986  13.526  1.00  0.00     0.158 C 
BRANCH   6   7
HETATM    7  N2  UNL     1      12.953  28.963  13.748  1.00  0.00    -0.223 N 
ATOM      8  H2  UNL     1      12.637  29.928  13.841  1.00  0.00     0.177 HD
BRANCH   7   9
HETATM    9  C6  UNL     1      14.217  28.767  13.844  1.00  0.00     0.707 A 
HETATM   10  N3  UNL     1      15.186  29.531  14.390  1.00  0.00    -0.117 N 
HETATM   11  N4  UNL     1      16.345  28.890  14.240  1.00  0.00    -0.117 N 
ATOM     12  H3  UNL     1      15.054  30.437  14.838  1.00  0.00     0.206 HD
HETATM   13  C7  UNL     1      16.142  27.723  13.603  1.00  0.00     0.707 A 
ATOM     14  H4  UNL     1      17.250  29.235  14.560  1.00  0.00     0.206 HD
HETATM   15  N6  UNL     1      14.811  27.658  13.362  1.00  0.00    -0.020 N 
ATOM     16  H6  UNL     1      14.334  26.889  12.890  1.00  0.00     0.203 HD
BRANCH  13  17
HETATM   17  N5  UNL     1      17.021  26.811  13.268  1.00  0.00    -0.224 N 
ATOM     18  H5  UNL     1      17.786  27.067  12.644  1.00  0.00     0.177 HD
BRANCH  17  19
HETATM   19  C8  UNL     1      16.938  25.450  13.758  1.00  0.00     0.142 C 
BRANCH  19  20
HETATM   20  C9  UNL     1      15.941  24.725  12.883  1.00  0.00     0.058 C 
BRANCH  20  21
HETATM   21  C10 UNL     1      15.523  23.423  13.402  1.00  0.00    -0.057 A 
HETATM   22  C11 UNL     1      16.175  22.847  14.485  1.00  0.00     0.007 A 
HETATM   23  C12 UNL     1      15.800  21.620  15.000  1.00  0.00     0.001 A 
HETATM   24  C13 UNL     1      14.744  20.915  14.443  1.00  0.00     0.000 A 
HETATM   25  C14 UNL     1      14.107  21.501  13.368  1.00  0.00     0.001 A 
HETATM   26  C15 UNL     1      14.463  22.704  12.851  1.00  0.00     0.007 A 
ENDBRANCH  20  21
ENDBRANCH  19  20
ENDBRANCH  17  19
ENDBRANCH  13  17
ENDBRANCH   7   9
ENDBRANCH   6   7
ENDBRANCH   5   6
ENDBRANCH   3   5
TORSDOF 8
ENDMDL
MODEL 4
REMARK VINA RESULT: -6.125736193      1.796      2.672
REMARK  8 active torsions:
REMARK  status: ('A' for Active; 'I' for Inactive)
REMARK    1  A    between atoms: N1_3  and  C4_5 
REMARK    2  A    between atoms: C4_5  and  C5_6 
REMARK    3  A    between atoms: C5_6  and  N2_7 
REMARK    4  A    between atoms: N2_7  and  C6_9 
REMARK    5  A    between atoms: C7_14  and  N5_15 
REMARK    6  A    between atoms: N5_15  and  C8_17 
REMARK    7  A    between atoms: C8_17  and  C9_18 
REMARK    8  A    between atoms: C9_18  and  C10_19 
ROOT
HETATM    1  C1  UNL     1      12.466  24.403  15.303  1.00  0.00     0.123 C 
HETATM    2  C2  UNL     1      11.600  25.258  15.187  1.00  0.00    -0.078 C 
HETATM    3  N1  UNL     1      10.605  26.233  15.075  1.00  0.00    -0.355 N 
HETATM    4  C3  UNL     1       9.228  25.803  15.166  1.00  0.00     0.159 C 
ENDROOT
BRANCH   3   5
HETATM    5  C4  UNL     1      10.964  27.620  14.875  1.00  0.00     0.151 C 
BRANCH   5   6
HETATM    6  C5  UNL     1      11.750  27.803  13.583  1.00  0.00     0.158 C 
BRANCH   6   7
HETATM    7  N2  UNL     1      12.779  28.771  13.750  1.00  0.00    -0.223 N 
ATOM      8  H2  UNL     1      12.502  29.747  13.652  1.00  0.00     0.177 HD
BRANCH   7   9
HETATM    9  C6  UNL     1      14.015  28.553  14.010  1.00  0.00     0.707 A 
HETATM   10  N3  UNL     1      15.048  29.410  14.153  1.00  0.00    -0.117 N 
HETATM   11  N4  UNL     1      16.140  28.695  14.421  1.00  0.00    -0.117 N 
ATOM     12  H3  UNL     1      15.000  30.426  14.071  1.00  0.00     0.206 HD
HETATM   13  C7  UNL     1      15.831  27.386  14.452  1.00  0.00     0.707 A 
ATOM     14  H4  UNL     1      17.070  29.082  14.578  1.00  0.00     0.206 HD
HETATM   15  N6  UNL     1      14.504  27.311  14.195  1.00  0.00    -0.020 N 
ATOM     16  H6  UNL     1      13.960  26.449  14.149  1.00  0.00     0.203 HD
BRANCH  13  17
HETATM   17  N5  UNL     1      16.620  26.365  14.681  1.00  0.00    -0.224 N 
ATOM     18  H5  UNL     1      16.968  26.212  15.627  1.00  0.00     0.177 HD
BRANCH  17  19
HETATM   19  C8  UNL     1      17.012  25.449  13.630  1.00  0.00     0.142 C 
BRANCH  19  20
HETATM   20  C9  UNL     1      17.229  24.100  14.277  1.00  0.00     0.058 C 
BRANCH  20  21
HETATM   21  C10 UNL     1      16.153  23.139  14.036  1.00  0.00    -0.057 A 
HETATM   22  C11 UNL     1      15.993  22.031  14.859  1.00  0.00     0.007 A 
HETATM   23  C12 UNL     1      14.983  21.108  14.660  1.00  0.00     0.001 A 
HETATM   24  C13 UNL     1      14.085  21.261  13.615  1.00  0.00     0.000 A 
HETATM   25  C14 UNL     1      14.258  22.367  12.807  1.00  0.00     0.001 A 
HETATM   26  C15 UNL     1      15.243  23.281  12.989  1.00  0.00     0.007 A 
ENDBRANCH  20  21
ENDBRANCH  19  20
ENDBRANCH  17  19
ENDBRANCH  13  17
ENDBRANCH   7   9
ENDBRANCH   6   7
ENDBRANCH   5   6
ENDBRANCH   3   5
TORSDOF 8
ENDMDL
MODEL 5
REMARK VINA RESULT: -6.113739700      1.850      4.265
REMARK  8 active torsions:
REMARK  status: ('A' for Active; 'I' for Inactive)
REMARK    1  A    between atoms: N1_3  and  C4_5 
REMARK    2  A    between atoms: C4_5  and  C5_6 
REMARK    3  A    between atoms: C5_6  and  N2_7 
REMARK    4  A    between atoms: N2_7  and  C6_9 
REMARK    5  A    between atoms: C7_14  and  N5_15 
REMARK    6  A    between atoms: N5_15  and  C8_17 
REMARK    7  A    between atoms: C8_17  and  C9_18 
REMARK    8  A    between atoms: C9_18  and  C10_19 
ROOT
HETATM    1  C1  UNL     1      15.107  27.262  15.902  1.00  0.00     0.123 C 
HETATM    2  C2  UNL     1      14.144  27.283  15.148  1.00  0.00    -0.078 C 
HETATM    3  N1  UNL     1      13.058  27.303  14.270  1.00  0.00    -0.355 N 
HETATM    4  C3  UNL     1      12.946  28.423  13.362  1.00  0.00     0.159 C 
ENDROOT
BRANCH   3   5
HETATM    5  C4  UNL     1      12.089  26.228  14.284  1.00  0.00     0.151 C 
BRANCH   5   6
HETATM    6  C5  UNL     1      11.501  26.038  15.676  1.00  0.00     0.158 C 
BRANCH   6   7
HETATM    7  N2  UNL     1      11.629  24.687  16.100  1.00  0.00    -0.223 N 
ATOM      8  H2  UNL     1      11.078  24.413  16.913  1.00  0.00     0.177 HD
BRANCH   7   9
HETATM    9  C6  UNL     1      12.361  23.774  15.575  1.00  0.00     0.707 A 
HETATM   10  N3  UNL     1      12.034  22.733  14.781  1.00  0.00    -0.117 N 
HETATM   11  N4  UNL     1      13.153  22.068  14.496  1.00  0.00    -0.117 N 
ATOM     12  H3  UNL     1      11.095  22.498  14.457  1.00  0.00     0.206 HD
HETATM   13  C7  UNL     1      14.201  22.661  15.094  1.00  0.00     0.707 A 
ATOM     14  H4  UNL     1      13.205  21.234  13.911  1.00  0.00     0.206 HD
HETATM   15  N6  UNL     1      13.694  23.724  15.763  1.00  0.00    -0.020 N 
ATOM     16  H6  UNL     1      14.237  24.383  16.322  1.00  0.00     0.203 HD
BRANCH  13  17
HETATM   17  N5  UNL     1      15.464  22.316  15.061  1.00  0.00    -0.224 N 
ATOM     18  H5  UNL     1      15.848  21.769  15.832  1.00  0.00     0.177 HD
BRANCH  17  19
HETATM   19  C8  UNL     1      16.332  22.687  13.963  1.00  0.00     0.142 C 
BRANCH  19  20
HETATM   20  C9  UNL     1      16.820  24.091  14.239  1.00  0.00     0.058 C 
BRANCH  20  21
HETATM   21  C10 UNL     1      16.405  25.079  13.243  1.00  0.00    -0.057 A 
HETATM   22  C11 UNL     1      17.102  26.271  13.092  1.00  0.00     0.007 A 
HETATM   23  C12 UNL     1      16.737  27.221  12.156  1.00  0.00     0.001 A 
HETATM   24  C13 UNL     1      15.646  27.011  11.327  1.00  0.00     0.000 A 
HETATM   25  C14 UNL     1      14.965  25.821  11.490  1.00  0.00     0.001 A 
HETATM   26  C15 UNL     1      15.311  24.879  12.403  1.00  0.00     0.007 A 
ENDBRANCH  20  21
ENDBRANCH  19  20
ENDBRANCH  17  19
ENDBRANCH  13  17
ENDBRANCH   7   9
ENDBRANCH   6   7
ENDBRANCH   5   6
ENDBRANCH   3   5
TORSDOF 8
ENDMDL
