MODEL 1
REMARK VINA RESULT: -6.411171538      0.000      0.000
REMARK  6 active torsions:
REMARK  status: ('A' for Active; 'I' for Inactive)
REMARK    1  A    between atoms: C9_11  and  C10_12 
REMARK    2  A    between atoms: C13_17  and  C14_18 
REMARK    3  A    between atoms: C14_18  and  N3_19 
REMARK    4  A    between atoms: N3_19  and  C16_21 
REMARK    5  A    between atoms: C16_21  and  C17_22 
REMARK    6  A    between atoms: C17_22  and  O1_23 
ROOT
HETATM    1  C10 UNL     1      15.376  24.259  12.599  1.00  0.00     0.045 C 
HETATM    2  C11 UNL     1      14.806  23.052  13.140  1.00  0.00     0.050 A 
HETATM    3  C12 UNL     1      15.551  21.944  13.570  1.00  0.00     0.119 A 
HETATM    4  N2  UNL     1      14.714  20.977  13.989  1.00  0.00    -0.352 N 
ATOM      5  H2  UNL     1      14.982  20.063  14.354  1.00  0.00     0.166 HD
HETATM    6  C13 UNL     1      13.461  21.438  13.839  1.00  0.00     0.110 A 
HETATM    7  N4  UNL     1      13.518  22.672  13.333  1.00  0.00    -0.343 N 
ATOM      8  H4  UNL     1      12.705  23.250  13.122  1.00  0.00     0.167 HD
ENDROOT
BRANCH   1   9
HETATM    9  C9  UNL     1      15.706  25.383  13.181  1.00  0.00     0.004 A 
HETATM   10  C2  UNL     1      16.843  25.706  13.890  1.00  0.00     0.034 A 
HETATM   11  C1  UNL     1      17.905  24.992  14.182  1.00  0.00     0.044 C 
HETATM   12  N1  UNL     1      16.668  27.011  14.276  1.00  0.00    -0.355 N 
HETATM   13  C3  UNL     1      15.506  27.480  13.843  1.00  0.00     0.043 A 
ATOM     14  H1  UNL     1      17.341  27.548  14.822  1.00  0.00     0.166 HD
HETATM   15  C4  UNL     1      14.915  28.724  13.989  1.00  0.00     0.030 A 
HETATM   16  C8  UNL     1      14.847  26.500  13.143  1.00  0.00     0.003 A 
HETATM   17  C5  UNL     1      13.695  28.928  13.430  1.00  0.00     0.002 A 
HETATM   18  C6  UNL     1      12.996  27.972  12.718  1.00  0.00     0.001 A 
HETATM   19  C7  UNL     1      13.612  26.749  12.591  1.00  0.00     0.014 A 
ENDBRANCH   1   9
BRANCH   6  20
HETATM   20  C14 UNL     1      12.217  20.700  14.177  1.00  0.00     0.348 C 
BRANCH  20  21
HETATM   21  N3  UNL     1      11.325  20.600  13.050  1.00  0.00     0.093 N 
HETATM   22  C15 UNL     1      10.156  21.403  13.318  1.00  0.00     0.310 C 
BRANCH  21  23
HETATM   23  C16 UNL     1      10.907  19.257  12.778  1.00  0.00     0.298 C 
BRANCH  23  24
HETATM   24  C17 UNL     1       9.861  18.867  13.798  1.00  0.00     0.194 C 
BRANCH  24  25
HETATM   25  O1  UNL     1      10.309  17.787  14.552  1.00  0.00    -0.399 OA
ATOM     26  H1  UNL     1       9.784  17.698  15.339  1.00  0.00     0.209 HD
ENDBRANCH  24  25
ENDBRANCH  23  24
ENDBRANCH  21  23
ENDBRANCH  20  21
ENDBRANCH   6  20
TORSDOF 6
ENDMDL
MODEL 2
REMARK VINA RESULT: -6.410601915      2.839      3.771
REMARK  6 active torsions:
REMARK  status: ('A' for Active; 'I' for Inactive)
REMARK    1  A    between atoms: C9_11  and  C10_12 
REMARK    2  A    between atoms: C13_17  and  C14_18 
REMARK    3  A    between atoms: C14_18  and  N3_19 
REMARK    4  A    between atoms: N3_19  and  C16_21 
REMARK    5  A    between atoms: C16_21  and  C17_22 
REMARK    6  A    between atoms: C17_22  and  O1_23 
ROOT
HETATM    1  C10 UNL     1      13.868  23.015  12.809  1.00  0.00     0.045 C 
HETATM    2  C11 UNL     1      12.673  22.616  13.507  1.00  0.00     0.050 A 
HETATM    3  C12 UNL     1      12.458  21.342  14.050  1.00  0.00     0.119 A 
HETATM    4  N2  UNL     1      11.233  21.291  14.604  1.00  0.00    -0.352 N 
ATOM      5  H2  UNL     1      10.813  20.486  15.071  1.00  0.00     0.166 HD
HETATM    6  C13 UNL     1      10.664  22.495  14.429  1.00  0.00     0.110 A 
HETATM    7  N4  UNL     1      11.522  23.282  13.776  1.00  0.00    -0.343 N 
ATOM      8  H4  UNL     1      11.338  24.251  13.516  1.00  0.00     0.167 HD
ENDROOT
BRANCH   1   9
HETATM    9  C9  UNL     1      14.953  23.605  13.242  1.00  0.00     0.004 A 
HETATM   10  C2  UNL     1      15.900  23.156  14.137  1.00  0.00     0.034 A 
HETATM   11  C1  UNL     1      15.987  22.029  14.802  1.00  0.00     0.044 C 
HETATM   12  N1  UNL     1      16.819  24.171  14.227  1.00  0.00    -0.355 N 
HETATM   13  C3  UNL     1      16.479  25.187  13.446  1.00  0.00     0.043 A 
ATOM     14  H1  UNL     1      17.652  24.147  14.815  1.00  0.00     0.166 HD
HETATM   15  C4  UNL     1      17.096  26.406  13.217  1.00  0.00     0.030 A 
HETATM   16  C8  UNL     1      15.307  24.894  12.794  1.00  0.00     0.003 A 
HETATM   17  C5  UNL     1      16.513  27.272  12.350  1.00  0.00     0.002 A 
HETATM   18  C6  UNL     1      15.335  27.019  11.673  1.00  0.00     0.001 A 
HETATM   19  C7  UNL     1      14.749  25.799  11.923  1.00  0.00     0.014 A 
ENDBRANCH   1   9
BRANCH   6  20
HETATM   20  C14 UNL     1       9.305  22.890  14.884  1.00  0.00     0.348 C 
BRANCH  20  21
HETATM   21  N3  UNL     1       9.308  23.362  16.245  1.00  0.00     0.093 N 
HETATM   22  C15 UNL     1       7.958  23.301  16.755  1.00  0.00     0.310 C 
BRANCH  21  23
HETATM   23  C16 UNL     1       9.786  24.706  16.375  1.00  0.00     0.298 C 
BRANCH  23  24
HETATM   24  C17 UNL     1      10.751  24.759  17.539  1.00  0.00     0.194 C 
BRANCH  24  25
HETATM   25  O1  UNL     1      11.466  23.568  17.619  1.00  0.00    -0.399 OA
ATOM     26  H1  UNL     1      11.787  23.440  18.504  1.00  0.00     0.209 HD
ENDBRANCH  24  25
ENDBRANCH  23  24
ENDBRANCH  21  23
ENDBRANCH  20  21
ENDBRANCH   6  20
TORSDOF 6
ENDMDL
MODEL 3
REMARK VINA RESULT: -6.394111643      5.064      6.270
REMARK  6 active torsions:
REMARK  status: ('A' for Active; 'I' for Inactive)
REMARK    1  A    between atoms: C9_11  and  C10_12 
REMARK    2  A    between atoms: C13_17  and  C14_18 
REMARK    3  A    between atoms: C14_18  and  N3_19 
REMARK    4  A    between atoms: N3_19  and  C16_21 
REMARK    5  A    between atoms: C16_21  and  C17_22 
REMARK    6  A    between atoms: C17_22  and  O1_23 
ROOT
HETATM    1  C10 UNL     1      12.845  26.323  15.277  1.00  0.00     0.045 C 
HETATM    2  C11 UNL     1      11.420  26.523  15.224  1.00  0.00     0.050 A 
HETATM    3  C12 UNL     1      10.794  27.631  14.636  1.00  0.00     0.119 A 
HETATM    4  N2  UNL     1       9.461  27.525  14.785  1.00  0.00    -0.352 N 
ATOM      5  H2  UNL     1       8.761  28.190  14.454  1.00  0.00     0.166 HD
HETATM    6  C13 UNL     1       9.222  26.383  15.450  1.00  0.00     0.110 A 
HETATM    7  N4  UNL     1      10.389  25.788  15.711  1.00  0.00    -0.343 N 
ATOM      8  H4  UNL     1      10.490  24.904  16.208  1.00  0.00     0.167 HD
ENDROOT
BRANCH   1   9
HETATM    9  C9  UNL     1      13.646  25.672  14.473  1.00  0.00     0.004 A 
HETATM   10  C2  UNL     1      13.982  24.335  14.459  1.00  0.00     0.034 A 
HETATM   11  C1  UNL     1      13.604  23.346  15.233  1.00  0.00     0.044 C 
HETATM   12  N1  UNL     1      14.856  24.197  13.409  1.00  0.00    -0.355 N 
HETATM   13  C3  UNL     1      15.057  25.358  12.804  1.00  0.00     0.043 A 
ATOM     14  H1  UNL     1      15.291  23.317  13.132  1.00  0.00     0.166 HD
HETATM   15  C4  UNL     1      15.846  25.694  11.715  1.00  0.00     0.030 A 
HETATM   16  C8  UNL     1      14.321  26.336  13.428  1.00  0.00     0.003 A 
HETATM   17  C5  UNL     1      15.861  26.987  11.304  1.00  0.00     0.002 A 
HETATM   18  C6  UNL     1      15.137  28.002  11.901  1.00  0.00     0.001 A 
HETATM   19  C7  UNL     1      14.365  27.634  12.979  1.00  0.00     0.014 A 
ENDBRANCH   1   9
BRANCH   6  20
HETATM   20  C14 UNL     1       7.883  25.865  15.835  1.00  0.00     0.348 C 
BRANCH  20  21
HETATM   21  N3  UNL     1       7.374  26.509  17.018  1.00  0.00     0.093 N 
HETATM   22  C15 UNL     1       6.969  25.489  17.957  1.00  0.00     0.310 C 
BRANCH  21  23
HETATM   23  C16 UNL     1       6.255  27.364  16.758  1.00  0.00     0.298 C 
BRANCH  23  24
HETATM   24  C17 UNL     1       6.568  28.739  17.303  1.00  0.00     0.194 C 
BRANCH  24  25
HETATM   25  O1  UNL     1       7.669  29.274  16.642  1.00  0.00    -0.399 OA
ATOM     26  H1  UNL     1       7.456  30.133  16.297  1.00  0.00     0.209 HD
ENDBRANCH  24  25
ENDBRANCH  23  24
ENDBRANCH  21  23
ENDBRANCH  20  21
ENDBRANCH   6  20
TORSDOF 6
ENDMDL
MODEL 4
REMARK VINA RESULT: -6.342183338      1.641      1.984
REMARK  6 active torsions:
REMARK  status: ('A' for Active; 'I' for Inactive)
REMARK    1  A    between atoms: C9_11  and  C10_12 
REMARK    2  A    between atoms: C13_17  and  C14_18 
REMARK    3  A    between atoms: C14_18  and  N3_19 
REMARK    4  A    between atoms: N3_19  and  C16_21 
REMARK    5  A    between atoms: C16_21  and  C17_22 
REMARK    6  A    between atoms: C17_22  and  O1_23 
ROOT
HETATM    1  C10 UNL     1      15.487  24.243  12.566  1.00  0.00     0.045 C 
HETATM    2  C11 UNL     1      14.644  23.135  12.934  1.00  0.00     0.050 A 
HETATM    3  C12 UNL     1      15.095  21.971  13.573  1.00  0.00     0.119 A 
HETATM    4  N2  UNL     1      14.063  21.125  13.746  1.00  0.00    -0.352 N 
ATOM      5  H2  UNL     1      14.103  20.204  14.183  1.00  0.00     0.166 HD
HETATM    6  C13 UNL     1      12.970  21.717  13.236  1.00  0.00     0.110 A 
HETATM    7  N4  UNL     1      13.318  22.912  12.754  1.00  0.00    -0.343 N 
ATOM      8  H4  UNL     1      12.675  23.568  12.311  1.00  0.00     0.167 HD
ENDROOT
BRANCH   1   9
HETATM    9  C9  UNL     1      15.772  25.348  13.205  1.00  0.00     0.004 A 
HETATM   10  C2  UNL     1      16.871  25.660  13.976  1.00  0.00     0.034 A 
HETATM   11  C1  UNL     1      17.930  24.951  14.286  1.00  0.00     0.044 C 
HETATM   12  N1  UNL     1      16.657  26.946  14.403  1.00  0.00    -0.355 N 
HETATM   13  C3  UNL     1      15.508  27.414  13.937  1.00  0.00     0.043 A 
ATOM     14  H1  UNL     1      17.297  27.471  14.999  1.00  0.00     0.166 HD
HETATM   15  C4  UNL     1      14.890  28.643  14.104  1.00  0.00     0.030 A 
HETATM   16  C8  UNL     1      14.896  26.453  13.171  1.00  0.00     0.003 A 
HETATM   17  C5  UNL     1      13.693  28.850  13.500  1.00  0.00     0.002 A 
HETATM   18  C6  UNL     1      13.042  27.912  12.721  1.00  0.00     0.001 A 
HETATM   19  C7  UNL     1      13.683  26.704  12.575  1.00  0.00     0.014 A 
ENDBRANCH   1   9
BRANCH   6  20
HETATM   20  C14 UNL     1      11.601  21.140  13.211  1.00  0.00     0.348 C 
BRANCH  20  21
HETATM   21  N3  UNL     1      10.862  21.452  14.408  1.00  0.00     0.093 N 
HETATM   22  C15 UNL     1       9.505  20.984  14.244  1.00  0.00     0.310 C 
BRANCH  21  23
HETATM   23  C16 UNL     1      10.831  22.853  14.703  1.00  0.00     0.298 C 
BRANCH  23  24
HETATM   24  C17 UNL     1      11.373  23.058  16.100  1.00  0.00     0.194 C 
BRANCH  24  25
HETATM   25  O1  UNL     1      12.762  23.147  16.064  1.00  0.00    -0.399 OA
ATOM     26  H1  UNL     1      13.029  24.058  16.037  1.00  0.00     0.209 HD
ENDBRANCH  24  25
ENDBRANCH  23  24
ENDBRANCH  21  23
ENDBRANCH  20  21
ENDBRANCH   6  20
TORSDOF 6
ENDMDL
MODEL 5
REMARK VINA RESULT: -6.221494785      1.419      1.544
REMARK  6 active torsions:
REMARK  status: ('A' for Active; 'I' for Inactive)
REMARK    1  A    between atoms: C9_11  and  C10_12 
REMARK    2  A    between atoms: C13_17  and  C14_18 
REMARK    3  A    between atoms: C14_18  and  N3_19 
REMARK    4  A    between atoms: N3_19  and  C16_21 
REMARK    5  A    between atoms: C16_21  and  C17_22 
REMARK    6  A    between atoms: C17_22  and  O1_23 
ROOT
HETATM    1  C10 UNL     1      15.450  24.133  12.672  1.00  0.00     0.045 C 
HETATM    2  C11 UNL     1      14.829  22.943  13.192  1.00  0.00     0.050 A 
HETATM    3  C12 UNL     1      15.527  21.844  13.712  1.00  0.00     0.119 A 
HETATM    4  N2  UNL     1      14.653  20.890  14.081  1.00  0.00    -0.352 N 
ATOM      5  H2  UNL     1      14.883  19.984  14.490  1.00  0.00     0.166 HD
HETATM    6  C13 UNL     1      13.420  21.352  13.812  1.00  0.00     0.110 A 
HETATM    7  N4  UNL     1      13.527  22.573  13.283  1.00  0.00    -0.343 N 
ATOM      8  H4  UNL     1      12.738  23.148  12.988  1.00  0.00     0.167 HD
ENDROOT
BRANCH   1   9
HETATM    9  C9  UNL     1      15.736  25.271  13.253  1.00  0.00     0.004 A 
HETATM   10  C2  UNL     1      16.855  25.637  13.968  1.00  0.00     0.034 A 
HETATM   11  C1  UNL     1      17.940  24.963  14.269  1.00  0.00     0.044 C 
HETATM   12  N1  UNL     1      16.630  26.936  14.348  1.00  0.00    -0.355 N 
HETATM   13  C3  UNL     1      15.456  27.361  13.905  1.00  0.00     0.043 A 
ATOM     14  H1  UNL     1      17.280  27.499  14.897  1.00  0.00     0.166 HD
HETATM   15  C4  UNL     1      14.819  28.584  14.043  1.00  0.00     0.030 A 
HETATM   16  C8  UNL     1      14.836  26.356  13.204  1.00  0.00     0.003 A 
HETATM   17  C5  UNL     1      13.596  28.742  13.475  1.00  0.00     0.002 A 
HETATM   18  C6  UNL     1      12.937  27.759  12.761  1.00  0.00     0.001 A 
HETATM   19  C7  UNL     1      13.598  26.558  12.643  1.00  0.00     0.014 A 
ENDBRANCH   1   9
BRANCH   6  20
HETATM   20  C14 UNL     1      12.147  20.626  14.060  1.00  0.00     0.348 C 
BRANCH  20  21
HETATM   21  N3  UNL     1      11.115  21.014  13.132  1.00  0.00     0.093 N 
HETATM   22  C15 UNL     1       9.845  20.977  13.817  1.00  0.00     0.310 C 
BRANCH  21  23
HETATM   23  C16 UNL     1      11.041  20.162  11.983  1.00  0.00     0.298 C 
BRANCH  23  24
HETATM   24  C17 UNL     1      11.063  21.030  10.744  1.00  0.00     0.194 C 
BRANCH  24  25
HETATM   25  O1  UNL     1      12.322  21.599  10.583  1.00  0.00    -0.399 OA
ATOM     26  H1  UNL     1      12.261  22.379  10.044  1.00  0.00     0.209 HD
ENDBRANCH  24  25
ENDBRANCH  23  24
ENDBRANCH  21  23
ENDBRANCH  20  21
ENDBRANCH   6  20
TORSDOF 6
ENDMDL
