MODEL 1
REMARK VINA RESULT: -5.636718201      0.000      0.000
REMARK  7 active torsions:
REMARK  status: ('A' for Active; 'I' for Inactive)
REMARK    1  A    between atoms: S1_2  and  C2_3 
REMARK    2  A    between atoms: N2_8  and  C6_9 
REMARK    3  A    between atoms: C6_9  and  C7_10 
REMARK    4  A    between atoms: C7_10  and  C8_11 
REMARK    5  A    between atoms: C9_12  and  C10_13 
REMARK    6  A    between atoms: C10_13  and  N3_14 
REMARK    7  A    between atoms: C12_18  and  N5_19 
ROOT
HETATM    1  C8  UNL     1      16.526  22.707  14.460  1.00  0.00    -0.027 C 
HETATM    2  C9  UNL     1      16.498  23.849  13.807  1.00  0.00    -0.009 C 
ENDROOT
BRANCH   2   3
HETATM    3  C10 UNL     1      17.402  24.980  14.107  1.00  0.00     0.177 C 
BRANCH   3   4
HETATM    4  N3  UNL     1      16.825  26.250  13.786  1.00  0.00    -0.270 N 
HETATM    5  C11 UNL     1      16.766  26.808  12.566  1.00  0.00     0.218 A 
HETATM    6  N4  UNL     1      16.146  28.012  12.667  1.00  0.00    -0.185 N 
HETATM    7  C12 UNL     1      15.826  28.186  13.958  1.00  0.00     0.691 A 
ATOM      8  H4  UNL     1      15.959  28.663  11.905  1.00  0.00     0.185 HD
HETATM    9  N6  UNL     1      16.250  27.102  14.616  1.00  0.00    -0.129 N 
ATOM     10  H6  UNL     1      16.143  26.954  15.619  1.00  0.00     0.206 HD
BRANCH   7  11
HETATM   11  N5  UNL     1      15.228  29.198  14.472  1.00  0.00    -0.233 N 
ATOM     12  H52 UNL     1      14.342  29.181  14.977  1.00  0.00     0.174 HD
ATOM     13  H51 UNL     1      15.544  30.168  14.455  1.00  0.00     0.174 HD
ENDBRANCH   7  11
ENDBRANCH   3   4
ENDBRANCH   2   3
BRANCH   1  14
HETATM   14  C7  UNL     1      15.607  21.609  14.127  1.00  0.00     0.047 C 
BRANCH  14  15
HETATM   15  C6  UNL     1      14.571  22.031  13.091  1.00  0.00     0.134 C 
BRANCH  15  16
HETATM   16  N2  UNL     1      13.224  21.835  13.593  1.00  0.00    -0.336 N 
HETATM   17  C2  UNL     1      12.483  22.677  14.333  1.00  0.00     0.088 A 
HETATM   18  C3  UNL     1      11.273  22.070  14.575  1.00  0.00     0.128 A 
HETATM   19  N1  UNL     1      11.283  20.872  13.986  1.00  0.00    -0.354 N 
HETATM   20  C4  UNL     1      10.199  19.896  13.991  1.00  0.00     0.156 C 
HETATM   21  C5  UNL     1      12.469  20.742  13.396  1.00  0.00     0.185 A 
BRANCH  17  22
HETATM   22  S1  UNL     1      12.927  24.283  14.912  1.00  0.00    -0.115 SA
HETATM   23  C1  UNL     1      13.113  25.433  13.529  1.00  0.00     0.097 C 
ENDBRANCH  17  22
ENDBRANCH  15  16
ENDBRANCH  14  15
ENDBRANCH   1  14
TORSDOF 7
ENDMDL
MODEL 2
REMARK VINA RESULT: -5.627659346      1.588      2.231
REMARK  7 active torsions:
REMARK  status: ('A' for Active; 'I' for Inactive)
REMARK    1  A    between atoms: S1_2  and  C2_3 
REMARK    2  A    between atoms: N2_8  and  C6_9 
REMARK    3  A    between atoms: C6_9  and  C7_10 
REMARK    4  A    between atoms: C7_10  and  C8_11 
REMARK    5  A    between atoms: C9_12  and  C10_13 
REMARK    6  A    between atoms: C10_13  and  N3_14 
REMARK    7  A    between atoms: C12_18  and  N5_19 
ROOT
HETATM    1  C8  UNL     1      16.443  22.515  14.470  1.00  0.00    -0.027 C 
HETATM    2  C9  UNL     1      16.294  23.754  14.054  1.00  0.00    -0.009 C 
ENDROOT
BRANCH   2   3
HETATM    3  C10 UNL     1      17.383  24.755  14.074  1.00  0.00     0.177 C 
BRANCH   3   4
HETATM    4  N3  UNL     1      16.916  26.086  13.832  1.00  0.00    -0.270 N 
HETATM    5  C11 UNL     1      16.992  26.754  12.669  1.00  0.00     0.218 A 
HETATM    6  N4  UNL     1      16.443  27.984  12.837  1.00  0.00    -0.185 N 
HETATM    7  C12 UNL     1      16.030  28.064  14.110  1.00  0.00     0.691 A 
ATOM      8  H4  UNL     1      16.360  28.712  12.128  1.00  0.00     0.185 HD
HETATM    9  N6  UNL     1      16.329  26.899  14.693  1.00  0.00    -0.129 N 
ATOM     10  H6  UNL     1      16.132  26.669  15.667  1.00  0.00     0.206 HD
BRANCH   7  11
HETATM   11  N5  UNL     1      15.457  29.066  14.671  1.00  0.00    -0.233 N 
ATOM     12  H52 UNL     1      15.295  29.981  14.250  1.00  0.00     0.174 HD
ATOM     13  H51 UNL     1      15.078  29.102  15.617  1.00  0.00     0.174 HD
ENDBRANCH   7  11
ENDBRANCH   3   4
ENDBRANCH   2   3
BRANCH   1  14
HETATM   14  C7  UNL     1      15.332  21.553  14.432  1.00  0.00     0.047 C 
BRANCH  14  15
HETATM   15  C6  UNL     1      14.202  22.028  13.525  1.00  0.00     0.134 C 
BRANCH  15  16
HETATM   16  N2  UNL     1      12.975  22.214  14.276  1.00  0.00    -0.336 N 
HETATM   17  C2  UNL     1      11.799  21.584  14.113  1.00  0.00     0.088 A 
HETATM   18  C3  UNL     1      10.922  22.084  15.048  1.00  0.00     0.128 A 
HETATM   19  N1  UNL     1      11.564  23.007  15.767  1.00  0.00    -0.354 N 
HETATM   20  C4  UNL     1      11.006  23.788  16.867  1.00  0.00     0.156 C 
HETATM   21  C5  UNL     1      12.804  23.076  15.290  1.00  0.00     0.185 A 
BRANCH  17  22
HETATM   22  S1  UNL     1      11.397  20.332  12.937  1.00  0.00    -0.115 SA
HETATM   23  C1  UNL     1      11.350  21.016  11.264  1.00  0.00     0.097 C 
ENDBRANCH  17  22
ENDBRANCH  15  16
ENDBRANCH  14  15
ENDBRANCH   1  14
TORSDOF 7
ENDMDL
MODEL 3
REMARK VINA RESULT: -5.598691953      1.558      1.665
REMARK  7 active torsions:
REMARK  status: ('A' for Active; 'I' for Inactive)
REMARK    1  A    between atoms: S1_2  and  C2_3 
REMARK    2  A    between atoms: N2_8  and  C6_9 
REMARK    3  A    between atoms: C6_9  and  C7_10 
REMARK    4  A    between atoms: C7_10  and  C8_11 
REMARK    5  A    between atoms: C9_12  and  C10_13 
REMARK    6  A    between atoms: C10_13  and  N3_14 
REMARK    7  A    between atoms: C12_18  and  N5_19 
ROOT
HETATM    1  C8  UNL     1      16.539  22.599  14.545  1.00  0.00    -0.027 C 
HETATM    2  C9  UNL     1      16.285  23.847  14.216  1.00  0.00    -0.009 C 
ENDROOT
BRANCH   2   3
HETATM    3  C10 UNL     1      17.340  24.841  13.922  1.00  0.00     0.177 C 
BRANCH   3   4
HETATM    4  N3  UNL     1      16.815  26.151  13.681  1.00  0.00    -0.270 N 
HETATM    5  C11 UNL     1      16.766  26.779  12.494  1.00  0.00     0.218 A 
HETATM    6  N4  UNL     1      16.200  28.000  12.672  1.00  0.00    -0.185 N 
HETATM    7  C12 UNL     1      15.902  28.114  13.974  1.00  0.00     0.691 A 
ATOM      8  H4  UNL     1      16.033  28.701  11.950  1.00  0.00     0.185 HD
HETATM    9  N6  UNL     1      16.286  26.978  14.564  1.00  0.00    -0.129 N 
ATOM     10  H6  UNL     1      16.184  26.778  15.559  1.00  0.00     0.206 HD
BRANCH   7  11
HETATM   11  N5  UNL     1      15.354  29.120  14.552  1.00  0.00    -0.233 N 
ATOM     12  H52 UNL     1      14.357  29.243  14.730  1.00  0.00     0.174 HD
ATOM     13  H51 UNL     1      15.827  29.946  14.921  1.00  0.00     0.174 HD
ENDBRANCH   7  11
ENDBRANCH   3   4
ENDBRANCH   2   3
BRANCH   1  14
HETATM   14  C7  UNL     1      15.457  21.645  14.829  1.00  0.00     0.047 C 
BRANCH  14  15
HETATM   15  C6  UNL     1      15.047  20.865  13.585  1.00  0.00     0.134 C 
BRANCH  15  16
HETATM   16  N2  UNL     1      13.676  21.161  13.214  1.00  0.00    -0.336 N 
HETATM   17  C2  UNL     1      13.229  21.748  12.092  1.00  0.00     0.088 A 
HETATM   18  C3  UNL     1      11.857  21.822  12.174  1.00  0.00     0.128 A 
HETATM   19  N1  UNL     1      11.481  21.285  13.337  1.00  0.00    -0.354 N 
HETATM   20  C4  UNL     1      10.114  21.158  13.829  1.00  0.00     0.156 C 
HETATM   21  C5  UNL     1      12.590  20.888  13.956  1.00  0.00     0.185 A 
BRANCH  17  22
HETATM   22  S1  UNL     1      14.179  22.331  10.724  1.00  0.00    -0.115 SA
HETATM   23  C1  UNL     1      14.764  24.016  11.024  1.00  0.00     0.097 C 
ENDBRANCH  17  22
ENDBRANCH  15  16
ENDBRANCH  14  15
ENDBRANCH   1  14
TORSDOF 7
ENDMDL
MODEL 4
REMARK VINA RESULT: -5.566009006      1.103      1.142
REMARK  7 active torsions:
REMARK  status: ('A' for Active; 'I' for Inactive)
REMARK    1  A    between atoms: S1_2  and  C2_3 
REMARK    2  A    between atoms: N2_8  and  C6_9 
REMARK    3  A    between atoms: C6_9  and  C7_10 
REMARK    4  A    between atoms: C7_10  and  C8_11 
REMARK    5  A    between atoms: C9_12  and  C10_13 
REMARK    6  A    between atoms: C10_13  and  N3_14 
REMARK    7  A    between atoms: C12_18  and  N5_19 
ROOT
HETATM    1  C8  UNL     1      16.751  23.452  14.116  1.00  0.00    -0.027 C 
HETATM    2  C9  UNL     1      16.205  24.587  13.737  1.00  0.00    -0.009 C 
ENDROOT
BRANCH   2   3
HETATM    3  C10 UNL     1      16.935  25.874  13.716  1.00  0.00     0.177 C 
BRANCH   3   4
HETATM    4  N3  UNL     1      16.118  26.967  13.283  1.00  0.00    -0.270 N 
HETATM    5  C11 UNL     1      15.963  27.388  12.017  1.00  0.00     0.218 A 
HETATM    6  N4  UNL     1      15.112  28.446  12.012  1.00  0.00    -0.185 N 
HETATM    7  C12 UNL     1      14.748  28.669  13.283  1.00  0.00     0.691 A 
ATOM      8  H4  UNL     1      14.807  28.974  11.194  1.00  0.00     0.185 HD
HETATM    9  N6  UNL     1      15.373  27.757  14.035  1.00  0.00    -0.129 N 
ATOM     10  H6  UNL     1      15.286  27.682  15.048  1.00  0.00     0.206 HD
BRANCH   7  11
HETATM   11  N5  UNL     1      13.952  29.582  13.706  1.00  0.00    -0.233 N 
ATOM     12  H52 UNL     1      13.098  29.898  13.245  1.00  0.00     0.174 HD
ATOM     13  H51 UNL     1      14.048  30.129  14.562  1.00  0.00     0.174 HD
ENDBRANCH   7  11
ENDBRANCH   3   4
ENDBRANCH   2   3
BRANCH   1  14
HETATM   14  C7  UNL     1      15.986  22.197  14.121  1.00  0.00     0.047 C 
BRANCH  14  15
HETATM   15  C6  UNL     1      14.809  22.254  15.088  1.00  0.00     0.134 C 
BRANCH  15  16
HETATM   16  N2  UNL     1      13.554  22.035  14.393  1.00  0.00    -0.336 N 
HETATM   17  C2  UNL     1      12.590  22.930  14.121  1.00  0.00     0.088 A 
HETATM   18  C3  UNL     1      11.586  22.273  13.448  1.00  0.00     0.128 A 
HETATM   19  N1  UNL     1      11.942  20.994  13.315  1.00  0.00    -0.354 N 
HETATM   20  C4  UNL     1      11.168  19.943  12.661  1.00  0.00     0.156 C 
HETATM   21  C5  UNL     1      13.135  20.863  13.891  1.00  0.00     0.185 A 
BRANCH  17  22
HETATM   22  S1  UNL     1      12.563  24.647  14.524  1.00  0.00    -0.115 SA
HETATM   23  C1  UNL     1      12.549  25.656  13.024  1.00  0.00     0.097 C 
ENDBRANCH  17  22
ENDBRANCH  15  16
ENDBRANCH  14  15
ENDBRANCH   1  14
TORSDOF 7
ENDMDL
MODEL 5
REMARK VINA RESULT: -5.552867112      1.314      1.797
REMARK  7 active torsions:
REMARK  status: ('A' for Active; 'I' for Inactive)
REMARK    1  A    between atoms: S1_2  and  C2_3 
REMARK    2  A    between atoms: N2_8  and  C6_9 
REMARK    3  A    between atoms: C6_9  and  C7_10 
REMARK    4  A    between atoms: C7_10  and  C8_11 
REMARK    5  A    between atoms: C9_12  and  C10_13 
REMARK    6  A    between atoms: C10_13  and  N3_14 
REMARK    7  A    between atoms: C12_18  and  N5_19 
ROOT
HETATM    1  C8  UNL     1      16.497  23.392  14.151  1.00  0.00    -0.027 C 
HETATM    2  C9  UNL     1      16.096  24.495  13.557  1.00  0.00    -0.009 C 
ENDROOT
BRANCH   2   3
HETATM    3  C10 UNL     1      16.699  25.821  13.812  1.00  0.00     0.177 C 
BRANCH   3   4
HETATM    4  N3  UNL     1      15.720  26.836  14.059  1.00  0.00    -0.270 N 
HETATM    5  C11 UNL     1      14.657  26.731  14.873  1.00  0.00     0.218 A 
HETATM    6  N4  UNL     1      13.967  27.900  14.842  1.00  0.00    -0.185 N 
HETATM    7  C12 UNL     1      14.616  28.721  14.004  1.00  0.00     0.691 A 
ATOM      8  H4  UNL     1      13.115  28.114  15.359  1.00  0.00     0.185 HD
HETATM    9  N6  UNL     1      15.676  28.051  13.542  1.00  0.00    -0.129 N 
ATOM     10  H6  UNL     1      16.357  28.426  12.881  1.00  0.00     0.206 HD
BRANCH   7  11
HETATM   11  N5  UNL     1      14.287  29.923  13.698  1.00  0.00    -0.233 N 
ATOM     12  H52 UNL     1      14.723  30.502  12.979  1.00  0.00     0.174 HD
ATOM     13  H51 UNL     1      13.546  30.480  14.121  1.00  0.00     0.174 HD
ENDBRANCH   7  11
ENDBRANCH   3   4
ENDBRANCH   2   3
BRANCH   1  14
HETATM   14  C7  UNL     1      15.867  22.094  13.867  1.00  0.00     0.047 C 
BRANCH  14  15
HETATM   15  C6  UNL     1      14.813  21.735  14.908  1.00  0.00     0.134 C 
BRANCH  15  16
HETATM   16  N2  UNL     1      13.496  21.644  14.304  1.00  0.00    -0.336 N 
HETATM   17  C2  UNL     1      12.427  22.426  14.526  1.00  0.00     0.088 A 
HETATM   18  C3  UNL     1      11.400  21.967  13.734  1.00  0.00     0.128 A 
HETATM   19  N1  UNL     1      11.846  20.917  13.042  1.00  0.00    -0.354 N 
HETATM   20  C4  UNL     1      11.084  20.126  12.081  1.00  0.00     0.156 C 
HETATM   21  C5  UNL     1      13.116  20.732  13.396  1.00  0.00     0.185 A 
BRANCH  17  22
HETATM   22  S1  UNL     1      12.305  23.808  15.616  1.00  0.00    -0.115 SA
HETATM   23  C1  UNL     1      11.096  23.489  16.921  1.00  0.00     0.097 C 
ENDBRANCH  17  22
ENDBRANCH  15  16
ENDBRANCH  14  15
ENDBRANCH   1  14
TORSDOF 7
ENDMDL
