MODEL 1
REMARK VINA RESULT: -6.705935214      0.000      0.000
REMARK  8 active torsions:
REMARK  status: ('A' for Active; 'I' for Inactive)
REMARK    1  A    between atoms: N1_2  and  C2_4 
REMARK    2  A    between atoms: C4_11  and  N4_12 
REMARK    3  A    between atoms: N5_15  and  C5_16 
REMARK    4  A    between atoms: C5_16  and  C6_17 
REMARK    5  A    between atoms: C6_17  and  C7_18 
REMARK    6  A    between atoms: C7_18  and  C8_19 
REMARK    7  A    between atoms: C8_19  and  C9_20 
REMARK    8  A    between atoms: C9_20  and  N6_21 
ROOT
HETATM    1  C2  UNL     1      12.970  27.555  13.988  1.00  0.00     0.698 A 
HETATM    2  N2  UNL     1      12.181  27.211  15.009  1.00  0.00    -0.140 N 
ATOM      3  H2  UNL     1      11.169  27.206  14.891  1.00  0.00     0.189 HD
HETATM    4  C3  UNL     1      12.723  26.868  16.199  1.00  0.00     0.352 A 
HETATM    5  O1  UNL     1      11.952  26.543  17.159  1.00  0.00    -0.246 OA
HETATM    6  N3  UNL     1      14.062  26.869  16.369  1.00  0.00    -0.140 N 
ATOM      7  H3  UNL     1      14.469  26.610  17.268  1.00  0.00     0.189 HD
HETATM    8  C4  UNL     1      14.854  27.217  15.339  1.00  0.00     0.696 A 
HETATM    9  N5  UNL     1      14.325  27.560  14.152  1.00  0.00    -0.014 N 
ENDROOT
BRANCH   9  10
HETATM   10  C5  UNL     1      15.180  27.930  13.056  1.00  0.00     0.167 C 
BRANCH  10  11
HETATM   11  C6  UNL     1      16.024  26.755  12.566  1.00  0.00     0.022 C 
BRANCH  11  12
HETATM   12  C7  UNL     1      15.315  26.199  11.350  1.00  0.00     0.003 C 
BRANCH  12  13
HETATM   13  C8  UNL     1      15.087  24.739  11.499  1.00  0.00     0.020 C 
BRANCH  13  14
HETATM   14  C9  UNL     1      14.046  24.350  12.510  1.00  0.00     0.128 C 
BRANCH  14  15
HETATM   15  N6  UNL     1      14.360  23.148  13.237  1.00  0.00    -0.366 N 
HETATM   16  C10 UNL     1      15.512  23.111  13.972  1.00  0.00     0.090 A 
HETATM   17  C11 UNL     1      15.897  22.034  14.703  1.00  0.00     0.017 A 
HETATM   18  C12 UNL     1      15.112  20.902  14.730  1.00  0.00     0.003 A 
HETATM   19  C13 UNL     1      13.949  20.915  14.000  1.00  0.00     0.017 A 
HETATM   20  C14 UNL     1      13.599  22.055  13.263  1.00  0.00     0.090 A 
ENDBRANCH  14  15
ENDBRANCH  13  14
ENDBRANCH  12  13
ENDBRANCH  11  12
ENDBRANCH  10  11
ENDBRANCH   9  10
BRANCH   1  21
HETATM   21  N1  UNL     1      12.532  27.895  12.824  1.00  0.00    -0.230 N 
HETATM   22  C1  UNL     1      11.329  27.238  12.323  1.00  0.00     0.165 C 
ATOM     23  H1  UNL     1      13.013  28.602  12.269  1.00  0.00     0.177 HD
ENDBRANCH   1  21
BRANCH   8  24
HETATM   24  N4  UNL     1      16.146  27.210  15.531  1.00  0.00    -0.234 N 
ATOM     25  H42 UNL     1      16.652  28.062  15.771  1.00  0.00     0.174 HD
ATOM     26  H41 UNL     1      16.638  26.321  15.432  1.00  0.00     0.174 HD
ENDBRANCH   8  24
TORSDOF 8
ENDMDL
MODEL 2
REMARK VINA RESULT: -6.693837563      0.055      1.015
REMARK  8 active torsions:
REMARK  status: ('A' for Active; 'I' for Inactive)
REMARK    1  A    between atoms: N1_2  and  C2_4 
REMARK    2  A    between atoms: C4_11  and  N4_12 
REMARK    3  A    between atoms: N5_15  and  C5_16 
REMARK    4  A    between atoms: C5_16  and  C6_17 
REMARK    5  A    between atoms: C6_17  and  C7_18 
REMARK    6  A    between atoms: C7_18  and  C8_19 
REMARK    7  A    between atoms: C8_19  and  C9_20 
REMARK    8  A    between atoms: C9_20  and  N6_21 
ROOT
HETATM    1  C2  UNL     1      12.972  27.555  13.991  1.00  0.00     0.698 A 
HETATM    2  N2  UNL     1      12.179  27.213  15.010  1.00  0.00    -0.140 N 
ATOM      3  H2  UNL     1      11.167  27.205  14.887  1.00  0.00     0.189 HD
HETATM    4  C3  UNL     1      12.715  26.877  16.204  1.00  0.00     0.352 A 
HETATM    5  O1  UNL     1      11.940  26.554  17.161  1.00  0.00    -0.246 OA
HETATM    6  N3  UNL     1      14.054  26.882  16.381  1.00  0.00    -0.140 N 
ATOM      7  H3  UNL     1      14.456  26.628  17.283  1.00  0.00     0.189 HD
HETATM    8  C4  UNL     1      14.850  27.228  15.353  1.00  0.00     0.696 A 
HETATM    9  N5  UNL     1      14.326  27.563  14.162  1.00  0.00    -0.014 N 
ENDROOT
BRANCH   9  10
HETATM   10  C5  UNL     1      15.186  27.931  13.068  1.00  0.00     0.167 C 
BRANCH  10  11
HETATM   11  C6  UNL     1      16.021  26.751  12.576  1.00  0.00     0.022 C 
BRANCH  11  12
HETATM   12  C7  UNL     1      15.311  26.207  11.356  1.00  0.00     0.003 C 
BRANCH  12  13
HETATM   13  C8  UNL     1      15.087  24.744  11.488  1.00  0.00     0.020 C 
BRANCH  13  14
HETATM   14  C9  UNL     1      14.073  24.340  12.521  1.00  0.00     0.128 C 
BRANCH  14  15
HETATM   15  N6  UNL     1      14.455  23.186  13.292  1.00  0.00    -0.366 N 
HETATM   16  C10 UNL     1      13.672  22.067  13.225  1.00  0.00     0.090 A 
HETATM   17  C11 UNL     1      13.946  20.922  13.900  1.00  0.00     0.017 A 
HETATM   18  C12 UNL     1      15.062  20.846  14.704  1.00  0.00     0.003 A 
HETATM   19  C13 UNL     1      15.866  21.956  14.787  1.00  0.00     0.017 A 
HETATM   20  C14 UNL     1      15.535  23.113  14.068  1.00  0.00     0.090 A 
ENDBRANCH  14  15
ENDBRANCH  13  14
ENDBRANCH  12  13
ENDBRANCH  11  12
ENDBRANCH  10  11
ENDBRANCH   9  10
BRANCH   1  21
HETATM   21  N1  UNL     1      12.539  27.889  12.823  1.00  0.00    -0.230 N 
HETATM   22  C1  UNL     1      11.331  27.238  12.326  1.00  0.00     0.165 C 
ATOM     23  H1  UNL     1      13.027  28.587  12.263  1.00  0.00     0.177 HD
ENDBRANCH   1  21
BRANCH   8  24
HETATM   24  N4  UNL     1      16.140  27.224  15.551  1.00  0.00    -0.234 N 
ATOM     25  H42 UNL     1      16.725  26.453  15.228  1.00  0.00     0.174 HD
ATOM     26  H41 UNL     1      16.550  28.019  16.043  1.00  0.00     0.174 HD
ENDBRANCH   8  24
TORSDOF 8
ENDMDL
MODEL 3
REMARK VINA RESULT: -6.553276308      1.393      2.527
REMARK  8 active torsions:
REMARK  status: ('A' for Active; 'I' for Inactive)
REMARK    1  A    between atoms: N1_2  and  C2_4 
REMARK    2  A    between atoms: C4_11  and  N4_12 
REMARK    3  A    between atoms: N5_15  and  C5_16 
REMARK    4  A    between atoms: C5_16  and  C6_17 
REMARK    5  A    between atoms: C6_17  and  C7_18 
REMARK    6  A    between atoms: C7_18  and  C8_19 
REMARK    7  A    between atoms: C8_19  and  C9_20 
REMARK    8  A    between atoms: C9_20  and  N6_21 
ROOT
HETATM    1  C2  UNL     1      15.887  26.700  14.634  1.00  0.00     0.698 A 
HETATM    2  N2  UNL     1      14.988  26.361  15.562  1.00  0.00    -0.140 N 
ATOM      3  H2  UNL     1      15.225  25.668  16.271  1.00  0.00     0.189 HD
HETATM    4  C3  UNL     1      13.765  26.936  15.562  1.00  0.00     0.352 A 
HETATM    5  O1  UNL     1      12.923  26.598  16.456  1.00  0.00    -0.246 OA
HETATM    6  N3  UNL     1      13.439  27.856  14.630  1.00  0.00    -0.140 N 
ATOM      7  H3  UNL     1      12.515  28.289  14.632  1.00  0.00     0.189 HD
HETATM    8  C4  UNL     1      14.347  28.195  13.696  1.00  0.00     0.696 A 
HETATM    9  N5  UNL     1      15.566  27.629  13.688  1.00  0.00    -0.014 N 
ENDROOT
BRANCH   9  10
HETATM   10  C5  UNL     1      16.530  27.998  12.686  1.00  0.00     0.167 C 
BRANCH  10  11
HETATM   11  C6  UNL     1      16.714  26.903  11.638  1.00  0.00     0.022 C 
BRANCH  11  12
HETATM   12  C7  UNL     1      15.325  26.497  11.198  1.00  0.00     0.003 C 
BRANCH  12  13
HETATM   13  C8  UNL     1      15.146  25.027  11.318  1.00  0.00     0.020 C 
BRANCH  13  14
HETATM   14  C9  UNL     1      13.993  24.589  12.176  1.00  0.00     0.128 C 
BRANCH  14  15
HETATM   15  N6  UNL     1      14.265  23.412  12.960  1.00  0.00    -0.366 N 
HETATM   16  C10 UNL     1      14.964  22.389  12.383  1.00  0.00     0.090 A 
HETATM   17  C11 UNL     1      15.285  21.242  13.035  1.00  0.00     0.017 A 
HETATM   18  C12 UNL     1      14.903  21.065  14.347  1.00  0.00     0.003 A 
HETATM   19  C13 UNL     1      14.200  22.079  14.950  1.00  0.00     0.017 A 
HETATM   20  C14 UNL     1      13.896  23.243  14.229  1.00  0.00     0.090 A 
ENDBRANCH  14  15
ENDBRANCH  13  14
ENDBRANCH  12  13
ENDBRANCH  11  12
ENDBRANCH  10  11
ENDBRANCH   9  10
BRANCH   1  21
HETATM   21  N1  UNL     1      17.073  26.198  14.565  1.00  0.00    -0.230 N 
HETATM   22  C1  UNL     1      17.201  24.769  14.300  1.00  0.00     0.165 C 
ATOM     23  H1  UNL     1      17.898  26.783  14.692  1.00  0.00     0.177 HD
ENDBRANCH   1  21
BRANCH   8  24
HETATM   24  N4  UNL     1      14.005  29.087  12.807  1.00  0.00    -0.234 N 
ATOM     25  H42 UNL     1      13.538  28.821  11.940  1.00  0.00     0.174 HD
ATOM     26  H41 UNL     1      14.221  30.065  13.004  1.00  0.00     0.174 HD
ENDBRANCH   8  24
TORSDOF 8
ENDMDL
MODEL 4
REMARK VINA RESULT: -6.468674614      1.270      1.812
REMARK  8 active torsions:
REMARK  status: ('A' for Active; 'I' for Inactive)
REMARK    1  A    between atoms: N1_2  and  C2_4 
REMARK    2  A    between atoms: C4_11  and  N4_12 
REMARK    3  A    between atoms: N5_15  and  C5_16 
REMARK    4  A    between atoms: C5_16  and  C6_17 
REMARK    5  A    between atoms: C6_17  and  C7_18 
REMARK    6  A    between atoms: C7_18  and  C8_19 
REMARK    7  A    between atoms: C8_19  and  C9_20 
REMARK    8  A    between atoms: C9_20  and  N6_21 
ROOT
HETATM    1  C2  UNL     1      13.195  27.603  13.918  1.00  0.00     0.698 A 
HETATM    2  N2  UNL     1      12.325  27.259  14.872  1.00  0.00    -0.140 N 
ATOM      3  H2  UNL     1      11.325  27.259  14.673  1.00  0.00     0.189 HD
HETATM    4  C3  UNL     1      12.769  26.911  16.100  1.00  0.00     0.352 A 
HETATM    5  O1  UNL     1      11.922  26.586  16.994  1.00  0.00    -0.246 OA
HETATM    6  N3  UNL     1      14.090  26.906  16.377  1.00  0.00    -0.140 N 
ATOM      7  H3  UNL     1      14.422  26.643  17.304  1.00  0.00     0.189 HD
HETATM    8  C4  UNL     1      14.963  27.253  15.414  1.00  0.00     0.696 A 
HETATM    9  N5  UNL     1      14.532  27.601  14.189  1.00  0.00    -0.014 N 
ENDROOT
BRANCH   9  10
HETATM   10  C5  UNL     1      15.473  27.971  13.166  1.00  0.00     0.167 C 
BRANCH  10  11
HETATM   11  C6  UNL     1      16.313  26.782  12.705  1.00  0.00     0.022 C 
BRANCH  11  12
HETATM   12  C7  UNL     1      15.735  26.341  11.378  1.00  0.00     0.003 C 
BRANCH  12  13
HETATM   13  C8  UNL     1      14.998  25.061  11.527  1.00  0.00     0.020 C 
BRANCH  13  14
HETATM   14  C9  UNL     1      15.236  24.328  12.816  1.00  0.00     0.128 C 
BRANCH  14  15
HETATM   15  N6  UNL     1      14.032  24.023  13.544  1.00  0.00    -0.366 N 
HETATM   16  C10 UNL     1      12.831  24.155  12.905  1.00  0.00     0.090 A 
HETATM   17  C11 UNL     1      11.637  23.883  13.493  1.00  0.00     0.017 A 
HETATM   18  C12 UNL     1      11.596  23.450  14.800  1.00  0.00     0.003 A 
HETATM   19  C13 UNL     1      12.790  23.310  15.464  1.00  0.00     0.017 A 
HETATM   20  C14 UNL     1      13.993  23.604  14.808  1.00  0.00     0.090 A 
ENDBRANCH  14  15
ENDBRANCH  13  14
ENDBRANCH  12  13
ENDBRANCH  11  12
ENDBRANCH  10  11
ENDBRANCH   9  10
BRANCH   1  21
HETATM   21  N1  UNL     1      12.852  27.948  12.723  1.00  0.00    -0.230 N 
HETATM   22  C1  UNL     1      11.532  27.551  12.244  1.00  0.00     0.165 C 
ATOM     23  H1  UNL     1      13.486  28.483  12.131  1.00  0.00     0.177 HD
ENDBRANCH   1  21
BRANCH   8  24
HETATM   24  N4  UNL     1      16.235  27.239  15.708  1.00  0.00    -0.234 N 
ATOM     25  H42 UNL     1      16.697  28.058  16.105  1.00  0.00     0.174 HD
ATOM     26  H41 UNL     1      16.757  26.382  15.528  1.00  0.00     0.174 HD
ENDBRANCH   8  24
TORSDOF 8
ENDMDL
MODEL 5
REMARK VINA RESULT: -6.106486136      2.340      3.471
REMARK  8 active torsions:
REMARK  status: ('A' for Active; 'I' for Inactive)
REMARK    1  A    between atoms: N1_2  and  C2_4 
REMARK    2  A    between atoms: C4_11  and  N4_12 
REMARK    3  A    between atoms: N5_15  and  C5_16 
REMARK    4  A    between atoms: C5_16  and  C6_17 
REMARK    5  A    between atoms: C6_17  and  C7_18 
REMARK    6  A    between atoms: C7_18  and  C8_19 
REMARK    7  A    between atoms: C8_19  and  C9_20 
REMARK    8  A    between atoms: C9_20  and  N6_21 
ROOT
HETATM    1  C2  UNL     1      15.110  25.359  12.949  1.00  0.00     0.698 A 
HETATM    2  N2  UNL     1      16.337  24.881  13.174  1.00  0.00    -0.140 N 
ATOM      3  H2  UNL     1      16.679  24.084  12.638  1.00  0.00     0.189 HD
HETATM    4  C3  UNL     1      17.126  25.453  14.110  1.00  0.00     0.352 A 
HETATM    5  O1  UNL     1      18.292  24.981  14.308  1.00  0.00    -0.246 OA
HETATM    6  N3  UNL     1      16.686  26.509  14.826  1.00  0.00    -0.140 N 
ATOM      7  H3  UNL     1      17.284  26.939  15.533  1.00  0.00     0.189 HD
HETATM    8  C4  UNL     1      15.450  26.987  14.598  1.00  0.00     0.696 A 
HETATM    9  N5  UNL     1      14.657  26.426  13.669  1.00  0.00    -0.014 N 
ENDROOT
BRANCH   9  10
HETATM   10  C5  UNL     1      13.337  26.945  13.431  1.00  0.00     0.167 C 
BRANCH  10  11
HETATM   11  C6  UNL     1      12.344  26.494  14.500  1.00  0.00     0.022 C 
BRANCH  11  12
HETATM   12  C7  UNL     1      11.298  25.665  13.786  1.00  0.00     0.003 C 
BRANCH  12  13
HETATM   13  C8  UNL     1      11.241  24.293  14.352  1.00  0.00     0.020 C 
BRANCH  13  14
HETATM   14  C9  UNL     1      12.352  23.943  15.302  1.00  0.00     0.128 C 
BRANCH  14  15
HETATM   15  N6  UNL     1      13.140  22.813  14.885  1.00  0.00    -0.366 N 
HETATM   16  C10 UNL     1      14.454  22.759  15.260  1.00  0.00     0.090 A 
HETATM   17  C11 UNL     1      15.283  21.735  14.932  1.00  0.00     0.017 A 
HETATM   18  C12 UNL     1      14.810  20.678  14.184  1.00  0.00     0.003 A 
HETATM   19  C13 UNL     1      13.493  20.709  13.795  1.00  0.00     0.017 A 
HETATM   20  C14 UNL     1      12.682  21.792  14.162  1.00  0.00     0.090 A 
ENDBRANCH  14  15
ENDBRANCH  13  14
ENDBRANCH  12  13
ENDBRANCH  11  12
ENDBRANCH  10  11
ENDBRANCH   9  10
BRANCH   1  21
HETATM   21  N1  UNL     1      14.297  24.870  12.076  1.00  0.00    -0.230 N 
HETATM   22  C1  UNL     1      14.608  23.565  11.500  1.00  0.00     0.165 C 
ATOM     23  H1  UNL     1      13.460  25.381  11.795  1.00  0.00     0.177 HD
ENDBRANCH   1  21
BRANCH   8  24
HETATM   24  N4  UNL     1      15.050  28.010  15.304  1.00  0.00    -0.234 N 
ATOM     25  H42 UNL     1      14.196  28.516  15.069  1.00  0.00     0.174 HD
ATOM     26  H41 UNL     1      15.620  28.292  16.102  1.00  0.00     0.174 HD
ENDBRANCH   8  24
TORSDOF 8
ENDMDL
