MODEL 1
REMARK VINA RESULT: -6.557498161      0.000      0.000
REMARK  8 active torsions:
REMARK  status: ('A' for Active; 'I' for Inactive)
REMARK    1  A    between atoms: C2_2  and  O1_3 
REMARK    2  A    between atoms: C2_2  and  C3_5 
REMARK    3  A    between atoms: C2_2  and  C5_11 
REMARK    4  A    between atoms: C3_5  and  N1_6 
REMARK    5  A    between atoms: C5_11  and  N4_12 
REMARK    6  A    between atoms: N5_15  and  C8_16 
REMARK    7  A    between atoms: C8_16  and  C9_17 
REMARK    8  A    between atoms: C9_17  and  C10_18 
ROOT
HETATM    1  N4  UNL     1      16.385  26.081  13.454  1.00  0.00    -0.349 N 
HETATM    2  C6  UNL     1      17.422  25.493  14.062  1.00  0.00     0.109 A 
HETATM    3  C7  UNL     1      17.151  24.146  14.159  1.00  0.00     0.109 A 
HETATM    4  N5  UNL     1      15.947  23.917  13.609  1.00  0.00    -0.351 N 
HETATM    5  C14 UNL     1      15.500  25.111  13.188  1.00  0.00     0.185 A 
ENDROOT
BRANCH   1   6
HETATM    6  C5  UNL     1      16.236  27.482  13.143  1.00  0.00     0.168 C 
BRANCH   6   7
HETATM    7  C2  UNL     1      15.699  28.284  14.281  1.00  0.00     0.086 C 
HETATM    8  C1  UNL     1      15.481  27.533  15.544  1.00  0.00     0.049 C 
BRANCH   7   9
HETATM    9  O1  UNL     1      16.546  29.360  14.551  1.00  0.00    -0.387 OA
ATOM     10  H1  UNL     1      16.673  29.849  13.747  1.00  0.00     0.210 HD
ENDBRANCH   7   9
BRANCH   7  11
HETATM   11  C3  UNL     1      14.353  28.855  13.839  1.00  0.00     0.161 C 
BRANCH  11  12
HETATM   12  N1  UNL     1      13.261  28.024  14.304  1.00  0.00    -0.364 N 
HETATM   13  C4  UNL     1      12.425  27.468  13.495  1.00  0.00     0.197 C 
HETATM   14  N2  UNL     1      12.486  27.609  12.092  1.00  0.00    -0.067 NA
HETATM   15  N3  UNL     1      11.386  26.670  14.042  1.00  0.00    -0.067 NA
ATOM     16  H1  UNL     1      13.150  27.875  15.307  1.00  0.00     0.161 HD
ENDBRANCH  11  12
ENDBRANCH   7  11
ENDBRANCH   6   7
ENDBRANCH   1   6
BRANCH   4  17
HETATM   17  C8  UNL     1      15.273  22.635  13.499  1.00  0.00     0.135 C 
BRANCH  17  18
HETATM   18  C9  UNL     1      14.768  22.086  14.784  1.00  0.00     0.085 C 
BRANCH  18  19
HETATM   19  C10 UNL     1      13.388  22.573  15.019  1.00  0.00     0.054 A 
HETATM   20  C11 UNL     1      12.305  22.457  14.184  1.00  0.00     0.034 A 
HETATM   21  C12 UNL     1      11.222  23.052  14.808  1.00  0.00     0.027 A 
HETATM   22  C13 UNL     1      11.718  23.511  16.024  1.00  0.00     0.142 A 
HETATM   23  O2  UNL     1      13.004  23.201  16.095  1.00  0.00    -0.327 OA
ENDBRANCH  18  19
ENDBRANCH  17  18
ENDBRANCH   4  17
TORSDOF 8
ENDMDL
MODEL 2
REMARK VINA RESULT: -6.539805362      0.608      1.058
REMARK  8 active torsions:
REMARK  status: ('A' for Active; 'I' for Inactive)
REMARK    1  A    between atoms: C2_2  and  O1_3 
REMARK    2  A    between atoms: C2_2  and  C3_5 
REMARK    3  A    between atoms: C2_2  and  C5_11 
REMARK    4  A    between atoms: C3_5  and  N1_6 
REMARK    5  A    between atoms: C5_11  and  N4_12 
REMARK    6  A    between atoms: N5_15  and  C8_16 
REMARK    7  A    between atoms: C8_16  and  C9_17 
REMARK    8  A    between atoms: C9_17  and  C10_18 
ROOT
HETATM    1  N4  UNL     1      15.918  26.135  12.931  1.00  0.00    -0.349 N 
HETATM    2  C6  UNL     1      15.096  25.823  11.922  1.00  0.00     0.109 A 
HETATM    3  C7  UNL     1      14.824  24.475  11.997  1.00  0.00     0.109 A 
HETATM    4  N5  UNL     1      15.482  23.970  13.054  1.00  0.00    -0.351 N 
HETATM    5  C14 UNL     1      16.142  25.000  13.605  1.00  0.00     0.185 A 
ENDROOT
BRANCH   1   6
HETATM    6  C5  UNL     1      16.464  27.435  13.240  1.00  0.00     0.168 C 
BRANCH   6   7
HETATM    7  C2  UNL     1      15.676  28.175  14.268  1.00  0.00     0.086 C 
HETATM    8  C1  UNL     1      15.273  27.381  15.457  1.00  0.00     0.049 C 
BRANCH   7   9
HETATM    9  O1  UNL     1      16.391  29.290  14.709  1.00  0.00    -0.387 OA
ATOM     10  H1  UNL     1      16.988  29.554  14.019  1.00  0.00     0.210 HD
ENDBRANCH   7   9
BRANCH   7  11
HETATM   11  C3  UNL     1      14.404  28.680  13.590  1.00  0.00     0.161 C 
BRANCH  11  12
HETATM   12  N1  UNL     1      13.226  28.110  14.212  1.00  0.00    -0.364 N 
HETATM   13  C4  UNL     1      12.235  27.654  13.523  1.00  0.00     0.197 C 
HETATM   14  N2  UNL     1      12.197  27.663  12.112  1.00  0.00    -0.067 NA
HETATM   15  N3  UNL     1      11.122  27.114  14.218  1.00  0.00    -0.067 NA
ATOM     16  H1  UNL     1      13.179  28.068  15.230  1.00  0.00     0.161 HD
ENDBRANCH  11  12
ENDBRANCH   7  11
ENDBRANCH   6   7
ENDBRANCH   1   6
BRANCH   4  17
HETATM   17  C8  UNL     1      15.477  22.587  13.500  1.00  0.00     0.135 C 
BRANCH  17  18
HETATM   18  C9  UNL     1      15.090  22.395  14.922  1.00  0.00     0.085 C 
BRANCH  18  19
HETATM   19  C10 UNL     1      13.631  22.612  15.068  1.00  0.00     0.054 A 
HETATM   20  C11 UNL     1      12.631  22.179  14.234  1.00  0.00     0.034 A 
HETATM   21  C12 UNL     1      11.424  22.609  14.758  1.00  0.00     0.027 A 
HETATM   22  C13 UNL     1      11.763  23.299  15.917  1.00  0.00     0.142 A 
HETATM   23  O2  UNL     1      13.082  23.270  16.051  1.00  0.00    -0.327 OA
ENDBRANCH  18  19
ENDBRANCH  17  18
ENDBRANCH   4  17
TORSDOF 8
ENDMDL
MODEL 3
REMARK VINA RESULT: -6.493385943      1.461      1.499
REMARK  8 active torsions:
REMARK  status: ('A' for Active; 'I' for Inactive)
REMARK    1  A    between atoms: C2_2  and  O1_3 
REMARK    2  A    between atoms: C2_2  and  C3_5 
REMARK    3  A    between atoms: C2_2  and  C5_11 
REMARK    4  A    between atoms: C3_5  and  N1_6 
REMARK    5  A    between atoms: C5_11  and  N4_12 
REMARK    6  A    between atoms: N5_15  and  C8_16 
REMARK    7  A    between atoms: C8_16  and  C9_17 
REMARK    8  A    between atoms: C9_17  and  C10_18 
ROOT
HETATM    1  N4  UNL     1      16.155  25.570  13.462  1.00  0.00    -0.349 N 
HETATM    2  C6  UNL     1      17.410  25.297  13.839  1.00  0.00     0.109 A 
HETATM    3  C7  UNL     1      17.446  23.992  14.281  1.00  0.00     0.109 A 
HETATM    4  N5  UNL     1      16.211  23.476  14.172  1.00  0.00    -0.351 N 
HETATM    5  C14 UNL     1      15.443  24.456  13.671  1.00  0.00     0.185 A 
ENDROOT
BRANCH   1   6
HETATM    6  C5  UNL     1      15.656  26.818  12.934  1.00  0.00     0.168 C 
BRANCH   6   7
HETATM    7  C2  UNL     1      15.573  27.899  13.958  1.00  0.00     0.086 C 
HETATM    8  C1  UNL     1      15.408  27.439  15.361  1.00  0.00     0.049 C 
BRANCH   7   9
HETATM    9  O1  UNL     1      16.708  28.709  13.893  1.00  0.00    -0.387 OA
ATOM     10  H1  UNL     1      17.066  28.652  13.015  1.00  0.00     0.210 HD
ENDBRANCH   7   9
BRANCH   7  11
HETATM   11  C3  UNL     1      14.366  28.767  13.606  1.00  0.00     0.161 C 
BRANCH  11  12
HETATM   12  N1  UNL     1      13.158  28.240  14.207  1.00  0.00    -0.364 N 
HETATM   13  C4  UNL     1      12.208  27.722  13.504  1.00  0.00     0.197 C 
HETATM   14  N2  UNL     1      12.247  27.618  12.097  1.00  0.00    -0.067 NA
HETATM   15  N3  UNL     1      11.060  27.231  14.179  1.00  0.00    -0.067 NA
ATOM     16  H1  UNL     1      13.056  28.279  15.221  1.00  0.00     0.161 HD
ENDBRANCH  11  12
ENDBRANCH   7  11
ENDBRANCH   6   7
ENDBRANCH   1   6
BRANCH   4  17
HETATM   17  C8  UNL     1      15.799  22.129  14.527  1.00  0.00     0.135 C 
BRANCH  17  18
HETATM   18  C9  UNL     1      15.350  21.294  13.382  1.00  0.00     0.085 C 
BRANCH  18  19
HETATM   19  C10 UNL     1      13.874  21.159  13.421  1.00  0.00     0.054 A 
HETATM   20  C11 UNL     1      12.961  21.681  12.540  1.00  0.00     0.034 A 
HETATM   21  C12 UNL     1      11.698  21.303  12.963  1.00  0.00     0.027 A 
HETATM   22  C13 UNL     1      11.917  20.549  14.111  1.00  0.00     0.142 A 
HETATM   23  O2  UNL     1      13.222  20.497  14.336  1.00  0.00    -0.327 OA
ENDBRANCH  18  19
ENDBRANCH  17  18
ENDBRANCH   4  17
TORSDOF 8
ENDMDL
MODEL 4
REMARK VINA RESULT: -6.423179441      1.744      2.037
REMARK  8 active torsions:
REMARK  status: ('A' for Active; 'I' for Inactive)
REMARK    1  A    between atoms: C2_2  and  O1_3 
REMARK    2  A    between atoms: C2_2  and  C3_5 
REMARK    3  A    between atoms: C2_2  and  C5_11 
REMARK    4  A    between atoms: C3_5  and  N1_6 
REMARK    5  A    between atoms: C5_11  and  N4_12 
REMARK    6  A    between atoms: N5_15  and  C8_16 
REMARK    7  A    between atoms: C8_16  and  C9_17 
REMARK    8  A    between atoms: C9_17  and  C10_18 
ROOT
HETATM    1  N4  UNL     1      16.119  25.864  13.601  1.00  0.00    -0.349 N 
HETATM    2  C6  UNL     1      17.350  25.554  14.022  1.00  0.00     0.109 A 
HETATM    3  C7  UNL     1      17.416  24.187  14.176  1.00  0.00     0.109 A 
HETATM    4  N5  UNL     1      16.221  23.668  13.847  1.00  0.00    -0.351 N 
HETATM    5  C14 UNL     1      15.448  24.710  13.502  1.00  0.00     0.185 A 
ENDROOT
BRANCH   1   6
HETATM    6  C5  UNL     1      15.602  27.181  13.310  1.00  0.00     0.168 C 
BRANCH   6   7
HETATM    7  C2  UNL     1      14.949  27.830  14.483  1.00  0.00     0.086 C 
HETATM    8  C1  UNL     1      15.525  27.482  15.808  1.00  0.00     0.049 C 
BRANCH   7   9
HETATM    9  O1  UNL     1      14.982  29.218  14.343  1.00  0.00    -0.387 OA
ATOM     10  H1  UNL     1      15.585  29.569  14.988  1.00  0.00     0.210 HD
ENDBRANCH   7   9
BRANCH   7  11
HETATM   11  C3  UNL     1      13.484  27.400  14.484  1.00  0.00     0.161 C 
BRANCH  11  12
HETATM   12  N1  UNL     1      13.138  26.743  15.728  1.00  0.00    -0.364 N 
HETATM   13  C4  UNL     1      11.927  26.692  16.167  1.00  0.00     0.197 C 
HETATM   14  N2  UNL     1      10.828  27.264  15.491  1.00  0.00    -0.067 NA
HETATM   15  N3  UNL     1      11.682  26.026  17.397  1.00  0.00    -0.067 NA
ATOM     16  H1  UNL     1      13.879  26.305  16.274  1.00  0.00     0.161 HD
ENDBRANCH  11  12
ENDBRANCH   7  11
ENDBRANCH   6   7
ENDBRANCH   1   6
BRANCH   4  17
HETATM   17  C8  UNL     1      15.849  22.264  13.867  1.00  0.00     0.135 C 
BRANCH  17  18
HETATM   18  C9  UNL     1      14.771  21.920  14.830  1.00  0.00     0.085 C 
BRANCH  18  19
HETATM   19  C10 UNL     1      13.588  21.425  14.088  1.00  0.00     0.054 A 
HETATM   20  C11 UNL     1      13.119  21.859  12.873  1.00  0.00     0.034 A 
HETATM   21  C12 UNL     1      11.993  21.115  12.562  1.00  0.00     0.027 A 
HETATM   22  C13 UNL     1      11.834  20.243  13.633  1.00  0.00     0.142 A 
HETATM   23  O2  UNL     1      12.805  20.470  14.506  1.00  0.00    -0.327 OA
ENDBRANCH  18  19
ENDBRANCH  17  18
ENDBRANCH   4  17
TORSDOF 8
ENDMDL
MODEL 5
REMARK VINA RESULT: -6.418189097      1.309      1.587
REMARK  8 active torsions:
REMARK  status: ('A' for Active; 'I' for Inactive)
REMARK    1  A    between atoms: C2_2  and  O1_3 
REMARK    2  A    between atoms: C2_2  and  C3_5 
REMARK    3  A    between atoms: C2_2  and  C5_11 
REMARK    4  A    between atoms: C3_5  and  N1_6 
REMARK    5  A    between atoms: C5_11  and  N4_12 
REMARK    6  A    between atoms: N5_15  and  C8_16 
REMARK    7  A    between atoms: C8_16  and  C9_17 
REMARK    8  A    between atoms: C9_17  and  C10_18 
ROOT
HETATM    1  N4  UNL     1      15.530  26.231  12.884  1.00  0.00    -0.349 N 
HETATM    2  C6  UNL     1      16.708  26.108  13.507  1.00  0.00     0.109 A 
HETATM    3  C7  UNL     1      16.868  24.785  13.855  1.00  0.00     0.109 A 
HETATM    4  N5  UNL     1      15.785  24.106  13.443  1.00  0.00    -0.351 N 
HETATM    5  C14 UNL     1      14.984  25.009  12.855  1.00  0.00     0.185 A 
ENDROOT
BRANCH   1   6
HETATM    6  C5  UNL     1      14.951  27.439  12.347  1.00  0.00     0.168 C 
BRANCH   6   7
HETATM    7  C2  UNL     1      14.400  28.346  13.397  1.00  0.00     0.086 C 
HETATM    8  C1  UNL     1      15.216  28.461  14.633  1.00  0.00     0.049 C 
BRANCH   7   9
HETATM    9  O1  UNL     1      14.213  29.626  12.875  1.00  0.00    -0.387 OA
ATOM     10  H1  UNL     1      14.161  30.239  13.599  1.00  0.00     0.210 HD
ENDBRANCH   7   9
BRANCH   7  11
HETATM   11  C3  UNL     1      13.028  27.802  13.792  1.00  0.00     0.161 C 
BRANCH  11  12
HETATM   12  N1  UNL     1      13.055  27.258  15.134  1.00  0.00    -0.364 N 
HETATM   13  C4  UNL     1      11.979  27.054  15.817  1.00  0.00     0.197 C 
HETATM   14  N2  UNL     1      10.684  27.335  15.333  1.00  0.00    -0.067 NA
HETATM   15  N3  UNL     1      12.102  26.517  17.124  1.00  0.00    -0.067 NA
ATOM     16  H1  UNL     1      13.956  27.028  15.553  1.00  0.00     0.161 HD
ENDBRANCH  11  12
ENDBRANCH   7  11
ENDBRANCH   6   7
ENDBRANCH   1   6
BRANCH   4  17
HETATM   17  C8  UNL     1      15.537  22.684  13.606  1.00  0.00     0.135 C 
BRANCH  17  18
HETATM   18  C9  UNL     1      15.057  22.287  14.955  1.00  0.00     0.085 C 
BRANCH  18  19
HETATM   19  C10 UNL     1      13.597  22.524  15.046  1.00  0.00     0.054 A 
HETATM   20  C11 UNL     1      12.626  22.122  14.163  1.00  0.00     0.034 A 
HETATM   21  C12 UNL     1      11.405  22.560  14.646  1.00  0.00     0.027 A 
HETATM   22  C13 UNL     1      11.706  23.222  15.831  1.00  0.00     0.142 A 
HETATM   23  O2  UNL     1      13.017  23.169  16.019  1.00  0.00    -0.327 OA
ENDBRANCH  18  19
ENDBRANCH  17  18
ENDBRANCH   4  17
TORSDOF 8
ENDMDL
