MODEL 1
REMARK VINA RESULT: -6.691594661      0.000      0.000
REMARK  15 active torsions:
REMARK  status: ('A' for Active; 'I' for Inactive)
REMARK    1  A    between atoms: N2_3  and  C2_5 
REMARK    2  A    between atoms: C4_7  and  N3_8 
REMARK    3  A    between atoms: C5_12  and  O1_13 
REMARK    4  A    between atoms: C6_15  and  N4_16 
REMARK    5  A    between atoms: C7_20  and  O2_21 
REMARK    6  A    between atoms: O2_21  and  C8_22 
REMARK    7  A    between atoms: C9_24  and  O4_25 
REMARK    8  A    between atoms: O4_25  and  C10_26 
REMARK    9  A    between atoms: C11_27  and  N5_28 
REMARK   10  A    between atoms: C12_32  and  O5_33 
REMARK   11  A    between atoms: C13_35  and  N6_36 
REMARK   12  A    between atoms: N6_36  and  C14_38 
REMARK   13  A    between atoms: C15_40  and  N7_41 
REMARK   14  A    between atoms: C16_45  and  N8_46 
REMARK   15  A    between atoms: C18_51  and  N9_52 
ROOT
HETATM    1  C8  UNL     1       9.834  86.220  33.378  1.00  0.00     0.293 C 
HETATM    2  O3  UNL     1      11.066  85.896  33.902  1.00  0.00    -0.327 OA
HETATM    3  C9  UNL     1      10.817  85.652  35.480  1.00  0.00     0.293 C 
HETATM    4  C16 UNL     1      10.706  87.327  35.870  1.00  0.00     0.240 C 
HETATM    5  C17 UNL     1       9.451  87.804  35.238  1.00  0.00     0.075 C 
HETATM    6  C18 UNL     1       9.622  87.661  33.748  1.00  0.00     0.240 C 
ENDROOT
BRANCH   1   7
HETATM    7  O2  UNL     1       8.918  85.310  33.732  1.00  0.00    -0.350 OA
BRANCH   7   8
HETATM    8  C7  UNL     1       8.263  84.546  32.840  1.00  0.00     0.180 C 
HETATM    9  C2  UNL     1       6.850  84.227  33.272  1.00  0.00     0.115 C 
HETATM   10  C3  UNL     1       6.096  83.720  32.043  1.00  0.00     0.063 C 
HETATM   11  C4  UNL     1       6.689  82.347  31.754  1.00  0.00     0.216 C 
HETATM   12  C5  UNL     1       8.171  82.511  31.509  1.00  0.00     0.181 C 
HETATM   13  C6  UNL     1       8.878  83.138  32.693  1.00  0.00     0.244 C 
BRANCH   9  14
HETATM   14  N2  UNL     1       6.136  85.257  33.911  1.00  0.00    -0.381 N 
HETATM   15  C1  UNL     1       5.595  85.089  35.059  1.00  0.00     0.185 C 
HETATM   16  N1  UNL     1       5.728  83.807  35.706  1.00  0.00    -0.097 NA
ATOM     17  H2  UNL     1       6.047  86.162  33.448  1.00  0.00     0.160 HD
ENDBRANCH   9  14
BRANCH  11  18
HETATM   18  N3  UNL     1       6.100  81.883  30.517  1.00  0.00    -0.072 N 
ATOM     19  H33 UNL     1       5.139  81.560  30.627  1.00  0.00     0.274 HD
ATOM     20  H32 UNL     1       5.909  82.637  29.857  1.00  0.00     0.274 HD
ATOM     21  H31 UNL     1       6.723  81.169  30.139  1.00  0.00     0.274 HD
ENDBRANCH  11  18
BRANCH  12  22
HETATM   22  O1  UNL     1       8.719  81.283  31.172  1.00  0.00    -0.391 OA
ATOM     23  H1  UNL     1       9.537  81.164  31.639  1.00  0.00     0.210 HD
ENDBRANCH  12  22
BRANCH  13  24
HETATM   24  N4  UNL     1      10.276  83.216  32.353  1.00  0.00    -0.070 N 
ATOM     25  H43 UNL     1      10.491  83.973  31.705  1.00  0.00     0.274 HD
ATOM     26  H42 UNL     1      10.860  83.537  33.126  1.00  0.00     0.274 HD
ATOM     27  H41 UNL     1      10.547  82.298  32.001  1.00  0.00     0.274 HD
ENDBRANCH  13  24
ENDBRANCH   7   8
ENDBRANCH   1   7
BRANCH   6  28
HETATM   28  N9  UNL     1       8.719  88.402  32.948  1.00  0.00    -0.070 N 
ATOM     29  H93 UNL     1       7.777  88.319  33.330  1.00  0.00     0.274 HD
ATOM     30  H92 UNL     1       8.888  89.399  33.078  1.00  0.00     0.274 HD
ATOM     31  H91 UNL     1       8.703  88.187  31.951  1.00  0.00     0.274 HD
ENDBRANCH   6  28
BRANCH   3  32
HETATM   32  O4  UNL     1      12.076  85.625  35.684  1.00  0.00    -0.349 OA
BRANCH  32  33
HETATM   33  C10 UNL     1      12.849  84.607  36.114  1.00  0.00     0.190 C 
HETATM   34  C11 UNL     1      13.978  84.269  35.148  1.00  0.00     0.245 C 
HETATM   35  C12 UNL     1      13.650  82.999  34.445  1.00  0.00     0.176 C 
HETATM   36  C13 UNL     1      12.223  82.662  34.828  1.00  0.00     0.147 C 
HETATM   37  C15 UNL     1      12.128  83.271  36.218  1.00  0.00     0.239 C 
BRANCH  34  38
HETATM   38  N5  UNL     1      14.221  85.378  34.243  1.00  0.00    -0.070 N 
ATOM     39  H53 UNL     1      14.255  86.270  34.736  1.00  0.00     0.274 HD
ATOM     40  H52 UNL     1      15.174  85.369  33.879  1.00  0.00     0.274 HD
ATOM     41  H51 UNL     1      13.529  85.385  33.494  1.00  0.00     0.274 HD
ENDBRANCH  34  38
BRANCH  35  42
HETATM   42  O5  UNL     1      13.795  83.013  33.080  1.00  0.00    -0.391 OA
ATOM     43  H5  UNL     1      13.255  82.398  32.599  1.00  0.00     0.210 HD
ENDBRANCH  35  42
BRANCH  36  44
HETATM   44  N6  UNL     1      11.988  81.251  34.948  1.00  0.00    -0.359 N 
ATOM     45  H6  UNL     1      12.013  80.844  35.883  1.00  0.00     0.162 HD
BRANCH  44  46
HETATM   46  C14 UNL     1      11.729  80.396  33.874  1.00  0.00     0.348 C 
HETATM   47  O6  UNL     1      10.549  80.220  33.490  1.00  0.00    -0.284 OA
ENDBRANCH  44  46
ENDBRANCH  36  44
BRANCH  37  48
HETATM   48  N7  UNL     1      12.833  82.428  37.173  1.00  0.00    -0.070 N 
ATOM     49  H73 UNL     1      13.588  81.897  36.740  1.00  0.00     0.274 HD
ATOM     50  H72 UNL     1      13.399  82.970  37.827  1.00  0.00     0.274 HD
ATOM     51  H71 UNL     1      12.158  81.829  37.648  1.00  0.00     0.274 HD
ENDBRANCH  37  48
ENDBRANCH  32  33
ENDBRANCH   3  32
BRANCH   4  52
HETATM   52  N8  UNL     1      10.627  87.222  37.286  1.00  0.00    -0.070 N 
ATOM     53  H83 UNL     1       9.887  86.625  37.653  1.00  0.00     0.274 HD
ATOM     54  H82 UNL     1      11.376  86.700  37.741  1.00  0.00     0.274 HD
ATOM     55  H81 UNL     1      10.564  88.214  37.517  1.00  0.00     0.274 HD
ENDBRANCH   4  52
TORSDOF 15
ENDMDL
MODEL 2
REMARK VINA RESULT: -6.566929741      2.093      4.422
REMARK  15 active torsions:
REMARK  status: ('A' for Active; 'I' for Inactive)
REMARK    1  A    between atoms: N2_3  and  C2_5 
REMARK    2  A    between atoms: C4_7  and  N3_8 
REMARK    3  A    between atoms: C5_12  and  O1_13 
REMARK    4  A    between atoms: C6_15  and  N4_16 
REMARK    5  A    between atoms: C7_20  and  O2_21 
REMARK    6  A    between atoms: O2_21  and  C8_22 
REMARK    7  A    between atoms: C9_24  and  O4_25 
REMARK    8  A    between atoms: O4_25  and  C10_26 
REMARK    9  A    between atoms: C11_27  and  N5_28 
REMARK   10  A    between atoms: C12_32  and  O5_33 
REMARK   11  A    between atoms: C13_35  and  N6_36 
REMARK   12  A    between atoms: N6_36  and  C14_38 
REMARK   13  A    between atoms: C15_40  and  N7_41 
REMARK   14  A    between atoms: C16_45  and  N8_46 
REMARK   15  A    between atoms: C18_51  and  N9_52 
ROOT
HETATM    1  C8  UNL     1      10.502  85.551  31.651  1.00  0.00     0.293 C 
HETATM    2  O3  UNL     1      10.788  86.668  32.405  1.00  0.00    -0.327 OA
HETATM    3  C9  UNL     1       9.394  87.090  33.105  1.00  0.00     0.293 C 
HETATM    4  C16 UNL     1       8.726  87.797  31.682  1.00  0.00     0.240 C 
HETATM    5  C17 UNL     1       8.490  86.669  30.747  1.00  0.00     0.075 C 
HETATM    6  C18 UNL     1       9.836  86.081  30.412  1.00  0.00     0.240 C 
ENDROOT
BRANCH   1   7
HETATM    7  O2  UNL     1       9.872  84.632  32.393  1.00  0.00    -0.350 OA
BRANCH   7   8
HETATM    8  C7  UNL     1      10.398  83.423  32.660  1.00  0.00     0.180 C 
HETATM    9  C2  UNL     1       9.389  82.467  33.254  1.00  0.00     0.115 C 
HETATM   10  C3  UNL     1       9.967  81.058  33.141  1.00  0.00     0.063 C 
HETATM   11  C4  UNL     1      11.114  81.019  34.143  1.00  0.00     0.216 C 
HETATM   12  C5  UNL     1      12.108  82.094  33.771  1.00  0.00     0.181 C 
HETATM   13  C6  UNL     1      11.478  83.472  33.761  1.00  0.00     0.244 C 
BRANCH   9  14
HETATM   14  N2  UNL     1       8.084  82.520  32.732  1.00  0.00    -0.381 N 
HETATM   15  C1  UNL     1       7.062  82.672  33.487  1.00  0.00     0.185 C 
HETATM   16  N1  UNL     1       7.264  82.793  34.910  1.00  0.00    -0.097 NA
ATOM     17  H2  UNL     1       7.948  82.434  31.725  1.00  0.00     0.160 HD
ENDBRANCH   9  14
BRANCH  11  18
HETATM   18  N3  UNL     1      11.780  79.746  33.976  1.00  0.00    -0.072 N 
ATOM     19  H33 UNL     1      12.780  79.787  34.176  1.00  0.00     0.274 HD
ATOM     20  H32 UNL     1      11.532  79.066  34.694  1.00  0.00     0.274 HD
ATOM     21  H31 UNL     1      11.574  79.422  33.031  1.00  0.00     0.274 HD
ENDBRANCH  11  18
BRANCH  12  22
HETATM   22  O1  UNL     1      13.196  82.029  34.626  1.00  0.00    -0.391 OA
ATOM     23  H1  UNL     1      13.886  82.598  34.302  1.00  0.00     0.210 HD
ENDBRANCH  12  22
BRANCH  13  24
HETATM   24  N4  UNL     1      12.522  84.407  33.423  1.00  0.00    -0.070 N 
ATOM     25  H43 UNL     1      12.717  85.077  34.167  1.00  0.00     0.274 HD
ATOM     26  H42 UNL     1      13.447  83.980  33.387  1.00  0.00     0.274 HD
ATOM     27  H41 UNL     1      12.250  84.850  32.546  1.00  0.00     0.274 HD
ENDBRANCH  13  24
ENDBRANCH   7   8
ENDBRANCH   1   7
BRANCH   6  28
HETATM   28  N9  UNL     1       9.884  85.261  29.259  1.00  0.00    -0.070 N 
ATOM     29  H93 UNL     1       9.574  84.319  29.497  1.00  0.00     0.274 HD
ATOM     30  H92 UNL     1       9.148  85.542  28.611  1.00  0.00     0.274 HD
ATOM     31  H91 UNL     1      10.774  85.212  28.764  1.00  0.00     0.274 HD
ENDBRANCH   6  28
BRANCH   3  32
HETATM   32  O4  UNL     1       9.908  88.193  33.486  1.00  0.00    -0.349 OA
BRANCH  32  33
HETATM   33  C10 UNL     1      10.308  88.568  34.718  1.00  0.00     0.190 C 
HETATM   34  C11 UNL     1      11.808  88.822  34.806  1.00  0.00     0.245 C 
HETATM   35  C12 UNL     1      12.448  87.697  35.538  1.00  0.00     0.176 C 
HETATM   36  C13 UNL     1      11.370  86.647  35.723  1.00  0.00     0.147 C 
HETATM   37  C15 UNL     1      10.117  87.505  35.791  1.00  0.00     0.239 C 
BRANCH  34  38
HETATM   38  N5  UNL     1      12.364  89.034  33.481  1.00  0.00    -0.070 N 
ATOM     39  H53 UNL     1      11.639  89.232  32.792  1.00  0.00     0.274 HD
ATOM     40  H52 UNL     1      12.876  89.914  33.421  1.00  0.00     0.274 HD
ATOM     41  H51 UNL     1      12.942  88.240  33.206  1.00  0.00     0.274 HD
ENDBRANCH  34  38
BRANCH  35  42
HETATM   42  O5  UNL     1      13.560  87.150  34.947  1.00  0.00    -0.391 OA
ATOM     43  H5  UNL     1      14.362  87.188  35.455  1.00  0.00     0.210 HD
ENDBRANCH  35  42
BRANCH  36  44
HETATM   44  N6  UNL     1      11.484  85.933  36.963  1.00  0.00    -0.359 N 
ATOM     45  H6  UNL     1      11.149  86.396  37.809  1.00  0.00     0.162 HD
BRANCH  44  46
HETATM   46  C14 UNL     1      12.019  84.649  37.094  1.00  0.00     0.348 C 
HETATM   47  O6  UNL     1      13.079  84.354  36.493  1.00  0.00    -0.284 OA
ENDBRANCH  44  46
ENDBRANCH  36  44
BRANCH  37  48
HETATM   48  N7  UNL     1      10.037  88.157  37.091  1.00  0.00    -0.070 N 
ATOM     49  H73 UNL     1      10.586  87.675  37.802  1.00  0.00     0.274 HD
ATOM     50  H72 UNL     1      10.531  89.049  37.110  1.00  0.00     0.274 HD
ATOM     51  H71 UNL     1       9.056  88.250  37.353  1.00  0.00     0.274 HD
ENDBRANCH  37  48
ENDBRANCH  32  33
ENDBRANCH   3  32
BRANCH   4  52
HETATM   52  N8  UNL     1       7.533  88.335  32.239  1.00  0.00    -0.070 N 
ATOM     53  H83 UNL     1       6.658  87.942  31.895  1.00  0.00     0.274 HD
ATOM     54  H82 UNL     1       7.344  88.097  33.213  1.00  0.00     0.274 HD
ATOM     55  H81 UNL     1       7.694  89.322  32.039  1.00  0.00     0.274 HD
ENDBRANCH   4  52
TORSDOF 15
ENDMDL
MODEL 3
REMARK VINA RESULT: -6.539629270      1.982      5.391
REMARK  15 active torsions:
REMARK  status: ('A' for Active; 'I' for Inactive)
REMARK    1  A    between atoms: N2_3  and  C2_5 
REMARK    2  A    between atoms: C4_7  and  N3_8 
REMARK    3  A    between atoms: C5_12  and  O1_13 
REMARK    4  A    between atoms: C6_15  and  N4_16 
REMARK    5  A    between atoms: C7_20  and  O2_21 
REMARK    6  A    between atoms: O2_21  and  C8_22 
REMARK    7  A    between atoms: C9_24  and  O4_25 
REMARK    8  A    between atoms: O4_25  and  C10_26 
REMARK    9  A    between atoms: C11_27  and  N5_28 
REMARK   10  A    between atoms: C12_32  and  O5_33 
REMARK   11  A    between atoms: C13_35  and  N6_36 
REMARK   12  A    between atoms: N6_36  and  C14_38 
REMARK   13  A    between atoms: C15_40  and  N7_41 
REMARK   14  A    between atoms: C16_45  and  N8_46 
REMARK   15  A    between atoms: C18_51  and  N9_52 
ROOT
HETATM    1  C8  UNL     1       7.997  83.768  33.954  1.00  0.00     0.293 C 
HETATM    2  O3  UNL     1       9.077  82.925  34.098  1.00  0.00    -0.327 OA
HETATM    3  C9  UNL     1       9.473  82.464  32.601  1.00  0.00     0.293 C 
HETATM    4  C16 UNL     1       8.176  81.339  32.448  1.00  0.00     0.240 C 
HETATM    5  C17 UNL     1       6.939  82.157  32.404  1.00  0.00     0.075 C 
HETATM    6  C18 UNL     1       6.822  82.858  33.732  1.00  0.00     0.240 C 
ENDROOT
BRANCH   1   7
HETATM    7  O2  UNL     1       8.265  84.724  33.055  1.00  0.00    -0.350 OA
BRANCH   7   8
HETATM    8  C7  UNL     1       8.333  86.029  33.375  1.00  0.00     0.180 C 
HETATM    9  C2  UNL     1       8.626  86.907  32.180  1.00  0.00     0.115 C 
HETATM   10  C3  UNL     1       8.287  88.345  32.571  1.00  0.00     0.063 C 
HETATM   11  C4  UNL     1       9.364  88.748  33.570  1.00  0.00     0.216 C 
HETATM   12  C5  UNL     1       9.310  87.791  34.739  1.00  0.00     0.181 C 
HETATM   13  C6  UNL     1       9.518  86.354  34.309  1.00  0.00     0.244 C 
BRANCH   9  14
HETATM   14  N2  UNL     1       8.005  86.555  30.968  1.00  0.00    -0.381 N 
HETATM   15  C1  UNL     1       8.681  86.329  29.905  1.00  0.00     0.185 C 
HETATM   16  N1  UNL     1      10.118  86.441  29.962  1.00  0.00    -0.097 NA
ATOM     17  H2  UNL     1       6.988  86.477  30.935  1.00  0.00     0.160 HD
ENDBRANCH   9  14
BRANCH  11  18
HETATM   18  N3  UNL     1       9.009  90.057  34.072  1.00  0.00    -0.072 N 
ATOM     19  H33 UNL     1       9.508  90.814  33.605  1.00  0.00     0.274 HD
ATOM     20  H32 UNL     1       8.065  90.343  33.812  1.00  0.00     0.274 HD
ATOM     21  H31 UNL     1       9.158  90.041  35.081  1.00  0.00     0.274 HD
ENDBRANCH  11  18
BRANCH  12  22
HETATM   22  O1  UNL     1      10.233  88.183  35.696  1.00  0.00    -0.391 OA
ATOM     23  H1  UNL     1      10.166  89.121  35.832  1.00  0.00     0.210 HD
ENDBRANCH  12  22
BRANCH  13  24
HETATM   24  N4  UNL     1       9.473  85.548  35.503  1.00  0.00    -0.070 N 
ATOM     25  H43 UNL     1       9.187  86.072  36.330  1.00  0.00     0.274 HD
ATOM     26  H42 UNL     1       8.707  84.875  35.505  1.00  0.00     0.274 HD
ATOM     27  H41 UNL     1      10.390  85.113  35.602  1.00  0.00     0.274 HD
ENDBRANCH  13  24
ENDBRANCH   7   8
ENDBRANCH   1   7
BRANCH   6  28
HETATM   28  N9  UNL     1       5.543  83.375  34.049  1.00  0.00    -0.070 N 
ATOM     29  H93 UNL     1       4.876  83.100  33.328  1.00  0.00     0.274 HD
ATOM     30  H92 UNL     1       5.164  82.878  34.855  1.00  0.00     0.274 HD
ATOM     31  H91 UNL     1       5.477  84.380  34.207  1.00  0.00     0.274 HD
ENDBRANCH   6  28
BRANCH   3  32
HETATM   32  O4  UNL     1      10.265  81.581  33.072  1.00  0.00    -0.349 OA
BRANCH  32  33
HETATM   33  C10 UNL     1      11.612  81.572  33.103  1.00  0.00     0.190 C 
HETATM   34  C11 UNL     1      12.174  81.355  34.503  1.00  0.00     0.245 C 
HETATM   35  C12 UNL     1      12.717  82.643  35.013  1.00  0.00     0.176 C 
HETATM   36  C13 UNL     1      12.304  83.701  34.008  1.00  0.00     0.147 C 
HETATM   37  C15 UNL     1      12.258  82.896  32.719  1.00  0.00     0.239 C 
BRANCH  34  38
HETATM   38  N5  UNL     1      11.164  80.776  35.371  1.00  0.00    -0.070 N 
ATOM     39  H53 UNL     1      10.302  80.571  34.865  1.00  0.00     0.274 HD
ATOM     40  H52 UNL     1      11.404  79.826  35.652  1.00  0.00     0.274 HD
ATOM     41  H51 UNL     1      10.997  81.379  36.176  1.00  0.00     0.274 HD
ENDBRANCH  34  38
BRANCH  35  42
HETATM   42  O5  UNL     1      12.328  83.000  36.280  1.00  0.00    -0.391 OA
ATOM     43  H5  UNL     1      12.121  83.918  36.408  1.00  0.00     0.210 HD
ENDBRANCH  35  42
BRANCH  36  44
HETATM   44  N6  UNL     1      13.284  84.738  33.846  1.00  0.00    -0.359 N 
ATOM     45  H6  UNL     1      14.033  84.581  33.172  1.00  0.00     0.162 HD
BRANCH  44  46
HETATM   46  C14 UNL     1      13.282  85.947  34.546  1.00  0.00     0.348 C 
HETATM   47  O6  UNL     1      12.554  86.079  35.557  1.00  0.00    -0.284 OA
ENDBRANCH  44  46
ENDBRANCH  36  44
BRANCH  37  48
HETATM   48  N7  UNL     1      13.612  82.641  32.250  1.00  0.00    -0.070 N 
ATOM     49  H73 UNL     1      13.837  81.646  32.233  1.00  0.00     0.274 HD
ATOM     50  H72 UNL     1      13.720  82.828  31.253  1.00  0.00     0.274 HD
ATOM     51  H71 UNL     1      14.266  83.178  32.819  1.00  0.00     0.274 HD
ENDBRANCH  37  48
ENDBRANCH  32  33
ENDBRANCH   3  32
BRANCH   4  52
HETATM   52  N8  UNL     1       8.525  80.765  31.195  1.00  0.00    -0.070 N 
ATOM     53  H83 UNL     1       8.408  79.755  31.113  1.00  0.00     0.274 HD
ATOM     54  H82 UNL     1       7.903  80.975  30.414  1.00  0.00     0.274 HD
ATOM     55  H81 UNL     1       9.480  81.117  31.118  1.00  0.00     0.274 HD
ENDBRANCH   4  52
TORSDOF 15
ENDMDL
MODEL 4
REMARK VINA RESULT: -6.519849704      2.153      5.254
REMARK  15 active torsions:
REMARK  status: ('A' for Active; 'I' for Inactive)
REMARK    1  A    between atoms: N2_3  and  C2_5 
REMARK    2  A    between atoms: C4_7  and  N3_8 
REMARK    3  A    between atoms: C5_12  and  O1_13 
REMARK    4  A    between atoms: C6_15  and  N4_16 
REMARK    5  A    between atoms: C7_20  and  O2_21 
REMARK    6  A    between atoms: O2_21  and  C8_22 
REMARK    7  A    between atoms: C9_24  and  O4_25 
REMARK    8  A    between atoms: O4_25  and  C10_26 
REMARK    9  A    between atoms: C11_27  and  N5_28 
REMARK   10  A    between atoms: C12_32  and  O5_33 
REMARK   11  A    between atoms: C13_35  and  N6_36 
REMARK   12  A    between atoms: N6_36  and  C14_38 
REMARK   13  A    between atoms: C15_40  and  N7_41 
REMARK   14  A    between atoms: C16_45  and  N8_46 
REMARK   15  A    between atoms: C18_51  and  N9_52 
ROOT
HETATM    1  C8  UNL     1       8.323  84.241  34.069  1.00  0.00     0.293 C 
HETATM    2  O3  UNL     1       9.329  83.312  34.212  1.00  0.00    -0.327 OA
HETATM    3  C9  UNL     1       9.627  82.759  32.723  1.00  0.00     0.293 C 
HETATM    4  C16 UNL     1       8.232  81.750  32.660  1.00  0.00     0.240 C 
HETATM    5  C17 UNL     1       7.071  82.673  32.624  1.00  0.00     0.075 C 
HETATM    6  C18 UNL     1       7.065  83.432  33.925  1.00  0.00     0.240 C 
ENDROOT
BRANCH   1   7
HETATM    7  O2  UNL     1       8.640  85.135  33.123  1.00  0.00    -0.350 OA
BRANCH   7   8
HETATM    8  C7  UNL     1       8.350  86.444  33.228  1.00  0.00     0.180 C 
HETATM    9  C2  UNL     1       7.749  87.011  31.963  1.00  0.00     0.115 C 
HETATM   10  C3  UNL     1       7.105  88.350  32.318  1.00  0.00     0.063 C 
HETATM   11  C4  UNL     1       8.273  89.288  32.598  1.00  0.00     0.216 C 
HETATM   12  C5  UNL     1       9.088  88.708  33.730  1.00  0.00     0.181 C 
HETATM   13  C6  UNL     1       9.607  87.322  33.406  1.00  0.00     0.244 C 
BRANCH   9  14
HETATM   14  N2  UNL     1       6.845  86.187  31.267  1.00  0.00    -0.381 N 
HETATM   15  C1  UNL     1       7.031  85.868  30.041  1.00  0.00     0.185 C 
HETATM   16  N1  UNL     1       8.201  86.370  29.365  1.00  0.00    -0.097 NA
ATOM     17  H2  UNL     1       6.019  85.834  31.752  1.00  0.00     0.160 HD
ENDBRANCH   9  14
BRANCH  11  18
HETATM   18  N3  UNL     1       7.712  90.534  33.071  1.00  0.00    -0.072 N 
ATOM     19  H33 UNL     1       6.726  90.647  32.830  1.00  0.00     0.274 HD
ATOM     20  H32 UNL     1       7.602  90.565  34.084  1.00  0.00     0.274 HD
ATOM     21  H31 UNL     1       8.301  91.284  32.708  1.00  0.00     0.274 HD
ENDBRANCH  11  18
BRANCH  12  22
HETATM   22  O1  UNL     1      10.115  89.582  34.051  1.00  0.00    -0.391 OA
ATOM     23  H1  UNL     1      10.407  90.027  33.264  1.00  0.00     0.210 HD
ENDBRANCH  12  22
BRANCH  13  24
HETATM   24  N4  UNL     1      10.385  86.890  34.539  1.00  0.00    -0.070 N 
ATOM     25  H43 UNL     1      11.254  87.412  34.653  1.00  0.00     0.274 HD
ATOM     26  H42 UNL     1       9.965  87.142  35.434  1.00  0.00     0.274 HD
ATOM     27  H41 UNL     1      10.532  85.886  34.433  1.00  0.00     0.274 HD
ENDBRANCH  13  24
ENDBRANCH   7   8
ENDBRANCH   1   7
BRANCH   6  28
HETATM   28  N9  UNL     1       5.849  84.073  34.263  1.00  0.00    -0.070 N 
ATOM     29  H93 UNL     1       5.953  85.082  34.153  1.00  0.00     0.274 HD
ATOM     30  H92 UNL     1       5.151  83.877  33.546  1.00  0.00     0.274 HD
ATOM     31  H91 UNL     1       5.459  83.868  35.183  1.00  0.00     0.274 HD
ENDBRANCH   6  28
BRANCH   3  32
HETATM   32  O4  UNL     1      10.356  81.828  33.204  1.00  0.00    -0.349 OA
BRANCH  32  33
HETATM   33  C10 UNL     1      11.694  81.680  33.153  1.00  0.00     0.190 C 
HETATM   34  C11 UNL     1      12.307  81.344  34.508  1.00  0.00     0.245 C 
HETATM   35  C12 UNL     1      13.009  82.545  35.034  1.00  0.00     0.176 C 
HETATM   36  C13 UNL     1      12.656  83.683  34.098  1.00  0.00     0.147 C 
HETATM   37  C15 UNL     1      12.454  82.947  32.783  1.00  0.00     0.239 C 
BRANCH  34  38
HETATM   38  N5  UNL     1      11.291  80.834  35.411  1.00  0.00    -0.070 N 
ATOM     39  H53 UNL     1      11.629  80.038  35.952  1.00  0.00     0.274 HD
ATOM     40  H52 UNL     1      11.112  81.476  36.183  1.00  0.00     0.274 HD
ATOM     41  H51 UNL     1      10.438  80.610  34.898  1.00  0.00     0.274 HD
ENDBRANCH  34  38
BRANCH  35  42
HETATM   42  O5  UNL     1      12.731  82.883  36.334  1.00  0.00    -0.391 OA
ATOM     43  H5  UNL     1      12.602  83.808  36.505  1.00  0.00     0.210 HD
ENDBRANCH  35  42
BRANCH  36  44
HETATM   44  N6  UNL     1      13.728  84.620  33.917  1.00  0.00    -0.359 N 
ATOM     45  H6  UNL     1      14.498  84.348  33.306  1.00  0.00     0.162 HD
BRANCH  44  46
HETATM   46  C14 UNL     1      13.791  85.880  34.520  1.00  0.00     0.348 C 
HETATM   47  O6  UNL     1      13.399  86.890  33.891  1.00  0.00    -0.284 OA
ENDBRANCH  44  46
ENDBRANCH  36  44
BRANCH  37  48
HETATM   48  N7  UNL     1      13.746  82.575  32.224  1.00  0.00    -0.070 N 
ATOM     49  H73 UNL     1      14.023  83.178  31.450  1.00  0.00     0.274 HD
ATOM     50  H72 UNL     1      14.519  82.788  32.855  1.00  0.00     0.274 HD
ATOM     51  H71 UNL     1      13.720  81.590  31.960  1.00  0.00     0.274 HD
ENDBRANCH  37  48
ENDBRANCH  32  33
ENDBRANCH   3  32
BRANCH   4  52
HETATM   52  N8  UNL     1       8.483  81.099  31.421  1.00  0.00    -0.070 N 
ATOM     53  H83 UNL     1       8.872  81.679  30.678  1.00  0.00     0.274 HD
ATOM     54  H82 UNL     1       9.257  80.435  31.409  1.00  0.00     0.274 HD
ATOM     55  H81 UNL     1       7.554  80.712  31.252  1.00  0.00     0.274 HD
ENDBRANCH   4  52
TORSDOF 15
ENDMDL
MODEL 5
REMARK VINA RESULT: -6.509271876      1.983      5.270
REMARK  15 active torsions:
REMARK  status: ('A' for Active; 'I' for Inactive)
REMARK    1  A    between atoms: N2_3  and  C2_5 
REMARK    2  A    between atoms: C4_7  and  N3_8 
REMARK    3  A    between atoms: C5_12  and  O1_13 
REMARK    4  A    between atoms: C6_15  and  N4_16 
REMARK    5  A    between atoms: C7_20  and  O2_21 
REMARK    6  A    between atoms: O2_21  and  C8_22 
REMARK    7  A    between atoms: C9_24  and  O4_25 
REMARK    8  A    between atoms: O4_25  and  C10_26 
REMARK    9  A    between atoms: C11_27  and  N5_28 
REMARK   10  A    between atoms: C12_32  and  O5_33 
REMARK   11  A    between atoms: C13_35  and  N6_36 
REMARK   12  A    between atoms: N6_36  and  C14_38 
REMARK   13  A    between atoms: C15_40  and  N7_41 
REMARK   14  A    between atoms: C16_45  and  N8_46 
REMARK   15  A    between atoms: C18_51  and  N9_52 
ROOT
HETATM    1  C8  UNL     1       8.567  84.554  34.517  1.00  0.00     0.293 C 
HETATM    2  O3  UNL     1       9.438  83.487  34.480  1.00  0.00    -0.327 OA
HETATM    3  C9  UNL     1       9.612  83.121  32.916  1.00  0.00     0.293 C 
HETATM    4  C16 UNL     1       8.089  82.327  32.782  1.00  0.00     0.240 C 
HETATM    5  C17 UNL     1       7.067  83.393  32.931  1.00  0.00     0.075 C 
HETATM    6  C18 UNL     1       7.205  83.949  34.324  1.00  0.00     0.240 C 
ENDROOT
BRANCH   1   7
HETATM    7  O2  UNL     1       8.977  85.524  33.690  1.00  0.00    -0.350 OA
BRANCH   7   8
HETATM    8  C7  UNL     1       9.816  86.504  34.073  1.00  0.00     0.180 C 
HETATM    9  C2  UNL     1       9.106  87.817  34.313  1.00  0.00     0.115 C 
HETATM   10  C3  UNL     1      10.053  88.715  35.108  1.00  0.00     0.063 C 
HETATM   11  C4  UNL     1      11.156  89.091  34.127  1.00  0.00     0.216 C 
HETATM   12  C5  UNL     1      11.816  87.821  33.643  1.00  0.00     0.181 C 
HETATM   13  C6  UNL     1      10.830  86.886  32.974  1.00  0.00     0.244 C 
BRANCH   9  14
HETATM   14  N2  UNL     1       7.842  87.750  34.928  1.00  0.00    -0.381 N 
HETATM   15  C1  UNL     1       6.800  88.257  34.384  1.00  0.00     0.185 C 
HETATM   16  N1  UNL     1       6.936  88.912  33.106  1.00  0.00    -0.097 NA
ATOM     17  H2  UNL     1       7.753  87.284  35.831  1.00  0.00     0.160 HD
ENDBRANCH   9  14
BRANCH  11  18
HETATM   18  N3  UNL     1      12.150  89.832  34.872  1.00  0.00    -0.072 N 
ATOM     19  H33 UNL     1      11.880  90.002  35.842  1.00  0.00     0.274 HD
ATOM     20  H32 UNL     1      12.992  89.290  35.065  1.00  0.00     0.274 HD
ATOM     21  H31 UNL     1      12.337  90.689  34.352  1.00  0.00     0.274 HD
ENDBRANCH  11  18
BRANCH  12  22
HETATM   22  O1  UNL     1      12.872  88.144  32.805  1.00  0.00    -0.391 OA
ATOM     23  H1  UNL     1      13.540  87.470  32.867  1.00  0.00     0.210 HD
ENDBRANCH  12  22
BRANCH  13  24
HETATM   24  N4  UNL     1      11.576  85.734  32.534  1.00  0.00    -0.070 N 
ATOM     25  H43 UNL     1      12.030  85.871  31.631  1.00  0.00     0.274 HD
ATOM     26  H42 UNL     1      12.421  85.571  33.081  1.00  0.00     0.274 HD
ATOM     27  H41 UNL     1      10.933  84.943  32.544  1.00  0.00     0.274 HD
ENDBRANCH  13  24
ENDBRANCH   7   8
ENDBRANCH   1   7
BRANCH   6  28
HETATM   28  N9  UNL     1       6.101  84.691  34.807  1.00  0.00    -0.070 N 
ATOM     29  H93 UNL     1       5.962  85.516  34.222  1.00  0.00     0.274 HD
ATOM     30  H92 UNL     1       5.239  84.180  34.619  1.00  0.00     0.274 HD
ATOM     31  H91 UNL     1       6.124  84.970  35.788  1.00  0.00     0.274 HD
ENDBRANCH   6  28
BRANCH   3  32
HETATM   32  O4  UNL     1      10.218  82.042  33.226  1.00  0.00    -0.349 OA
BRANCH  32  33
HETATM   33  C10 UNL     1      11.474  81.653  32.931  1.00  0.00     0.190 C 
HETATM   34  C11 UNL     1      12.098  80.782  34.016  1.00  0.00     0.245 C 
HETATM   35  C12 UNL     1      13.106  81.583  34.760  1.00  0.00     0.176 C 
HETATM   36  C13 UNL     1      12.958  83.009  34.267  1.00  0.00     0.147 C 
HETATM   37  C15 UNL     1      12.480  82.792  32.841  1.00  0.00     0.239 C 
BRANCH  34  38
HETATM   38  N5  UNL     1      11.067  80.222  34.871  1.00  0.00    -0.070 N 
ATOM     39  H53 UNL     1      11.421  80.012  35.804  1.00  0.00     0.274 HD
ATOM     40  H52 UNL     1      10.367  80.918  35.128  1.00  0.00     0.274 HD
ATOM     41  H51 UNL     1      10.644  79.404  34.432  1.00  0.00     0.274 HD
ENDBRANCH  34  38
BRANCH  35  42
HETATM   42  O5  UNL     1      13.024  81.532  36.129  1.00  0.00    -0.391 OA
ATOM     43  H5  UNL     1      13.668  82.043  36.604  1.00  0.00     0.210 HD
ENDBRANCH  35  42
BRANCH  36  44
HETATM   44  N6  UNL     1      14.204  83.719  34.211  1.00  0.00    -0.359 N 
ATOM     45  H6  UNL     1      14.950  83.324  33.638  1.00  0.00     0.162 HD
BRANCH  44  46
HETATM   46  C14 UNL     1      14.467  84.914  34.886  1.00  0.00     0.348 C 
HETATM   47  O6  UNL     1      14.407  86.003  34.269  1.00  0.00    -0.284 OA
ENDBRANCH  44  46
ENDBRANCH  36  44
BRANCH  37  48
HETATM   48  N7  UNL     1      13.596  82.369  32.007  1.00  0.00    -0.070 N 
ATOM     49  H73 UNL     1      14.427  82.145  32.553  1.00  0.00     0.274 HD
ATOM     50  H72 UNL     1      13.446  81.449  31.592  1.00  0.00     0.274 HD
ATOM     51  H71 UNL     1      13.774  83.087  31.304  1.00  0.00     0.274 HD
ENDBRANCH  37  48
ENDBRANCH  32  33
ENDBRANCH   3  32
BRANCH   4  52
HETATM   52  N8  UNL     1       8.210  81.835  31.454  1.00  0.00    -0.070 N 
ATOM     53  H83 UNL     1       7.595  82.257  30.758  1.00  0.00     0.274 HD
ATOM     54  H82 UNL     1       9.065  82.083  30.957  1.00  0.00     0.274 HD
ATOM     55  H81 UNL     1       8.068  80.841  31.637  1.00  0.00     0.274 HD
ENDBRANCH   4  52
TORSDOF 15
ENDMDL
