MODEL 1
REMARK VINA RESULT: -7.220922459      0.000      0.000
REMARK  14 active torsions:
REMARK  status: ('A' for Active; 'I' for Inactive)
REMARK    1  A    between atoms: C3_4  and  C4_5 
REMARK    2  A    between atoms: C4_5  and  N2_6 
REMARK       I    between atoms: N2_6  and  C5_8 
REMARK    3  A    between atoms: C5_8  and  C6_10 
REMARK    4  A    between atoms: C6_10  and  C7_11 
REMARK    5  A    between atoms: C7_11  and  N3_12 
REMARK    6  A    between atoms: C8_17  and  N4_18 
REMARK    7  A    between atoms: C9_19  and  N5_20 
REMARK    8  A    between atoms: C10_26  and  N8_27 
REMARK    9  A    between atoms: C11_32  and  N10_33 
REMARK   10  A    between atoms: C13_39  and  N12_40 
REMARK       I    between atoms: N12_40  and  C14_42 
REMARK   11  A    between atoms: C14_42  and  C15_44 
REMARK   12  A    between atoms: C15_44  and  N13_45 
REMARK   13  A    between atoms: C15_44  and  C16_49 
REMARK   14  A    between atoms: C16_49  and  O4_50 
ROOT
HETATM    1  C1  UNL     1       7.267  86.235  35.157  1.00  0.00     0.221 C 
HETATM    2  N1  UNL     1       8.075  86.540  34.384  1.00  0.00    -0.461 NA
HETATM    3  C2  UNL     1       9.035  86.929  33.464  1.00  0.00     0.218 C 
HETATM    4  C3  UNL     1       9.881  88.061  34.062  1.00  0.00     0.179 C 
HETATM    5  O2  UNL     1      10.652  87.430  34.997  1.00  0.00    -0.353 OA
HETATM    6  C8  UNL     1      10.882  86.119  34.620  1.00  0.00     0.291 C 
HETATM    7  C13 UNL     1      10.094  85.848  33.388  1.00  0.00     0.173 C 
ENDROOT
BRANCH   4   8
HETATM    8  C4  UNL     1       8.986  89.121  34.652  1.00  0.00     0.157 C 
BRANCH   8   9
HETATM    9  N2  UNL     1       7.993  89.501  33.649  1.00  0.00    -0.358 N 
HETATM   10  C5  UNL     1       7.502  90.831  33.556  1.00  0.00     0.219 C 
HETATM   11  O1  UNL     1       7.941  91.693  34.363  1.00  0.00    -0.274 OA
ATOM     12  H2  UNL     1       7.644  88.795  33.000  1.00  0.00     0.162 HD
BRANCH  10  13
HETATM   13  C6  UNL     1       6.495  91.188  32.529  1.00  0.00     0.130 C 
BRANCH  13  14
HETATM   14  C7  UNL     1       6.108  92.661  32.635  1.00  0.00     0.238 C 
BRANCH  14  15
HETATM   15  N3  UNL     1       7.184  93.460  32.096  1.00  0.00    -0.079 N 
ATOM     16  H33 UNL     1       7.347  94.311  32.635  1.00  0.00     0.274 HD
ATOM     17  H32 UNL     1       8.097  93.029  32.234  1.00  0.00     0.274 HD
ATOM     18  H31 UNL     1       6.986  93.652  31.115  1.00  0.00     0.274 HD
ENDBRANCH  14  15
ENDBRANCH  13  14
ENDBRANCH  10  13
ENDBRANCH   8   9
ENDBRANCH   4   8
BRANCH   7  19
HETATM   19  N12 UNL     1       9.416  84.572  33.368  1.00  0.00    -0.347 N 
HETATM   20  C14 UNL     1       9.965  83.389  32.867  1.00  0.00     0.251 C 
HETATM   21  O3  UNL     1      11.124  83.326  32.376  1.00  0.00    -0.271 OA
ATOM     22  H12 UNL     1       8.470  84.533  33.747  1.00  0.00     0.163 HD
BRANCH  20  23
HETATM   23  C15 UNL     1       9.172  82.137  32.901  1.00  0.00     0.297 C 
BRANCH  23  24
HETATM   24  N13 UNL     1       9.987  80.953  32.935  1.00  0.00    -0.064 N 
ATOM     25 3H13 UNL     1      10.813  81.062  32.346  1.00  0.00     0.275 HD
ATOM     26 2H13 UNL     1      10.442  80.851  33.842  1.00  0.00     0.275 HD
ATOM     27 1H13 UNL     1       9.474  80.107  32.689  1.00  0.00     0.275 HD
ENDBRANCH  23  24
BRANCH  23  28
HETATM   28  C16 UNL     1       8.207  82.065  31.723  1.00  0.00     0.206 C 
BRANCH  28  29
HETATM   29  O4  UNL     1       8.512  83.040  30.793  1.00  0.00    -0.398 OA
ATOM     30  H4  UNL     1       7.808  83.675  30.738  1.00  0.00     0.209 HD
ENDBRANCH  28  29
ENDBRANCH  23  28
ENDBRANCH  20  23
ENDBRANCH   7  19
BRANCH   6  31
HETATM   31  N4  UNL     1      12.282  85.783  34.517  1.00  0.00     0.019 N 
HETATM   32  C9  UNL     1      13.264  86.565  34.028  1.00  0.00     0.711 A 
HETATM   33  N6  UNL     1      14.421  85.888  34.106  1.00  0.00    -0.095 N 
HETATM   34  N7  UNL     1      14.193  84.684  34.638  1.00  0.00     0.106 N 
ATOM     35  H6  UNL     1      15.331  86.239  33.807  1.00  0.00     0.207 HD
HETATM   36  C10 UNL     1      14.995  83.644  34.925  1.00  0.00     0.727 A 
HETATM   37  C12 UNL     1      12.878  84.645  34.879  1.00  0.00     0.752 A 
HETATM   38  N9  UNL     1      14.433  82.536  35.474  1.00  0.00    -0.020 N 
HETATM   39  C11 UNL     1      13.114  82.448  35.737  1.00  0.00     0.705 A 
ATOM     40  H9  UNL     1      15.032  81.741  35.697  1.00  0.00     0.203 HD
HETATM   41  N11 UNL     1      12.376  83.535  35.419  1.00  0.00    -0.019 N 
ATOM     42  H11 UNL     1      11.373  83.504  35.605  1.00  0.00     0.203 HD
BRANCH  32  43
HETATM   43  N5  UNL     1      13.162  87.753  33.560  1.00  0.00    -0.233 N 
ATOM     44  H52 UNL     1      12.385  88.381  33.768  1.00  0.00     0.174 HD
ATOM     45  H51 UNL     1      13.808  88.236  32.937  1.00  0.00     0.174 HD
ENDBRANCH  32  43
BRANCH  36  46
HETATM   46  N8  UNL     1      16.277  83.682  34.688  1.00  0.00    -0.232 N 
ATOM     47  H82 UNL     1      16.644  83.366  33.791  1.00  0.00     0.174 HD
ATOM     48  H81 UNL     1      16.939  84.028  35.383  1.00  0.00     0.174 HD
ENDBRANCH  36  46
BRANCH  39  49
HETATM   49  N10 UNL     1      12.584  81.392  36.259  1.00  0.00    -0.234 N 
ATOM     50 2H10 UNL     1      12.758  81.125  37.228  1.00  0.00     0.174 HD
ATOM     51 1H10 UNL     1      11.968  80.775  35.731  1.00  0.00     0.174 HD
ENDBRANCH  39  49
ENDBRANCH   6  31
TORSDOF 14
ENDMDL
MODEL 2
REMARK VINA RESULT: -7.186838633      2.191      2.302
REMARK  14 active torsions:
REMARK  status: ('A' for Active; 'I' for Inactive)
REMARK    1  A    between atoms: C3_4  and  C4_5 
REMARK    2  A    between atoms: C4_5  and  N2_6 
REMARK       I    between atoms: N2_6  and  C5_8 
REMARK    3  A    between atoms: C5_8  and  C6_10 
REMARK    4  A    between atoms: C6_10  and  C7_11 
REMARK    5  A    between atoms: C7_11  and  N3_12 
REMARK    6  A    between atoms: C8_17  and  N4_18 
REMARK    7  A    between atoms: C9_19  and  N5_20 
REMARK    8  A    between atoms: C10_26  and  N8_27 
REMARK    9  A    between atoms: C11_32  and  N10_33 
REMARK   10  A    between atoms: C13_39  and  N12_40 
REMARK       I    between atoms: N12_40  and  C14_42 
REMARK   11  A    between atoms: C14_42  and  C15_44 
REMARK   12  A    between atoms: C15_44  and  N13_45 
REMARK   13  A    between atoms: C15_44  and  C16_49 
REMARK   14  A    between atoms: C16_49  and  O4_50 
ROOT
HETATM    1  C1  UNL     1       7.236  85.866  35.379  1.00  0.00     0.221 C 
HETATM    2  N1  UNL     1       8.050  86.613  35.026  1.00  0.00    -0.461 NA
HETATM    3  C2  UNL     1       9.014  87.521  34.624  1.00  0.00     0.218 C 
HETATM    4  C3  UNL     1       9.797  88.007  35.851  1.00  0.00     0.179 C 
HETATM    5  O2  UNL     1      10.571  86.933  36.188  1.00  0.00    -0.353 OA
HETATM    6  C8  UNL     1      10.866  86.185  35.063  1.00  0.00     0.291 C 
HETATM    7  C13 UNL     1      10.120  86.766  33.914  1.00  0.00     0.173 C 
ENDROOT
BRANCH   4   8
HETATM    8  C4  UNL     1       8.843  88.416  36.945  1.00  0.00     0.157 C 
BRANCH   8   9
HETATM    9  N2  UNL     1       7.870  89.354  36.386  1.00  0.00    -0.358 N 
HETATM   10  C5  UNL     1       7.202  90.305  37.202  1.00  0.00     0.219 C 
HETATM   11  O1  UNL     1       7.464  90.332  38.434  1.00  0.00    -0.274 OA
ATOM     12  H2  UNL     1       7.666  89.323  35.387  1.00  0.00     0.162 HD
BRANCH  10  13
HETATM   13  C6  UNL     1       6.220  91.243  36.609  1.00  0.00     0.130 C 
BRANCH  13  14
HETATM   14  C7  UNL     1       6.892  92.556  36.212  1.00  0.00     0.238 C 
BRANCH  14  15
HETATM   15  N3  UNL     1       7.261  93.266  37.415  1.00  0.00    -0.079 N 
ATOM     16  H33 UNL     1       7.471  92.638  38.191  1.00  0.00     0.274 HD
ATOM     17  H32 UNL     1       8.176  93.710  37.341  1.00  0.00     0.274 HD
ATOM     18  H31 UNL     1       6.521  93.930  37.640  1.00  0.00     0.274 HD
ENDBRANCH  14  15
ENDBRANCH  13  14
ENDBRANCH  10  13
ENDBRANCH   8   9
ENDBRANCH   4   8
BRANCH   7  19
HETATM   19  N12 UNL     1       9.497  85.797  33.041  1.00  0.00    -0.347 N 
HETATM   20  C14 UNL     1       9.897  85.541  31.726  1.00  0.00     0.251 C 
HETATM   21  O3  UNL     1      10.854  86.143  31.173  1.00  0.00    -0.271 OA
ATOM     22  H12 UNL     1       8.711  85.263  33.411  1.00  0.00     0.163 HD
BRANCH  20  23
HETATM   23  C15 UNL     1       9.179  84.520  30.926  1.00  0.00     0.297 C 
BRANCH  23  24
HETATM   24  N13 UNL     1       9.816  83.231  30.954  1.00  0.00    -0.064 N 
ATOM     25 3H13 UNL     1      10.657  83.227  30.376  1.00  0.00     0.275 HD
ATOM     26 2H13 UNL     1      10.239  83.054  31.865  1.00  0.00     0.275 HD
ATOM     27 1H13 UNL     1       9.191  82.470  30.690  1.00  0.00     0.275 HD
ENDBRANCH  23  24
BRANCH  23  28
HETATM   28  C16 UNL     1       9.003  84.977  29.482  1.00  0.00     0.206 C 
BRANCH  28  29
HETATM   29  O4  UNL     1       9.981  84.422  28.681  1.00  0.00    -0.398 OA
ATOM     30  H4  UNL     1      10.475  83.772  29.166  1.00  0.00     0.209 HD
ENDBRANCH  28  29
ENDBRANCH  23  28
ENDBRANCH  20  23
ENDBRANCH   7  19
BRANCH   6  31
HETATM   31  N4  UNL     1      12.280  86.020  34.831  1.00  0.00     0.019 N 
HETATM   32  C9  UNL     1      13.148  86.969  34.431  1.00  0.00     0.711 A 
HETATM   33  N6  UNL     1      14.366  86.414  34.334  1.00  0.00    -0.095 N 
HETATM   34  N7  UNL     1      14.291  85.122  34.666  1.00  0.00     0.106 N 
ATOM     35  H6  UNL     1      15.216  86.903  34.051  1.00  0.00     0.207 HD
HETATM   36  C10 UNL     1      15.207  84.140  34.732  1.00  0.00     0.727 A 
HETATM   37  C12 UNL     1      13.006  84.906  34.965  1.00  0.00     0.752 A 
HETATM   38  N9  UNL     1      14.792  82.905  35.115  1.00  0.00    -0.020 N 
HETATM   39  C11 UNL     1      13.508  82.636  35.428  1.00  0.00     0.705 A 
ATOM     40  H9  UNL     1      15.477  82.152  35.170  1.00  0.00     0.203 HD
HETATM   41  N11 UNL     1      12.650  83.677  35.337  1.00  0.00    -0.019 N 
ATOM     42  H11 UNL     1      11.670  83.511  35.566  1.00  0.00     0.203 HD
BRANCH  32  43
HETATM   43  N5  UNL     1      12.901  88.200  34.176  1.00  0.00    -0.233 N 
ATOM     44  H52 UNL     1      12.065  88.691  34.495  1.00  0.00     0.174 HD
ATOM     45  H51 UNL     1      13.471  88.853  33.639  1.00  0.00     0.174 HD
ENDBRANCH  32  43
BRANCH  36  46
HETATM   46  N8  UNL     1      16.459  84.351  34.438  1.00  0.00    -0.232 N 
ATOM     47  H82 UNL     1      17.176  84.281  35.160  1.00  0.00     0.174 HD
ATOM     48  H81 UNL     1      16.754  84.588  33.490  1.00  0.00     0.174 HD
ENDBRANCH  36  46
BRANCH  39  49
HETATM   49  N10 UNL     1      13.119  81.461  35.791  1.00  0.00    -0.234 N 
ATOM     50 2H10 UNL     1      13.308  80.633  35.227  1.00  0.00     0.174 HD
ATOM     51 1H10 UNL     1      12.605  81.301  36.657  1.00  0.00     0.174 HD
ENDBRANCH  39  49
ENDBRANCH   6  31
TORSDOF 14
ENDMDL
MODEL 3
REMARK VINA RESULT: -7.179284042      2.728      4.819
REMARK  14 active torsions:
REMARK  status: ('A' for Active; 'I' for Inactive)
REMARK    1  A    between atoms: C3_4  and  C4_5 
REMARK    2  A    between atoms: C4_5  and  N2_6 
REMARK       I    between atoms: N2_6  and  C5_8 
REMARK    3  A    between atoms: C5_8  and  C6_10 
REMARK    4  A    between atoms: C6_10  and  C7_11 
REMARK    5  A    between atoms: C7_11  and  N3_12 
REMARK    6  A    between atoms: C8_17  and  N4_18 
REMARK    7  A    between atoms: C9_19  and  N5_20 
REMARK    8  A    between atoms: C10_26  and  N8_27 
REMARK    9  A    between atoms: C11_32  and  N10_33 
REMARK   10  A    between atoms: C13_39  and  N12_40 
REMARK       I    between atoms: N12_40  and  C14_42 
REMARK   11  A    between atoms: C14_42  and  C15_44 
REMARK   12  A    between atoms: C15_44  and  N13_45 
REMARK   13  A    between atoms: C15_44  and  C16_49 
REMARK   14  A    between atoms: C16_49  and  O4_50 
ROOT
HETATM    1  C1  UNL     1       8.333  88.171  32.230  1.00  0.00     0.221 C 
HETATM    2  N1  UNL     1       9.233  87.504  31.932  1.00  0.00    -0.461 NA
HETATM    3  C2  UNL     1      10.325  86.725  31.588  1.00  0.00     0.218 C 
HETATM    4  C3  UNL     1      11.196  86.496  32.831  1.00  0.00     0.179 C 
HETATM    5  O2  UNL     1      10.469  85.616  33.580  1.00  0.00    -0.353 OA
HETATM    6  C8  UNL     1       9.692  84.817  32.759  1.00  0.00     0.291 C 
HETATM    7  C13 UNL     1       9.849  85.304  31.362  1.00  0.00     0.173 C 
ENDROOT
BRANCH   4   8
HETATM    8  C4  UNL     1      11.447  87.806  33.535  1.00  0.00     0.157 C 
BRANCH   8   9
HETATM    9  N2  UNL     1      10.606  87.859  34.729  1.00  0.00    -0.358 N 
HETATM   10  C5  UNL     1      11.157  87.732  36.033  1.00  0.00     0.219 C 
HETATM   11  O1  UNL     1      12.401  87.570  36.147  1.00  0.00    -0.274 OA
ATOM     12  H2  UNL     1       9.600  87.990  34.625  1.00  0.00     0.162 HD
BRANCH  10  13
HETATM   13  C6  UNL     1      10.280  87.789  37.226  1.00  0.00     0.130 C 
BRANCH  13  14
HETATM   14  C7  UNL     1       9.434  86.523  37.340  1.00  0.00     0.238 C 
BRANCH  14  15
HETATM   15  N3  UNL     1      10.208  85.406  36.852  1.00  0.00    -0.079 N 
ATOM     16  H33 UNL     1       9.624  84.663  36.467  1.00  0.00     0.274 HD
ATOM     17  H32 UNL     1      10.727  85.630  36.004  1.00  0.00     0.274 HD
ATOM     18  H31 UNL     1      10.813  85.076  37.604  1.00  0.00     0.274 HD
ENDBRANCH  14  15
ENDBRANCH  13  14
ENDBRANCH  10  13
ENDBRANCH   8   9
ENDBRANCH   4   8
BRANCH   7  19
HETATM   19  N12 UNL     1       8.622  85.370  30.600  1.00  0.00    -0.347 N 
HETATM   20  C14 UNL     1       8.474  84.904  29.291  1.00  0.00     0.251 C 
HETATM   21  O3  UNL     1       9.415  84.373  28.643  1.00  0.00    -0.271 OA
ATOM     22  H12 UNL     1       7.807  85.787  31.050  1.00  0.00     0.163 HD
BRANCH  20  23
HETATM   23  C15 UNL     1       7.163  85.026  28.610  1.00  0.00     0.297 C 
BRANCH  23  24
HETATM   24  N13 UNL     1       6.640  86.366  28.631  1.00  0.00    -0.064 N 
ATOM     25 3H13 UNL     1       7.000  86.885  29.432  1.00  0.00     0.275 HD
ATOM     26 2H13 UNL     1       7.040  86.924  27.878  1.00  0.00     0.275 HD
ATOM     27 1H13 UNL     1       5.621  86.398  28.605  1.00  0.00     0.275 HD
ENDBRANCH  23  24
BRANCH  23  28
HETATM   28  C16 UNL     1       6.142  84.064  29.205  1.00  0.00     0.206 C 
BRANCH  28  29
HETATM   29  O4  UNL     1       6.744  82.863  29.526  1.00  0.00    -0.398 OA
ATOM     30  H4  UNL     1       6.225  82.137  29.200  1.00  0.00     0.209 HD
ENDBRANCH  28  29
ENDBRANCH  23  28
ENDBRANCH  20  23
ENDBRANCH   7  19
BRANCH   6  31
HETATM   31  N4  UNL     1       9.934  83.405  32.927  1.00  0.00     0.019 N 
HETATM   32  C9  UNL     1       9.111  82.399  32.577  1.00  0.00     0.711 A 
HETATM   33  N6  UNL     1       9.702  81.237  32.899  1.00  0.00    -0.095 N 
HETATM   34  N7  UNL     1      10.892  81.486  33.452  1.00  0.00     0.106 N 
ATOM     35  H6  UNL     1       9.304  80.311  32.747  1.00  0.00     0.207 HD
HETATM   36  C10 UNL     1      11.860  80.689  33.939  1.00  0.00     0.727 A 
HETATM   37  C12 UNL     1      11.010  82.818  33.458  1.00  0.00     0.752 A 
HETATM   38  N9  UNL     1      12.976  81.275  34.444  1.00  0.00    -0.020 N 
HETATM   39  C11 UNL     1      13.143  82.612  34.472  1.00  0.00     0.705 A 
ATOM     40  H9  UNL     1      13.717  80.680  34.816  1.00  0.00     0.203 HD
HETATM   41  N11 UNL     1      12.125  83.344  33.964  1.00  0.00    -0.019 N 
ATOM     42  H11 UNL     1      12.217  84.359  33.968  1.00  0.00     0.203 HD
BRANCH  32  43
HETATM   43  N5  UNL     1       7.957  82.484  32.028  1.00  0.00    -0.233 N 
ATOM     44  H52 UNL     1       7.078  82.336  32.526  1.00  0.00     0.174 HD
ATOM     45  H51 UNL     1       7.742  82.702  31.056  1.00  0.00     0.174 HD
ENDBRANCH  32  43
BRANCH  36  46
HETATM   46  N8  UNL     1      11.743  79.390  33.934  1.00  0.00    -0.232 N 
ATOM     47  H82 UNL     1      11.766  78.868  34.810  1.00  0.00     0.174 HD
ATOM     48  H81 UNL     1      11.625  78.867  33.066  1.00  0.00     0.174 HD
ENDBRANCH  36  46
BRANCH  39  49
HETATM   49  N10 UNL     1      14.206  83.164  34.953  1.00  0.00    -0.234 N 
ATOM     50 2H10 UNL     1      15.140  82.885  34.655  1.00  0.00     0.174 HD
ATOM     51 1H10 UNL     1      14.165  83.905  35.653  1.00  0.00     0.174 HD
ENDBRANCH  39  49
ENDBRANCH   6  31
TORSDOF 14
ENDMDL
MODEL 4
REMARK VINA RESULT: -7.121134449      1.352      1.547
REMARK  14 active torsions:
REMARK  status: ('A' for Active; 'I' for Inactive)
REMARK    1  A    between atoms: C3_4  and  C4_5 
REMARK    2  A    between atoms: C4_5  and  N2_6 
REMARK       I    between atoms: N2_6  and  C5_8 
REMARK    3  A    between atoms: C5_8  and  C6_10 
REMARK    4  A    between atoms: C6_10  and  C7_11 
REMARK    5  A    between atoms: C7_11  and  N3_12 
REMARK    6  A    between atoms: C8_17  and  N4_18 
REMARK    7  A    between atoms: C9_19  and  N5_20 
REMARK    8  A    between atoms: C10_26  and  N8_27 
REMARK    9  A    between atoms: C11_32  and  N10_33 
REMARK   10  A    between atoms: C13_39  and  N12_40 
REMARK       I    between atoms: N12_40  and  C14_42 
REMARK   11  A    between atoms: C14_42  and  C15_44 
REMARK   12  A    between atoms: C15_44  and  N13_45 
REMARK   13  A    between atoms: C15_44  and  C16_49 
REMARK   14  A    between atoms: C16_49  and  O4_50 
ROOT
HETATM    1  C1  UNL     1       7.230  85.656  35.359  1.00  0.00     0.221 C 
HETATM    2  N1  UNL     1       7.975  86.181  34.643  1.00  0.00    -0.461 NA
HETATM    3  C2  UNL     1       8.855  86.832  33.795  1.00  0.00     0.218 C 
HETATM    4  C3  UNL     1       9.562  87.957  34.564  1.00  0.00     0.179 C 
HETATM    5  O2  UNL     1      10.428  87.294  35.386  1.00  0.00    -0.353 OA
HETATM    6  C8  UNL     1      10.817  86.099  34.806  1.00  0.00     0.291 C 
HETATM    7  C13 UNL     1      10.044  85.925  33.547  1.00  0.00     0.173 C 
ENDROOT
BRANCH   4   8
HETATM    8  C4  UNL     1       8.550  88.785  35.315  1.00  0.00     0.157 C 
BRANCH   8   9
HETATM    9  N2  UNL     1       8.343  90.037  34.589  1.00  0.00    -0.358 N 
HETATM   10  C5  UNL     1       7.328  90.955  34.966  1.00  0.00     0.219 C 
HETATM   11  O1  UNL     1       6.596  90.673  35.951  1.00  0.00    -0.274 OA
ATOM     12  H2  UNL     1       8.942  90.255  33.792  1.00  0.00     0.162 HD
BRANCH  10  13
HETATM   13  C6  UNL     1       7.140  92.216  34.210  1.00  0.00     0.130 C 
BRANCH  13  14
HETATM   14  C7  UNL     1       7.797  93.388  34.935  1.00  0.00     0.238 C 
BRANCH  14  15
HETATM   15  N3  UNL     1       7.336  93.400  36.304  1.00  0.00    -0.079 N 
ATOM     16  H33 UNL     1       7.141  92.464  36.659  1.00  0.00     0.274 HD
ATOM     17  H32 UNL     1       8.074  93.649  36.963  1.00  0.00     0.274 HD
ATOM     18  H31 UNL     1       6.529  94.019  36.370  1.00  0.00     0.274 HD
ENDBRANCH  14  15
ENDBRANCH  13  14
ENDBRANCH  10  13
ENDBRANCH   8   9
ENDBRANCH   4   8
BRANCH   7  19
HETATM   19  N12 UNL     1       9.535  84.590  33.327  1.00  0.00    -0.347 N 
HETATM   20  C14 UNL     1      10.218  83.585  32.636  1.00  0.00     0.251 C 
HETATM   21  O3  UNL     1      11.360  83.755  32.132  1.00  0.00    -0.271 OA
ATOM     22  H12 UNL     1       8.614  84.366  33.702  1.00  0.00     0.163 HD
BRANCH  20  23
HETATM   23  C15 UNL     1       9.594  82.250  32.473  1.00  0.00     0.297 C 
BRANCH  23  24
HETATM   24  N13 UNL     1       8.160  82.280  32.590  1.00  0.00    -0.064 N 
ATOM     25 3H13 UNL     1       7.776  81.335  32.598  1.00  0.00     0.275 HD
ATOM     26 2H13 UNL     1       7.878  82.582  33.522  1.00  0.00     0.275 HD
ATOM     27 1H13 UNL     1       7.712  82.849  31.873  1.00  0.00     0.275 HD
ENDBRANCH  23  24
BRANCH  23  28
HETATM   28  C16 UNL     1      10.172  81.247  33.464  1.00  0.00     0.206 C 
BRANCH  28  29
HETATM   29  O4  UNL     1      10.223  81.798  34.729  1.00  0.00    -0.398 OA
ATOM     30  H4  UNL     1      10.128  81.120  35.388  1.00  0.00     0.209 HD
ENDBRANCH  28  29
ENDBRANCH  23  28
ENDBRANCH  20  23
ENDBRANCH   7  19
BRANCH   6  31
HETATM   31  N4  UNL     1      12.245  85.970  34.649  1.00  0.00     0.019 N 
HETATM   32  C9  UNL     1      13.107  86.939  34.281  1.00  0.00     0.711 A 
HETATM   33  N6  UNL     1      14.343  86.416  34.253  1.00  0.00    -0.095 N 
HETATM   34  N7  UNL     1      14.286  85.126  34.597  1.00  0.00     0.106 N 
ATOM     35  H6  UNL     1      15.193  86.924  34.007  1.00  0.00     0.207 HD
HETATM   36  C10 UNL     1      15.222  84.170  34.722  1.00  0.00     0.727 A 
HETATM   37  C12 UNL     1      12.993  84.879  34.833  1.00  0.00     0.752 A 
HETATM   38  N9  UNL     1      14.821  82.928  35.099  1.00  0.00    -0.020 N 
HETATM   39  C11 UNL     1      13.531  82.628  35.349  1.00  0.00     0.705 A 
ATOM     40  H9  UNL     1      15.523  82.195  35.197  1.00  0.00     0.203 HD
HETATM   41  N11 UNL     1      12.651  83.645  35.201  1.00  0.00    -0.019 N 
ATOM     42  H11 UNL     1      11.666  83.454  35.383  1.00  0.00     0.203 HD
BRANCH  32  43
HETATM   43  N5  UNL     1      12.841  88.159  33.998  1.00  0.00    -0.233 N 
ATOM     44  H52 UNL     1      12.435  88.821  34.660  1.00  0.00     0.174 HD
ATOM     45  H51 UNL     1      12.984  88.640  33.111  1.00  0.00     0.174 HD
ENDBRANCH  32  43
BRANCH  36  46
HETATM   46  N8  UNL     1      16.482  84.412  34.489  1.00  0.00    -0.232 N 
ATOM     47  H82 UNL     1      16.756  85.011  33.712  1.00  0.00     0.174 HD
ATOM     48  H81 UNL     1      17.219  84.015  35.072  1.00  0.00     0.174 HD
ENDBRANCH  36  46
BRANCH  39  49
HETATM   49  N10 UNL     1      13.155  81.447  35.707  1.00  0.00    -0.234 N 
ATOM     50 2H10 UNL     1      12.408  81.302  36.386  1.00  0.00     0.174 HD
ATOM     51 1H10 UNL     1      13.583  80.602  35.329  1.00  0.00     0.174 HD
ENDBRANCH  39  49
ENDBRANCH   6  31
TORSDOF 14
ENDMDL
MODEL 5
REMARK VINA RESULT: -7.117721214      3.424      6.580
REMARK  14 active torsions:
REMARK  status: ('A' for Active; 'I' for Inactive)
REMARK    1  A    between atoms: C3_4  and  C4_5 
REMARK    2  A    between atoms: C4_5  and  N2_6 
REMARK       I    between atoms: N2_6  and  C5_8 
REMARK    3  A    between atoms: C5_8  and  C6_10 
REMARK    4  A    between atoms: C6_10  and  C7_11 
REMARK    5  A    between atoms: C7_11  and  N3_12 
REMARK    6  A    between atoms: C8_17  and  N4_18 
REMARK    7  A    between atoms: C9_19  and  N5_20 
REMARK    8  A    between atoms: C10_26  and  N8_27 
REMARK    9  A    between atoms: C11_32  and  N10_33 
REMARK   10  A    between atoms: C13_39  and  N12_40 
REMARK       I    between atoms: N12_40  and  C14_42 
REMARK   11  A    between atoms: C14_42  and  C15_44 
REMARK   12  A    between atoms: C15_44  and  N13_45 
REMARK   13  A    between atoms: C15_44  and  C16_49 
REMARK   14  A    between atoms: C16_49  and  O4_50 
ROOT
HETATM    1  C1  UNL     1       8.917  87.209  29.732  1.00  0.00     0.221 C 
HETATM    2  N1  UNL     1       8.344  86.538  30.484  1.00  0.00    -0.461 NA
HETATM    3  C2  UNL     1       7.639  85.736  31.366  1.00  0.00     0.218 C 
HETATM    4  C3  UNL     1       7.059  84.535  30.608  1.00  0.00     0.179 C 
HETATM    5  O2  UNL     1       8.150  83.753  30.354  1.00  0.00    -0.353 OA
HETATM    6  C8  UNL     1       9.103  83.930  31.341  1.00  0.00     0.291 C 
HETATM    7  C13 UNL     1       8.631  85.007  32.251  1.00  0.00     0.173 C 
ENDROOT
BRANCH   4   8
HETATM    8  C4  UNL     1       6.362  85.002  29.354  1.00  0.00     0.157 C 
BRANCH   8   9
HETATM    9  N2  UNL     1       5.508  83.920  28.867  1.00  0.00    -0.358 N 
HETATM   10  C5  UNL     1       5.871  83.139  27.738  1.00  0.00     0.219 C 
HETATM   11  O1  UNL     1       6.956  83.394  27.152  1.00  0.00    -0.274 OA
ATOM     12  H2  UNL     1       4.631  83.722  29.349  1.00  0.00     0.162 HD
BRANCH  10  13
HETATM   13  C6  UNL     1       4.985  82.048  27.266  1.00  0.00     0.130 C 
BRANCH  13  14
HETATM   14  C7  UNL     1       5.029  81.933  25.743  1.00  0.00     0.238 C 
BRANCH  14  15
HETATM   15  N3  UNL     1       4.964  83.260  25.179  1.00  0.00    -0.079 N 
ATOM     16  H33 UNL     1       4.132  83.771  25.475  1.00  0.00     0.274 HD
ATOM     17  H32 UNL     1       5.663  83.888  25.575  1.00  0.00     0.274 HD
ATOM     18  H31 UNL     1       5.036  83.186  24.164  1.00  0.00     0.274 HD
ENDBRANCH  14  15
ENDBRANCH  13  14
ENDBRANCH  10  13
ENDBRANCH   8   9
ENDBRANCH   4   8
BRANCH   7  19
HETATM   19  N12 UNL     1       9.645  85.958  32.646  1.00  0.00    -0.347 N 
HETATM   20  C14 UNL     1      10.326  85.932  33.867  1.00  0.00     0.251 C 
HETATM   21  O3  UNL     1      10.112  85.061  34.751  1.00  0.00    -0.271 OA
ATOM     22  H12 UNL     1       9.881  86.700  31.987  1.00  0.00     0.163 HD
BRANCH  20  23
HETATM   23  C15 UNL     1      11.349  86.963  34.160  1.00  0.00     0.297 C 
BRANCH  23  24
HETATM   24  N13 UNL     1      10.924  88.294  33.816  1.00  0.00    -0.064 N 
ATOM     25 3H13 UNL     1      10.906  88.419  32.804  1.00  0.00     0.275 HD
ATOM     26 2H13 UNL     1       9.934  88.423  34.018  1.00  0.00     0.275 HD
ATOM     27 1H13 UNL     1      11.484  89.020  34.262  1.00  0.00     0.275 HD
ENDBRANCH  23  24
BRANCH  23  28
HETATM   28  C16 UNL     1      12.667  86.645  33.462  1.00  0.00     0.206 C 
BRANCH  28  29
HETATM   29  O4  UNL     1      12.430  86.086  32.222  1.00  0.00    -0.398 OA
ATOM     30  H4  UNL     1      12.826  85.225  32.167  1.00  0.00     0.209 HD
ENDBRANCH  28  29
ENDBRANCH  23  28
ENDBRANCH  20  23
ENDBRANCH   7  19
BRANCH   6  31
HETATM   31  N4  UNL     1       9.476  82.708  32.011  1.00  0.00     0.019 N 
HETATM   32  C9  UNL     1       8.712  81.610  32.170  1.00  0.00     0.711 A 
HETATM   33  N6  UNL     1       9.425  80.693  32.845  1.00  0.00    -0.095 N 
HETATM   34  N7  UNL     1      10.634  81.189  33.121  1.00  0.00     0.106 N 
ATOM     35  H6  UNL     1       9.094  79.764  33.105  1.00  0.00     0.207 HD
HETATM   36  C10 UNL     1      11.704  80.689  33.763  1.00  0.00     0.727 A 
HETATM   37  C12 UNL     1      10.640  82.422  32.601  1.00  0.00     0.752 A 
HETATM   38  N9  UNL     1      12.807  81.473  33.875  1.00  0.00    -0.020 N 
HETATM   39  C11 UNL     1      12.863  82.721  33.368  1.00  0.00     0.705 A 
ATOM     40  H9  UNL     1      13.625  81.103  34.360  1.00  0.00     0.203 HD
HETATM   41  N11 UNL     1      11.747  83.151  32.736  1.00  0.00    -0.019 N 
ATOM     42  H11 UNL     1      11.754  84.090  32.339  1.00  0.00     0.203 HD
BRANCH  32  43
HETATM   43  N5  UNL     1       7.512  81.424  31.765  1.00  0.00    -0.233 N 
ATOM     44  H52 UNL     1       7.224  81.488  30.788  1.00  0.00     0.174 HD
ATOM     45  H51 UNL     1       6.692  81.195  32.326  1.00  0.00     0.174 HD
ENDBRANCH  32  43
BRANCH  36  46
HETATM   46  N8  UNL     1      11.696  79.488  34.271  1.00  0.00    -0.232 N 
ATOM     47  H82 UNL     1      11.931  78.682  33.692  1.00  0.00     0.174 HD
ATOM     48  H81 UNL     1      11.460  79.323  35.250  1.00  0.00     0.174 HD
ENDBRANCH  36  46
BRANCH  39  49
HETATM   49  N10 UNL     1      13.914  83.462  33.477  1.00  0.00    -0.234 N 
ATOM     50 2H10 UNL     1      14.821  83.168  33.114  1.00  0.00     0.174 HD
ATOM     51 1H10 UNL     1      13.891  84.375  33.928  1.00  0.00     0.174 HD
ENDBRANCH  39  49
ENDBRANCH   6  31
TORSDOF 14
ENDMDL
