MODEL 1
REMARK VINA RESULT: -7.344203910      0.000      0.000
REMARK  16 active torsions:
REMARK  status: ('A' for Active; 'I' for Inactive)
REMARK    1  A    between atoms: N1_1  and  N2_4 
REMARK    2  A    between atoms: N2_4  and  C1_5 
REMARK    3  A    between atoms: C1_5  and  C2_6 
REMARK    4  A    between atoms: C4_8  and  N3_9 
REMARK    5  A    between atoms: N3_9  and  C5_11 
REMARK    6  A    between atoms: C6_13  and  O2_14 
REMARK    7  A    between atoms: O2_14  and  C7_15 
REMARK    8  A    between atoms: C8_16  and  N4_17 
REMARK    9  A    between atoms: C10_22  and  N5_23 
REMARK   10  A    between atoms: C11_27  and  O3_28 
REMARK   11  A    between atoms: O3_28  and  C12_29 
REMARK   12  A    between atoms: C13_30  and  N6_31 
REMARK   13  A    between atoms: C15_36  and  N7_37 
REMARK   14  A    between atoms: C16_41  and  O4_42 
REMARK   15  A    between atoms: C18_45  and  N8_46 
REMARK   16  A    between atoms: C19_50  and  O5_51 
ROOT
HETATM    1  C7  UNL     1      12.097  86.563  34.271  1.00  0.00     0.186 C 
HETATM    2  C8  UNL     1      11.428  87.722  34.900  1.00  0.00     0.217 C 
HETATM    3  C9  UNL     1      10.809  88.586  33.819  1.00  0.00     0.071 C 
HETATM    4  C10 UNL     1       9.681  87.746  33.253  1.00  0.00     0.217 C 
HETATM    5  C11 UNL     1      10.147  86.466  32.663  1.00  0.00     0.183 C 
HETATM    6  C19 UNL     1      11.546  86.074  32.988  1.00  0.00     0.180 C 
ENDROOT
BRANCH   5   7
HETATM    7  O3  UNL     1       9.255  85.464  33.043  1.00  0.00    -0.372 OA
BRANCH   7   8
HETATM    8  C12 UNL     1       9.022  84.526  32.063  1.00  0.00     0.182 C 
HETATM    9  C13 UNL     1       7.730  84.794  31.336  1.00  0.00     0.216 C 
HETATM   10  C14 UNL     1       6.570  84.280  32.105  1.00  0.00     0.070 C 
HETATM   11  C15 UNL     1       6.232  82.860  31.923  1.00  0.00     0.214 C 
HETATM   12  C16 UNL     1       7.238  81.947  31.369  1.00  0.00     0.150 C 
HETATM   13  C17 UNL     1       8.653  82.121  31.614  1.00  0.00     0.069 C 
HETATM   14  C18 UNL     1       9.138  83.130  32.602  1.00  0.00     0.216 C 
BRANCH   9  15
HETATM   15  N6  UNL     1       7.747  84.359  29.961  1.00  0.00    -0.072 N 
ATOM     16  H63 UNL     1       8.125  85.088  29.356  1.00  0.00     0.274 HD
ATOM     17  H62 UNL     1       8.453  83.638  29.818  1.00  0.00     0.274 HD
ATOM     18  H61 UNL     1       6.836  84.047  29.625  1.00  0.00     0.274 HD
ENDBRANCH   9  15
BRANCH  11  19
HETATM   19  N7  UNL     1       5.673  82.366  33.198  1.00  0.00    -0.072 N 
ATOM     20  H73 UNL     1       6.308  81.741  33.694  1.00  0.00     0.274 HD
ATOM     21  H72 UNL     1       5.612  83.091  33.913  1.00  0.00     0.274 HD
ATOM     22  H71 UNL     1       4.772  81.935  32.994  1.00  0.00     0.274 HD
ENDBRANCH  11  19
BRANCH  12  23
HETATM   23  O4  UNL     1       6.850  80.641  31.789  1.00  0.00    -0.393 OA
ATOM     24  H4  UNL     1       7.431  80.417  32.507  1.00  0.00     0.210 HD
ENDBRANCH  12  23
BRANCH  14  25
HETATM   25  N8  UNL     1       8.659  82.960  33.939  1.00  0.00    -0.072 N 
ATOM     26  H83 UNL     1       8.725  81.981  34.215  1.00  0.00     0.274 HD
ATOM     27  H82 UNL     1       9.312  83.376  34.602  1.00  0.00     0.274 HD
ATOM     28  H81 UNL     1       7.716  83.311  34.105  1.00  0.00     0.274 HD
ENDBRANCH  14  25
ENDBRANCH   7   8
ENDBRANCH   5   7
BRANCH   4  29
HETATM   29  N5  UNL     1       8.989  88.556  32.268  1.00  0.00    -0.072 N 
ATOM     30  H53 UNL     1       9.192  88.276  31.309  1.00  0.00     0.274 HD
ATOM     31  H52 UNL     1       7.983  88.385  32.247  1.00  0.00     0.274 HD
ATOM     32  H51 UNL     1       9.223  89.532  32.456  1.00  0.00     0.274 HD
ENDBRANCH   4  29
BRANCH   6  33
HETATM   33  O5  UNL     1      12.397  86.547  31.959  1.00  0.00    -0.390 OA
ATOM     34  H5  UNL     1      12.061  86.207  31.138  1.00  0.00     0.210 HD
ENDBRANCH   6  33
BRANCH   1  35
HETATM   35  O2  UNL     1      12.025  85.493  35.194  1.00  0.00    -0.349 OA
BRANCH  35  36
HETATM   36  C6  UNL     1      12.577  84.334  34.715  1.00  0.00     0.283 C 
HETATM   37  C4  UNL     1      13.654  83.890  35.683  1.00  0.00     0.141 C 
HETATM   38  C3  UNL     1      12.919  82.894  36.557  1.00  0.00     0.063 C 
HETATM   39  C2  UNL     1      11.608  82.696  35.883  1.00  0.00     0.143 C 
HETATM   40  O6  UNL     1      11.655  83.293  34.623  1.00  0.00    -0.353 OA
BRANCH  37  41
HETATM   41  N3  UNL     1      14.756  83.306  34.971  1.00  0.00    -0.359 N 
ATOM     42  H3  UNL     1      14.751  82.308  34.764  1.00  0.00     0.162 HD
BRANCH  41  43
HETATM   43  C5  UNL     1      15.842  84.101  34.556  1.00  0.00     0.349 C 
HETATM   44  O1  UNL     1      15.840  85.355  34.656  1.00  0.00    -0.284 OA
ENDBRANCH  41  43
ENDBRANCH  37  41
BRANCH  39  45
HETATM   45  C1  UNL     1      11.306  81.235  35.742  1.00  0.00     0.166 C 
BRANCH  45  46
HETATM   46  N2  UNL     1      11.254  80.864  34.354  1.00  0.00    -0.146 NA
BRANCH  46  47
HETATM   47  N1  UNL     1      12.529  80.474  33.879  1.00  0.00    -0.348 N 
ATOM     48  H12 UNL     1      13.388  80.986  34.083  1.00  0.00     0.172 HD
ATOM     49  H11 UNL     1      12.471  79.627  33.314  1.00  0.00     0.172 HD
ENDBRANCH  46  47
ENDBRANCH  45  46
ENDBRANCH  39  45
ENDBRANCH  35  36
ENDBRANCH   1  35
BRANCH   2  50
HETATM   50  N4  UNL     1      12.409  88.543  35.576  1.00  0.00    -0.072 N 
ATOM     51  H43 UNL     1      12.047  89.471  35.794  1.00  0.00     0.274 HD
ATOM     52  H42 UNL     1      12.584  88.225  36.530  1.00  0.00     0.274 HD
ATOM     53  H41 UNL     1      13.264  88.584  35.022  1.00  0.00     0.274 HD
ENDBRANCH   2  50
TORSDOF 16
ENDMDL
MODEL 2
REMARK VINA RESULT: -7.271995923      2.029      6.807
REMARK  16 active torsions:
REMARK  status: ('A' for Active; 'I' for Inactive)
REMARK    1  A    between atoms: N1_1  and  N2_4 
REMARK    2  A    between atoms: N2_4  and  C1_5 
REMARK    3  A    between atoms: C1_5  and  C2_6 
REMARK    4  A    between atoms: C4_8  and  N3_9 
REMARK    5  A    between atoms: N3_9  and  C5_11 
REMARK    6  A    between atoms: C6_13  and  O2_14 
REMARK    7  A    between atoms: O2_14  and  C7_15 
REMARK    8  A    between atoms: C8_16  and  N4_17 
REMARK    9  A    between atoms: C10_22  and  N5_23 
REMARK   10  A    between atoms: C11_27  and  O3_28 
REMARK   11  A    between atoms: O3_28  and  C12_29 
REMARK   12  A    between atoms: C13_30  and  N6_31 
REMARK   13  A    between atoms: C15_36  and  N7_37 
REMARK   14  A    between atoms: C16_41  and  O4_42 
REMARK   15  A    between atoms: C18_45  and  N8_46 
REMARK   16  A    between atoms: C19_50  and  O5_51 
ROOT
HETATM    1  C7  UNL     1      10.963  81.968  33.143  1.00  0.00     0.186 C 
HETATM    2  C8  UNL     1      11.237  81.196  34.374  1.00  0.00     0.217 C 
HETATM    3  C9  UNL     1      12.628  81.536  34.873  1.00  0.00     0.071 C 
HETATM    4  C10 UNL     1      12.532  82.978  35.332  1.00  0.00     0.217 C 
HETATM    5  C11 UNL     1      12.152  83.911  34.242  1.00  0.00     0.183 C 
HETATM    6  C19 UNL     1      11.634  83.278  32.997  1.00  0.00     0.180 C 
ENDROOT
BRANCH   5   7
HETATM    7  O3  UNL     1      11.225  84.820  34.753  1.00  0.00    -0.372 OA
BRANCH   7   8
HETATM    8  C12 UNL     1      11.451  86.121  34.366  1.00  0.00     0.182 C 
HETATM    9  C13 UNL     1      11.805  86.994  35.541  1.00  0.00     0.216 C 
HETATM   10  C14 UNL     1      10.587  87.422  36.273  1.00  0.00     0.070 C 
HETATM   11  C15 UNL     1       9.890  88.611  35.760  1.00  0.00     0.214 C 
HETATM   12  C16 UNL     1      10.141  89.054  34.384  1.00  0.00     0.150 C 
HETATM   13  C17 UNL     1      10.440  88.122  33.318  1.00  0.00     0.069 C 
HETATM   14  C18 UNL     1      10.318  86.649  33.536  1.00  0.00     0.216 C 
BRANCH   9  15
HETATM   15  N6  UNL     1      12.683  88.086  35.198  1.00  0.00    -0.072 N 
ATOM     16  H63 UNL     1      13.634  87.899  35.514  1.00  0.00     0.274 HD
ATOM     17  H62 UNL     1      12.844  88.119  34.191  1.00  0.00     0.274 HD
ATOM     18  H61 UNL     1      12.358  88.989  35.542  1.00  0.00     0.274 HD
ENDBRANCH   9  15
BRANCH  11  19
HETATM   19  N7  UNL     1       8.449  88.439  36.036  1.00  0.00    -0.072 N 
ATOM     20  H73 UNL     1       8.049  87.627  35.566  1.00  0.00     0.274 HD
ATOM     21  H72 UNL     1       8.261  88.145  36.995  1.00  0.00     0.274 HD
ATOM     22  H71 UNL     1       7.981  89.311  35.790  1.00  0.00     0.274 HD
ENDBRANCH  11  19
BRANCH  12  23
HETATM   23  O4  UNL     1       9.007  89.834  34.015  1.00  0.00    -0.393 OA
ATOM     24  H4  UNL     1       8.397  89.228  33.609  1.00  0.00     0.210 HD
ENDBRANCH  12  23
BRANCH  14  25
HETATM   25  N8  UNL     1       9.021  86.192  33.928  1.00  0.00    -0.072 N 
ATOM     26  H83 UNL     1       8.659  85.528  33.244  1.00  0.00     0.274 HD
ATOM     27  H82 UNL     1       9.093  85.584  34.744  1.00  0.00     0.274 HD
ATOM     28  H81 UNL     1       8.338  86.931  34.097  1.00  0.00     0.274 HD
ENDBRANCH  14  25
ENDBRANCH   7   8
ENDBRANCH   5   7
BRANCH   4  29
HETATM   29  N5  UNL     1      13.815  83.337  35.906  1.00  0.00    -0.072 N 
ATOM     30  H53 UNL     1      14.038  82.803  36.746  1.00  0.00     0.274 HD
ATOM     31  H52 UNL     1      14.606  83.028  35.339  1.00  0.00     0.274 HD
ATOM     32  H51 UNL     1      13.808  84.344  36.065  1.00  0.00     0.274 HD
ENDBRANCH   4  29
BRANCH   6  33
HETATM   33  O5  UNL     1      12.715  83.098  32.100  1.00  0.00    -0.390 OA
ATOM     34  H5  UNL     1      13.441  82.747  32.602  1.00  0.00     0.210 HD
ENDBRANCH   6  33
BRANCH   1  35
HETATM   35  O2  UNL     1       9.568  82.204  33.106  1.00  0.00    -0.349 OA
BRANCH  35  36
HETATM   36  C6  UNL     1       9.007  81.905  31.891  1.00  0.00     0.283 C 
HETATM   37  C4  UNL     1       7.502  81.876  32.063  1.00  0.00     0.141 C 
HETATM   38  C3  UNL     1       7.096  83.272  31.636  1.00  0.00     0.063 C 
HETATM   39  C2  UNL     1       8.332  83.864  31.060  1.00  0.00     0.143 C 
HETATM   40  O6  UNL     1       9.289  82.860  30.915  1.00  0.00    -0.353 OA
BRANCH  37  41
HETATM   41  N3  UNL     1       6.926  80.848  31.243  1.00  0.00    -0.359 N 
ATOM     42  H3  UNL     1       6.002  80.986  30.834  1.00  0.00     0.162 HD
BRANCH  41  43
HETATM   43  C5  UNL     1       7.628  79.651  30.996  1.00  0.00     0.349 C 
HETATM   44  O1  UNL     1       7.133  78.518  31.225  1.00  0.00    -0.284 OA
ENDBRANCH  41  43
ENDBRANCH  37  41
BRANCH  39  45
HETATM   45  C1  UNL     1       8.043  84.486  29.726  1.00  0.00     0.166 C 
BRANCH  45  46
HETATM   46  N2  UNL     1       9.264  84.708  29.000  1.00  0.00    -0.146 NA
BRANCH  46  47
HETATM   47  N1  UNL     1      10.189  85.456  29.768  1.00  0.00    -0.348 N 
ATOM     48  H12 UNL     1      10.094  86.456  29.947  1.00  0.00     0.172 HD
ATOM     49  H11 UNL     1      10.948  84.867  30.110  1.00  0.00     0.172 HD
ENDBRANCH  46  47
ENDBRANCH  45  46
ENDBRANCH  39  45
ENDBRANCH  35  36
ENDBRANCH   1  35
BRANCH   2  50
HETATM   50  N4  UNL     1      11.239  79.782  34.073  1.00  0.00    -0.072 N 
ATOM     51  H43 UNL     1      10.528  79.535  33.384  1.00  0.00     0.274 HD
ATOM     52  H42 UNL     1      12.063  79.504  33.540  1.00  0.00     0.274 HD
ATOM     53  H41 UNL     1      11.141  79.246  34.935  1.00  0.00     0.274 HD
ENDBRANCH   2  50
TORSDOF 16
ENDMDL
MODEL 3
REMARK VINA RESULT: -7.109211790      0.940      1.309
REMARK  16 active torsions:
REMARK  status: ('A' for Active; 'I' for Inactive)
REMARK    1  A    between atoms: N1_1  and  N2_4 
REMARK    2  A    between atoms: N2_4  and  C1_5 
REMARK    3  A    between atoms: C1_5  and  C2_6 
REMARK    4  A    between atoms: C4_8  and  N3_9 
REMARK    5  A    between atoms: N3_9  and  C5_11 
REMARK    6  A    between atoms: C6_13  and  O2_14 
REMARK    7  A    between atoms: O2_14  and  C7_15 
REMARK    8  A    between atoms: C8_16  and  N4_17 
REMARK    9  A    between atoms: C10_22  and  N5_23 
REMARK   10  A    between atoms: C11_27  and  O3_28 
REMARK   11  A    between atoms: O3_28  and  C12_29 
REMARK   12  A    between atoms: C13_30  and  N6_31 
REMARK   13  A    between atoms: C15_36  and  N7_37 
REMARK   14  A    between atoms: C16_41  and  O4_42 
REMARK   15  A    between atoms: C18_45  and  N8_46 
REMARK   16  A    between atoms: C19_50  and  O5_51 
ROOT
HETATM    1  C7  UNL     1      12.228  86.727  34.257  1.00  0.00     0.186 C 
HETATM    2  C8  UNL     1      11.501  87.826  34.928  1.00  0.00     0.217 C 
HETATM    3  C9  UNL     1      10.749  88.632  33.888  1.00  0.00     0.071 C 
HETATM    4  C10 UNL     1       9.665  87.699  33.385  1.00  0.00     0.217 C 
HETATM    5  C11 UNL     1      10.204  86.462  32.765  1.00  0.00     0.183 C 
HETATM    6  C19 UNL     1      11.648  86.191  33.007  1.00  0.00     0.180 C 
ENDROOT
BRANCH   5   7
HETATM    7  O3  UNL     1       9.424  85.388  33.192  1.00  0.00    -0.372 OA
BRANCH   7   8
HETATM    8  C12 UNL     1       9.173  84.458  32.209  1.00  0.00     0.182 C 
HETATM    9  C13 UNL     1       7.908  84.775  31.457  1.00  0.00     0.216 C 
HETATM   10  C14 UNL     1       6.712  84.310  32.203  1.00  0.00     0.070 C 
HETATM   11  C15 UNL     1       6.321  82.905  32.017  1.00  0.00     0.214 C 
HETATM   12  C16 UNL     1       7.300  81.950  31.486  1.00  0.00     0.150 C 
HETATM   13  C17 UNL     1       8.717  82.067  31.759  1.00  0.00     0.069 C 
HETATM   14  C18 UNL     1       9.221  83.060  32.754  1.00  0.00     0.216 C 
BRANCH   9  15
HETATM   15  N6  UNL     1       7.935  84.336  30.083  1.00  0.00    -0.072 N 
ATOM     16  H63 UNL     1       8.879  84.069  29.807  1.00  0.00     0.274 HD
ATOM     17  H62 UNL     1       7.469  83.434  29.981  1.00  0.00     0.274 HD
ATOM     18  H61 UNL     1       7.547  85.019  29.433  1.00  0.00     0.274 HD
ENDBRANCH   9  15
BRANCH  11  19
HETATM   19  N7  UNL     1       5.717  82.437  33.282  1.00  0.00    -0.072 N 
ATOM     20  H73 UNL     1       5.929  81.460  33.486  1.00  0.00     0.274 HD
ATOM     21  H72 UNL     1       6.157  82.845  34.107  1.00  0.00     0.274 HD
ATOM     22  H71 UNL     1       4.716  82.623  33.233  1.00  0.00     0.274 HD
ENDBRANCH  11  19
BRANCH  12  23
HETATM   23  O4  UNL     1       6.852  80.662  31.901  1.00  0.00    -0.393 OA
ATOM     24  H4  UNL     1       7.449  80.040  31.502  1.00  0.00     0.210 HD
ENDBRANCH  12  23
BRANCH  14  25
HETATM   25  N8  UNL     1       8.710  82.913  34.081  1.00  0.00    -0.072 N 
ATOM     26  H83 UNL     1       8.009  82.173  34.109  1.00  0.00     0.274 HD
ATOM     27  H82 UNL     1       9.420  82.507  34.690  1.00  0.00     0.274 HD
ATOM     28  H81 UNL     1       8.337  83.768  34.494  1.00  0.00     0.274 HD
ENDBRANCH  14  25
ENDBRANCH   7   8
ENDBRANCH   5   7
BRANCH   4  29
HETATM   29  N5  UNL     1       8.851  88.446  32.445  1.00  0.00    -0.072 N 
ATOM     30  H53 UNL     1       9.310  88.585  31.545  1.00  0.00     0.274 HD
ATOM     31  H52 UNL     1       8.049  87.916  32.104  1.00  0.00     0.274 HD
ATOM     32  H51 UNL     1       8.588  89.321  32.898  1.00  0.00     0.274 HD
ENDBRANCH   4  29
BRANCH   6  33
HETATM   33  O5  UNL     1      12.394  86.733  31.932  1.00  0.00    -0.390 OA
ATOM     34  H5  UNL     1      12.145  86.257  31.149  1.00  0.00     0.210 HD
ENDBRANCH   6  33
BRANCH   1  35
HETATM   35  O2  UNL     1      12.301  85.656  35.179  1.00  0.00    -0.349 OA
BRANCH  35  36
HETATM   36  C6  UNL     1      12.296  84.426  34.574  1.00  0.00     0.283 C 
HETATM   37  C4  UNL     1      13.724  83.923  34.516  1.00  0.00     0.141 C 
HETATM   38  C3  UNL     1      13.813  83.048  35.749  1.00  0.00     0.063 C 
HETATM   39  C2  UNL     1      12.415  82.950  36.245  1.00  0.00     0.143 C 
HETATM   40  O6  UNL     1      11.557  83.479  35.281  1.00  0.00    -0.353 OA
BRANCH  37  41
HETATM   41  N3  UNL     1      13.948  83.200  33.296  1.00  0.00    -0.359 N 
ATOM     42  H3  UNL     1      14.873  83.209  32.867  1.00  0.00     0.162 HD
BRANCH  41  43
HETATM   43  C5  UNL     1      12.902  82.479  32.688  1.00  0.00     0.349 C 
HETATM   44  O1  UNL     1      12.464  82.759  31.543  1.00  0.00    -0.284 OA
ENDBRANCH  41  43
ENDBRANCH  37  41
BRANCH  39  45
HETATM   45  C1  UNL     1      12.054  81.520  36.517  1.00  0.00     0.166 C 
BRANCH  45  46
HETATM   46  N2  UNL     1      10.929  81.125  35.714  1.00  0.00    -0.146 NA
BRANCH  46  47
HETATM   47  N1  UNL     1      11.318  80.221  34.696  1.00  0.00    -0.348 N 
ATOM     48  H12 UNL     1      10.947  80.250  33.746  1.00  0.00     0.172 HD
ATOM     49  H11 UNL     1      12.006  79.551  35.038  1.00  0.00     0.172 HD
ENDBRANCH  46  47
ENDBRANCH  45  46
ENDBRANCH  39  45
ENDBRANCH  35  36
ENDBRANCH   1  35
BRANCH   2  50
HETATM   50  N4  UNL     1      12.445  88.728  35.549  1.00  0.00    -0.072 N 
ATOM     51  H43 UNL     1      13.235  88.936  34.939  1.00  0.00     0.274 HD
ATOM     52  H42 UNL     1      12.073  89.673  35.637  1.00  0.00     0.274 HD
ATOM     53  H41 UNL     1      12.744  88.348  36.447  1.00  0.00     0.274 HD
ENDBRANCH   2  50
TORSDOF 16
ENDMDL
MODEL 4
REMARK VINA RESULT: -7.048108034      1.966      6.743
REMARK  16 active torsions:
REMARK  status: ('A' for Active; 'I' for Inactive)
REMARK    1  A    between atoms: N1_1  and  N2_4 
REMARK    2  A    between atoms: N2_4  and  C1_5 
REMARK    3  A    between atoms: C1_5  and  C2_6 
REMARK    4  A    between atoms: C4_8  and  N3_9 
REMARK    5  A    between atoms: N3_9  and  C5_11 
REMARK    6  A    between atoms: C6_13  and  O2_14 
REMARK    7  A    between atoms: O2_14  and  C7_15 
REMARK    8  A    between atoms: C8_16  and  N4_17 
REMARK    9  A    between atoms: C10_22  and  N5_23 
REMARK   10  A    between atoms: C11_27  and  O3_28 
REMARK   11  A    between atoms: O3_28  and  C12_29 
REMARK   12  A    between atoms: C13_30  and  N6_31 
REMARK   13  A    between atoms: C15_36  and  N7_37 
REMARK   14  A    between atoms: C16_41  and  O4_42 
REMARK   15  A    between atoms: C18_45  and  N8_46 
REMARK   16  A    between atoms: C19_50  and  O5_51 
ROOT
HETATM    1  C7  UNL     1      11.966  82.372  34.221  1.00  0.00     0.186 C 
HETATM    2  C8  UNL     1      11.573  81.629  35.437  1.00  0.00     0.217 C 
HETATM    3  C9  UNL     1      12.721  81.653  36.427  1.00  0.00     0.071 C 
HETATM    4  C10 UNL     1      12.819  83.100  36.870  1.00  0.00     0.217 C 
HETATM    5  C11 UNL     1      13.103  84.033  35.752  1.00  0.00     0.183 C 
HETATM    6  C19 UNL     1      12.941  83.473  34.381  1.00  0.00     0.180 C 
ENDROOT
BRANCH   5   7
HETATM    7  O3  UNL     1      12.306  85.165  35.917  1.00  0.00    -0.372 OA
BRANCH   7   8
HETATM    8  C12 UNL     1      11.745  85.626  34.749  1.00  0.00     0.182 C 
HETATM    9  C13 UNL     1      12.779  86.249  33.847  1.00  0.00     0.216 C 
HETATM   10  C14 UNL     1      13.074  87.644  34.258  1.00  0.00     0.070 C 
HETATM   11  C15 UNL     1      12.177  88.690  33.742  1.00  0.00     0.214 C 
HETATM   12  C16 UNL     1      10.854  88.314  33.232  1.00  0.00     0.150 C 
HETATM   13  C17 UNL     1      10.103  87.204  33.780  1.00  0.00     0.069 C 
HETATM   14  C18 UNL     1      10.564  86.511  35.021  1.00  0.00     0.216 C 
BRANCH   9  15
HETATM   15  N6  UNL     1      12.469  86.116  32.445  1.00  0.00    -0.072 N 
ATOM     16  H63 UNL     1      12.256  85.146  32.212  1.00  0.00     0.274 HD
ATOM     17  H62 UNL     1      11.567  86.542  32.231  1.00  0.00     0.274 HD
ATOM     18  H61 UNL     1      13.198  86.483  31.834  1.00  0.00     0.274 HD
ENDBRANCH   9  15
BRANCH  11  19
HETATM   19  N7  UNL     1      12.099  89.756  34.762  1.00  0.00    -0.072 N 
ATOM     20  H73 UNL     1      12.876  89.732  35.421  1.00  0.00     0.274 HD
ATOM     21  H72 UNL     1      12.275  90.685  34.379  1.00  0.00     0.274 HD
ATOM     22  H71 UNL     1      11.190  89.681  35.218  1.00  0.00     0.274 HD
ENDBRANCH  11  19
BRANCH  12  23
HETATM   23  O4  UNL     1      10.059  89.495  33.307  1.00  0.00    -0.393 OA
ATOM     24  H4  UNL     1       9.847  89.722  32.409  1.00  0.00     0.210 HD
ENDBRANCH  12  23
BRANCH  14  25
HETATM   25  N8  UNL     1      10.688  87.342  36.178  1.00  0.00    -0.072 N 
ATOM     26  H83 UNL     1      11.538  87.904  36.120  1.00  0.00     0.274 HD
ATOM     27  H82 UNL     1       9.986  88.081  36.158  1.00  0.00     0.274 HD
ATOM     28  H81 UNL     1      10.654  86.845  37.068  1.00  0.00     0.274 HD
ENDBRANCH  14  25
ENDBRANCH   7   8
ENDBRANCH   5   7
BRANCH   4  29
HETATM   29  N5  UNL     1      13.848  83.173  37.890  1.00  0.00    -0.072 N 
ATOM     30  H53 UNL     1      13.469  83.195  38.836  1.00  0.00     0.274 HD
ATOM     31  H52 UNL     1      14.381  82.307  37.981  1.00  0.00     0.274 HD
ATOM     32  H51 UNL     1      14.433  83.980  37.676  1.00  0.00     0.274 HD
ENDBRANCH   4  29
BRANCH   6  33
HETATM   33  O5  UNL     1      14.196  82.988  33.941  1.00  0.00    -0.390 OA
ATOM     34  H5  UNL     1      14.644  82.635  34.700  1.00  0.00     0.210 HD
ENDBRANCH   6  33
BRANCH   1  35
HETATM   35  O2  UNL     1      10.785  82.933  33.680  1.00  0.00    -0.349 OA
BRANCH  35  36
HETATM   36  C6  UNL     1      10.518  82.497  32.408  1.00  0.00     0.283 C 
HETATM   37  C4  UNL     1       9.024  82.276  32.289  1.00  0.00     0.141 C 
HETATM   38  C3  UNL     1       8.548  83.580  31.683  1.00  0.00     0.063 C 
HETATM   39  C2  UNL     1       9.794  84.301  31.310  1.00  0.00     0.143 C 
HETATM   40  O6  UNL     1      10.873  83.427  31.432  1.00  0.00    -0.353 OA
BRANCH  37  41
HETATM   41  N3  UNL     1       8.753  81.138  31.457  1.00  0.00    -0.359 N 
ATOM     42  H3  UNL     1       9.524  80.650  31.002  1.00  0.00     0.162 HD
BRANCH  41  43
HETATM   43  C5  UNL     1       7.432  80.689  31.266  1.00  0.00     0.349 C 
HETATM   44  O1  UNL     1       7.003  80.305  30.148  1.00  0.00    -0.284 OA
ENDBRANCH  41  43
ENDBRANCH  37  41
BRANCH  39  45
HETATM   45  C1  UNL     1       9.705  84.806  29.901  1.00  0.00     0.166 C 
BRANCH  45  46
HETATM   46  N2  UNL     1      10.212  86.148  29.816  1.00  0.00    -0.146 NA
BRANCH  46  47
HETATM   47  N1  UNL     1       9.244  87.090  30.241  1.00  0.00    -0.348 N 
ATOM     48  H12 UNL     1       9.372  87.707  31.043  1.00  0.00     0.172 HD
ATOM     49  H11 UNL     1       8.417  87.065  29.644  1.00  0.00     0.172 HD
ENDBRANCH  46  47
ENDBRANCH  45  46
ENDBRANCH  39  45
ENDBRANCH  35  36
ENDBRANCH   1  35
BRANCH   2  50
HETATM   50  N4  UNL     1      11.340  80.240  35.106  1.00  0.00    -0.072 N 
ATOM     51  H43 UNL     1      10.479  79.886  35.521  1.00  0.00     0.274 HD
ATOM     52  H42 UNL     1      11.093  80.115  34.124  1.00  0.00     0.274 HD
ATOM     53  H41 UNL     1      12.152  79.683  35.372  1.00  0.00     0.274 HD
ENDBRANCH   2  50
TORSDOF 16
ENDMDL
MODEL 5
REMARK VINA RESULT: -6.785033590      2.287      6.531
REMARK  16 active torsions:
REMARK  status: ('A' for Active; 'I' for Inactive)
REMARK    1  A    between atoms: N1_1  and  N2_4 
REMARK    2  A    between atoms: N2_4  and  C1_5 
REMARK    3  A    between atoms: C1_5  and  C2_6 
REMARK    4  A    between atoms: C4_8  and  N3_9 
REMARK    5  A    between atoms: N3_9  and  C5_11 
REMARK    6  A    between atoms: C6_13  and  O2_14 
REMARK    7  A    between atoms: O2_14  and  C7_15 
REMARK    8  A    between atoms: C8_16  and  N4_17 
REMARK    9  A    between atoms: C10_22  and  N5_23 
REMARK   10  A    between atoms: C11_27  and  O3_28 
REMARK   11  A    between atoms: O3_28  and  C12_29 
REMARK   12  A    between atoms: C13_30  and  N6_31 
REMARK   13  A    between atoms: C15_36  and  N7_37 
REMARK   14  A    between atoms: C16_41  and  O4_42 
REMARK   15  A    between atoms: C18_45  and  N8_46 
REMARK   16  A    between atoms: C19_50  and  O5_51 
ROOT
HETATM    1  C7  UNL     1      12.040  82.027  33.277  1.00  0.00     0.186 C 
HETATM    2  C8  UNL     1      11.679  81.138  34.402  1.00  0.00     0.217 C 
HETATM    3  C9  UNL     1      12.602  81.416  35.571  1.00  0.00     0.071 C 
HETATM    4  C10 UNL     1      12.223  82.808  36.040  1.00  0.00     0.217 C 
HETATM    5  C11 UNL     1      12.414  83.845  34.995  1.00  0.00     0.183 C 
HETATM    6  C19 UNL     1      12.634  83.340  33.612  1.00  0.00     0.180 C 
ENDROOT
BRANCH   5   7
HETATM    7  O3  UNL     1      11.319  84.707  35.035  1.00  0.00    -0.372 OA
BRANCH   7   8
HETATM    8  C12 UNL     1      11.572  85.952  34.507  1.00  0.00     0.182 C 
HETATM    9  C13 UNL     1      12.108  86.898  35.550  1.00  0.00     0.216 C 
HETATM   10  C14 UNL     1      11.009  87.467  36.369  1.00  0.00     0.070 C 
HETATM   11  C15 UNL     1      10.326  88.652  35.828  1.00  0.00     0.214 C 
HETATM   12  C16 UNL     1      10.441  88.957  34.397  1.00  0.00     0.150 C 
HETATM   13  C17 UNL     1      10.562  87.919  33.395  1.00  0.00     0.069 C 
HETATM   14  C18 UNL     1      10.382  86.482  33.761  1.00  0.00     0.216 C 
BRANCH   9  15
HETATM   15  N6  UNL     1      13.001  87.895  35.013  1.00  0.00    -0.072 N 
ATOM     16  H63 UNL     1      13.968  87.683  35.256  1.00  0.00     0.274 HD
ATOM     17  H62 UNL     1      13.061  87.818  33.998  1.00  0.00     0.274 HD
ATOM     18  H61 UNL     1      12.758  88.846  35.290  1.00  0.00     0.274 HD
ENDBRANCH   9  15
BRANCH  11  19
HETATM   19  N7  UNL     1       8.918  88.600  36.275  1.00  0.00    -0.072 N 
ATOM     20  H73 UNL     1       8.319  89.258  35.776  1.00  0.00     0.274 HD
ATOM     21  H72 UNL     1       8.443  87.743  35.992  1.00  0.00     0.274 HD
ATOM     22  H71 UNL     1       8.910  88.743  37.284  1.00  0.00     0.274 HD
ENDBRANCH  11  19
BRANCH  12  23
HETATM   23  O4  UNL     1       9.318  89.777  34.084  1.00  0.00    -0.393 OA
ATOM     24  H4  UNL     1       9.676  90.571  33.704  1.00  0.00     0.210 HD
ENDBRANCH  12  23
BRANCH  14  25
HETATM   25  N8  UNL     1       9.115  86.148  34.334  1.00  0.00    -0.072 N 
ATOM     26  H83 UNL     1       8.384  86.741  33.941  1.00  0.00     0.274 HD
ATOM     27  H82 UNL     1       8.805  85.237  33.996  1.00  0.00     0.274 HD
ATOM     28  H81 UNL     1       9.084  86.176  35.353  1.00  0.00     0.274 HD
ENDBRANCH  14  25
ENDBRANCH   7   8
ENDBRANCH   5   7
BRANCH   4  29
HETATM   29  N5  UNL     1      13.015  83.099  37.219  1.00  0.00    -0.072 N 
ATOM     30  H53 UNL     1      12.486  83.006  38.086  1.00  0.00     0.274 HD
ATOM     31  H52 UNL     1      13.717  82.384  37.415  1.00  0.00     0.274 HD
ATOM     32  H51 UNL     1      13.417  84.028  37.096  1.00  0.00     0.274 HD
ENDBRANCH   4  29
BRANCH   6  33
HETATM   33  O5  UNL     1      14.028  83.239  33.385  1.00  0.00    -0.390 OA
ATOM     34  H5  UNL     1      14.276  83.968  32.828  1.00  0.00     0.210 HD
ENDBRANCH   6  33
BRANCH   1  35
HETATM   35  O2  UNL     1      10.852  82.277  32.550  1.00  0.00    -0.349 OA
BRANCH  35  36
HETATM   36  C6  UNL     1       9.734  81.769  33.159  1.00  0.00     0.283 C 
HETATM   37  C4  UNL     1       8.688  82.864  33.210  1.00  0.00     0.141 C 
HETATM   38  C3  UNL     1       7.853  82.578  31.979  1.00  0.00     0.063 C 
HETATM   39  C2  UNL     1       8.339  81.259  31.492  1.00  0.00     0.143 C 
HETATM   40  O6  UNL     1       9.174  80.701  32.459  1.00  0.00    -0.353 OA
BRANCH  37  41
HETATM   41  N3  UNL     1       7.937  82.780  34.430  1.00  0.00    -0.359 N 
ATOM     42  H3  UNL     1       8.428  82.721  35.322  1.00  0.00     0.162 HD
BRANCH  41  43
HETATM   43  C5  UNL     1       6.528  82.778  34.406  1.00  0.00     0.349 C 
HETATM   44  O1  UNL     1       5.836  82.348  35.364  1.00  0.00    -0.284 OA
ENDBRANCH  41  43
ENDBRANCH  37  41
BRANCH  39  45
HETATM   45  C1  UNL     1       7.184  80.341  31.226  1.00  0.00     0.166 C 
BRANCH  45  46
HETATM   46  N2  UNL     1       7.657  79.039  30.841  1.00  0.00    -0.146 NA
BRANCH  46  47
HETATM   47  N1  UNL     1       6.757  78.025  31.250  1.00  0.00    -0.348 N 
ATOM     48  H12 UNL     1       6.942  77.386  32.023  1.00  0.00     0.172 HD
ATOM     49  H11 UNL     1       5.915  78.023  30.675  1.00  0.00     0.172 HD
ENDBRANCH  46  47
ENDBRANCH  45  46
ENDBRANCH  39  45
ENDBRANCH  35  36
ENDBRANCH   1  35
BRANCH   2  50
HETATM   50  N4  UNL     1      11.895  79.759  34.022  1.00  0.00    -0.072 N 
ATOM     51  H43 UNL     1      12.846  79.597  33.691  1.00  0.00     0.274 HD
ATOM     52  H42 UNL     1      11.912  79.136  34.829  1.00  0.00     0.274 HD
ATOM     53  H41 UNL     1      11.196  79.478  33.334  1.00  0.00     0.274 HD
ENDBRANCH   2  50
TORSDOF 16
ENDMDL
