MODEL 1
REMARK VINA RESULT: -7.676263065      0.000      0.000
REMARK  13 active torsions:
REMARK  status: ('A' for Active; 'I' for Inactive)
REMARK    1  A    between atoms: C7_21  and  C8_22 
REMARK       I    between atoms: C8_22  and  N6_24 
REMARK    2  A    between atoms: N6_24  and  C9_26 
REMARK    3  A    between atoms: C9_26  and  C10_27 
REMARK    4  A    between atoms: C10_27  and  N7_28 
REMARK    5  A    between atoms: C11_30  and  C12_31 
REMARK    6  A    between atoms: C11_30  and  C14_40 
REMARK    7  A    between atoms: C12_31  and  C13_33 
REMARK    8  A    between atoms: C13_33  and  N8_34 
REMARK    9  A    between atoms: C13_33  and  O6_38 
REMARK   10  A    between atoms: C14_40  and  O7_41 
REMARK   11  A    between atoms: C14_40  and  C15_43 
REMARK   12  A    between atoms: C15_43  and  C16_45 
REMARK   13  A    between atoms: C16_45  and  O9_46 
ROOT
HETATM    1  C8  UNL     1      10.759  87.587  33.576  1.00  0.00     0.253 C 
HETATM    2  O4  UNL     1      11.367  88.668  33.250  1.00  0.00    -0.268 OA
HETATM    3  N6  UNL     1      11.455  86.654  34.400  1.00  0.00    -0.355 N 
ATOM      4  H6  UNL     1      10.981  85.787  34.654  1.00  0.00     0.162 HD
ENDROOT
BRANCH   1   5
HETATM    5  C7  UNL     1       9.423  87.423  33.078  1.00  0.00     0.069 A 
HETATM    6  C6  UNL     1       9.182  86.697  31.907  1.00  0.00     0.093 A 
HETATM    7  C3  UNL     1       7.897  86.551  31.381  1.00  0.00     0.128 A 
HETATM    8  C5  UNL     1      10.206  86.095  31.245  1.00  0.00     0.264 A 
HETATM    9  N3  UNL     1       6.873  87.125  32.024  1.00  0.00    -0.319 N 
HETATM   10  N4  UNL     1       7.677  85.842  30.258  1.00  0.00    -0.293 N 
HETATM   11  C2  UNL     1       7.047  87.832  33.154  1.00  0.00     0.187 A 
ATOM     12  H3  UNL     1       5.932  87.023  31.645  1.00  0.00     0.169 HD
HETATM   13  O1  UNL     1       6.185  88.459  33.919  1.00  0.00    -0.217 OA
HETATM   14  C17 UNL     1       8.335  87.992  33.701  1.00  0.00     0.079 A 
HETATM   15  N2  UNL     1       6.794  89.006  34.906  1.00  0.00    -0.242 N 
HETATM   16  C1  UNL     1       8.149  88.744  34.819  1.00  0.00     0.135 A 
ATOM     17  H2  UNL     1       6.347  89.551  35.643  1.00  0.00     0.196 HD
HETATM   18  N1  UNL     1       9.013  89.143  35.650  1.00  0.00    -0.383 N 
ATOM     19  H12 UNL     1       8.874  89.706  36.489  1.00  0.00     0.157 HD
ATOM     20  H11 UNL     1      10.013  88.950  35.587  1.00  0.00     0.157 HD
HETATM   21  C4  UNL     1       8.698  85.253  29.611  1.00  0.00     0.328 A 
ATOM     22  H4  UNL     1       6.728  85.751  29.895  1.00  0.00     0.172 HD
HETATM   23  O2  UNL     1       8.482  84.589  28.555  1.00  0.00    -0.247 OA
HETATM   24  N5  UNL     1       9.936  85.385  30.107  1.00  0.00    -0.275 N 
ATOM     25  H5  UNL     1      10.709  84.937  29.615  1.00  0.00     0.173 HD
HETATM   26  O3  UNL     1      11.400  86.169  31.647  1.00  0.00    -0.267 OA
ENDBRANCH   1   5
BRANCH   3  27
HETATM   27  C9  UNL     1      12.768  86.866  34.885  1.00  0.00     0.142 C 
BRANCH  27  28
HETATM   28  C10 UNL     1      13.832  85.903  34.491  1.00  0.00     0.139 C 
BRANCH  28  29
HETATM   29  N7  UNL     1      13.325  84.762  33.796  1.00  0.00    -0.386 N 
HETATM   30  C11 UNL     1      13.292  83.546  34.186  1.00  0.00     0.092 C 
ATOM     31  H7  UNL     1      12.940  84.941  32.869  1.00  0.00     0.159 HD
BRANCH  30  32
HETATM   32  C12 UNL     1      13.801  83.115  35.479  1.00  0.00     0.230 C 
HETATM   33  O5  UNL     1      15.060  83.012  35.690  1.00  0.00    -0.286 OA
BRANCH  32  34
HETATM   34  C13 UNL     1      12.951  82.767  36.636  1.00  0.00     0.393 C 
BRANCH  34  35
HETATM   35  N8  UNL     1      11.730  83.600  36.597  1.00  0.00    -0.046 N 
ATOM     36  H83 UNL     1      11.858  84.455  36.055  1.00  0.00     0.277 HD
ATOM     37  H82 UNL     1      10.992  83.182  36.030  1.00  0.00     0.277 HD
ATOM     38  H81 UNL     1      11.429  83.786  37.553  1.00  0.00     0.277 HD
ENDBRANCH  34  35
BRANCH  34  39
HETATM   39  O6  UNL     1      12.446  81.453  36.509  1.00  0.00    -0.364 OA
ATOM     40  H6  UNL     1      12.927  80.852  37.066  1.00  0.00     0.212 HD
ENDBRANCH  34  39
ENDBRANCH  32  34
ENDBRANCH  30  32
BRANCH  30  41
HETATM   41  C14 UNL     1      12.667  82.558  33.241  1.00  0.00     0.243 C 
BRANCH  41  42
HETATM   42  O7  UNL     1      13.337  82.724  32.003  1.00  0.00    -0.382 OA
ATOM     43  H7  UNL     1      12.976  83.511  31.612  1.00  0.00     0.211 HD
ENDBRANCH  41  42
BRANCH  41  44
HETATM   44  C15 UNL     1      11.238  82.923  33.023  1.00  0.00     0.184 C 
HETATM   45  O8  UNL     1      10.698  83.768  33.750  1.00  0.00    -0.292 OA
BRANCH  44  46
HETATM   46  C16 UNL     1      10.497  82.261  31.927  1.00  0.00     0.245 C 
BRANCH  46  47
HETATM   47  O9  UNL     1      10.965  82.673  30.668  1.00  0.00    -0.393 OA
ATOM     48  H9  UNL     1      10.250  82.934  30.100  1.00  0.00     0.209 HD
ENDBRANCH  46  47
ENDBRANCH  44  46
ENDBRANCH  41  44
ENDBRANCH  30  41
ENDBRANCH  28  29
ENDBRANCH  27  28
ENDBRANCH   3  27
TORSDOF 13
ENDMDL
MODEL 2
REMARK VINA RESULT: -7.587069273      2.403      7.144
REMARK  13 active torsions:
REMARK  status: ('A' for Active; 'I' for Inactive)
REMARK    1  A    between atoms: C7_21  and  C8_22 
REMARK       I    between atoms: C8_22  and  N6_24 
REMARK    2  A    between atoms: N6_24  and  C9_26 
REMARK    3  A    between atoms: C9_26  and  C10_27 
REMARK    4  A    between atoms: C10_27  and  N7_28 
REMARK    5  A    between atoms: C11_30  and  C12_31 
REMARK    6  A    between atoms: C11_30  and  C14_40 
REMARK    7  A    between atoms: C12_31  and  C13_33 
REMARK    8  A    between atoms: C13_33  and  N8_34 
REMARK    9  A    between atoms: C13_33  and  O6_38 
REMARK   10  A    between atoms: C14_40  and  O7_41 
REMARK   11  A    between atoms: C14_40  and  C15_43 
REMARK   12  A    between atoms: C15_43  and  C16_45 
REMARK   13  A    between atoms: C16_45  and  O9_46 
ROOT
HETATM    1  C8  UNL     1      10.102  83.523  34.360  1.00  0.00     0.253 C 
HETATM    2  O4  UNL     1       9.373  83.529  35.414  1.00  0.00    -0.268 OA
HETATM    3  N6  UNL     1       9.512  83.069  33.143  1.00  0.00    -0.355 N 
ATOM      4  H6  UNL     1      10.090  83.052  32.303  1.00  0.00     0.162 HD
ENDROOT
BRANCH   1   5
HETATM    5  C7  UNL     1      11.453  83.984  34.507  1.00  0.00     0.069 A 
HETATM    6  C6  UNL     1      11.804  85.291  34.154  1.00  0.00     0.093 A 
HETATM    7  C3  UNL     1      13.117  85.755  34.253  1.00  0.00     0.128 A 
HETATM    8  C5  UNL     1      10.861  86.163  33.708  1.00  0.00     0.264 A 
HETATM    9  N3  UNL     1      14.060  84.916  34.701  1.00  0.00    -0.319 N 
HETATM   10  N4  UNL     1      13.442  87.018  33.918  1.00  0.00    -0.293 N 
HETATM   11  C2  UNL     1      13.779  83.651  35.056  1.00  0.00     0.187 A 
ATOM     12  H3  UNL     1      15.021  85.249  34.775  1.00  0.00     0.169 HD
HETATM   13  O1  UNL     1      14.550  82.692  35.513  1.00  0.00    -0.217 OA
HETATM   14  C17 UNL     1      12.461  83.163  34.963  1.00  0.00     0.079 A 
HETATM   15  N2  UNL     1      13.855  81.636  35.723  1.00  0.00    -0.242 N 
HETATM   16  C1  UNL     1      12.533  81.875  35.395  1.00  0.00     0.135 A 
ATOM     17  H2  UNL     1      14.221  80.752  36.079  1.00  0.00     0.196 HD
HETATM   18  N1  UNL     1      11.601  81.028  35.500  1.00  0.00    -0.383 N 
ATOM     19  H12 UNL     1      11.655  80.063  35.823  1.00  0.00     0.157 HD
ATOM     20  H11 UNL     1      10.626  81.205  35.258  1.00  0.00     0.157 HD
HETATM   21  C4  UNL     1      12.500  87.870  33.477  1.00  0.00     0.328 A 
ATOM     22  H4  UNL     1      14.409  87.330  34.000  1.00  0.00     0.172 HD
HETATM   23  O2  UNL     1      12.813  89.056  33.164  1.00  0.00    -0.247 OA
HETATM   24  N5  UNL     1      11.235  87.437  33.379  1.00  0.00    -0.275 N 
ATOM     25  H5  UNL     1      10.522  88.085  33.044  1.00  0.00     0.173 HD
HETATM   26  O3  UNL     1       9.648  85.835  33.588  1.00  0.00    -0.267 OA
ENDBRANCH   1   5
BRANCH   3  27
HETATM   27  C9  UNL     1       8.166  82.641  33.039  1.00  0.00     0.142 C 
BRANCH  27  28
HETATM   28  C10 UNL     1       7.165  83.584  32.471  1.00  0.00     0.139 C 
BRANCH  28  29
HETATM   29  N7  UNL     1       7.756  84.623  31.688  1.00  0.00    -0.386 N 
HETATM   30  C11 UNL     1       7.337  85.123  30.590  1.00  0.00     0.092 C 
ATOM     31  H7  UNL     1       8.624  85.015  32.052  1.00  0.00     0.159 HD
BRANCH  30  32
HETATM   32  C12 UNL     1       6.119  84.680  29.930  1.00  0.00     0.230 C 
HETATM   33  O5  UNL     1       5.017  85.314  30.088  1.00  0.00    -0.286 OA
BRANCH  32  34
HETATM   34  C13 UNL     1       6.032  83.503  29.042  1.00  0.00     0.393 C 
BRANCH  34  35
HETATM   35  N8  UNL     1       4.648  83.391  28.535  1.00  0.00    -0.046 N 
ATOM     36  H83 UNL     1       4.068  82.782  29.113  1.00  0.00     0.277 HD
ATOM     37  H82 UNL     1       4.116  84.252  28.660  1.00  0.00     0.277 HD
ATOM     38  H81 UNL     1       4.679  83.091  27.561  1.00  0.00     0.277 HD
ENDBRANCH  34  35
BRANCH  34  39
HETATM   39  O6  UNL     1       6.788  83.707  27.865  1.00  0.00    -0.364 OA
ATOM     40  H6  UNL     1       6.295  83.439  27.098  1.00  0.00     0.212 HD
ENDBRANCH  34  39
ENDBRANCH  32  34
ENDBRANCH  30  32
BRANCH  30  41
HETATM   41  C14 UNL     1       8.163  86.236  30.005  1.00  0.00     0.243 C 
BRANCH  41  42
HETATM   42  O7  UNL     1       7.691  86.419  28.681  1.00  0.00    -0.382 OA
ATOM     43  H7  UNL     1       6.744  86.358  28.729  1.00  0.00     0.211 HD
ENDBRANCH  41  42
BRANCH  41  44
HETATM   44  C15 UNL     1       9.583  85.795  29.909  1.00  0.00     0.184 C 
HETATM   45  O8  UNL     1      10.484  86.506  30.376  1.00  0.00    -0.292 OA
BRANCH  44  46
HETATM   46  C16 UNL     1       9.883  84.503  29.255  1.00  0.00     0.245 C 
BRANCH  46  47
HETATM   47  O9  UNL     1      10.298  83.538  30.188  1.00  0.00    -0.393 OA
ATOM     48  H9  UNL     1       9.967  83.731  31.058  1.00  0.00     0.209 HD
ENDBRANCH  46  47
ENDBRANCH  44  46
ENDBRANCH  41  44
ENDBRANCH  30  41
ENDBRANCH  28  29
ENDBRANCH  27  28
ENDBRANCH   3  27
TORSDOF 13
ENDMDL
MODEL 3
REMARK VINA RESULT: -7.584360357      2.152      7.120
REMARK  13 active torsions:
REMARK  status: ('A' for Active; 'I' for Inactive)
REMARK    1  A    between atoms: C7_21  and  C8_22 
REMARK       I    between atoms: C8_22  and  N6_24 
REMARK    2  A    between atoms: N6_24  and  C9_26 
REMARK    3  A    between atoms: C9_26  and  C10_27 
REMARK    4  A    between atoms: C10_27  and  N7_28 
REMARK    5  A    between atoms: C11_30  and  C12_31 
REMARK    6  A    between atoms: C11_30  and  C14_40 
REMARK    7  A    between atoms: C12_31  and  C13_33 
REMARK    8  A    between atoms: C13_33  and  N8_34 
REMARK    9  A    between atoms: C13_33  and  O6_38 
REMARK   10  A    between atoms: C14_40  and  O7_41 
REMARK   11  A    between atoms: C14_40  and  C15_43 
REMARK   12  A    between atoms: C15_43  and  C16_45 
REMARK   13  A    between atoms: C16_45  and  O9_46 
ROOT
HETATM    1  C8  UNL     1      10.161  84.314  32.015  1.00  0.00     0.253 C 
HETATM    2  O4  UNL     1      10.294  84.227  30.744  1.00  0.00    -0.268 OA
HETATM    3  N6  UNL     1       9.102  85.124  32.521  1.00  0.00    -0.355 N 
ATOM      4  H6  UNL     1       8.997  85.206  33.533  1.00  0.00     0.162 HD
ENDROOT
BRANCH   1   5
HETATM    5  C7  UNL     1      11.098  83.576  32.814  1.00  0.00     0.069 A 
HETATM    6  C6  UNL     1      12.249  84.193  33.316  1.00  0.00     0.093 A 
HETATM    7  C3  UNL     1      13.195  83.491  34.066  1.00  0.00     0.128 A 
HETATM    8  C5  UNL     1      12.477  85.515  33.094  1.00  0.00     0.264 A 
HETATM    9  N3  UNL     1      12.984  82.191  34.306  1.00  0.00    -0.319 N 
HETATM   10  N4  UNL     1      14.294  84.098  34.551  1.00  0.00    -0.293 N 
HETATM   11  C2  UNL     1      11.895  81.548  33.850  1.00  0.00     0.187 A 
ATOM     12  H3  UNL     1      13.671  81.673  34.853  1.00  0.00     0.169 HD
HETATM   13  O1  UNL     1      11.514  80.300  33.979  1.00  0.00    -0.217 OA
HETATM   14  C17 UNL     1      10.929  82.238  33.091  1.00  0.00     0.079 A 
HETATM   15  N2  UNL     1      10.396  80.120  33.378  1.00  0.00    -0.242 N 
HETATM   16  C1  UNL     1       9.981  81.306  32.802  1.00  0.00     0.135 A 
ATOM     17  H2  UNL     1       9.890  79.235  33.331  1.00  0.00     0.196 HD
HETATM   18  N1  UNL     1       8.912  81.451  32.145  1.00  0.00    -0.383 N 
ATOM     19  H12 UNL     1       8.201  80.753  31.928  1.00  0.00     0.157 HD
ATOM     20  H11 UNL     1       8.605  82.327  31.720  1.00  0.00     0.157 HD
HETATM   21  C4  UNL     1      14.509  85.406  34.323  1.00  0.00     0.328 A 
ATOM     22  H4  UNL     1      14.970  83.561  35.095  1.00  0.00     0.172 HD
HETATM   23  O2  UNL     1      15.546  85.968  34.782  1.00  0.00    -0.247 OA
HETATM   24  N5  UNL     1      13.607  86.090  33.606  1.00  0.00    -0.275 N 
ATOM     25  H5  UNL     1      13.772  87.082  33.434  1.00  0.00     0.173 HD
HETATM   26  O3  UNL     1      11.677  86.231  32.430  1.00  0.00    -0.267 OA
ENDBRANCH   1   5
BRANCH   3  27
HETATM   27  C9  UNL     1       8.187  85.820  31.695  1.00  0.00     0.142 C 
BRANCH  27  28
HETATM   28  C10 UNL     1       8.372  87.286  31.512  1.00  0.00     0.139 C 
BRANCH  28  29
HETATM   29  N7  UNL     1       9.331  87.846  32.412  1.00  0.00    -0.386 N 
HETATM   30  C11 UNL     1       9.211  88.876  33.157  1.00  0.00     0.092 C 
ATOM     31  H7  UNL     1      10.226  87.359  32.468  1.00  0.00     0.159 HD
BRANCH  30  32
HETATM   32  C12 UNL     1       8.005  89.688  33.200  1.00  0.00     0.230 C 
HETATM   33  O5  UNL     1       7.909  90.762  32.508  1.00  0.00    -0.286 OA
BRANCH  32  34
HETATM   34  C13 UNL     1       6.812  89.367  34.010  1.00  0.00     0.393 C 
BRANCH  34  35
HETATM   35  N8  UNL     1       5.660  89.170  33.103  1.00  0.00    -0.046 N 
ATOM     36  H83 UNL     1       5.875  88.538  32.332  1.00  0.00     0.277 HD
ATOM     37  H82 UNL     1       4.915  88.622  33.533  1.00  0.00     0.277 HD
ATOM     38  H81 UNL     1       5.337  90.082  32.782  1.00  0.00     0.277 HD
ENDBRANCH  34  35
BRANCH  34  39
HETATM   39  O6  UNL     1       6.952  88.103  34.627  1.00  0.00    -0.364 OA
ATOM     40  H6  UNL     1       6.681  87.409  34.037  1.00  0.00     0.212 HD
ENDBRANCH  34  39
ENDBRANCH  32  34
ENDBRANCH  30  32
BRANCH  30  41
HETATM   41  C14 UNL     1      10.390  89.211  34.028  1.00  0.00     0.243 C 
BRANCH  41  42
HETATM   42  O7  UNL     1      11.527  89.166  33.183  1.00  0.00    -0.382 OA
ATOM     43  H7  UNL     1      12.137  89.808  33.528  1.00  0.00     0.211 HD
ENDBRANCH  41  42
BRANCH  41  44
HETATM   44  C15 UNL     1      10.560  88.144  35.055  1.00  0.00     0.184 C 
HETATM   45  O8  UNL     1       9.778  87.184  35.086  1.00  0.00    -0.292 OA
BRANCH  44  46
HETATM   46  C16 UNL     1      11.676  88.260  36.020  1.00  0.00     0.245 C 
BRANCH  46  47
HETATM   47  O9  UNL     1      12.919  88.298  35.366  1.00  0.00    -0.393 OA
ATOM     48  H9  UNL     1      13.519  88.896  35.795  1.00  0.00     0.209 HD
ENDBRANCH  46  47
ENDBRANCH  44  46
ENDBRANCH  41  44
ENDBRANCH  30  41
ENDBRANCH  28  29
ENDBRANCH  27  28
ENDBRANCH   3  27
TORSDOF 13
ENDMDL
MODEL 4
REMARK VINA RESULT: -7.522592744      2.514      7.221
REMARK  13 active torsions:
REMARK  status: ('A' for Active; 'I' for Inactive)
REMARK    1  A    between atoms: C7_21  and  C8_22 
REMARK       I    between atoms: C8_22  and  N6_24 
REMARK    2  A    between atoms: N6_24  and  C9_26 
REMARK    3  A    between atoms: C9_26  and  C10_27 
REMARK    4  A    between atoms: C10_27  and  N7_28 
REMARK    5  A    between atoms: C11_30  and  C12_31 
REMARK    6  A    between atoms: C11_30  and  C14_40 
REMARK    7  A    between atoms: C12_31  and  C13_33 
REMARK    8  A    between atoms: C13_33  and  N8_34 
REMARK    9  A    between atoms: C13_33  and  O6_38 
REMARK   10  A    between atoms: C14_40  and  O7_41 
REMARK   11  A    between atoms: C14_40  and  C15_43 
REMARK   12  A    between atoms: C15_43  and  C16_45 
REMARK   13  A    between atoms: C16_45  and  O9_46 
ROOT
HETATM    1  C8  UNL     1      10.188  83.193  34.252  1.00  0.00     0.253 C 
HETATM    2  O4  UNL     1       9.362  83.158  35.231  1.00  0.00    -0.268 OA
HETATM    3  N6  UNL     1       9.757  82.668  32.997  1.00  0.00    -0.355 N 
ATOM      4  H6  UNL     1      10.413  82.683  32.217  1.00  0.00     0.162 HD
ENDROOT
BRANCH   1   5
HETATM    5  C7  UNL     1      11.476  83.768  34.514  1.00  0.00     0.069 A 
HETATM    6  C6  UNL     1      11.749  85.096  34.171  1.00  0.00     0.093 A 
HETATM    7  C3  UNL     1      13.004  85.669  34.382  1.00  0.00     0.128 A 
HETATM    8  C5  UNL     1      10.783  85.880  33.624  1.00  0.00     0.264 A 
HETATM    9  N3  UNL     1      13.967  84.918  34.931  1.00  0.00    -0.319 N 
HETATM   10  N4  UNL     1      13.253  86.952  34.056  1.00  0.00    -0.293 N 
HETATM   11  C2  UNL     1      13.760  83.637  35.282  1.00  0.00     0.187 A 
ATOM     12  H3  UNL     1      14.887  85.331  35.087  1.00  0.00     0.169 HD
HETATM   13  O1  UNL     1      14.562  82.752  35.825  1.00  0.00    -0.217 OA
HETATM   14  C17 UNL     1      12.501  83.039  35.076  1.00  0.00     0.079 A 
HETATM   15  N2  UNL     1      13.940  81.643  35.989  1.00  0.00    -0.242 N 
HETATM   16  C1  UNL     1      12.640  81.767  35.536  1.00  0.00     0.135 A 
ATOM     17  H2  UNL     1      14.343  80.798  36.393  1.00  0.00     0.196 HD
HETATM   18  N1  UNL     1      11.776  80.846  35.571  1.00  0.00    -0.383 N 
ATOM     19  H12 UNL     1      11.879  79.892  35.916  1.00  0.00     0.157 HD
ATOM     20  H11 UNL     1      10.816  80.937  35.237  1.00  0.00     0.157 HD
HETATM   21  C4  UNL     1      12.288  87.717  33.514  1.00  0.00     0.328 A 
ATOM     22  H4  UNL     1      14.179  87.346  34.220  1.00  0.00     0.172 HD
HETATM   23  O2  UNL     1      12.530  88.922  33.209  1.00  0.00    -0.247 OA
HETATM   24  N5  UNL     1      11.079  87.178  33.308  1.00  0.00    -0.275 N 
ATOM     25  H5  UNL     1      10.349  87.760  32.897  1.00  0.00     0.173 HD
HETATM   26  O3  UNL     1       9.618  85.450  33.400  1.00  0.00    -0.267 OA
ENDBRANCH   1   5
BRANCH   3  27
HETATM   27  C9  UNL     1       8.467  82.128  32.778  1.00  0.00     0.142 C 
BRANCH  27  28
HETATM   28  C10 UNL     1       7.359  83.059  32.432  1.00  0.00     0.139 C 
BRANCH  28  29
HETATM   29  N7  UNL     1       7.621  83.829  31.257  1.00  0.00    -0.386 N 
HETATM   30  C11 UNL     1       6.877  83.985  30.230  1.00  0.00     0.092 C 
ATOM     31  H7  UNL     1       8.516  84.316  31.236  1.00  0.00     0.159 HD
BRANCH  30  32
HETATM   32  C12 UNL     1       5.571  83.361  30.095  1.00  0.00     0.230 C 
HETATM   33  O5  UNL     1       4.505  83.980  30.445  1.00  0.00    -0.286 OA
BRANCH  32  34
HETATM   34  C13 UNL     1       5.346  82.004  29.556  1.00  0.00     0.393 C 
BRANCH  34  35
HETATM   35  N8  UNL     1       5.351  82.071  28.079  1.00  0.00    -0.046 N 
ATOM     36  H83 UNL     1       4.648  81.463  27.659  1.00  0.00     0.277 HD
ATOM     37  H82 UNL     1       4.997  82.960  27.728  1.00  0.00     0.277 HD
ATOM     38  H81 UNL     1       6.293  81.867  27.745  1.00  0.00     0.277 HD
ENDBRANCH  34  35
BRANCH  34  39
HETATM   39  O6  UNL     1       6.447  81.164  29.841  1.00  0.00    -0.364 OA
ATOM     40  H6  UNL     1       6.678  81.213  30.762  1.00  0.00     0.212 HD
ENDBRANCH  34  39
ENDBRANCH  32  34
ENDBRANCH  30  32
BRANCH  30  41
HETATM   41  C14 UNL     1       7.411  84.885  29.150  1.00  0.00     0.243 C 
BRANCH  41  42
HETATM   42  O7  UNL     1       7.267  84.168  27.936  1.00  0.00    -0.382 OA
ATOM     43  H7  UNL     1       6.337  84.163  27.743  1.00  0.00     0.211 HD
ENDBRANCH  41  42
BRANCH  41  44
HETATM   44  C15 UNL     1       8.870  85.099  29.366  1.00  0.00     0.184 C 
HETATM   45  O8  UNL     1       9.685  84.260  28.958  1.00  0.00    -0.292 OA
BRANCH  44  46
HETATM   46  C16 UNL     1       9.311  86.325  30.067  1.00  0.00     0.245 C 
BRANCH  46  47
HETATM   47  O9  UNL     1      10.673  86.262  30.404  1.00  0.00    -0.393 OA
ATOM     48  H9  UNL     1      10.901  86.916  31.054  1.00  0.00     0.209 HD
ENDBRANCH  46  47
ENDBRANCH  44  46
ENDBRANCH  41  44
ENDBRANCH  30  41
ENDBRANCH  28  29
ENDBRANCH  27  28
ENDBRANCH   3  27
TORSDOF 13
ENDMDL
MODEL 5
REMARK VINA RESULT: -7.504290085      2.124      6.932
REMARK  13 active torsions:
REMARK  status: ('A' for Active; 'I' for Inactive)
REMARK    1  A    between atoms: C7_21  and  C8_22 
REMARK       I    between atoms: C8_22  and  N6_24 
REMARK    2  A    between atoms: N6_24  and  C9_26 
REMARK    3  A    between atoms: C9_26  and  C10_27 
REMARK    4  A    between atoms: C10_27  and  N7_28 
REMARK    5  A    between atoms: C11_30  and  C12_31 
REMARK    6  A    between atoms: C11_30  and  C14_40 
REMARK    7  A    between atoms: C12_31  and  C13_33 
REMARK    8  A    between atoms: C13_33  and  N8_34 
REMARK    9  A    between atoms: C13_33  and  O6_38 
REMARK   10  A    between atoms: C14_40  and  O7_41 
REMARK   11  A    between atoms: C14_40  and  C15_43 
REMARK   12  A    between atoms: C15_43  and  C16_45 
REMARK   13  A    between atoms: C16_45  and  O9_46 
ROOT
HETATM    1  C8  UNL     1      10.168  83.449  34.327  1.00  0.00     0.253 C 
HETATM    2  O4  UNL     1       9.402  83.418  35.354  1.00  0.00    -0.268 OA
HETATM    3  N6  UNL     1       9.638  82.988  33.086  1.00  0.00    -0.355 N 
ATOM      4  H6  UNL     1      10.247  83.000  32.267  1.00  0.00     0.162 HD
ENDROOT
BRANCH   1   5
HETATM    5  C7  UNL     1      11.496  83.955  34.528  1.00  0.00     0.069 A 
HETATM    6  C6  UNL     1      11.815  85.275  34.190  1.00  0.00     0.093 A 
HETATM    7  C3  UNL     1      13.107  85.782  34.341  1.00  0.00     0.128 A 
HETATM    8  C5  UNL     1      10.861  86.114  33.708  1.00  0.00     0.264 A 
HETATM    9  N3  UNL     1      14.059  84.975  34.825  1.00  0.00    -0.319 N 
HETATM   10  N4  UNL     1      13.401  87.057  34.021  1.00  0.00    -0.293 N 
HETATM   11  C2  UNL     1      13.808  83.700  35.168  1.00  0.00     0.187 A 
ATOM     12  H3  UNL     1      15.005  85.340  34.937  1.00  0.00     0.169 HD
HETATM   13  O1  UNL     1      14.593  82.768  35.653  1.00  0.00    -0.217 OA
HETATM   14  C17 UNL     1      12.512  83.168  35.022  1.00  0.00     0.079 A 
HETATM   15  N2  UNL     1      13.927  81.688  35.835  1.00  0.00    -0.242 N 
HETATM   16  C1  UNL     1      12.612  81.882  35.455  1.00  0.00     0.135 A 
ATOM     17  H2  UNL     1      14.309  80.816  36.204  1.00  0.00     0.196 HD
HETATM   18  N1  UNL     1      11.706  81.004  35.523  1.00  0.00    -0.383 N 
ATOM     19  H12 UNL     1      11.780  80.040  35.847  1.00  0.00     0.157 HD
ATOM     20  H11 UNL     1      10.735  81.148  35.243  1.00  0.00     0.157 HD
HETATM   21  C4  UNL     1      12.448  87.877  33.543  1.00  0.00     0.328 A 
ATOM     22  H4  UNL     1      14.353  87.402  34.141  1.00  0.00     0.172 HD
HETATM   23  O2  UNL     1      12.733  89.074  33.244  1.00  0.00    -0.247 OA
HETATM   24  N5  UNL     1      11.204  87.401  33.395  1.00  0.00    -0.275 N 
ATOM     25  H5  UNL     1      10.483  88.025  33.034  1.00  0.00     0.173 HD
HETATM   26  O3  UNL     1       9.666  85.745  33.541  1.00  0.00    -0.267 OA
ENDBRANCH   1   5
BRANCH   3  27
HETATM   27  C9  UNL     1       8.314  82.514  32.929  1.00  0.00     0.142 C 
BRANCH  27  28
HETATM   28  C10 UNL     1       7.542  82.950  31.733  1.00  0.00     0.139 C 
BRANCH  28  29
HETATM   29  N7  UNL     1       7.316  84.361  31.698  1.00  0.00    -0.386 N 
HETATM   30  C11 UNL     1       7.634  85.192  30.780  1.00  0.00     0.092 C 
ATOM     31  H7  UNL     1       6.840  84.756  32.509  1.00  0.00     0.159 HD
BRANCH  30  32
HETATM   32  C12 UNL     1       8.318  84.800  29.559  1.00  0.00     0.230 C 
HETATM   33  O5  UNL     1       7.659  84.489  28.505  1.00  0.00    -0.286 OA
BRANCH  32  34
HETATM   34  C13 UNL     1       9.786  84.727  29.411  1.00  0.00     0.393 C 
BRANCH  34  35
HETATM   35  N8  UNL     1      10.407  85.678  30.358  1.00  0.00    -0.046 N 
ATOM     36  H83 UNL     1      10.115  86.641  30.192  1.00  0.00     0.277 HD
ATOM     37  H82 UNL     1      10.041  85.580  31.305  1.00  0.00     0.277 HD
ATOM     38  H81 UNL     1      11.420  85.566  30.318  1.00  0.00     0.277 HD
ENDBRANCH  34  35
BRANCH  34  39
HETATM   39  O6  UNL     1      10.271  83.475  29.853  1.00  0.00    -0.364 OA
ATOM     40  H6  UNL     1      10.685  83.004  29.139  1.00  0.00     0.212 HD
ENDBRANCH  34  39
ENDBRANCH  32  34
ENDBRANCH  30  32
BRANCH  30  41
HETATM   41  C14 UNL     1       7.238  86.624  31.011  1.00  0.00     0.243 C 
BRANCH  41  42
HETATM   42  O7  UNL     1       8.350  87.242  31.635  1.00  0.00    -0.382 OA
ATOM     43  H7  UNL     1       8.043  87.541  32.483  1.00  0.00     0.211 HD
ENDBRANCH  41  42
BRANCH  41  44
HETATM   44  C15 UNL     1       6.106  86.671  31.979  1.00  0.00     0.184 C 
HETATM   45  O8  UNL     1       4.990  86.245  31.648  1.00  0.00    -0.292 OA
BRANCH  44  46
HETATM   46  C16 UNL     1       6.349  87.230  33.327  1.00  0.00     0.245 C 
BRANCH  46  47
HETATM   47  O9  UNL     1       7.008  86.305  34.154  1.00  0.00    -0.393 OA
ATOM     48  H9  UNL     1       7.054  86.614  35.052  1.00  0.00     0.209 HD
ENDBRANCH  46  47
ENDBRANCH  44  46
ENDBRANCH  41  44
ENDBRANCH  30  41
ENDBRANCH  28  29
ENDBRANCH  27  28
ENDBRANCH   3  27
TORSDOF 13
ENDMDL
