MODEL 1
REMARK VINA RESULT: -8.690126163      0.000      0.000
REMARK  6 active torsions:
REMARK  status: ('A' for Active; 'I' for Inactive)
REMARK    1  A    between atoms: C3_3  and  C4_4 
REMARK    2  A    between atoms: C6_7  and  C7_8 
REMARK    3  A    between atoms: C11_14  and  C12_15 
REMARK    4  A    between atoms: C12_15  and  C13_16 
REMARK    5  A    between atoms: C18_23  and  O6_24 
REMARK    6  A    between atoms: C19_26  and  O7_27 
ROOT
HETATM    1  C1  UNL     1      23.949  14.143  21.118  1.00  0.00     0.015 C 
HETATM    2  C2  UNL     1      24.047  13.122  21.933  1.00  0.00    -0.067 C 
HETATM    3  C3  UNL     1      25.428  12.801  22.369  1.00  0.00     0.113 C 
HETATM    4  C6  UNL     1      26.001  11.923  21.293  1.00  0.00     0.150 C 
HETATM    5  O2  UNL     1      25.168  10.901  20.891  1.00  0.00    -0.312 OA
HETATM    6  C10 UNL     1      24.044  10.361  21.431  1.00  0.00     0.296 C 
HETATM    7  O3  UNL     1      24.063   9.131  21.799  1.00  0.00    -0.262 OA
HETATM    8  C11 UNL     1      22.785  11.024  21.648  1.00  0.00     0.169 C 
HETATM    9  O4  UNL     1      21.867  10.149  22.331  1.00  0.00    -0.296 OA
HETATM   10  C17 UNL     1      21.468  10.294  23.642  1.00  0.00     0.298 C 
HETATM   11  O5  UNL     1      20.496   9.690  24.128  1.00  0.00    -0.262 OA
HETATM   12  C18 UNL     1      22.288  11.241  24.462  1.00  0.00     0.184 C 
HETATM   13  C19 UNL     1      21.639  11.718  25.714  1.00  0.00     0.195 C 
HETATM   14  C20 UNL     1      22.112  13.146  25.850  1.00  0.00     0.190 A 
HETATM   15  O8  UNL     1      23.470  13.288  25.750  1.00  0.00    -0.366 OA
HETATM   16  C21 UNL     1      22.875  13.499  24.558  1.00  0.00     0.098 A 
HETATM   17  C22 UNL     1      22.714  14.989  24.207  1.00  0.00     0.050 C 
HETATM   18  C23 UNL     1      22.289  12.500  23.643  1.00  0.00     0.043 C 
HETATM   19  C24 UNL     1      20.780  12.879  23.614  1.00  0.00     0.023 C 
HETATM   20  C25 UNL     1      22.767  12.394  22.259  1.00  0.00     0.075 C 
ENDROOT
BRANCH   8  21
HETATM   21  C12 UNL     1      22.135  11.075  20.230  1.00  0.00     0.077 C 
BRANCH  21  22
HETATM   22  C13 UNL     1      20.682  11.350  20.383  1.00  0.00    -0.021 C 
HETATM   23  C14 UNL     1      19.738  10.536  19.947  1.00  0.00    -0.091 C 
HETATM   24  C15 UNL     1      18.313  10.905  20.150  1.00  0.00     0.042 C 
HETATM   25  C16 UNL     1      20.042   9.255  19.255  1.00  0.00     0.042 C 
ENDBRANCH  21  22
ENDBRANCH   8  21
BRANCH   4  26
HETATM   26  C7  UNL     1      27.329  11.314  21.570  1.00  0.00     0.008 C 
HETATM   27  C8  UNL     1      28.542  11.993  21.078  1.00  0.00     0.012 C 
HETATM   28  C9  UNL     1      27.372   9.873  21.035  1.00  0.00     0.012 C 
ENDBRANCH   4  26
BRANCH  12  29
HETATM   29  O6  UNL     1      23.425  10.618  24.758  1.00  0.00    -0.376 OA
ATOM     30  H6  UNL     1      24.102  10.998  24.210  1.00  0.00     0.211 HD
ENDBRANCH  12  29
BRANCH   3  31
HETATM   31  C4  UNL     1      26.180  13.943  22.781  1.00  0.00     0.133 C 
HETATM   32  C5  UNL     1      26.881  15.002  22.053  1.00  0.00     0.091 C 
HETATM   33  O1  UNL     1      26.275  14.104  24.041  1.00  0.00    -0.298 OA
ENDBRANCH   3  31
BRANCH  13  34
HETATM   34  O7  UNL     1      20.292  11.532  25.817  1.00  0.00    -0.389 OA
ATOM     35  H7  UNL     1      19.739  12.133  25.332  1.00  0.00     0.210 HD
ENDBRANCH  13  34
TORSDOF 6
ENDMDL
MODEL 2
REMARK VINA RESULT: -8.348725314      1.250      1.626
REMARK  6 active torsions:
REMARK  status: ('A' for Active; 'I' for Inactive)
REMARK    1  A    between atoms: C3_3  and  C4_4 
REMARK    2  A    between atoms: C6_7  and  C7_8 
REMARK    3  A    between atoms: C11_14  and  C12_15 
REMARK    4  A    between atoms: C12_15  and  C13_16 
REMARK    5  A    between atoms: C18_23  and  O6_24 
REMARK    6  A    between atoms: C19_26  and  O7_27 
ROOT
HETATM    1  C1  UNL     1      24.560  13.825  20.142  1.00  0.00     0.015 C 
HETATM    2  C2  UNL     1      24.624  13.122  21.245  1.00  0.00    -0.067 C 
HETATM    3  C3  UNL     1      25.956  12.538  21.536  1.00  0.00     0.113 C 
HETATM    4  C6  UNL     1      26.007  11.243  20.777  1.00  0.00     0.150 C 
HETATM    5  O2  UNL     1      24.882  10.458  20.918  1.00  0.00    -0.312 OA
HETATM    6  C10 UNL     1      23.844  10.484  21.795  1.00  0.00     0.296 C 
HETATM    7  O3  UNL     1      23.669   9.482  22.577  1.00  0.00    -0.262 OA
HETATM    8  C11 UNL     1      22.877  11.537  21.957  1.00  0.00     0.169 C 
HETATM    9  O4  UNL     1      21.990  11.241  23.052  1.00  0.00    -0.296 OA
HETATM   10  C17 UNL     1      21.992  11.894  24.266  1.00  0.00     0.298 C 
HETATM   11  O5  UNL     1      21.066  11.798  25.091  1.00  0.00    -0.262 OA
HETATM   12  C18 UNL     1      23.195  12.741  24.537  1.00  0.00     0.184 C 
HETATM   13  C19 UNL     1      23.025  13.753  25.617  1.00  0.00     0.195 C 
HETATM   14  C20 UNL     1      23.838  14.934  25.142  1.00  0.00     0.190 A 
HETATM   15  O8  UNL     1      25.117  14.611  24.777  1.00  0.00    -0.366 OA
HETATM   16  C21 UNL     1      24.299  14.623  23.704  1.00  0.00     0.098 A 
HETATM   17  C22 UNL     1      24.406  15.909  22.865  1.00  0.00     0.050 C 
HETATM   18  C23 UNL     1      23.278  13.627  23.327  1.00  0.00     0.043 C 
HETATM   19  C24 UNL     1      21.945  14.427  23.408  1.00  0.00     0.023 C 
HETATM   20  C25 UNL     1      23.340  12.962  22.020  1.00  0.00     0.075 C 
ENDROOT
BRANCH   8  21
HETATM   21  C12 UNL     1      21.911  11.354  20.744  1.00  0.00     0.077 C 
BRANCH  21  22
HETATM   22  C13 UNL     1      20.512  11.505  21.225  1.00  0.00    -0.021 C 
HETATM   23  C14 UNL     1      19.472  10.962  20.620  1.00  0.00    -0.091 C 
HETATM   24  C15 UNL     1      18.114  11.175  21.182  1.00  0.00     0.042 C 
HETATM   25  C16 UNL     1      19.603  10.137  19.389  1.00  0.00     0.042 C 
ENDBRANCH  21  22
ENDBRANCH   8  21
BRANCH   4  26
HETATM   26  C7  UNL     1      27.180  10.367  21.037  1.00  0.00     0.008 C 
HETATM   27  C8  UNL     1      28.118  10.732  22.114  1.00  0.00     0.012 C 
HETATM   28  C9  UNL     1      28.013  10.203  19.753  1.00  0.00     0.012 C 
ENDBRANCH   4  26
BRANCH  12  29
HETATM   29  O6  UNL     1      24.191  11.918  24.850  1.00  0.00    -0.376 OA
ATOM     30  H6  UNL     1      23.810  11.181  25.315  1.00  0.00     0.211 HD
ENDBRANCH  12  29
BRANCH   3  31
HETATM   31  C4  UNL     1      27.035  13.459  21.374  1.00  0.00     0.133 C 
HETATM   32  C5  UNL     1      27.829  13.886  20.220  1.00  0.00     0.091 C 
HETATM   33  O1  UNL     1      27.406  14.054  22.438  1.00  0.00    -0.298 OA
ENDBRANCH   3  31
BRANCH  13  34
HETATM   34  O7  UNL     1      21.747  14.033  25.999  1.00  0.00    -0.389 OA
ATOM     35  H7  UNL     1      21.641  14.528  26.804  1.00  0.00     0.210 HD
ENDBRANCH  13  34
TORSDOF 6
ENDMDL
MODEL 3
REMARK VINA RESULT: -8.321426794      2.137      6.264
REMARK  6 active torsions:
REMARK  status: ('A' for Active; 'I' for Inactive)
REMARK    1  A    between atoms: C3_3  and  C4_4 
REMARK    2  A    between atoms: C6_7  and  C7_8 
REMARK    3  A    between atoms: C11_14  and  C12_15 
REMARK    4  A    between atoms: C12_15  and  C13_16 
REMARK    5  A    between atoms: C18_23  and  O6_24 
REMARK    6  A    between atoms: C19_26  and  O7_27 
ROOT
HETATM    1  C1  UNL     1      19.368  14.177  24.486  1.00  0.00     0.015 C 
HETATM    2  C2  UNL     1      19.839  12.959  24.588  1.00  0.00    -0.067 C 
HETATM    3  C3  UNL     1      19.532  12.278  25.870  1.00  0.00     0.113 C 
HETATM    4  C6  UNL     1      20.605  12.711  26.829  1.00  0.00     0.150 C 
HETATM    5  O2  UNL     1      21.884  12.641  26.318  1.00  0.00    -0.312 OA
HETATM    6  C10 UNL     1      22.408  12.027  25.225  1.00  0.00     0.296 C 
HETATM    7  O3  UNL     1      23.280  11.101  25.394  1.00  0.00    -0.262 OA
HETATM    8  C11 UNL     1      22.096  12.302  23.847  1.00  0.00     0.169 C 
HETATM    9  O4  UNL     1      22.783  11.378  22.982  1.00  0.00    -0.296 OA
HETATM   10  C17 UNL     1      22.177  10.361  22.276  1.00  0.00     0.298 C 
HETATM   11  O5  UNL     1      22.739   9.747  21.352  1.00  0.00    -0.262 OA
HETATM   12  C18 UNL     1      20.778  10.035  22.693  1.00  0.00     0.184 C 
HETATM   13  C19 UNL     1      19.987   9.259  21.698  1.00  0.00     0.195 C 
HETATM   14  C20 UNL     1      18.583   9.798  21.847  1.00  0.00     0.190 A 
HETATM   15  O8  UNL     1      18.132   9.810  23.140  1.00  0.00    -0.366 OA
HETATM   16  C21 UNL     1      18.657  11.006  22.802  1.00  0.00     0.098 A 
HETATM   17  C22 UNL     1      17.596  12.062  22.444  1.00  0.00     0.050 C 
HETATM   18  C23 UNL     1      20.079  11.364  22.640  1.00  0.00     0.043 C 
HETATM   19  C24 UNL     1      20.189  11.737  21.133  1.00  0.00     0.023 C 
HETATM   20  C25 UNL     1      20.663  12.454  23.431  1.00  0.00     0.075 C 
ENDROOT
BRANCH   8  21
HETATM   21  C12 UNL     1      22.873  13.620  23.539  1.00  0.00     0.077 C 
BRANCH  21  22
HETATM   22  C13 UNL     1      23.695  13.412  22.318  1.00  0.00    -0.021 C 
HETATM   23  C14 UNL     1      24.295  14.393  21.669  1.00  0.00    -0.091 C 
HETATM   24  C15 UNL     1      25.094  14.078  20.457  1.00  0.00     0.042 C 
HETATM   25  C16 UNL     1      24.204  15.813  22.102  1.00  0.00     0.042 C 
ENDBRANCH  21  22
ENDBRANCH   8  21
BRANCH   4  26
HETATM   26  C7  UNL     1      20.629  12.029  28.150  1.00  0.00     0.008 C 
HETATM   27  C8  UNL     1      21.814  12.188  29.013  1.00  0.00     0.012 C 
HETATM   28  C9  UNL     1      20.403  10.518  27.969  1.00  0.00     0.012 C 
ENDBRANCH   4  26
BRANCH  12  29
HETATM   29  O6  UNL     1      20.858   9.350  23.830  1.00  0.00    -0.376 OA
ATOM     30  H6  UNL     1      19.979   9.297  24.187  1.00  0.00     0.211 HD
ENDBRANCH  12  29
BRANCH   3  31
HETATM   31  C4  UNL     1      18.169  12.406  26.277  1.00  0.00     0.133 C 
HETATM   32  C5  UNL     1      17.426  13.448  26.988  1.00  0.00     0.091 C 
HETATM   33  O1  UNL     1      17.416  11.427  25.968  1.00  0.00    -0.298 OA
ENDBRANCH   3  31
BRANCH  13  34
HETATM   34  O7  UNL     1      20.471   9.222  20.424  1.00  0.00    -0.389 OA
ATOM     35  H7  UNL     1      19.836   9.318  19.723  1.00  0.00     0.210 HD
ENDBRANCH  13  34
TORSDOF 6
ENDMDL
MODEL 4
REMARK VINA RESULT: -8.316779420      2.719      4.363
REMARK  6 active torsions:
REMARK  status: ('A' for Active; 'I' for Inactive)
REMARK    1  A    between atoms: C3_3  and  C4_4 
REMARK    2  A    between atoms: C6_7  and  C7_8 
REMARK    3  A    between atoms: C11_14  and  C12_15 
REMARK    4  A    between atoms: C12_15  and  C13_16 
REMARK    5  A    between atoms: C18_23  and  O6_24 
REMARK    6  A    between atoms: C19_26  and  O7_27 
ROOT
HETATM    1  C1  UNL     1      20.750  15.574  24.362  1.00  0.00     0.015 C 
HETATM    2  C2  UNL     1      21.401  14.791  25.186  1.00  0.00    -0.067 C 
HETATM    3  C3  UNL     1      22.771  15.245  25.528  1.00  0.00     0.113 C 
HETATM    4  C6  UNL     1      23.657  14.730  24.430  1.00  0.00     0.150 C 
HETATM    5  O2  UNL     1      23.448  13.405  24.108  1.00  0.00    -0.312 OA
HETATM    6  C10 UNL     1      22.791  12.395  24.737  1.00  0.00     0.296 C 
HETATM    7  O3  UNL     1      23.458  11.370  25.124  1.00  0.00    -0.262 OA
HETATM    8  C11 UNL     1      21.384  12.331  25.030  1.00  0.00     0.169 C 
HETATM    9  O4  UNL     1      21.083  11.147  25.793  1.00  0.00    -0.296 OA
HETATM   10  C17 UNL     1      20.734  11.136  27.126  1.00  0.00     0.298 C 
HETATM   11  O5  UNL     1      20.237  10.146  27.691  1.00  0.00    -0.262 OA
HETATM   12  C18 UNL     1      20.992  12.410  27.868  1.00  0.00     0.184 C 
HETATM   13  C19 UNL     1      20.255  12.553  29.154  1.00  0.00     0.195 C 
HETATM   14  C20 UNL     1      19.933  14.027  29.230  1.00  0.00     0.190 A 
HETATM   15  O8  UNL     1      21.018  14.838  29.031  1.00  0.00    -0.366 OA
HETATM   16  C21 UNL     1      20.339  14.652  27.880  1.00  0.00     0.098 A 
HETATM   17  C22 UNL     1      19.417  15.830  27.515  1.00  0.00     0.050 C 
HETATM   18  C23 UNL     1      20.303  13.448  27.028  1.00  0.00     0.043 C 
HETATM   19  C24 UNL     1      18.815  12.999  27.099  1.00  0.00     0.023 C 
HETATM   20  C25 UNL     1      20.696  13.529  25.616  1.00  0.00     0.075 C 
ENDROOT
BRANCH   8  21
HETATM   21  C12 UNL     1      20.728  11.969  23.661  1.00  0.00     0.077 C 
BRANCH  21  22
HETATM   22  C13 UNL     1      19.252  12.081  23.797  1.00  0.00    -0.021 C 
HETATM   23  C14 UNL     1      18.405  11.739  22.844  1.00  0.00    -0.091 C 
HETATM   24  C15 UNL     1      16.946  11.891  23.081  1.00  0.00     0.042 C 
HETATM   25  C16 UNL     1      18.852  11.201  21.531  1.00  0.00     0.042 C 
ENDBRANCH  21  22
ENDBRANCH   8  21
BRANCH   4  26
HETATM   26  C7  UNL     1      25.121  14.901  24.624  1.00  0.00     0.008 C 
HETATM   27  C8  UNL     1      26.046  14.285  23.655  1.00  0.00     0.012 C 
HETATM   28  C9  UNL     1      25.532  14.399  26.019  1.00  0.00     0.012 C 
ENDBRANCH   4  26
BRANCH  12  29
HETATM   29  O6  UNL     1      22.301  12.473  28.094  1.00  0.00    -0.376 OA
ATOM     30  H6  UNL     1      22.452  13.230  28.649  1.00  0.00     0.211 HD
ENDBRANCH  12  29
BRANCH   3  31
HETATM   31  C4  UNL     1      22.848  16.631  25.865  1.00  0.00     0.133 C 
HETATM   32  C5  UNL     1      23.199  17.833  25.106  1.00  0.00     0.091 C 
HETATM   33  O1  UNL     1      22.553  16.914  27.072  1.00  0.00    -0.298 OA
ENDBRANCH   3  31
BRANCH  13  34
HETATM   34  O7  UNL     1      19.204  11.709  29.356  1.00  0.00    -0.389 OA
ATOM     35  H7  UNL     1      19.315  11.038  30.018  1.00  0.00     0.210 HD
ENDBRANCH  13  34
TORSDOF 6
ENDMDL
MODEL 5
REMARK VINA RESULT: -8.294057128      2.255      7.066
REMARK  6 active torsions:
REMARK  status: ('A' for Active; 'I' for Inactive)
REMARK    1  A    between atoms: C3_3  and  C4_4 
REMARK    2  A    between atoms: C6_7  and  C7_8 
REMARK    3  A    between atoms: C11_14  and  C12_15 
REMARK    4  A    between atoms: C12_15  and  C13_16 
REMARK    5  A    between atoms: C18_23  and  O6_24 
REMARK    6  A    between atoms: C19_26  and  O7_27 
ROOT
HETATM    1  C1  UNL     1      24.540  13.466  19.586  1.00  0.00     0.015 C 
HETATM    2  C2  UNL     1      25.090  13.213  20.748  1.00  0.00    -0.067 C 
HETATM    3  C3  UNL     1      24.193  12.562  21.734  1.00  0.00     0.113 C 
HETATM    4  C6  UNL     1      23.439  13.678  22.398  1.00  0.00     0.150 C 
HETATM    5  O2  UNL     1      24.229  14.735  22.801  1.00  0.00    -0.312 OA
HETATM    6  C10 UNL     1      25.572  14.876  22.956  1.00  0.00     0.296 C 
HETATM    7  O3  UNL     1      26.038  15.116  24.127  1.00  0.00    -0.262 OA
HETATM    8  C11 UNL     1      26.573  14.789  21.926  1.00  0.00     0.169 C 
HETATM    9  O4  UNL     1      27.891  14.898  22.498  1.00  0.00    -0.296 OA
HETATM   10  C17 UNL     1      28.791  13.859  22.604  1.00  0.00     0.298 C 
HETATM   11  O5  UNL     1      29.997  14.028  22.860  1.00  0.00    -0.262 OA
HETATM   12  C18 UNL     1      28.224  12.492  22.387  1.00  0.00     0.184 C 
HETATM   13  C19 UNL     1      29.225  11.432  22.086  1.00  0.00     0.195 C 
HETATM   14  C20 UNL     1      28.518  10.528  21.105  1.00  0.00     0.190 A 
HETATM   15  O8  UNL     1      27.278  10.124  21.522  1.00  0.00    -0.366 OA
HETATM   16  C21 UNL     1      27.188  11.212  20.730  1.00  0.00     0.098 A 
HETATM   17  C22 UNL     1      26.784  10.885  19.281  1.00  0.00     0.050 C 
HETATM   18  C23 UNL     1      27.527  12.610  21.061  1.00  0.00     0.043 C 
HETATM   19  C24 UNL     1      28.703  12.935  20.095  1.00  0.00     0.023 C 
HETATM   20  C25 UNL     1      26.516  13.667  20.933  1.00  0.00     0.075 C 
ENDROOT
BRANCH   8  21
HETATM   21  C12 UNL     1      26.468  16.155  21.179  1.00  0.00     0.077 C 
BRANCH  21  22
HETATM   22  C13 UNL     1      27.766  16.432  20.510  1.00  0.00    -0.021 C 
HETATM   23  C14 UNL     1      27.906  16.517  19.200  1.00  0.00    -0.091 C 
HETATM   24  C15 UNL     1      29.250  16.797  18.632  1.00  0.00     0.042 C 
HETATM   25  C16 UNL     1      26.767  16.342  18.260  1.00  0.00     0.042 C 
ENDBRANCH  21  22
ENDBRANCH   8  21
BRANCH   4  26
HETATM   26  C7  UNL     1      22.590  13.306  23.560  1.00  0.00     0.008 C 
HETATM   27  C8  UNL     1      21.816  14.358  24.244  1.00  0.00     0.012 C 
HETATM   28  C9  UNL     1      23.441  12.604  24.633  1.00  0.00     0.012 C 
ENDBRANCH   4  26
BRANCH  12  29
HETATM   29  O6  UNL     1      27.549  12.170  23.486  1.00  0.00    -0.376 OA
ATOM     30  H6  UNL     1      28.130  11.647  24.028  1.00  0.00     0.211 HD
ENDBRANCH  12  29
BRANCH   3  31
HETATM   31  C4  UNL     1      23.448  11.468  21.197  1.00  0.00     0.133 C 
HETATM   32  C5  UNL     1      22.199  11.378  20.438  1.00  0.00     0.091 C 
HETATM   33  O1  UNL     1      23.950  10.316  21.402  1.00  0.00    -0.298 OA
ENDBRANCH   3  31
BRANCH  13  34
HETATM   34  O7  UNL     1      30.468  11.850  21.712  1.00  0.00    -0.389 OA
ATOM     35  H7  UNL     1      31.176  11.684  22.324  1.00  0.00     0.210 HD
ENDBRANCH  13  34
TORSDOF 6
ENDMDL
