MODEL 1
REMARK VINA RESULT: -7.068118867      0.000      0.000
REMARK  9 active torsions:
REMARK  status: ('A' for Active; 'I' for Inactive)
REMARK    1  A    between atoms: C2_2  and  N1_3 
REMARK       I    between atoms: N1_3  and  C3_5 
REMARK    2  A    between atoms: C3_5  and  O2_7 
REMARK    3  A    between atoms: O2_7  and  C4_8 
REMARK    4  A    between atoms: C5_9  and  C7_11 
REMARK    5  A    between atoms: C7_11  and  O3_12 
REMARK    6  A    between atoms: C14_21  and  O5_22 
REMARK    7  A    between atoms: O5_22  and  C15_23 
REMARK    8  A    between atoms: C21_30  and  O7_31 
REMARK    9  A    between atoms: O7_31  and  C22_32 
ROOT
HETATM    1  C4  UNL     1      25.967  14.204  21.815  1.00  0.00     0.184 C 
HETATM    2  C5  UNL     1      24.941  15.257  21.438  1.00  0.00     0.106 C 
HETATM    3  C6  UNL     1      25.537  16.649  21.491  1.00  0.00     0.051 C 
HETATM    4  O4  UNL     1      24.519  15.005  20.163  1.00  0.00    -0.369 OA
HETATM    5  C8  UNL     1      25.464  14.237  19.530  1.00  0.00     0.137 C 
HETATM    6  C9  UNL     1      26.613  14.967  18.933  1.00  0.00     0.034 C 
HETATM    7  C10 UNL     1      27.893  14.271  19.403  1.00  0.00     0.016 C 
HETATM    8  C11 UNL     1      27.382  13.031  20.065  1.00  0.00     0.007 C 
HETATM    9  C12 UNL     1      27.064  11.902  19.065  1.00  0.00     0.010 C 
HETATM   10  C13 UNL     1      25.917  11.132  19.676  1.00  0.00     0.040 C 
HETATM   11  C14 UNL     1      25.233  12.081  20.667  1.00  0.00     0.146 C 
HETATM   12  C17 UNL     1      26.043  13.338  20.634  1.00  0.00     0.053 C 
HETATM   13  C18 UNL     1      28.408  11.311  19.423  1.00  0.00    -0.015 C 
HETATM   14  C19 UNL     1      28.360   9.815  19.616  1.00  0.00     0.018 C 
HETATM   15  C20 UNL     1      29.564  11.696  18.561  1.00  0.00     0.018 C 
HETATM   16  C21 UNL     1      28.309  12.107  20.720  1.00  0.00     0.150 C 
ENDROOT
BRANCH   1  17
HETATM   17  O2  UNL     1      27.217  14.838  22.087  1.00  0.00    -0.294 OA
BRANCH  17  18
HETATM   18  C3  UNL     1      27.724  15.026  23.361  1.00  0.00     0.361 C 
HETATM   19  N1  UNL     1      27.096  14.511  24.524  1.00  0.00    -0.337 N 
ATOM     20  H1  UNL     1      26.233  13.978  24.417  1.00  0.00     0.164 HD
HETATM   21  O1  UNL     1      28.789  15.685  23.472  1.00  0.00    -0.239 OA
BRANCH  19  22
HETATM   22  C2  UNL     1      27.623  14.707  25.853  1.00  0.00     0.120 C 
HETATM   23  C1  UNL     1      26.918  15.830  26.560  1.00  0.00     0.026 C 
ENDBRANCH  19  22
ENDBRANCH  17  18
ENDBRANCH   1  17
BRANCH   2  24
HETATM   24  C7  UNL     1      23.765  15.279  22.423  1.00  0.00     0.204 C 
BRANCH  24  25
HETATM   25  O3  UNL     1      24.001  14.318  23.403  1.00  0.00    -0.398 OA
ATOM     26  H3  UNL     1      24.412  14.746  24.145  1.00  0.00     0.209 HD
ENDBRANCH  24  25
ENDBRANCH   2  24
BRANCH  11  27
HETATM   27  O5  UNL     1      23.950  12.331  20.068  1.00  0.00    -0.315 OA
BRANCH  27  28
HETATM   28  C15 UNL     1      22.768  11.848  20.606  1.00  0.00     0.255 C 
HETATM   29  C16 UNL     1      21.754  11.107  19.832  1.00  0.00     0.126 C 
HETATM   30  O6  UNL     1      22.588  12.080  21.848  1.00  0.00    -0.266 OA
ENDBRANCH  27  28
ENDBRANCH  11  27
BRANCH  16  31
HETATM   31  O7  UNL     1      27.863  11.325  21.806  1.00  0.00    -0.315 OA
BRANCH  31  32
HETATM   32  C22 UNL     1      28.694  11.168  22.901  1.00  0.00     0.255 C 
HETATM   33  C23 UNL     1      29.452   9.907  23.122  1.00  0.00     0.126 C 
HETATM   34  O8  UNL     1      28.841  12.083  23.752  1.00  0.00    -0.266 OA
ENDBRANCH  31  32
ENDBRANCH  16  31
TORSDOF 9
ENDMDL
MODEL 2
REMARK VINA RESULT: -6.752039940      5.816      9.182
REMARK  9 active torsions:
REMARK  status: ('A' for Active; 'I' for Inactive)
REMARK    1  A    between atoms: C2_2  and  N1_3 
REMARK       I    between atoms: N1_3  and  C3_5 
REMARK    2  A    between atoms: C3_5  and  O2_7 
REMARK    3  A    between atoms: O2_7  and  C4_8 
REMARK    4  A    between atoms: C5_9  and  C7_11 
REMARK    5  A    between atoms: C7_11  and  O3_12 
REMARK    6  A    between atoms: C14_21  and  O5_22 
REMARK    7  A    between atoms: O5_22  and  C15_23 
REMARK    8  A    between atoms: C21_30  and  O7_31 
REMARK    9  A    between atoms: O7_31  and  C22_32 
ROOT
HETATM    1  C4  UNL     1      20.860  13.811  26.422  1.00  0.00     0.184 C 
HETATM    2  C5  UNL     1      22.233  13.366  26.894  1.00  0.00     0.106 C 
HETATM    3  C6  UNL     1      22.256  13.157  28.394  1.00  0.00     0.051 C 
HETATM    4  O4  UNL     1      22.534  12.184  26.278  1.00  0.00    -0.369 OA
HETATM    5  C8  UNL     1      21.367  11.598  25.855  1.00  0.00     0.137 C 
HETATM    6  C9  UNL     1      20.626  10.802  26.868  1.00  0.00     0.034 C 
HETATM    7  C10 UNL     1      19.166  11.262  26.835  1.00  0.00     0.016 C 
HETATM    8  C11 UNL     1      19.117  12.146  25.629  1.00  0.00     0.007 C 
HETATM    9  C12 UNL     1      18.960  11.360  24.313  1.00  0.00     0.010 C 
HETATM   10  C13 UNL     1      19.684  12.174  23.267  1.00  0.00     0.040 C 
HETATM   11  C14 UNL     1      20.681  13.064  24.019  1.00  0.00     0.146 C 
HETATM   12  C17 UNL     1      20.455  12.772  25.468  1.00  0.00     0.053 C 
HETATM   13  C18 UNL     1      17.487  11.688  24.380  1.00  0.00    -0.015 C 
HETATM   14  C19 UNL     1      16.918  12.109  23.048  1.00  0.00     0.018 C 
HETATM   15  C20 UNL     1      16.603  10.683  25.039  1.00  0.00     0.018 C 
HETATM   16  C21 UNL     1      17.883  12.853  25.281  1.00  0.00     0.150 C 
ENDROOT
BRANCH   1  17
HETATM   17  O2  UNL     1      19.974  13.877  27.539  1.00  0.00    -0.294 OA
BRANCH  17  18
HETATM   18  C3  UNL     1      19.472  15.059  28.055  1.00  0.00     0.361 C 
HETATM   19  N1  UNL     1      19.879  16.337  27.589  1.00  0.00    -0.337 N 
ATOM     20  H1  UNL     1      20.571  16.386  26.842  1.00  0.00     0.164 HD
HETATM   21  O1  UNL     1      18.619  14.977  28.975  1.00  0.00    -0.239 OA
BRANCH  19  22
HETATM   22  C2  UNL     1      19.356  17.570  28.127  1.00  0.00     0.120 C 
HETATM   23  C1  UNL     1      20.436  18.604  28.268  1.00  0.00     0.026 C 
ENDBRANCH  19  22
ENDBRANCH  17  18
ENDBRANCH   1  17
BRANCH   2  24
HETATM   24  C7  UNL     1      23.300  14.432  26.613  1.00  0.00     0.204 C 
BRANCH  24  25
HETATM   25  O3  UNL     1      22.716  15.685  26.777  1.00  0.00    -0.398 OA
ATOM     26  H3  UNL     1      23.380  16.282  27.100  1.00  0.00     0.209 HD
ENDBRANCH  24  25
ENDBRANCH   2  24
BRANCH  11  27
HETATM   27  O5  UNL     1      21.963  12.545  23.627  1.00  0.00    -0.315 OA
BRANCH  27  28
HETATM   28  C15 UNL     1      22.812  13.222  22.767  1.00  0.00     0.255 C 
HETATM   29  C16 UNL     1      23.281  14.603  22.990  1.00  0.00     0.126 C 
HETATM   30  O6  UNL     1      23.186  12.573  21.733  1.00  0.00    -0.266 OA
ENDBRANCH  27  28
ENDBRANCH  11  27
BRANCH  16  31
HETATM   31  O7  UNL     1      17.955  14.079  24.587  1.00  0.00    -0.315 OA
BRANCH  31  32
HETATM   32  C22 UNL     1      17.394  15.205  25.162  1.00  0.00     0.255 C 
HETATM   33  C23 UNL     1      16.104  15.137  25.900  1.00  0.00     0.126 C 
HETATM   34  O8  UNL     1      17.952  16.330  25.083  1.00  0.00    -0.266 OA
ENDBRANCH  31  32
ENDBRANCH  16  31
TORSDOF 9
ENDMDL
MODEL 3
REMARK VINA RESULT: -6.709630166      2.334      5.990
REMARK  9 active torsions:
REMARK  status: ('A' for Active; 'I' for Inactive)
REMARK    1  A    between atoms: C2_2  and  N1_3 
REMARK       I    between atoms: N1_3  and  C3_5 
REMARK    2  A    between atoms: C3_5  and  O2_7 
REMARK    3  A    between atoms: O2_7  and  C4_8 
REMARK    4  A    between atoms: C5_9  and  C7_11 
REMARK    5  A    between atoms: C7_11  and  O3_12 
REMARK    6  A    between atoms: C14_21  and  O5_22 
REMARK    7  A    between atoms: O5_22  and  C15_23 
REMARK    8  A    between atoms: C21_30  and  O7_31 
REMARK    9  A    between atoms: O7_31  and  C22_32 
ROOT
HETATM    1  C4  UNL     1      24.853  12.472  21.735  1.00  0.00     0.184 C 
HETATM    2  C5  UNL     1      25.387  12.138  20.353  1.00  0.00     0.106 C 
HETATM    3  C6  UNL     1      24.298  12.238  19.305  1.00  0.00     0.051 C 
HETATM    4  O4  UNL     1      26.376  13.030  20.050  1.00  0.00    -0.369 OA
HETATM    5  C8  UNL     1      26.218  14.146  20.834  1.00  0.00     0.137 C 
HETATM    6  C9  UNL     1      25.247  15.160  20.347  1.00  0.00     0.034 C 
HETATM    7  C10 UNL     1      24.320  15.506  21.515  1.00  0.00     0.016 C 
HETATM    8  C11 UNL     1      24.971  14.826  22.677  1.00  0.00     0.007 C 
HETATM    9  C12 UNL     1      26.132  15.642  23.280  1.00  0.00     0.010 C 
HETATM   10  C13 UNL     1      27.113  14.621  23.807  1.00  0.00     0.040 C 
HETATM   11  C14 UNL     1      26.832  13.316  23.054  1.00  0.00     0.146 C 
HETATM   12  C17 UNL     1      25.666  13.616  22.166  1.00  0.00     0.053 C 
HETATM   13  C18 UNL     1      25.157  16.103  24.339  1.00  0.00    -0.015 C 
HETATM   14  C19 UNL     1      25.748  16.090  25.727  1.00  0.00     0.018 C 
HETATM   15  C20 UNL     1      24.441  17.386  24.081  1.00  0.00     0.018 C 
HETATM   16  C21 UNL     1      24.344  14.858  24.000  1.00  0.00     0.150 C 
ENDROOT
BRANCH   1  17
HETATM   17  O2  UNL     1      23.471  12.814  21.638  1.00  0.00    -0.294 OA
BRANCH  17  18
HETATM   18  C3  UNL     1      22.450  12.050  22.175  1.00  0.00     0.361 C 
HETATM   19  N1  UNL     1      21.347  12.615  22.868  1.00  0.00    -0.337 N 
ATOM     20  H1  UNL     1      21.306  13.628  22.974  1.00  0.00     0.164 HD
HETATM   21  O1  UNL     1      22.519  10.803  22.033  1.00  0.00    -0.239 OA
BRANCH  19  22
HETATM   22  C2  UNL     1      20.281  11.819  23.428  1.00  0.00     0.120 C 
HETATM   23  C1  UNL     1      19.168  11.625  22.439  1.00  0.00     0.026 C 
ENDBRANCH  19  22
ENDBRANCH  17  18
ENDBRANCH   1  17
BRANCH   2  24
HETATM   24  C7  UNL     1      25.895  10.692  20.279  1.00  0.00     0.204 C 
BRANCH  24  25
HETATM   25  O3  UNL     1      25.509  10.036  21.444  1.00  0.00    -0.398 OA
ATOM     26  H3  UNL     1      24.560  10.041  21.487  1.00  0.00     0.209 HD
ENDBRANCH  24  25
ENDBRANCH   2  24
BRANCH  11  27
HETATM   27  O5  UNL     1      28.006  13.131  22.245  1.00  0.00    -0.315 OA
BRANCH  27  28
HETATM   28  C15 UNL     1      28.806  12.004  22.337  1.00  0.00     0.255 C 
HETATM   29  C16 UNL     1      29.505  11.393  21.190  1.00  0.00     0.126 C 
HETATM   30  O6  UNL     1      28.919  11.498  23.504  1.00  0.00    -0.266 OA
ENDBRANCH  27  28
ENDBRANCH  11  27
BRANCH  16  31
HETATM   31  O7  UNL     1      24.567  13.798  24.903  1.00  0.00    -0.315 OA
BRANCH  31  32
HETATM   32  C22 UNL     1      23.479  13.204  25.517  1.00  0.00     0.255 C 
HETATM   33  C23 UNL     1      22.479  14.009  26.269  1.00  0.00     0.126 C 
HETATM   34  O8  UNL     1      23.292  11.961  25.463  1.00  0.00    -0.266 OA
ENDBRANCH  31  32
ENDBRANCH  16  31
TORSDOF 9
ENDMDL
MODEL 4
REMARK VINA RESULT: -6.686221404      1.775      3.287
REMARK  9 active torsions:
REMARK  status: ('A' for Active; 'I' for Inactive)
REMARK    1  A    between atoms: C2_2  and  N1_3 
REMARK       I    between atoms: N1_3  and  C3_5 
REMARK    2  A    between atoms: C3_5  and  O2_7 
REMARK    3  A    between atoms: O2_7  and  C4_8 
REMARK    4  A    between atoms: C5_9  and  C7_11 
REMARK    5  A    between atoms: C7_11  and  O3_12 
REMARK    6  A    between atoms: C14_21  and  O5_22 
REMARK    7  A    between atoms: O5_22  and  C15_23 
REMARK    8  A    between atoms: C21_30  and  O7_31 
REMARK    9  A    between atoms: O7_31  and  C22_32 
ROOT
HETATM    1  C4  UNL     1      26.216  13.396  23.059  1.00  0.00     0.184 C 
HETATM    2  C5  UNL     1      25.662  14.324  24.125  1.00  0.00     0.106 C 
HETATM    3  C6  UNL     1      26.659  15.408  24.480  1.00  0.00     0.051 C 
HETATM    4  O4  UNL     1      24.529  14.909  23.635  1.00  0.00    -0.369 OA
HETATM    5  C8  UNL     1      24.554  14.838  22.264  1.00  0.00     0.137 C 
HETATM    6  C9  UNL     1      25.323  15.900  21.564  1.00  0.00     0.034 C 
HETATM    7  C10 UNL     1      26.250  15.210  20.561  1.00  0.00     0.016 C 
HETATM    8  C11 UNL     1      25.784  13.789  20.590  1.00  0.00     0.007 C 
HETATM    9  C12 UNL     1      24.546  13.543  19.704  1.00  0.00     0.010 C 
HETATM   10  C13 UNL     1      23.771  12.443  20.389  1.00  0.00     0.040 C 
HETATM   11  C14 UNL     1      24.210  12.448  21.858  1.00  0.00     0.146 C 
HETATM   12  C17 UNL     1      25.260  13.509  21.952  1.00  0.00     0.053 C 
HETATM   13  C18 UNL     1      25.496  13.011  18.656  1.00  0.00    -0.015 C 
HETATM   14  C19 UNL     1      24.997  11.750  17.997  1.00  0.00     0.018 C 
HETATM   15  C20 UNL     1      25.985  13.984  17.635  1.00  0.00     0.018 C 
HETATM   16  C21 UNL     1      26.475  12.768  19.800  1.00  0.00     0.150 C 
ENDROOT
BRANCH   1  17
HETATM   17  O2  UNL     1      27.520  13.836  22.679  1.00  0.00    -0.294 OA
BRANCH  17  18
HETATM   18  C3  UNL     1      28.627  13.008  22.629  1.00  0.00     0.361 C 
HETATM   19  N1  UNL     1      28.576  11.631  22.966  1.00  0.00    -0.337 N 
ATOM     20  H1  UNL     1      27.684  11.233  23.257  1.00  0.00     0.164 HD
HETATM   21  O1  UNL     1      29.718  13.517  22.266  1.00  0.00    -0.239 OA
BRANCH  19  22
HETATM   22  C2  UNL     1      29.731  10.767  22.914  1.00  0.00     0.120 C 
HETATM   23  C1  UNL     1      29.443   9.433  23.543  1.00  0.00     0.026 C 
ENDBRANCH  19  22
ENDBRANCH  17  18
ENDBRANCH   1  17
BRANCH   2  24
HETATM   24  C7  UNL     1      25.385  13.578  25.436  1.00  0.00     0.204 C 
BRANCH  24  25
HETATM   25  O3  UNL     1      24.632  12.445  25.141  1.00  0.00    -0.398 OA
ATOM     26  H3  UNL     1      25.221  11.773  24.818  1.00  0.00     0.209 HD
ENDBRANCH  24  25
ENDBRANCH   2  24
BRANCH  11  27
HETATM   27  O5  UNL     1      23.035  12.884  22.562  1.00  0.00    -0.315 OA
BRANCH  27  28
HETATM   28  C15 UNL     1      22.051  12.006  22.988  1.00  0.00     0.255 C 
HETATM   29  C16 UNL     1      20.649  12.056  22.533  1.00  0.00     0.126 C 
HETATM   30  O6  UNL     1      22.426  11.117  23.824  1.00  0.00    -0.266 OA
ENDBRANCH  27  28
ENDBRANCH  11  27
BRANCH  16  31
HETATM   31  O7  UNL     1      26.474  11.428  20.241  1.00  0.00    -0.315 OA
BRANCH  31  32
HETATM   32  C22 UNL     1      27.612  10.664  20.054  1.00  0.00     0.255 C 
HETATM   33  C23 UNL     1      28.775  11.182  19.284  1.00  0.00     0.126 C 
HETATM   34  O8  UNL     1      27.708   9.501  20.527  1.00  0.00    -0.266 OA
ENDBRANCH  31  32
ENDBRANCH  16  31
TORSDOF 9
ENDMDL
MODEL 5
REMARK VINA RESULT: -6.684835003      2.124      5.156
REMARK  9 active torsions:
REMARK  status: ('A' for Active; 'I' for Inactive)
REMARK    1  A    between atoms: C2_2  and  N1_3 
REMARK       I    between atoms: N1_3  and  C3_5 
REMARK    2  A    between atoms: C3_5  and  O2_7 
REMARK    3  A    between atoms: O2_7  and  C4_8 
REMARK    4  A    between atoms: C5_9  and  C7_11 
REMARK    5  A    between atoms: C7_11  and  O3_12 
REMARK    6  A    between atoms: C14_21  and  O5_22 
REMARK    7  A    between atoms: O5_22  and  C15_23 
REMARK    8  A    between atoms: C21_30  and  O7_31 
REMARK    9  A    between atoms: O7_31  and  C22_32 
ROOT
HETATM    1  C4  UNL     1      25.085  12.385  21.628  1.00  0.00     0.184 C 
HETATM    2  C5  UNL     1      24.878  11.678  20.301  1.00  0.00     0.106 C 
HETATM    3  C6  UNL     1      23.481  11.914  19.765  1.00  0.00     0.051 C 
HETATM    4  O4  UNL     1      25.784  12.173  19.407  1.00  0.00    -0.369 OA
HETATM    5  C8  UNL     1      26.209  13.402  19.846  1.00  0.00     0.137 C 
HETATM    6  C9  UNL     1      25.342  14.560  19.505  1.00  0.00     0.034 C 
HETATM    7  C10 UNL     1      25.112  15.357  20.791  1.00  0.00     0.016 C 
HETATM    8  C11 UNL     1      26.063  14.723  21.757  1.00  0.00     0.007 C 
HETATM    9  C12 UNL     1      27.504  15.251  21.617  1.00  0.00     0.010 C 
HETATM   10  C13 UNL     1      28.397  14.092  21.992  1.00  0.00     0.040 C 
HETATM   11  C14 UNL     1      27.564  12.819  21.800  1.00  0.00     0.146 C 
HETATM   12  C17 UNL     1      26.210  13.293  21.379  1.00  0.00     0.053 C 
HETATM   13  C18 UNL     1      27.207  16.152  22.793  1.00  0.00    -0.015 C 
HETATM   14  C19 UNL     1      28.335  16.202  23.794  1.00  0.00     0.018 C 
HETATM   15  C20 UNL     1      26.716  17.526  22.481  1.00  0.00     0.018 C 
HETATM   16  C21 UNL     1      26.102  15.164  23.152  1.00  0.00     0.150 C 
ENDROOT
BRANCH   1  17
HETATM   17  O2  UNL     1      23.897  13.097  21.976  1.00  0.00    -0.294 OA
BRANCH  17  18
HETATM   18  C3  UNL     1      23.041  12.716  22.993  1.00  0.00     0.361 C 
HETATM   19  N1  UNL     1      23.192  11.504  23.715  1.00  0.00    -0.337 N 
ATOM     20  H1  UNL     1      23.967  10.886  23.473  1.00  0.00     0.164 HD
HETATM   21  O1  UNL     1      22.093  13.492  23.277  1.00  0.00    -0.239 OA
BRANCH  19  22
HETATM   22  C2  UNL     1      22.299  11.106  24.776  1.00  0.00     0.120 C 
HETATM   23  C1  UNL     1      21.799   9.704  24.571  1.00  0.00     0.026 C 
ENDBRANCH  19  22
ENDBRANCH  17  18
ENDBRANCH   1  17
BRANCH   2  24
HETATM   24  C7  UNL     1      25.008  10.156  20.445  1.00  0.00     0.204 C 
BRANCH  24  25
HETATM   25  O3  UNL     1      24.687   9.815  21.756  1.00  0.00    -0.398 OA
ATOM     26  H3  UNL     1      25.362   9.233  22.085  1.00  0.00     0.209 HD
ENDBRANCH  24  25
ENDBRANCH   2  24
BRANCH  11  27
HETATM   27  O5  UNL     1      28.199  12.161  20.691  1.00  0.00    -0.315 OA
BRANCH  27  28
HETATM   28  C15 UNL     1      28.893  10.969  20.827  1.00  0.00     0.255 C 
HETATM   29  C16 UNL     1      28.393   9.666  20.351  1.00  0.00     0.126 C 
HETATM   30  O6  UNL     1      30.029  11.052  21.404  1.00  0.00    -0.266 OA
ENDBRANCH  27  28
ENDBRANCH  11  27
BRANCH  16  31
HETATM   31  O7  UNL     1      26.490  14.256  24.159  1.00  0.00    -0.315 OA
BRANCH  31  32
HETATM   32  C22 UNL     1      25.719  14.159  25.304  1.00  0.00     0.255 C 
HETATM   33  C23 UNL     1      25.643  15.276  26.283  1.00  0.00     0.126 C 
HETATM   34  O8  UNL     1      25.051  13.123  25.560  1.00  0.00    -0.266 OA
ENDBRANCH  31  32
ENDBRANCH  16  31
TORSDOF 9
ENDMDL
