MODEL 1
REMARK VINA RESULT: -8.508396248      0.000      0.000
REMARK  7 active torsions:
REMARK  status: ('A' for Active; 'I' for Inactive)
REMARK    1  A    between atoms: C2_2  and  C3_3 
REMARK    2  A    between atoms: C8_10  and  O3_11 
REMARK    3  A    between atoms: C9_13  and  O4_14 
REMARK    4  A    between atoms: O4_14  and  C10_15 
REMARK    5  A    between atoms: C21_27  and  O6_28 
REMARK    6  A    between atoms: C22_30  and  O7_32 
REMARK    7  A    between atoms: O7_32  and  C24_33 
ROOT
HETATM    1  C3  UNL     1      21.649  11.892  23.520  1.00  0.00     0.089 C 
HETATM    2  O1  UNL     1      21.395  13.060  24.024  1.00  0.00    -0.362 OA
HETATM    3  C4  UNL     1      20.464  13.643  24.776  1.00  0.00     0.084 C 
HETATM    4  C5  UNL     1      20.618  15.154  24.489  1.00  0.00     0.048 C 
HETATM    5  C6  UNL     1      20.741  13.549  26.285  1.00  0.00     0.048 C 
HETATM    6  C7  UNL     1      19.182  13.191  24.365  1.00  0.00     0.196 C 
HETATM    7  O2  UNL     1      19.305  11.782  24.658  1.00  0.00    -0.339 OA
HETATM    8  C8  UNL     1      18.569  11.255  23.680  1.00  0.00     0.219 C 
HETATM    9  C9  UNL     1      19.389  11.208  22.451  1.00  0.00     0.204 C 
HETATM   10  C12 UNL     1      20.841  11.215  22.494  1.00  0.00     0.060 C 
HETATM   11  C13 UNL     1      21.260  11.454  21.046  1.00  0.00     0.015 C 
HETATM   12  C14 UNL     1      22.666  11.015  20.762  1.00  0.00    -0.013 C 
HETATM   13  C15 UNL     1      22.998  11.365  19.350  1.00  0.00     0.010 C 
HETATM   14  C16 UNL     1      23.547  11.524  21.801  1.00  0.00     0.000 C 
HETATM   15  C17 UNL     1      24.196  12.839  21.321  1.00  0.00    -0.013 C 
HETATM   16  C18 UNL     1      25.598  13.023  21.860  1.00  0.00     0.010 C 
HETATM   17  C19 UNL     1      23.169  13.537  22.222  1.00  0.00     0.013 C 
HETATM   18  C20 UNL     1      23.055  12.233  22.935  1.00  0.00     0.030 C 
HETATM   19  C21 UNL     1      17.357  12.160  23.704  1.00  0.00     0.220 C 
HETATM   20  C22 UNL     1      17.812  13.248  24.749  1.00  0.00     0.127 C 
HETATM   21  C23 UNL     1      17.513  12.520  26.086  1.00  0.00     0.052 C 
ENDROOT
BRANCH  20  22
HETATM   22  O7  UNL     1      16.951  14.275  24.564  1.00  0.00    -0.305 OA
BRANCH  22  23
HETATM   23  C24 UNL     1      16.698  15.455  25.120  1.00  0.00     0.255 C 
HETATM   24  C25 UNL     1      15.524  15.763  26.001  1.00  0.00     0.126 C 
HETATM   25  O8  UNL     1      17.473  16.402  24.918  1.00  0.00    -0.266 OA
ENDBRANCH  22  23
ENDBRANCH  20  22
BRANCH  19  26
HETATM   26  O6  UNL     1      16.210  11.561  24.134  1.00  0.00    -0.387 OA
ATOM     27  H6  UNL     1      15.616  12.136  24.601  1.00  0.00     0.210 HD
ENDBRANCH  19  26
BRANCH   8  28
HETATM   28  O3  UNL     1      18.092  10.007  24.097  1.00  0.00    -0.361 OA
ATOM     29  H3  UNL     1      17.202   9.899  23.783  1.00  0.00     0.213 HD
ENDBRANCH   8  28
BRANCH   9  30
HETATM   30  O4  UNL     1      18.932  10.098  21.671  1.00  0.00    -0.310 OA
BRANCH  30  31
HETATM   31  C10 UNL     1      17.961  10.067  20.742  1.00  0.00     0.255 C 
HETATM   32  C11 UNL     1      16.690   9.341  20.929  1.00  0.00     0.126 C 
HETATM   33  O5  UNL     1      18.181  10.685  19.703  1.00  0.00    -0.266 OA
ENDBRANCH  30  31
ENDBRANCH   9  30
BRANCH   1  34
HETATM   34  C2  UNL     1      22.100  10.917  24.581  1.00  0.00     0.001 C 
HETATM   35  C1  UNL     1      21.921   9.622  24.534  1.00  0.00     0.010 C 
ENDBRANCH   1  34
TORSDOF 7
ENDMDL
MODEL 2
REMARK VINA RESULT: -8.206478802      1.562      1.928
REMARK  7 active torsions:
REMARK  status: ('A' for Active; 'I' for Inactive)
REMARK    1  A    between atoms: C2_2  and  C3_3 
REMARK    2  A    between atoms: C8_10  and  O3_11 
REMARK    3  A    between atoms: C9_13  and  O4_14 
REMARK    4  A    between atoms: O4_14  and  C10_15 
REMARK    5  A    between atoms: C21_27  and  O6_28 
REMARK    6  A    between atoms: C22_30  and  O7_32 
REMARK    7  A    between atoms: O7_32  and  C24_33 
ROOT
HETATM    1  C3  UNL     1      20.813  10.859  23.319  1.00  0.00     0.089 C 
HETATM    2  O1  UNL     1      21.091  12.065  23.709  1.00  0.00    -0.362 OA
HETATM    3  C4  UNL     1      20.736  12.909  24.674  1.00  0.00     0.084 C 
HETATM    4  C5  UNL     1      21.125  14.305  24.136  1.00  0.00     0.048 C 
HETATM    5  C6  UNL     1      21.585  12.783  25.950  1.00  0.00     0.048 C 
HETATM    6  C7  UNL     1      19.332  12.831  24.870  1.00  0.00     0.196 C 
HETATM    7  O2  UNL     1      19.212  11.454  25.290  1.00  0.00    -0.339 OA
HETATM    8  C8  UNL     1      18.029  11.132  24.766  1.00  0.00     0.219 C 
HETATM    9  C9  UNL     1      18.222  10.818  23.334  1.00  0.00     0.204 C 
HETATM   10  C12 UNL     1      19.510  10.413  22.802  1.00  0.00     0.060 C 
HETATM   11  C13 UNL     1      19.332  10.481  21.287  1.00  0.00     0.015 C 
HETATM   12  C14 UNL     1      20.333   9.652  20.541  1.00  0.00    -0.013 C 
HETATM   13  C15 UNL     1      20.121   9.854  19.077  1.00  0.00     0.010 C 
HETATM   14  C16 UNL     1      21.664   9.917  21.065  1.00  0.00     0.000 C 
HETATM   15  C17 UNL     1      22.356  10.979  20.185  1.00  0.00    -0.013 C 
HETATM   16  C18 UNL     1      23.853  10.771  20.097  1.00  0.00     0.010 C 
HETATM   17  C19 UNL     1      22.008  11.966  21.307  1.00  0.00     0.013 C 
HETATM   18  C20 UNL     1      21.883  10.769  22.186  1.00  0.00     0.030 C 
HETATM   19  C21 UNL     1      17.204  12.344  25.135  1.00  0.00     0.220 C 
HETATM   20  C22 UNL     1      18.308  13.286  25.749  1.00  0.00     0.127 C 
HETATM   21  C23 UNL     1      18.424  12.711  27.185  1.00  0.00     0.052 C 
ENDROOT
BRANCH  20  22
HETATM   22  O7  UNL     1      17.733  14.510  25.772  1.00  0.00    -0.305 OA
BRANCH  22  23
HETATM   23  C24 UNL     1      18.124  15.777  25.878  1.00  0.00     0.255 C 
HETATM   24  C25 UNL     1      19.244  16.267  26.745  1.00  0.00     0.126 C 
HETATM   25  O8  UNL     1      17.539  16.651  25.221  1.00  0.00    -0.266 OA
ENDBRANCH  22  23
ENDBRANCH  20  22
BRANCH  19  26
HETATM   26  O6  UNL     1      16.233  12.109  26.062  1.00  0.00    -0.387 OA
ATOM     27  H6  UNL     1      15.503  11.590  25.746  1.00  0.00     0.210 HD
ENDBRANCH  19  26
BRANCH   8  28
HETATM   28  O3  UNL     1      17.477  10.083  25.511  1.00  0.00    -0.361 OA
ATOM     29  H3  UNL     1      18.099   9.366  25.537  1.00  0.00     0.213 HD
ENDBRANCH   8  28
BRANCH   9  30
HETATM   30  O4  UNL     1      17.221   9.863  22.965  1.00  0.00    -0.310 OA
BRANCH  30  31
HETATM   31  C10 UNL     1      16.378   9.892  21.918  1.00  0.00     0.255 C 
HETATM   32  C11 UNL     1      15.909   8.675  21.227  1.00  0.00     0.126 C 
HETATM   33  O5  UNL     1      16.004  11.003  21.551  1.00  0.00    -0.266 OA
ENDBRANCH  30  31
ENDBRANCH   9  30
BRANCH   1  34
HETATM   34  C2  UNL     1      21.408   9.826  24.245  1.00  0.00     0.001 C 
HETATM   35  C1  UNL     1      22.688   9.674  24.475  1.00  0.00     0.010 C 
ENDBRANCH   1  34
TORSDOF 7
ENDMDL
MODEL 3
REMARK VINA RESULT: -8.161215727      2.459      6.312
REMARK  7 active torsions:
REMARK  status: ('A' for Active; 'I' for Inactive)
REMARK    1  A    between atoms: C2_2  and  C3_3 
REMARK    2  A    between atoms: C8_10  and  O3_11 
REMARK    3  A    between atoms: C9_13  and  O4_14 
REMARK    4  A    between atoms: O4_14  and  C10_15 
REMARK    5  A    between atoms: C21_27  and  O6_28 
REMARK    6  A    between atoms: C22_30  and  O7_32 
REMARK    7  A    between atoms: O7_32  and  C24_33 
ROOT
HETATM    1  C3  UNL     1      22.131  10.998  22.068  1.00  0.00     0.089 C 
HETATM    2  O1  UNL     1      22.949  11.377  21.135  1.00  0.00    -0.362 OA
HETATM    3  C4  UNL     1      24.069  12.086  21.015  1.00  0.00     0.084 C 
HETATM    4  C5  UNL     1      24.111  12.503  19.527  1.00  0.00     0.048 C 
HETATM    5  C6  UNL     1      25.349  11.249  21.175  1.00  0.00     0.048 C 
HETATM    6  C7  UNL     1      23.986  13.233  21.847  1.00  0.00     0.196 C 
HETATM    7  O2  UNL     1      23.887  12.600  23.142  1.00  0.00    -0.339 OA
HETATM    8  C8  UNL     1      23.093  13.458  23.783  1.00  0.00     0.219 C 
HETATM    9  C9  UNL     1      21.694  13.183  23.392  1.00  0.00     0.204 C 
HETATM   10  C12 UNL     1      21.281  11.893  22.868  1.00  0.00     0.060 C 
HETATM   11  C13 UNL     1      19.873  12.136  22.331  1.00  0.00     0.015 C 
HETATM   12  C14 UNL     1      19.069  10.877  22.201  1.00  0.00    -0.013 C 
HETATM   13  C15 UNL     1      17.748  11.218  21.596  1.00  0.00     0.010 C 
HETATM   14  C16 UNL     1      19.869   9.864  21.531  1.00  0.00     0.000 C 
HETATM   15  C17 UNL     1      19.532   9.861  20.026  1.00  0.00    -0.013 C 
HETATM   16  C18 UNL     1      19.633   8.481  19.412  1.00  0.00     0.010 C 
HETATM   17  C19 UNL     1      20.847  10.632  19.850  1.00  0.00     0.013 C 
HETATM   18  C20 UNL     1      21.232  10.081  21.180  1.00  0.00     0.030 C 
HETATM   19  C21 UNL     1      23.707  14.781  23.383  1.00  0.00     0.220 C 
HETATM   20  C22 UNL     1      24.782  14.310  22.331  1.00  0.00     0.127 C 
HETATM   21  C23 UNL     1      25.935  13.858  23.265  1.00  0.00     0.052 C 
ENDROOT
BRANCH  20  22
HETATM   22  O7  UNL     1      25.122  15.439  21.668  1.00  0.00    -0.305 OA
BRANCH  22  23
HETATM   23  C24 UNL     1      25.663  15.766  20.498  1.00  0.00     0.255 C 
HETATM   24  C25 UNL     1      24.899  16.172  19.275  1.00  0.00     0.126 C 
HETATM   25  O8  UNL     1      26.897  15.744  20.371  1.00  0.00    -0.266 OA
ENDBRANCH  22  23
ENDBRANCH  20  22
BRANCH  19  26
HETATM   26  O6  UNL     1      24.321  15.451  24.399  1.00  0.00    -0.387 OA
ATOM     27  H6  UNL     1      25.132  15.881  24.155  1.00  0.00     0.210 HD
ENDBRANCH  19  26
BRANCH   8  28
HETATM   28  O3  UNL     1      23.333  13.352  25.157  1.00  0.00    -0.361 OA
ATOM     29  H3  UNL     1      23.662  14.185  25.476  1.00  0.00     0.213 HD
ENDBRANCH   8  28
BRANCH   9  30
HETATM   30  O4  UNL     1      20.859  13.549  24.495  1.00  0.00    -0.310 OA
BRANCH  30  31
HETATM   31  C10 UNL     1      19.979  14.561  24.583  1.00  0.00     0.255 C 
HETATM   32  C11 UNL     1      18.624  14.404  25.145  1.00  0.00     0.126 C 
HETATM   33  O5  UNL     1      20.360  15.652  24.165  1.00  0.00    -0.266 OA
ENDBRANCH  30  31
ENDBRANCH   9  30
BRANCH   1  34
HETATM   34  C2  UNL     1      22.738   9.917  22.930  1.00  0.00     0.001 C 
HETATM   35  C1  UNL     1      22.490   9.745  24.203  1.00  0.00     0.010 C 
ENDBRANCH   1  34
TORSDOF 7
ENDMDL
MODEL 4
REMARK VINA RESULT: -8.027620299      2.444      7.092
REMARK  7 active torsions:
REMARK  status: ('A' for Active; 'I' for Inactive)
REMARK    1  A    between atoms: C2_2  and  C3_3 
REMARK    2  A    between atoms: C8_10  and  O3_11 
REMARK    3  A    between atoms: C9_13  and  O4_14 
REMARK    4  A    between atoms: O4_14  and  C10_15 
REMARK    5  A    between atoms: C21_27  and  O6_28 
REMARK    6  A    between atoms: C22_30  and  O7_32 
REMARK    7  A    between atoms: O7_32  and  C24_33 
ROOT
HETATM    1  C3  UNL     1      21.054  10.990  23.005  1.00  0.00     0.089 C 
HETATM    2  O1  UNL     1      21.263  10.863  21.732  1.00  0.00    -0.362 OA
HETATM    3  C4  UNL     1      22.280  10.928  20.875  1.00  0.00     0.084 C 
HETATM    4  C5  UNL     1      21.618  11.176  19.500  1.00  0.00     0.048 C 
HETATM    5  C6  UNL     1      23.004   9.587  20.672  1.00  0.00     0.048 C 
HETATM    6  C7  UNL     1      23.115  12.022  21.224  1.00  0.00     0.196 C 
HETATM    7  O2  UNL     1      23.545  11.601  22.538  1.00  0.00    -0.339 OA
HETATM    8  C8  UNL     1      23.643  12.776  23.160  1.00  0.00     0.219 C 
HETATM    9  C9  UNL     1      22.290  13.192  23.589  1.00  0.00     0.204 C 
HETATM   10  C12 UNL     1      21.213  12.235  23.773  1.00  0.00     0.060 C 
HETATM   11  C13 UNL     1      19.963  13.097  23.918  1.00  0.00     0.015 C 
HETATM   12  C14 UNL     1      18.833  12.383  24.598  1.00  0.00    -0.013 C 
HETATM   13  C15 UNL     1      17.643  13.283  24.617  1.00  0.00     0.010 C 
HETATM   14  C16 UNL     1      18.667  11.068  24.001  1.00  0.00     0.000 C 
HETATM   15  C17 UNL     1      17.562  11.133  22.926  1.00  0.00    -0.013 C 
HETATM   16  C18 UNL     1      16.778   9.841  22.822  1.00  0.00     0.010 C 
HETATM   17  C19 UNL     1      18.713  11.154  21.912  1.00  0.00     0.013 C 
HETATM   18  C20 UNL     1      19.550  10.571  22.999  1.00  0.00     0.030 C 
HETATM   19  C21 UNL     1      24.354  13.605  22.114  1.00  0.00     0.220 C 
HETATM   20  C22 UNL     1      24.372  12.605  20.896  1.00  0.00     0.127 C 
HETATM   21  C23 UNL     1      25.585  11.710  21.264  1.00  0.00     0.052 C 
ENDROOT
BRANCH  20  22
HETATM   22  O7  UNL     1      24.662  13.380  19.827  1.00  0.00    -0.305 OA
BRANCH  22  23
HETATM   23  C24 UNL     1      25.083  13.211  18.577  1.00  0.00     0.255 C 
HETATM   24  C25 UNL     1      26.435  13.600  18.059  1.00  0.00     0.126 C 
HETATM   25  O8  UNL     1      24.323  12.693  17.744  1.00  0.00    -0.266 OA
ENDBRANCH  22  23
ENDBRANCH  20  22
BRANCH  19  26
HETATM   26  O6  UNL     1      25.630  13.956  22.440  1.00  0.00    -0.387 OA
ATOM     27  H6  UNL     1      26.179  14.185  21.699  1.00  0.00     0.210 HD
ENDBRANCH  19  26
BRANCH   8  28
HETATM   28  O3  UNL     1      24.562  12.656  24.208  1.00  0.00    -0.361 OA
ATOM     29  H3  UNL     1      25.441  12.693  23.850  1.00  0.00     0.213 HD
ENDBRANCH   8  28
BRANCH   9  30
HETATM   30  O4  UNL     1      22.439  13.988  24.769  1.00  0.00    -0.310 OA
BRANCH  30  31
HETATM   31  C10 UNL     1      22.589  15.320  24.871  1.00  0.00     0.255 C 
HETATM   32  C11 UNL     1      21.471  16.237  25.161  1.00  0.00     0.126 C 
HETATM   33  O5  UNL     1      23.727  15.753  24.708  1.00  0.00    -0.266 OA
ENDBRANCH  30  31
ENDBRANCH   9  30
BRANCH   1  34
HETATM   34  C2  UNL     1      21.591   9.808  23.776  1.00  0.00     0.001 C 
HETATM   35  C1  UNL     1      21.861   9.808  25.056  1.00  0.00     0.010 C 
ENDBRANCH   1  34
TORSDOF 7
ENDMDL
MODEL 5
REMARK VINA RESULT: -8.011904612      3.124      6.814
REMARK  7 active torsions:
REMARK  status: ('A' for Active; 'I' for Inactive)
REMARK    1  A    between atoms: C2_2  and  C3_3 
REMARK    2  A    between atoms: C8_10  and  O3_11 
REMARK    3  A    between atoms: C9_13  and  O4_14 
REMARK    4  A    between atoms: O4_14  and  C10_15 
REMARK    5  A    between atoms: C21_27  and  O6_28 
REMARK    6  A    between atoms: C22_30  and  O7_32 
REMARK    7  A    between atoms: O7_32  and  C24_33 
ROOT
HETATM    1  C3  UNL     1      22.860  11.061  21.650  1.00  0.00     0.089 C 
HETATM    2  O1  UNL     1      23.523  11.572  20.660  1.00  0.00    -0.362 OA
HETATM    3  C4  UNL     1      24.645  12.260  20.457  1.00  0.00     0.084 C 
HETATM    4  C5  UNL     1      24.452  12.925  19.075  1.00  0.00     0.048 C 
HETATM    5  C6  UNL     1      25.882  11.373  20.242  1.00  0.00     0.048 C 
HETATM    6  C7  UNL     1      24.775  13.249  21.467  1.00  0.00     0.196 C 
HETATM    7  O2  UNL     1      24.865  12.405  22.636  1.00  0.00    -0.339 OA
HETATM    8  C8  UNL     1      24.246  13.162  23.542  1.00  0.00     0.219 C 
HETATM    9  C9  UNL     1      22.787  12.997  23.371  1.00  0.00     0.204 C 
HETATM   10  C12 UNL     1      22.215  11.829  22.727  1.00  0.00     0.060 C 
HETATM   11  C13 UNL     1      20.752  12.200  22.501  1.00  0.00     0.015 C 
HETATM   12  C14 UNL     1      19.866  11.005  22.313  1.00  0.00    -0.013 C 
HETATM   13  C15 UNL     1      18.481  11.480  22.022  1.00  0.00     0.010 C 
HETATM   14  C16 UNL     1      20.477  10.099  21.353  1.00  0.00     0.000 C 
HETATM   15  C17 UNL     1      19.884  10.365  19.953  1.00  0.00    -0.013 C 
HETATM   16  C18 UNL     1      19.796   9.108  19.114  1.00  0.00     0.010 C 
HETATM   17  C19 UNL     1      21.191  11.118  19.672  1.00  0.00     0.013 C 
HETATM   18  C20 UNL     1      21.768  10.336  20.801  1.00  0.00     0.030 C 
HETATM   19  C21 UNL     1      24.857  14.517  23.261  1.00  0.00     0.220 C 
HETATM   20  C22 UNL     1      25.703  14.204  21.969  1.00  0.00     0.127 C 
HETATM   21  C23 UNL     1      26.973  13.567  22.591  1.00  0.00     0.052 C 
ENDROOT
BRANCH  20  22
HETATM   22  O7  UNL     1      25.988  15.421  21.450  1.00  0.00    -0.305 OA
BRANCH  22  23
HETATM   23  C24 UNL     1      25.565  16.184  20.447  1.00  0.00     0.255 C 
HETATM   24  C25 UNL     1      26.405  16.639  19.291  1.00  0.00     0.126 C 
HETATM   25  O8  UNL     1      24.386  16.569  20.431  1.00  0.00    -0.266 OA
ENDBRANCH  22  23
ENDBRANCH  20  22
BRANCH  19  26
HETATM   26  O6  UNL     1      25.676  14.985  24.245  1.00  0.00    -0.387 OA
ATOM     27  H6  UNL     1      26.072  15.829  24.060  1.00  0.00     0.210 HD
ENDBRANCH  19  26
BRANCH   8  28
HETATM   28  O3  UNL     1      24.715  12.816  24.815  1.00  0.00    -0.361 OA
ATOM     29  H3  UNL     1      24.011  12.932  25.442  1.00  0.00     0.213 HD
ENDBRANCH   8  28
BRANCH   9  30
HETATM   30  O4  UNL     1      22.179  13.192  24.653  1.00  0.00    -0.310 OA
BRANCH  30  31
HETATM   31  C10 UNL     1      21.829  14.344  25.251  1.00  0.00     0.255 C 
HETATM   32  C11 UNL     1      20.719  15.193  24.778  1.00  0.00     0.126 C 
HETATM   33  O5  UNL     1      22.491  14.669  26.234  1.00  0.00    -0.266 OA
ENDBRANCH  30  31
ENDBRANCH   9  30
BRANCH   1  34
HETATM   34  C2  UNL     1      23.543   9.832  22.198  1.00  0.00     0.001 C 
HETATM   35  C1  UNL     1      24.069   8.879  21.472  1.00  0.00     0.010 C 
ENDBRANCH   1  34
TORSDOF 7
ENDMDL
