MODEL 1
REMARK VINA RESULT: -8.118408325      0.000      0.000
REMARK  9 active torsions:
REMARK  status: ('A' for Active; 'I' for Inactive)
REMARK    1  A    between atoms: C2_2  and  C3_3 
REMARK    2  A    between atoms: C3_3  and  O2_5 
REMARK    3  A    between atoms: O2_5  and  C4_6 
REMARK    4  A    between atoms: C11_13  and  O3_14 
REMARK    5  A    between atoms: C13_17  and  O4_18 
REMARK    6  A    between atoms: O4_18  and  C14_19 
REMARK    7  A    between atoms: C16_22  and  O6_23 
REMARK    8  A    between atoms: O6_23  and  C17_24 
REMARK    9  A    between atoms: C20_28  and  O8_29 
ROOT
HETATM    1  C4  UNL     1      21.723  14.091  26.052  1.00  0.00     0.141 C 
HETATM    2  C5  UNL     1      20.712  13.143  25.554  1.00  0.00     0.046 C 
HETATM    3  C6  UNL     1      21.169  12.012  24.694  1.00  0.00     0.000 C 
HETATM    4  C7  UNL     1      21.496  10.867  25.636  1.00  0.00     0.019 C 
HETATM    5  C8  UNL     1      22.424  12.385  23.975  1.00  0.00    -0.026 C 
HETATM    6  C9  UNL     1      22.903  11.404  22.972  1.00  0.00     0.014 C 
HETATM    7  C10 UNL     1      21.876  10.630  22.249  1.00  0.00     0.042 C 
HETATM    8  C11 UNL     1      20.622  10.317  22.979  1.00  0.00     0.092 C 
HETATM    9  C12 UNL     1      19.543  10.071  21.910  1.00  0.00     0.076 C 
HETATM   10  C13 UNL     1      18.251   9.668  22.518  1.00  0.00     0.164 C 
HETATM   11  C16 UNL     1      17.932  10.236  23.840  1.00  0.00     0.164 C 
HETATM   12  C19 UNL     1      18.770  11.351  24.330  1.00  0.00     0.077 C 
HETATM   13  C20 UNL     1      20.104  11.525  23.726  1.00  0.00     0.099 C 
HETATM   14  C21 UNL     1      22.419  13.772  23.383  1.00  0.00     0.044 C 
HETATM   15  C22 UNL     1      23.259  14.632  24.272  1.00  0.00    -0.082 C 
HETATM   16  C23 UNL     1      23.934  15.728  24.025  1.00  0.00     0.015 C 
HETATM   17  C24 UNL     1      23.136  13.907  25.578  1.00  0.00     0.044 C 
HETATM   18  C25 UNL     1      23.487  12.560  25.069  1.00  0.00     0.022 C 
ENDROOT
BRANCH   1  19
HETATM   19  O2  UNL     1      21.687  14.180  27.480  1.00  0.00    -0.312 OA
BRANCH  19  20
HETATM   20  C3  UNL     1      22.307  13.341  28.350  1.00  0.00     0.282 C 
HETATM   21  O1  UNL     1      23.507  13.585  28.636  1.00  0.00    -0.260 OA
BRANCH  20  22
HETATM   22  C2  UNL     1      21.621  12.207  28.932  1.00  0.00     0.072 C 
HETATM   23  C1  UNL     1      20.310  12.170  29.060  1.00  0.00     0.017 C 
ENDBRANCH  20  22
ENDBRANCH  19  20
ENDBRANCH   1  19
BRANCH  13  24
HETATM   24  O8  UNL     1      19.938  12.451  22.662  1.00  0.00    -0.386 OA
ATOM     25  H8  UNL     1      19.940  12.001  21.825  1.00  0.00     0.210 HD
ENDBRANCH  13  24
BRANCH   8  26
HETATM   26  O3  UNL     1      20.745   9.183  23.695  1.00  0.00    -0.387 OA
ATOM     27  H3  UNL     1      19.979   8.629  23.595  1.00  0.00     0.210 HD
ENDBRANCH   8  26
BRANCH  11  28
HETATM   28  O6  UNL     1      16.555  10.614  23.849  1.00  0.00    -0.314 OA
BRANCH  28  29
HETATM   29  C17 UNL     1      15.619  10.122  24.709  1.00  0.00     0.255 C 
HETATM   30  C18 UNL     1      15.477   8.644  24.956  1.00  0.00     0.126 C 
HETATM   31  O7  UNL     1      14.863  10.918  25.304  1.00  0.00    -0.266 OA
ENDBRANCH  28  29
ENDBRANCH  11  28
BRANCH  10  32
HETATM   32  O4  UNL     1      17.231  10.014  21.567  1.00  0.00    -0.314 OA
BRANCH  32  33
HETATM   33  C14 UNL     1      16.697   9.144  20.666  1.00  0.00     0.255 C 
HETATM   34  C15 UNL     1      15.636   8.156  21.057  1.00  0.00     0.126 C 
HETATM   35  O5  UNL     1      17.129   9.195  19.475  1.00  0.00    -0.266 OA
ENDBRANCH  32  33
ENDBRANCH  10  32
TORSDOF 9
ENDMDL
MODEL 2
REMARK VINA RESULT: -7.982335122      2.789      8.238
REMARK  9 active torsions:
REMARK  status: ('A' for Active; 'I' for Inactive)
REMARK    1  A    between atoms: C2_2  and  C3_3 
REMARK    2  A    between atoms: C3_3  and  O2_5 
REMARK    3  A    between atoms: O2_5  and  C4_6 
REMARK    4  A    between atoms: C11_13  and  O3_14 
REMARK    5  A    between atoms: C13_17  and  O4_18 
REMARK    6  A    between atoms: O4_18  and  C14_19 
REMARK    7  A    between atoms: C16_22  and  O6_23 
REMARK    8  A    between atoms: O6_23  and  C17_24 
REMARK    9  A    between atoms: C20_28  and  O8_29 
ROOT
HETATM    1  C4  UNL     1      19.940  11.193  21.292  1.00  0.00     0.141 C 
HETATM    2  C5  UNL     1      21.201  11.785  21.770  1.00  0.00     0.046 C 
HETATM    3  C6  UNL     1      21.564  11.605  23.206  1.00  0.00     0.000 C 
HETATM    4  C7  UNL     1      22.366  10.317  23.284  1.00  0.00     0.019 C 
HETATM    5  C8  UNL     1      20.333  11.427  24.033  1.00  0.00    -0.026 C 
HETATM    6  C9  UNL     1      20.545  11.387  25.499  1.00  0.00     0.014 C 
HETATM    7  C10 UNL     1      21.648  12.207  26.038  1.00  0.00     0.042 C 
HETATM    8  C11 UNL     1      22.837  12.401  25.171  1.00  0.00     0.092 C 
HETATM    9  C12 UNL     1      23.521  13.693  25.651  1.00  0.00     0.076 C 
HETATM   10  C13 UNL     1      24.778  13.956  24.908  1.00  0.00     0.164 C 
HETATM   11  C16 UNL     1      24.822  13.518  23.501  1.00  0.00     0.164 C 
HETATM   12  C19 UNL     1      23.551  13.108  22.867  1.00  0.00     0.077 C 
HETATM   13  C20 UNL     1      22.435  12.725  23.751  1.00  0.00     0.099 C 
HETATM   14  C21 UNL     1      19.210  12.376  23.696  1.00  0.00     0.044 C 
HETATM   15  C22 UNL     1      18.200  11.601  22.913  1.00  0.00    -0.082 C 
HETATM   16  C23 UNL     1      16.910  11.772  22.761  1.00  0.00     0.015 C 
HETATM   17  C24 UNL     1      19.058  10.529  22.311  1.00  0.00     0.044 C 
HETATM   18  C25 UNL     1      19.716  10.100  23.568  1.00  0.00     0.022 C 
ENDROOT
BRANCH   1  19
HETATM   19  O2  UNL     1      20.170  10.313  20.188  1.00  0.00    -0.312 OA
BRANCH  19  20
HETATM   20  C3  UNL     1      19.258   9.475  19.628  1.00  0.00     0.282 C 
HETATM   21  O1  UNL     1      18.135   9.954  19.329  1.00  0.00    -0.260 OA
BRANCH  20  22
HETATM   22  C2  UNL     1      19.560   8.081  19.382  1.00  0.00     0.072 C 
HETATM   23  C1  UNL     1      18.810   7.325  18.607  1.00  0.00     0.017 C 
ENDBRANCH  20  22
ENDBRANCH  19  20
ENDBRANCH   1  19
BRANCH  13  24
HETATM   24  O8  UNL     1      21.665  13.902  23.948  1.00  0.00    -0.386 OA
ATOM     25  H8  UNL     1      21.378  14.257  23.115  1.00  0.00     0.210 HD
ENDBRANCH  13  24
BRANCH   8  26
HETATM   26  O3  UNL     1      23.721  11.397  25.325  1.00  0.00    -0.387 OA
ATOM     27  H3  UNL     1      24.506  11.548  24.811  1.00  0.00     0.210 HD
ENDBRANCH   8  26
BRANCH  11  28
HETATM   28  O6  UNL     1      25.451  14.542  22.729  1.00  0.00    -0.314 OA
BRANCH  28  29
HETATM   29  C17 UNL     1      25.636  14.496  21.380  1.00  0.00     0.255 C 
HETATM   30  C18 UNL     1      24.991  15.500  20.463  1.00  0.00     0.126 C 
HETATM   31  O7  UNL     1      26.357  13.600  20.895  1.00  0.00    -0.266 OA
ENDBRANCH  28  29
ENDBRANCH  11  28
BRANCH  10  32
HETATM   32  O4  UNL     1      25.013  15.371  24.997  1.00  0.00    -0.314 OA
BRANCH  32  33
HETATM   33  C14 UNL     1      25.523  15.994  26.096  1.00  0.00     0.255 C 
HETATM   34  C15 UNL     1      26.901  15.685  26.608  1.00  0.00     0.126 C 
HETATM   35  O5  UNL     1      24.791  16.850  26.677  1.00  0.00    -0.266 OA
ENDBRANCH  32  33
ENDBRANCH  10  32
TORSDOF 9
ENDMDL
MODEL 3
REMARK VINA RESULT: -7.955751926      3.055      8.050
REMARK  9 active torsions:
REMARK  status: ('A' for Active; 'I' for Inactive)
REMARK    1  A    between atoms: C2_2  and  C3_3 
REMARK    2  A    between atoms: C3_3  and  O2_5 
REMARK    3  A    between atoms: O2_5  and  C4_6 
REMARK    4  A    between atoms: C11_13  and  O3_14 
REMARK    5  A    between atoms: C13_17  and  O4_18 
REMARK    6  A    between atoms: O4_18  and  C14_19 
REMARK    7  A    between atoms: C16_22  and  O6_23 
REMARK    8  A    between atoms: O6_23  and  C17_24 
REMARK    9  A    between atoms: C20_28  and  O8_29 
ROOT
HETATM    1  C4  UNL     1      18.645  11.033  20.801  1.00  0.00     0.141 C 
HETATM    2  C5  UNL     1      20.081  11.333  20.676  1.00  0.00     0.046 C 
HETATM    3  C6  UNL     1      20.985  10.937  21.796  1.00  0.00     0.000 C 
HETATM    4  C7  UNL     1      21.452   9.525  21.486  1.00  0.00     0.019 C 
HETATM    5  C8  UNL     1      20.226  10.894  23.081  1.00  0.00    -0.026 C 
HETATM    6  C9  UNL     1      21.038  10.659  24.299  1.00  0.00     0.014 C 
HETATM    7  C10 UNL     1      22.410  11.205  24.303  1.00  0.00     0.042 C 
HETATM    8  C11 UNL     1      23.117  11.275  23.000  1.00  0.00     0.092 C 
HETATM    9  C12 UNL     1      24.195  12.363  23.147  1.00  0.00     0.076 C 
HETATM   10  C13 UNL     1      25.030  12.475  21.925  1.00  0.00     0.164 C 
HETATM   11  C16 UNL     1      24.368  12.191  20.640  1.00  0.00     0.164 C 
HETATM   12  C19 UNL     1      22.894  12.087  20.631  1.00  0.00     0.077 C 
HETATM   13  C20 UNL     1      22.217  11.817  21.914  1.00  0.00     0.099 C 
HETATM   14  C21 UNL     1      19.293  12.060  23.298  1.00  0.00     0.044 C 
HETATM   15  C22 UNL     1      17.906  11.568  23.034  1.00  0.00    -0.082 C 
HETATM   16  C23 UNL     1      16.745  11.984  23.476  1.00  0.00     0.015 C 
HETATM   17  C24 UNL     1      18.174  10.431  22.095  1.00  0.00     0.044 C 
HETATM   18  C25 UNL     1      19.206   9.758  22.918  1.00  0.00     0.022 C 
ENDROOT
BRANCH   1  19
HETATM   19  O2  UNL     1      18.185  10.250  19.695  1.00  0.00    -0.312 OA
BRANCH  19  20
HETATM   20  C3  UNL     1      17.983   8.906  19.693  1.00  0.00     0.282 C 
HETATM   21  O1  UNL     1      16.835   8.491  19.994  1.00  0.00    -0.260 OA
BRANCH  20  22
HETATM   22  C2  UNL     1      19.044   7.980  19.358  1.00  0.00     0.072 C 
HETATM   23  C1  UNL     1      19.036   7.274  18.246  1.00  0.00     0.017 C 
ENDBRANCH  20  22
ENDBRANCH  19  20
ENDBRANCH   1  19
BRANCH  13  24
HETATM   24  O8  UNL     1      21.873  13.085  22.455  1.00  0.00    -0.386 OA
ATOM     25  H8  UNL     1      21.016  13.356  22.148  1.00  0.00     0.210 HD
ENDBRANCH  13  24
BRANCH   8  26
HETATM   26  O3  UNL     1      23.750  10.118  22.727  1.00  0.00    -0.387 OA
ATOM     27  H3  UNL     1      24.633  10.275  22.414  1.00  0.00     0.210 HD
ENDBRANCH   8  26
BRANCH  11  28
HETATM   28  O6  UNL     1      24.799  13.163  19.685  1.00  0.00    -0.314 OA
BRANCH  28  29
HETATM   29  C17 UNL     1      25.186  12.883  18.410  1.00  0.00     0.255 C 
HETATM   30  C18 UNL     1      26.640  12.774  18.034  1.00  0.00     0.126 C 
HETATM   31  O7  UNL     1      24.314  12.713  17.533  1.00  0.00    -0.266 OA
ENDBRANCH  28  29
ENDBRANCH  11  28
BRANCH  10  32
HETATM   32  O4  UNL     1      25.570  13.807  21.925  1.00  0.00    -0.314 OA
BRANCH  32  33
HETATM   33  C14 UNL     1      25.009  14.861  22.581  1.00  0.00     0.255 C 
HETATM   34  C15 UNL     1      25.658  15.472  23.790  1.00  0.00     0.126 C 
HETATM   35  O5  UNL     1      23.911  15.311  22.135  1.00  0.00    -0.266 OA
ENDBRANCH  32  33
ENDBRANCH  10  32
TORSDOF 9
ENDMDL
MODEL 4
REMARK VINA RESULT: -7.885288746      3.044      7.677
REMARK  9 active torsions:
REMARK  status: ('A' for Active; 'I' for Inactive)
REMARK    1  A    between atoms: C2_2  and  C3_3 
REMARK    2  A    between atoms: C3_3  and  O2_5 
REMARK    3  A    between atoms: O2_5  and  C4_6 
REMARK    4  A    between atoms: C11_13  and  O3_14 
REMARK    5  A    between atoms: C13_17  and  O4_18 
REMARK    6  A    between atoms: O4_18  and  C14_19 
REMARK    7  A    between atoms: C16_22  and  O6_23 
REMARK    8  A    between atoms: O6_23  and  C17_24 
REMARK    9  A    between atoms: C20_28  and  O8_29 
ROOT
HETATM    1  C4  UNL     1      21.729  11.379  19.954  1.00  0.00     0.141 C 
HETATM    2  C5  UNL     1      22.384  12.027  21.103  1.00  0.00     0.046 C 
HETATM    3  C6  UNL     1      22.204  11.416  22.453  1.00  0.00     0.000 C 
HETATM    4  C7  UNL     1      23.335  10.416  22.621  1.00  0.00     0.019 C 
HETATM    5  C8  UNL     1      20.916  10.662  22.512  1.00  0.00    -0.026 C 
HETATM    6  C9  UNL     1      20.544  10.131  23.845  1.00  0.00     0.014 C 
HETATM    7  C10 UNL     1      20.955  10.924  25.020  1.00  0.00     0.042 C 
HETATM    8  C11 UNL     1      22.217  11.698  24.909  1.00  0.00     0.092 C 
HETATM    9  C12 UNL     1      22.120  12.840  25.936  1.00  0.00     0.076 C 
HETATM   10  C13 UNL     1      23.366  13.644  25.978  1.00  0.00     0.164 C 
HETATM   11  C16 UNL     1      24.111  13.784  24.715  1.00  0.00     0.164 C 
HETATM   12  C19 UNL     1      23.440  13.356  23.469  1.00  0.00     0.077 C 
HETATM   13  C20 UNL     1      22.304  12.423  23.586  1.00  0.00     0.099 C 
HETATM   14  C21 UNL     1      19.742  11.379  21.893  1.00  0.00     0.044 C 
HETATM   15  C22 UNL     1      19.486  10.738  20.566  1.00  0.00    -0.082 C 
HETATM   16  C23 UNL     1      18.393  10.648  19.848  1.00  0.00     0.015 C 
HETATM   17  C24 UNL     1      20.844  10.198  20.237  1.00  0.00     0.044 C 
HETATM   18  C25 UNL     1      21.076   9.498  21.522  1.00  0.00     0.022 C 
ENDROOT
BRANCH   1  19
HETATM   19  O2  UNL     1      22.681  11.052  18.936  1.00  0.00    -0.312 OA
BRANCH  19  20
HETATM   20  C3  UNL     1      23.969  11.480  18.876  1.00  0.00     0.282 C 
HETATM   21  O1  UNL     1      24.173  12.649  18.460  1.00  0.00    -0.260 OA
BRANCH  20  22
HETATM   22  C2  UNL     1      25.071  10.629  19.273  1.00  0.00     0.072 C 
HETATM   23  C1  UNL     1      26.035  11.052  20.066  1.00  0.00     0.017 C 
ENDBRANCH  20  22
ENDBRANCH  19  20
ENDBRANCH   1  19
BRANCH  13  24
HETATM   24  O8  UNL     1      21.135  13.228  23.641  1.00  0.00    -0.386 OA
ATOM     25  H8  UNL     1      20.866  13.484  22.766  1.00  0.00     0.210 HD
ENDBRANCH  13  24
BRANCH   8  26
HETATM   26  O3  UNL     1      23.281  10.944  25.246  1.00  0.00    -0.387 OA
ATOM     27  H3  UNL     1      23.173  10.046  24.954  1.00  0.00     0.210 HD
ENDBRANCH   8  26
BRANCH  11  28
HETATM   28  O6  UNL     1      24.552  15.138  24.597  1.00  0.00    -0.314 OA
BRANCH  28  29
HETATM   29  C17 UNL     1      25.383  15.604  23.623  1.00  0.00     0.255 C 
HETATM   30  C18 UNL     1      24.924  16.629  22.621  1.00  0.00     0.126 C 
HETATM   31  O7  UNL     1      26.551  15.169  23.561  1.00  0.00    -0.266 OA
ENDBRANCH  28  29
ENDBRANCH  11  28
BRANCH  10  32
HETATM   32  O4  UNL     1      22.995  14.938  26.484  1.00  0.00    -0.314 OA
BRANCH  32  33
HETATM   33  C14 UNL     1      21.756  15.486  26.348  1.00  0.00     0.255 C 
HETATM   34  C15 UNL     1      20.825  15.628  27.517  1.00  0.00     0.126 C 
HETATM   35  O5  UNL     1      21.411  15.874  25.192  1.00  0.00    -0.266 OA
ENDBRANCH  32  33
ENDBRANCH  10  32
TORSDOF 9
ENDMDL
MODEL 5
REMARK VINA RESULT: -7.875810078      2.241      3.025
REMARK  9 active torsions:
REMARK  status: ('A' for Active; 'I' for Inactive)
REMARK    1  A    between atoms: C2_2  and  C3_3 
REMARK    2  A    between atoms: C3_3  and  O2_5 
REMARK    3  A    between atoms: O2_5  and  C4_6 
REMARK    4  A    between atoms: C11_13  and  O3_14 
REMARK    5  A    between atoms: C13_17  and  O4_18 
REMARK    6  A    between atoms: O4_18  and  C14_19 
REMARK    7  A    between atoms: C16_22  and  O6_23 
REMARK    8  A    between atoms: O6_23  and  C17_24 
REMARK    9  A    between atoms: C20_28  and  O8_29 
ROOT
HETATM    1  C4  UNL     1      20.370  14.435  24.503  1.00  0.00     0.141 C 
HETATM    2  C5  UNL     1      19.833  13.286  23.754  1.00  0.00     0.046 C 
HETATM    3  C6  UNL     1      20.693  12.075  23.609  1.00  0.00     0.000 C 
HETATM    4  C7  UNL     1      20.387  11.190  24.805  1.00  0.00     0.019 C 
HETATM    5  C8  UNL     1      22.136  12.455  23.679  1.00  0.00    -0.026 C 
HETATM    6  C9  UNL     1      23.100  11.364  23.399  1.00  0.00     0.014 C 
HETATM    7  C10 UNL     1      22.684  10.338  22.423  1.00  0.00     0.042 C 
HETATM    8  C11 UNL     1      21.237  10.019  22.349  1.00  0.00     0.092 C 
HETATM    9  C12 UNL     1      20.991   9.430  20.949  1.00  0.00     0.076 C 
HETATM   10  C13 UNL     1      19.583   8.994  20.777  1.00  0.00     0.164 C 
HETATM   11  C16 UNL     1      18.555   9.767  21.496  1.00  0.00     0.164 C 
HETATM   12  C19 UNL     1      18.959  11.055  22.101  1.00  0.00     0.077 C 
HETATM   13  C20 UNL     1      20.395  11.275  22.352  1.00  0.00     0.099 C 
HETATM   14  C21 UNL     1      22.499  13.685  22.886  1.00  0.00     0.044 C 
HETATM   15  C22 UNL     1      22.667  14.804  23.864  1.00  0.00    -0.082 C 
HETATM   16  C23 UNL     1      23.373  15.906  23.800  1.00  0.00     0.015 C 
HETATM   17  C24 UNL     1      21.789  14.343  24.987  1.00  0.00     0.044 C 
HETATM   18  C25 UNL     1      22.354  12.977  25.107  1.00  0.00     0.022 C 
ENDROOT
BRANCH   1  19
HETATM   19  O2  UNL     1      19.502  14.799  25.581  1.00  0.00    -0.312 OA
BRANCH  19  20
HETATM   20  C3  UNL     1      18.190  15.135  25.474  1.00  0.00     0.282 C 
HETATM   21  O1  UNL     1      17.913  16.226  24.913  1.00  0.00    -0.260 OA
BRANCH  20  22
HETATM   22  C2  UNL     1      17.143  14.276  25.985  1.00  0.00     0.072 C 
HETATM   23  C1  UNL     1      17.382  13.051  26.405  1.00  0.00     0.017 C 
ENDBRANCH  20  22
ENDBRANCH  19  20
ENDBRANCH   1  19
BRANCH  13  24
HETATM   24  O8  UNL     1      20.901  11.943  21.205  1.00  0.00    -0.386 OA
ATOM     25  H8  UNL     1      21.778  11.640  21.003  1.00  0.00     0.210 HD
ENDBRANCH  13  24
BRANCH   8  26
HETATM   26  O3  UNL     1      20.899   9.073  23.247  1.00  0.00    -0.387 OA
ATOM     27  H3  UNL     1      20.276   9.409  23.881  1.00  0.00     0.210 HD
ENDBRANCH   8  26
BRANCH  11  28
HETATM   28  O6  UNL     1      17.441   9.960  20.623  1.00  0.00    -0.314 OA
BRANCH  28  29
HETATM   29  C17 UNL     1      16.232   9.349  20.758  1.00  0.00     0.255 C 
HETATM   30  C18 UNL     1      15.659   8.488  19.664  1.00  0.00     0.126 C 
HETATM   31  O7  UNL     1      15.584   9.507  21.814  1.00  0.00    -0.266 OA
ENDBRANCH  28  29
ENDBRANCH  11  28
BRANCH  10  32
HETATM   32  O4  UNL     1      19.323   9.012  19.364  1.00  0.00    -0.314 OA
BRANCH  32  33
HETATM   33  C14 UNL     1      19.128   7.897  18.607  1.00  0.00     0.255 C 
HETATM   34  C15 UNL     1      18.729   6.587  19.222  1.00  0.00     0.126 C 
HETATM   35  O5  UNL     1      19.297   8.002  17.354  1.00  0.00    -0.266 OA
ENDBRANCH  32  33
ENDBRANCH  10  32
TORSDOF 9
ENDMDL
