MODEL 1
REMARK VINA RESULT: -8.537319118      0.000      0.000
REMARK  6 active torsions:
REMARK  status: ('A' for Active; 'I' for Inactive)
REMARK    1  A    between atoms: C2_2  and  C4_4 
REMARK    2  A    between atoms: C15_17  and  C16_18 
REMARK    3  A    between atoms: C16_18  and  O3_19 
REMARK    4  A    between atoms: C16_18  and  C17_21 
REMARK    5  A    between atoms: C17_21  and  O4_23 
REMARK    6  A    between atoms: C20_28  and  C21_29 
ROOT
HETATM    1  C4  UNL     1      23.556  11.182  19.711  1.00  0.00     0.049 C 
HETATM    2  C5  UNL     1      24.125  12.133  18.746  1.00  0.00     0.031 C 
HETATM    3  C6  UNL     1      25.042  13.089  19.481  1.00  0.00     0.066 C 
HETATM    4  C7  UNL     1      24.506  14.436  19.211  1.00  0.00     0.026 C 
HETATM    5  C8  UNL     1      26.476  12.956  18.958  1.00  0.00     0.279 C 
HETATM    6  O1  UNL     1      27.268  13.799  19.665  1.00  0.00    -0.360 OA
HETATM    7  C9  UNL     1      27.934  14.763  18.949  1.00  0.00     0.171 C 
HETATM    8  C10 UNL     1      28.094  16.060  19.755  1.00  0.00     0.029 C 
HETATM    9  C11 UNL     1      28.252  15.794  21.210  1.00  0.00     0.034 C 
HETATM   10  C12 UNL     1      27.275  16.454  22.104  1.00  0.00     0.124 A 
HETATM   11  C13 UNL     1      27.189  15.798  23.476  1.00  0.00     0.066 A 
HETATM   12  C14 UNL     1      25.743  15.412  23.122  1.00  0.00     0.156 A 
HETATM   13  O2  UNL     1      25.959  16.131  21.966  1.00  0.00    -0.378 OA
HETATM   14  C15 UNL     1      25.580  13.929  22.880  1.00  0.00     0.185 C 
HETATM   15  O5  UNL     1      24.757  13.581  21.845  1.00  0.00    -0.341 OA
HETATM   16  C19 UNL     1      25.107  12.658  20.929  1.00  0.00     0.209 C 
HETATM   17  O6  UNL     1      26.442  12.257  21.234  1.00  0.00    -0.291 OA
HETATM   18  C20 UNL     1      26.613  11.175  20.421  1.00  0.00     0.290 C 
HETATM   19  O7  UNL     1      26.772  11.585  19.119  1.00  0.00    -0.301 OA
HETATM   20  O8  UNL     1      25.507  10.423  20.705  1.00  0.00    -0.321 OA
HETATM   21  C24 UNL     1      24.446  11.339  20.920  1.00  0.00     0.199 C 
ENDROOT
BRANCH  14  22
HETATM   22  C16 UNL     1      25.210  13.142  24.091  1.00  0.00     0.178 C 
BRANCH  22  23
HETATM   23  O3  UNL     1      25.650  13.809  25.265  1.00  0.00    -0.390 OA
ATOM     24  H3  UNL     1      26.154  13.217  25.811  1.00  0.00     0.210 HD
ENDBRANCH  22  23
BRANCH  22  25
HETATM   25  C17 UNL     1      23.806  12.770  24.319  1.00  0.00     0.145 C 
HETATM   26  C18 UNL     1      23.207  13.779  25.316  1.00  0.00     0.042 C 
BRANCH  25  27
HETATM   27  O4  UNL     1      23.601  11.529  24.905  1.00  0.00    -0.393 OA
ATOM     28  H4  UNL     1      22.922  10.995  24.509  1.00  0.00     0.210 HD
ENDBRANCH  25  27
ENDBRANCH  22  25
ENDBRANCH  14  22
BRANCH  18  29
HETATM   29  C21 UNL     1      27.833  10.389  20.917  1.00  0.00     0.071 C 
HETATM   30  C22 UNL     1      28.548   9.844  19.720  1.00  0.00     0.017 C 
HETATM   31  C23 UNL     1      28.704  11.245  21.795  1.00  0.00     0.017 C 
ENDBRANCH  18  29
BRANCH   1  32
HETATM   32  C2  UNL     1      22.128  11.315  20.001  1.00  0.00    -0.086 C 
HETATM   33  C1  UNL     1      21.254  10.879  19.105  1.00  0.00     0.014 C 
HETATM   34  C3  UNL     1      21.601  11.918  21.255  1.00  0.00     0.043 C 
ENDBRANCH   1  32
TORSDOF 6
ENDMDL
MODEL 2
REMARK VINA RESULT: -8.140582731      1.725      4.903
REMARK  6 active torsions:
REMARK  status: ('A' for Active; 'I' for Inactive)
REMARK    1  A    between atoms: C2_2  and  C4_4 
REMARK    2  A    between atoms: C15_17  and  C16_18 
REMARK    3  A    between atoms: C16_18  and  O3_19 
REMARK    4  A    between atoms: C16_18  and  C17_21 
REMARK    5  A    between atoms: C17_21  and  O4_23 
REMARK    6  A    between atoms: C20_28  and  C21_29 
ROOT
HETATM    1  C4  UNL     1      28.903  14.674  19.157  1.00  0.00     0.049 C 
HETATM    2  C5  UNL     1      29.110  15.246  20.496  1.00  0.00     0.031 C 
HETATM    3  C6  UNL     1      27.937  14.869  21.377  1.00  0.00     0.066 C 
HETATM    4  C7  UNL     1      27.368  16.148  21.844  1.00  0.00     0.026 C 
HETATM    5  C8  UNL     1      28.414  14.020  22.559  1.00  0.00     0.279 C 
HETATM    6  O1  UNL     1      27.332  13.675  23.301  1.00  0.00    -0.360 OA
HETATM    7  C9  UNL     1      27.330  14.082  24.612  1.00  0.00     0.171 C 
HETATM    8  C10 UNL     1      25.910  14.400  25.104  1.00  0.00     0.029 C 
HETATM    9  C11 UNL     1      24.891  13.526  24.463  1.00  0.00     0.034 C 
HETATM   10  C12 UNL     1      23.796  14.216  23.747  1.00  0.00     0.124 A 
HETATM   11  C13 UNL     1      23.079  13.314  22.751  1.00  0.00     0.066 A 
HETATM   12  C14 UNL     1      23.616  14.234  21.640  1.00  0.00     0.156 A 
HETATM   13  O2  UNL     1      24.120  14.992  22.675  1.00  0.00    -0.378 OA
HETATM   14  C15 UNL     1      24.691  13.572  20.808  1.00  0.00     0.185 C 
HETATM   15  O5  UNL     1      25.744  14.368  20.454  1.00  0.00    -0.341 OA
HETATM   16  C19 UNL     1      27.023  13.965  20.582  1.00  0.00     0.209 C 
HETATM   17  O6  UNL     1      26.992  12.679  21.200  1.00  0.00    -0.291 OA
HETATM   18  C20 UNL     1      28.284  12.262  21.067  1.00  0.00     0.290 C 
HETATM   19  O7  UNL     1      29.089  12.939  21.953  1.00  0.00    -0.301 OA
HETATM   20  O8  UNL     1      28.517  12.464  19.736  1.00  0.00    -0.321 OA
HETATM   21  C24 UNL     1      27.820  13.646  19.383  1.00  0.00     0.199 C 
ENDROOT
BRANCH  14  22
HETATM   22  C16 UNL     1      24.185  12.857  19.601  1.00  0.00     0.178 C 
BRANCH  22  23
HETATM   23  O3  UNL     1      24.386  13.650  18.439  1.00  0.00    -0.390 OA
ATOM     24  H3  UNL     1      25.161  13.359  17.973  1.00  0.00     0.210 HD
ENDBRANCH  22  23
BRANCH  22  25
HETATM   25  C17 UNL     1      24.688  11.512  19.285  1.00  0.00     0.145 C 
HETATM   26  C18 UNL     1      23.582  10.762  18.520  1.00  0.00     0.042 C 
BRANCH  25  27
HETATM   27  O4  UNL     1      24.972  10.706  20.379  1.00  0.00    -0.393 OA
ATOM     28  H4  UNL     1      24.289  10.091  20.624  1.00  0.00     0.210 HD
ENDBRANCH  25  27
ENDBRANCH  22  25
ENDBRANCH  14  22
BRANCH  18  29
HETATM   29  C21 UNL     1      28.328  10.748  21.309  1.00  0.00     0.071 C 
HETATM   30  C22 UNL     1      28.533  10.076  19.988  1.00  0.00     0.017 C 
HETATM   31  C23 UNL     1      29.379  10.397  22.327  1.00  0.00     0.017 C 
ENDBRANCH  18  29
BRANCH   1  32
HETATM   32  C2  UNL     1      28.614  15.617  18.078  1.00  0.00    -0.086 C 
HETATM   33  C1  UNL     1      29.559  16.472  17.710  1.00  0.00     0.014 C 
HETATM   34  C3  UNL     1      27.309  15.670  17.365  1.00  0.00     0.043 C 
ENDBRANCH   1  32
TORSDOF 6
ENDMDL
MODEL 3
REMARK VINA RESULT: -8.044814353      4.891      8.581
REMARK  6 active torsions:
REMARK  status: ('A' for Active; 'I' for Inactive)
REMARK    1  A    between atoms: C2_2  and  C4_4 
REMARK    2  A    between atoms: C15_17  and  C16_18 
REMARK    3  A    between atoms: C16_18  and  O3_19 
REMARK    4  A    between atoms: C16_18  and  C17_21 
REMARK    5  A    between atoms: C17_21  and  O4_23 
REMARK    6  A    between atoms: C20_28  and  C21_29 
ROOT
HETATM    1  C4  UNL     1      22.161  12.666  23.361  1.00  0.00     0.049 C 
HETATM    2  C5  UNL     1      22.094  14.084  23.742  1.00  0.00     0.031 C 
HETATM    3  C6  UNL     1      20.747  14.358  24.378  1.00  0.00     0.066 C 
HETATM    4  C7  UNL     1      20.132  15.421  23.560  1.00  0.00     0.026 C 
HETATM    5  C8  UNL     1      20.930  14.821  25.827  1.00  0.00     0.279 C 
HETATM    6  O1  UNL     1      19.702  15.020  26.369  1.00  0.00    -0.360 OA
HETATM    7  C9  UNL     1      19.430  16.284  26.829  1.00  0.00     0.171 C 
HETATM    8  C10 UNL     1      17.949  16.648  26.648  1.00  0.00     0.029 C 
HETATM    9  C11 UNL     1      17.064  15.461  26.793  1.00  0.00     0.034 C 
HETATM   10  C12 UNL     1      16.173  15.167  25.650  1.00  0.00     0.124 A 
HETATM   11  C13 UNL     1      15.658  13.734  25.652  1.00  0.00     0.066 A 
HETATM   12  C14 UNL     1      16.452  13.522  24.352  1.00  0.00     0.156 A 
HETATM   13  O2  UNL     1      16.746  14.865  24.452  1.00  0.00    -0.378 OA
HETATM   14  C15 UNL     1      17.658  12.632  24.547  1.00  0.00     0.185 C 
HETATM   15  O5  UNL     1      18.788  13.006  23.876  1.00  0.00    -0.341 OA
HETATM   16  C19 UNL     1      19.996  13.049  24.471  1.00  0.00     0.209 C 
HETATM   17  O6  UNL     1      19.790  12.730  25.847  1.00  0.00    -0.291 OA
HETATM   18  C20 UNL     1      21.066  12.565  26.301  1.00  0.00     0.290 C 
HETATM   19  O7  UNL     1      21.683  13.788  26.423  1.00  0.00    -0.301 OA
HETATM   20  O8  UNL     1      21.588  11.694  25.385  1.00  0.00    -0.321 OA
HETATM   21  C24 UNL     1      21.022  12.045  24.133  1.00  0.00     0.199 C 
ENDROOT
BRANCH  14  22
HETATM   22  C16 UNL     1      17.402  11.182  24.310  1.00  0.00     0.178 C 
BRANCH  22  23
HETATM   23  O3  UNL     1      17.838  10.417  25.426  1.00  0.00    -0.390 OA
ATOM     24  H3  UNL     1      18.140  10.991  26.120  1.00  0.00     0.210 HD
ENDBRANCH  22  23
BRANCH  22  25
HETATM   25  C17 UNL     1      16.041  10.724  23.992  1.00  0.00     0.145 C 
HETATM   26  C18 UNL     1      15.826   9.367  24.687  1.00  0.00     0.042 C 
BRANCH  25  27
HETATM   27  O4  UNL     1      15.790  10.478  22.649  1.00  0.00    -0.393 OA
ATOM     28  H4  UNL     1      15.062  10.960  22.273  1.00  0.00     0.210 HD
ENDBRANCH  25  27
ENDBRANCH  22  25
ENDBRANCH  14  22
BRANCH  18  29
HETATM   29  C21 UNL     1      21.007  11.827  27.644  1.00  0.00     0.071 C 
HETATM   30  C22 UNL     1      22.022  12.445  28.554  1.00  0.00     0.017 C 
HETATM   31  C23 UNL     1      19.612  11.844  28.206  1.00  0.00     0.017 C 
ENDBRANCH  18  29
BRANCH   1  32
HETATM   32  C2  UNL     1      22.143  12.368  21.930  1.00  0.00    -0.086 C 
HETATM   33  C1  UNL     1      23.193  12.711  21.195  1.00  0.00     0.014 C 
HETATM   34  C3  UNL     1      21.003  11.697  21.248  1.00  0.00     0.043 C 
ENDBRANCH   1  32
TORSDOF 6
ENDMDL
MODEL 4
REMARK VINA RESULT: -7.796993463      3.127      7.823
REMARK  6 active torsions:
REMARK  status: ('A' for Active; 'I' for Inactive)
REMARK    1  A    between atoms: C2_2  and  C4_4 
REMARK    2  A    between atoms: C15_17  and  C16_18 
REMARK    3  A    between atoms: C16_18  and  O3_19 
REMARK    4  A    between atoms: C16_18  and  C17_21 
REMARK    5  A    between atoms: C17_21  and  O4_23 
REMARK    6  A    between atoms: C20_28  and  C21_29 
ROOT
HETATM    1  C4  UNL     1      23.073  15.517  25.286  1.00  0.00     0.049 C 
HETATM    2  C5  UNL     1      21.650  15.876  25.189  1.00  0.00     0.031 C 
HETATM    3  C6  UNL     1      20.893  14.718  24.573  1.00  0.00     0.066 C 
HETATM    4  C7  UNL     1      20.244  15.267  23.367  1.00  0.00     0.026 C 
HETATM    5  C8  UNL     1      19.850  14.183  25.559  1.00  0.00     0.279 C 
HETATM    6  O1  UNL     1      19.221  13.127  24.984  1.00  0.00    -0.360 OA
HETATM    7  C9  UNL     1      17.862  13.234  24.824  1.00  0.00     0.171 C 
HETATM    8  C10 UNL     1      17.382  12.514  23.555  1.00  0.00     0.029 C 
HETATM    9  C11 UNL     1      18.200  11.307  23.258  1.00  0.00     0.034 C 
HETATM   10  C12 UNL     1      18.837  11.261  21.924  1.00  0.00     0.124 A 
HETATM   11  C13 UNL     1      19.997  10.278  21.854  1.00  0.00     0.066 A 
HETATM   12  C14 UNL     1      20.916  11.489  21.620  1.00  0.00     0.156 A 
HETATM   13  O2  UNL     1      19.750  12.224  21.616  1.00  0.00    -0.378 OA
HETATM   14  C15 UNL     1      21.803  11.784  22.809  1.00  0.00     0.185 C 
HETATM   15  O5  UNL     1      21.975  13.106  23.108  1.00  0.00    -0.341 OA
HETATM   16  C19 UNL     1      21.864  13.578  24.365  1.00  0.00     0.209 C 
HETATM   17  O6  UNL     1      21.471  12.479  25.186  1.00  0.00    -0.291 OA
HETATM   18  C20 UNL     1      21.617  12.988  26.443  1.00  0.00     0.290 C 
HETATM   19  O7  UNL     1      20.599  13.872  26.714  1.00  0.00    -0.301 OA
HETATM   20  O8  UNL     1      22.886  13.495  26.403  1.00  0.00    -0.321 OA
HETATM   21  C24 UNL     1      23.066  14.019  25.098  1.00  0.00     0.199 C 
ENDROOT
BRANCH  14  22
HETATM   22  C16 UNL     1      23.131  11.108  22.772  1.00  0.00     0.178 C 
BRANCH  22  23
HETATM   23  O3  UNL     1      23.025   9.787  23.286  1.00  0.00    -0.390 OA
ATOM     24  H3  UNL     1      23.107   9.795  24.232  1.00  0.00     0.210 HD
ENDBRANCH  22  23
BRANCH  22  25
HETATM   25  C17 UNL     1      23.865  11.009  21.502  1.00  0.00     0.145 C 
HETATM   26  C18 UNL     1      24.143   9.519  21.233  1.00  0.00     0.042 C 
BRANCH  25  27
HETATM   27  O4  UNL     1      25.115  11.611  21.483  1.00  0.00    -0.393 OA
ATOM     28  H4  UNL     1      25.146  12.482  21.104  1.00  0.00     0.210 HD
ENDBRANCH  25  27
ENDBRANCH  22  25
ENDBRANCH  14  22
BRANCH  18  29
HETATM   29  C21 UNL     1      21.628  11.821  27.437  1.00  0.00     0.071 C 
HETATM   30  C22 UNL     1      21.609  12.393  28.821  1.00  0.00     0.017 C 
HETATM   31  C23 UNL     1      20.492  10.873  27.167  1.00  0.00     0.017 C 
ENDBRANCH  18  29
BRANCH   1  32
HETATM   32  C2  UNL     1      23.991  16.225  24.395  1.00  0.00    -0.086 C 
HETATM   33  C1  UNL     1      24.981  15.545  23.832  1.00  0.00     0.014 C 
HETATM   34  C3  UNL     1      23.875  17.675  24.084  1.00  0.00     0.043 C 
ENDBRANCH   1  32
TORSDOF 6
ENDMDL
MODEL 5
REMARK VINA RESULT: -7.773248016      4.166      8.755
REMARK  6 active torsions:
REMARK  status: ('A' for Active; 'I' for Inactive)
REMARK    1  A    between atoms: C2_2  and  C4_4 
REMARK    2  A    between atoms: C15_17  and  C16_18 
REMARK    3  A    between atoms: C16_18  and  O3_19 
REMARK    4  A    between atoms: C16_18  and  C17_21 
REMARK    5  A    between atoms: C17_21  and  O4_23 
REMARK    6  A    between atoms: C20_28  and  C21_29 
ROOT
HETATM    1  C4  UNL     1      20.852  16.850  27.191  1.00  0.00     0.049 C 
HETATM    2  C5  UNL     1      19.491  16.656  26.671  1.00  0.00     0.031 C 
HETATM    3  C6  UNL     1      19.453  15.379  25.858  1.00  0.00     0.066 C 
HETATM    4  C7  UNL     1      19.000  15.781  24.512  1.00  0.00     0.026 C 
HETATM    5  C8  UNL     1      18.477  14.379  26.487  1.00  0.00     0.279 C 
HETATM    6  O1  UNL     1      18.501  13.240  25.751  1.00  0.00    -0.360 OA
HETATM    7  C9  UNL     1      17.312  12.845  25.190  1.00  0.00     0.171 C 
HETATM    8  C10 UNL     1      17.525  12.151  23.836  1.00  0.00     0.029 C 
HETATM    9  C11 UNL     1      18.800  11.385  23.800  1.00  0.00     0.034 C 
HETATM   10  C12 UNL     1      19.744  11.739  22.718  1.00  0.00     0.124 A 
HETATM   11  C13 UNL     1      21.169  11.281  23.000  1.00  0.00     0.066 A 
HETATM   12  C14 UNL     1      21.561  12.767  23.051  1.00  0.00     0.156 A 
HETATM   13  O2  UNL     1      20.251  13.003  22.697  1.00  0.00    -0.378 OA
HETATM   14  C15 UNL     1      21.894  13.232  24.450  1.00  0.00     0.185 C 
HETATM   15  O5  UNL     1      21.442  14.477  24.787  1.00  0.00    -0.341 OA
HETATM   16  C19 UNL     1      20.811  14.721  25.952  1.00  0.00     0.209 C 
HETATM   17  O6  UNL     1      20.673  13.466  26.618  1.00  0.00    -0.291 OA
HETATM   18  C20 UNL     1      20.254  13.842  27.861  1.00  0.00     0.290 C 
HETATM   19  O7  UNL     1      18.939  14.240  27.813  1.00  0.00    -0.301 OA
HETATM   20  O8  UNL     1      21.178  14.791  28.203  1.00  0.00    -0.321 OA
HETATM   21  C24 UNL     1      21.489  15.493  27.011  1.00  0.00     0.199 C 
ENDROOT
BRANCH  14  22
HETATM   22  C16 UNL     1      23.335  13.115  24.815  1.00  0.00     0.178 C 
BRANCH  22  23
HETATM   23  O3  UNL     1      23.687  11.751  24.998  1.00  0.00    -0.390 OA
ATOM     24  H3  UNL     1      23.951  11.597  25.898  1.00  0.00     0.210 HD
ENDBRANCH  22  23
BRANCH  22  25
HETATM   25  C17 UNL     1      24.360  13.701  23.937  1.00  0.00     0.145 C 
HETATM   26  C18 UNL     1      25.668  13.803  24.743  1.00  0.00     0.042 C 
BRANCH  25  27
HETATM   27  O4  UNL     1      24.109  14.995  23.503  1.00  0.00    -0.393 OA
ATOM     28  H4  UNL     1      24.195  15.138  22.568  1.00  0.00     0.210 HD
ENDBRANCH  25  27
ENDBRANCH  22  25
ENDBRANCH  14  22
BRANCH  18  29
HETATM   29  C21 UNL     1      20.450  12.657  28.814  1.00  0.00     0.071 C 
HETATM   30  C22 UNL     1      21.850  12.156  28.646  1.00  0.00     0.017 C 
HETATM   31  C23 UNL     1      20.121  13.046  30.230  1.00  0.00     0.017 C 
ENDBRANCH  18  29
BRANCH   1  32
HETATM   32  C2  UNL     1      21.624  17.951  26.616  1.00  0.00    -0.086 C 
HETATM   33  C1  UNL     1      21.321  19.192  26.970  1.00  0.00     0.014 C 
HETATM   34  C3  UNL     1      22.738  17.753  25.650  1.00  0.00     0.043 C 
ENDBRANCH   1  32
TORSDOF 6
ENDMDL
