MODEL 1
REMARK VINA RESULT: -7.806789371      0.000      0.000
REMARK  4 active torsions:
REMARK  status: ('A' for Active; 'I' for Inactive)
REMARK    1  A    between atoms: C2_2  and  N1_4 
REMARK    2  A    between atoms: N1_4  and  N2_6 
REMARK       I    between atoms: N2_6  and  C3_8 
REMARK    3  A    between atoms: C3_8  and  C4_10 
REMARK    4  A    between atoms: C5_11  and  C6_12 
ROOT
HETATM    1  C6  UNL     1      22.766  11.758  22.634  1.00  0.00     0.080 C 
HETATM    2  C7  UNL     1      23.762  11.211  21.667  1.00  0.00     0.025 C 
HETATM    3  C8  UNL     1      23.246  10.433  20.521  1.00  0.00    -0.042 C 
HETATM    4  C9  UNL     1      23.360   8.944  20.817  1.00  0.00     0.015 C 
HETATM    5  C10 UNL     1      24.223  10.650  19.347  1.00  0.00     0.015 C 
HETATM    6  C11 UNL     1      21.907  10.851  20.020  1.00  0.00     0.012 C 
HETATM    7  C12 UNL     1      22.058  12.320  19.589  1.00  0.00     0.010 C 
HETATM    8  C13 UNL     1      20.831  13.048  20.028  1.00  0.00     0.039 C 
HETATM    9  C14 UNL     1      19.862  11.882  20.274  1.00  0.00     0.075 C 
HETATM   10  C15 UNL     1      19.546  11.353  18.902  1.00  0.00     0.047 C 
HETATM   11  O2  UNL     1      18.823  12.312  21.017  1.00  0.00    -0.348 OA
HETATM   12  C16 UNL     1      17.761  11.498  21.200  1.00  0.00     0.284 C 
HETATM   13  O3  UNL     1      17.438  10.557  20.218  1.00  0.00    -0.288 OA
HETATM   14  C17 UNL     1      17.044   9.688  21.211  1.00  0.00     0.270 C 
HETATM   15  O4  UNL     1      16.311   8.686  21.256  1.00  0.00    -0.265 OA
HETATM   16  C18 UNL     1      17.847  10.441  22.195  1.00  0.00     0.141 C 
HETATM   17  C19 UNL     1      19.123   9.787  22.477  1.00  0.00     0.021 C 
HETATM   18  C20 UNL     1      20.131   9.705  21.394  1.00  0.00     0.022 C 
HETATM   19  C21 UNL     1      20.827  10.961  21.037  1.00  0.00     0.056 C 
HETATM   20  C22 UNL     1      21.343  11.698  22.186  1.00  0.00     0.146 C 
HETATM   21  O5  UNL     1      20.562  12.340  22.873  1.00  0.00    -0.296 OA
ENDROOT
BRANCH   1  22
HETATM   22  C5  UNL     1      22.821  11.053  23.923  1.00  0.00    -0.009 C 
HETATM   23  C4  UNL     1      22.873  11.569  25.111  1.00  0.00     0.072 C 
BRANCH  23  24
HETATM   24  C3  UNL     1      22.896  12.934  25.532  1.00  0.00     0.259 C 
HETATM   25  N2  UNL     1      21.646  13.629  25.675  1.00  0.00    -0.266 N 
ATOM     26  H2  UNL     1      20.771  13.144  25.475  1.00  0.00     0.190 HD
HETATM   27  O1  UNL     1      23.928  13.570  25.786  1.00  0.00    -0.267 OA
BRANCH  25  28
HETATM   28  N1  UNL     1      21.620  14.956  26.084  1.00  0.00    -0.292 N 
ATOM     29  H1  UNL     1      22.021  15.671  25.477  1.00  0.00     0.187 HD
BRANCH  28  30
HETATM   30  C2  UNL     1      21.043  15.349  27.342  1.00  0.00     0.088 C 
HETATM   31  C1  UNL     1      20.608  16.719  27.640  1.00  0.00     0.083 C 
HETATM   32  S1  UNL     1      20.863  14.214  28.490  1.00  0.00    -0.064 SA
ENDBRANCH  28  30
ENDBRANCH  25  28
ENDBRANCH  23  24
ENDBRANCH   1  22
TORSDOF 4
ENDMDL
MODEL 2
REMARK VINA RESULT: -7.703019038      2.574      3.500
REMARK  4 active torsions:
REMARK  status: ('A' for Active; 'I' for Inactive)
REMARK    1  A    between atoms: C2_2  and  N1_4 
REMARK    2  A    between atoms: N1_4  and  N2_6 
REMARK       I    between atoms: N2_6  and  C3_8 
REMARK    3  A    between atoms: C3_8  and  C4_10 
REMARK    4  A    between atoms: C5_11  and  C6_12 
ROOT
HETATM    1  C6  UNL     1      19.285  12.142  23.825  1.00  0.00     0.080 C 
HETATM    2  C7  UNL     1      20.581  11.886  24.518  1.00  0.00     0.025 C 
HETATM    3  C8  UNL     1      21.567  11.026  23.829  1.00  0.00    -0.042 C 
HETATM    4  C9  UNL     1      21.488   9.610  24.379  1.00  0.00     0.015 C 
HETATM    5  C10 UNL     1      22.969  11.508  24.255  1.00  0.00     0.015 C 
HETATM    6  C11 UNL     1      21.545  11.101  22.341  1.00  0.00     0.012 C 
HETATM    7  C12 UNL     1      21.842  12.569  21.988  1.00  0.00     0.010 C 
HETATM    8  C13 UNL     1      20.944  12.953  20.860  1.00  0.00     0.039 C 
HETATM    9  C14 UNL     1      20.516  11.574  20.334  1.00  0.00     0.075 C 
HETATM   10  C15 UNL     1      21.753  11.011  19.690  1.00  0.00     0.047 C 
HETATM   11  O2  UNL     1      19.427  11.711  19.552  1.00  0.00    -0.348 OA
HETATM   12  C16 UNL     1      18.990  10.651  18.838  1.00  0.00     0.284 C 
HETATM   13  O3  UNL     1      19.903   9.679  18.419  1.00  0.00    -0.288 OA
HETATM   14  C17 UNL     1      18.935   8.718  18.609  1.00  0.00     0.270 C 
HETATM   15  O4  UNL     1      18.758   7.562  18.191  1.00  0.00    -0.265 OA
HETATM   16  C18 UNL     1      18.200   9.629  19.508  1.00  0.00     0.141 C 
HETATM   17  C19 UNL     1      18.432   9.315  20.916  1.00  0.00     0.021 C 
HETATM   18  C20 UNL     1      19.791   9.514  21.472  1.00  0.00     0.022 C 
HETATM   19  C21 UNL     1      20.222  10.913  21.690  1.00  0.00     0.056 C 
HETATM   20  C22 UNL     1      19.238  11.732  22.390  1.00  0.00     0.146 C 
HETATM   21  O5  UNL     1      18.265  12.140  21.773  1.00  0.00    -0.296 OA
ENDROOT
BRANCH   1  22
HETATM   22  C5  UNL     1      18.172  11.448  24.488  1.00  0.00    -0.009 C 
HETATM   23  C4  UNL     1      17.668  11.687  25.658  1.00  0.00     0.072 C 
BRANCH  23  24
HETATM   24  C3  UNL     1      18.020  12.662  26.640  1.00  0.00     0.259 C 
HETATM   25  N2  UNL     1      18.584  12.210  27.883  1.00  0.00    -0.266 N 
ATOM     26  H2  UNL     1      18.722  11.212  28.044  1.00  0.00     0.190 HD
HETATM   27  O1  UNL     1      17.872  13.883  26.498  1.00  0.00    -0.267 OA
BRANCH  25  28
HETATM   28  N1  UNL     1      18.943  13.122  28.867  1.00  0.00    -0.292 N 
ATOM     29  H1  UNL     1      18.347  13.933  29.034  1.00  0.00     0.187 HD
BRANCH  28  30
HETATM   30  C2  UNL     1      20.133  12.953  29.658  1.00  0.00     0.088 C 
HETATM   31  C1  UNL     1      20.130  12.912  31.126  1.00  0.00     0.083 C 
HETATM   32  S1  UNL     1      21.551  12.800  28.883  1.00  0.00    -0.064 SA
ENDBRANCH  28  30
ENDBRANCH  25  28
ENDBRANCH  23  24
ENDBRANCH   1  22
TORSDOF 4
ENDMDL
MODEL 3
REMARK VINA RESULT: -7.675392230      1.785      2.008
REMARK  4 active torsions:
REMARK  status: ('A' for Active; 'I' for Inactive)
REMARK    1  A    between atoms: C2_2  and  N1_4 
REMARK    2  A    between atoms: N1_4  and  N2_6 
REMARK       I    between atoms: N2_6  and  C3_8 
REMARK    3  A    between atoms: C3_8  and  C4_10 
REMARK    4  A    between atoms: C5_11  and  C6_12 
ROOT
HETATM    1  C6  UNL     1      22.780  11.949  22.601  1.00  0.00     0.080 C 
HETATM    2  C7  UNL     1      23.786  11.352  21.676  1.00  0.00     0.025 C 
HETATM    3  C8  UNL     1      23.286  10.484  20.589  1.00  0.00    -0.042 C 
HETATM    4  C9  UNL     1      23.427   9.023  20.990  1.00  0.00     0.015 C 
HETATM    5  C10 UNL     1      24.260  10.634  19.401  1.00  0.00     0.015 C 
HETATM    6  C11 UNL     1      21.940  10.840  20.060  1.00  0.00     0.012 C 
HETATM    7  C12 UNL     1      22.064  12.277  19.524  1.00  0.00     0.010 C 
HETATM    8  C13 UNL     1      20.824  13.012  19.910  1.00  0.00     0.039 C 
HETATM    9  C14 UNL     1      19.876  11.849  20.239  1.00  0.00     0.075 C 
HETATM   10  C15 UNL     1      19.571  11.217  18.910  1.00  0.00     0.047 C 
HETATM   11  O2  UNL     1      18.829  12.312  20.951  1.00  0.00    -0.348 OA
HETATM   12  C16 UNL     1      17.781  11.494  21.192  1.00  0.00     0.284 C 
HETATM   13  O3  UNL     1      17.477  10.480  20.280  1.00  0.00    -0.288 OA
HETATM   14  C17 UNL     1      17.098   9.677  21.333  1.00  0.00     0.270 C 
HETATM   15  O4  UNL     1      16.384   8.667  21.450  1.00  0.00    -0.265 OA
HETATM   16  C18 UNL     1      17.886  10.513  22.260  1.00  0.00     0.141 C 
HETATM   17  C19 UNL     1      19.174   9.904  22.587  1.00  0.00     0.021 C 
HETATM   18  C20 UNL     1      20.184   9.764  21.513  1.00  0.00     0.022 C 
HETATM   19  C21 UNL     1      20.857  11.003  21.066  1.00  0.00     0.056 C 
HETATM   20  C22 UNL     1      21.359  11.830  22.160  1.00  0.00     0.146 C 
HETATM   21  O5  UNL     1      20.565  12.505  22.799  1.00  0.00    -0.296 OA
ENDROOT
BRANCH   1  22
HETATM   22  C5  UNL     1      22.847  11.340  23.937  1.00  0.00    -0.009 C 
HETATM   23  C4  UNL     1      22.924  11.940  25.084  1.00  0.00     0.072 C 
BRANCH  23  24
HETATM   24  C3  UNL     1      22.971  13.331  25.403  1.00  0.00     0.259 C 
HETATM   25  N2  UNL     1      24.204  13.880  25.900  1.00  0.00    -0.266 N 
ATOM     26  H2  UNL     1      25.017  13.275  26.016  1.00  0.00     0.190 HD
HETATM   27  O1  UNL     1      22.015  14.109  25.283  1.00  0.00    -0.267 OA
BRANCH  25  28
HETATM   28  N1  UNL     1      24.296  15.228  26.222  1.00  0.00    -0.292 N 
ATOM     29  H1  UNL     1      23.441  15.767  26.354  1.00  0.00     0.187 HD
BRANCH  28  30
HETATM   30  C2  UNL     1      25.568  15.884  26.375  1.00  0.00     0.088 C 
HETATM   31  C1  UNL     1      26.820  15.167  26.650  1.00  0.00     0.083 C 
HETATM   32  S1  UNL     1      25.617  17.500  26.234  1.00  0.00    -0.064 SA
ENDBRANCH  28  30
ENDBRANCH  25  28
ENDBRANCH  23  24
ENDBRANCH   1  22
TORSDOF 4
ENDMDL
MODEL 4
REMARK VINA RESULT: -7.612812715      1.612      1.735
REMARK  4 active torsions:
REMARK  status: ('A' for Active; 'I' for Inactive)
REMARK    1  A    between atoms: C2_2  and  N1_4 
REMARK    2  A    between atoms: N1_4  and  N2_6 
REMARK       I    between atoms: N2_6  and  C3_8 
REMARK    3  A    between atoms: C3_8  and  C4_10 
REMARK    4  A    between atoms: C5_11  and  C6_12 
ROOT
HETATM    1  C6  UNL     1      22.040  11.367  22.834  1.00  0.00     0.080 C 
HETATM    2  C7  UNL     1      23.297  11.041  22.101  1.00  0.00     0.025 C 
HETATM    3  C8  UNL     1      23.169  10.431  20.761  1.00  0.00    -0.042 C 
HETATM    4  C9  UNL     1      23.348   8.923  20.863  1.00  0.00     0.015 C 
HETATM    5  C10 UNL     1      24.387  10.889  19.932  1.00  0.00     0.015 C 
HETATM    6  C11 UNL     1      21.967  10.847  19.985  1.00  0.00     0.012 C 
HETATM    7  C12 UNL     1      22.080  12.373  19.821  1.00  0.00     0.010 C 
HETATM    8  C13 UNL     1      20.718  12.950  20.015  1.00  0.00     0.039 C 
HETATM    9  C14 UNL     1      19.835  11.707  19.827  1.00  0.00     0.075 C 
HETATM   10  C15 UNL     1      19.932  11.390  18.360  1.00  0.00     0.047 C 
HETATM   11  O2  UNL     1      18.605  11.952  20.320  1.00  0.00    -0.348 OA
HETATM   12  C16 UNL     1      17.615  11.061  20.095  1.00  0.00     0.284 C 
HETATM   13  O3  UNL     1      17.645  10.274  18.941  1.00  0.00    -0.288 OA
HETATM   14  C17 UNL     1      17.098   9.235  19.660  1.00  0.00     0.270 C 
HETATM   15  O4  UNL     1      16.479   8.199  19.365  1.00  0.00    -0.265 OA
HETATM   16  C18 UNL     1      17.547   9.863  20.918  1.00  0.00     0.141 C 
HETATM   17  C19 UNL     1      18.766   9.245  21.434  1.00  0.00     0.021 C 
HETATM   18  C20 UNL     1      20.020   9.397  20.659  1.00  0.00     0.022 C 
HETATM   19  C21 UNL     1      20.659  10.731  20.682  1.00  0.00     0.056 C 
HETATM   20  C22 UNL     1      20.791  11.300  22.019  1.00  0.00     0.146 C 
HETATM   21  O5  UNL     1      19.803  11.777  22.556  1.00  0.00    -0.296 OA
ENDROOT
BRANCH   1  22
HETATM   22  C5  UNL     1      21.833  10.468  23.978  1.00  0.00    -0.009 C 
HETATM   23  C4  UNL     1      21.708  10.786  25.229  1.00  0.00     0.072 C 
BRANCH  23  24
HETATM   24  C3  UNL     1      21.734  12.061  25.871  1.00  0.00     0.259 C 
HETATM   25  N2  UNL     1      22.952  12.486  26.505  1.00  0.00    -0.266 N 
ATOM     26  H2  UNL     1      23.771  11.877  26.488  1.00  0.00     0.190 HD
HETATM   27  O1  UNL     1      20.770  12.837  25.923  1.00  0.00    -0.267 OA
BRANCH  25  28
HETATM   28  N1  UNL     1      23.024  13.718  27.141  1.00  0.00    -0.292 N 
ATOM     29  H1  UNL     1      22.567  13.839  28.045  1.00  0.00     0.187 HD
BRANCH  28  30
HETATM   30  C2  UNL     1      23.725  14.831  26.557  1.00  0.00     0.088 C 
HETATM   31  C1  UNL     1      25.173  15.032  26.687  1.00  0.00     0.083 C 
HETATM   32  S1  UNL     1      22.866  15.918  25.710  1.00  0.00    -0.064 SA
ENDBRANCH  28  30
ENDBRANCH  25  28
ENDBRANCH  23  24
ENDBRANCH   1  22
TORSDOF 4
ENDMDL
MODEL 5
REMARK VINA RESULT: -7.493377564      1.190      1.286
REMARK  4 active torsions:
REMARK  status: ('A' for Active; 'I' for Inactive)
REMARK    1  A    between atoms: C2_2  and  N1_4 
REMARK    2  A    between atoms: N1_4  and  N2_6 
REMARK       I    between atoms: N2_6  and  C3_8 
REMARK    3  A    between atoms: C3_8  and  C4_10 
REMARK    4  A    between atoms: C5_11  and  C6_12 
ROOT
HETATM    1  C6  UNL     1      22.319  11.462  22.724  1.00  0.00     0.080 C 
HETATM    2  C7  UNL     1      23.516  11.123  21.902  1.00  0.00     0.025 C 
HETATM    3  C8  UNL     1      23.286  10.484  20.589  1.00  0.00    -0.042 C 
HETATM    4  C9  UNL     1      23.477   8.979  20.709  1.00  0.00     0.015 C 
HETATM    5  C10 UNL     1      24.434  10.927  19.658  1.00  0.00     0.015 C 
HETATM    6  C11 UNL     1      22.026  10.881  19.901  1.00  0.00     0.012 C 
HETATM    7  C12 UNL     1      22.120  12.404  19.697  1.00  0.00     0.010 C 
HETATM    8  C13 UNL     1      20.775  12.982  19.984  1.00  0.00     0.039 C 
HETATM    9  C14 UNL     1      19.885  11.734  19.891  1.00  0.00     0.075 C 
HETATM   10  C15 UNL     1      19.868  11.385  18.429  1.00  0.00     0.047 C 
HETATM   11  O2  UNL     1      18.696  11.987  20.474  1.00  0.00    -0.348 OA
HETATM   12  C16 UNL     1      17.695  11.089  20.346  1.00  0.00     0.284 C 
HETATM   13  O3  UNL     1      17.638  10.278  19.210  1.00  0.00    -0.288 OA
HETATM   14  C17 UNL     1      17.151   9.254  19.991  1.00  0.00     0.270 C 
HETATM   15  O4  UNL     1      16.515   8.210  19.768  1.00  0.00    -0.265 OA
HETATM   16  C18 UNL     1      17.695   9.909  21.197  1.00  0.00     0.141 C 
HETATM   17  C19 UNL     1      18.953   9.305  21.629  1.00  0.00     0.021 C 
HETATM   18  C20 UNL     1      20.142   9.442  20.755  1.00  0.00     0.022 C 
HETATM   19  C21 UNL     1      20.776  10.778  20.700  1.00  0.00     0.056 C 
HETATM   20  C22 UNL     1      21.011  11.375  22.011  1.00  0.00     0.146 C 
HETATM   21  O5  UNL     1      20.065  11.862  22.613  1.00  0.00    -0.296 OA
ENDROOT
BRANCH   1  22
HETATM   22  C5  UNL     1      22.205  10.587  23.899  1.00  0.00    -0.009 C 
HETATM   23  C4  UNL     1      22.098  10.935  25.144  1.00  0.00     0.072 C 
BRANCH  23  24
HETATM   24  C3  UNL     1      22.062  12.228  25.748  1.00  0.00     0.259 C 
HETATM   25  N2  UNL     1      22.465  12.355  27.122  1.00  0.00    -0.266 N 
ATOM     26  H2  UNL     1      22.767  11.529  27.640  1.00  0.00     0.190 HD
HETATM   27  O1  UNL     1      21.703  13.262  25.167  1.00  0.00    -0.267 OA
BRANCH  25  28
HETATM   28  N1  UNL     1      22.447  13.593  27.751  1.00  0.00    -0.292 N 
ATOM     29  H1  UNL     1      23.272  14.190  27.695  1.00  0.00     0.187 HD
BRANCH  28  30
HETATM   30  C2  UNL     1      21.295  14.056  28.478  1.00  0.00     0.088 C 
HETATM   31  C1  UNL     1      20.768  13.384  29.672  1.00  0.00     0.083 C 
HETATM   32  S1  UNL     1      20.542  15.393  27.947  1.00  0.00    -0.064 SA
ENDBRANCH  28  30
ENDBRANCH  25  28
ENDBRANCH  23  24
ENDBRANCH   1  22
TORSDOF 4
ENDMDL
