MODEL 1
REMARK VINA RESULT: -7.729302240      0.000      0.000
REMARK  3 active torsions:
REMARK  status: ('A' for Active; 'I' for Inactive)
REMARK    1  A    between atoms: C3_3  and  C4_4 
REMARK    2  A    between atoms: C7_9  and  C8_10 
REMARK    3  A    between atoms: C11_15  and  O5_17 
ROOT
HETATM    1  C1  UNL     1      30.900  15.555  17.967  1.00  0.00     0.044 C 
HETATM    2  C2  UNL     1      30.467  14.560  19.002  1.00  0.00    -0.069 C 
HETATM    3  C3  UNL     1      30.587  14.296  20.258  1.00  0.00    -0.042 C 
HETATM    4  C9  UNL     1      29.551  13.262  20.166  1.00  0.00     0.033 C 
HETATM    5  C10 UNL     1      29.765  11.918  20.745  1.00  0.00     0.048 C 
HETATM    6  C11 UNL     1      28.515  11.147  20.972  1.00  0.00     0.062 C 
HETATM    7  C12 UNL     1      28.938   9.803  21.532  1.00  0.00     0.046 C 
HETATM    8  C13 UNL     1      27.558  10.968  19.862  1.00  0.00    -0.005 C 
HETATM    9  C14 UNL     1      27.925   9.957  18.819  1.00  0.00     0.019 C 
HETATM   10  C15 UNL     1      26.359  10.276  20.597  1.00  0.00     0.030 C 
HETATM   11  C16 UNL     1      25.211  10.351  19.645  1.00  0.00     0.116 A 
HETATM   12  C17 UNL     1      23.985  10.974  20.172  1.00  0.00     0.266 A 
HETATM   13  O6  UNL     1      23.032  10.592  20.882  1.00  0.00    -0.265 OA
HETATM   14  O7  UNL     1      24.337  12.152  19.548  1.00  0.00    -0.314 OA
HETATM   15  C18 UNL     1      25.446  11.618  18.909  1.00  0.00     0.151 A 
HETATM   16  C19 UNL     1      26.828  12.155  19.367  1.00  0.00     0.045 C 
HETATM   17  C20 UNL     1      27.297  13.054  18.363  1.00  0.00     0.090 C 
HETATM   18 CL1  UNL     1      26.770  14.735  18.814  1.00  0.00    -0.124 Cl
HETATM   19  C21 UNL     1      28.660  13.168  17.842  1.00  0.00     0.035 C 
HETATM   20  C22 UNL     1      29.810  13.259  18.766  1.00  0.00    -0.012 C 
HETATM   21  C23 UNL     1      30.959  12.333  18.310  1.00  0.00     0.021 C 
ENDROOT
BRANCH   3  22
HETATM   22  C4  UNL     1      31.250  14.808  21.474  1.00  0.00     0.176 C 
HETATM   23  O1  UNL     1      32.358  15.657  21.097  1.00  0.00    -0.310 OA
HETATM   24  C5  UNL     1      31.884  16.982  21.062  1.00  0.00     0.260 C 
HETATM   25  O2  UNL     1      32.519  17.956  20.593  1.00  0.00    -0.265 OA
HETATM   26  C6  UNL     1      30.542  17.017  21.660  1.00  0.00     0.129 C 
HETATM   27  C7  UNL     1      30.548  15.665  22.414  1.00  0.00     0.130 C 
BRANCH  27  28
HETATM   28  C8  UNL     1      29.280  15.321  22.990  1.00  0.00     0.180 C 
HETATM   29  O3  UNL     1      28.338  16.154  23.031  1.00  0.00    -0.648 OA
HETATM   30  O4  UNL     1      29.045  14.067  23.523  1.00  0.00    -0.648 OA
ENDBRANCH  27  28
ENDBRANCH   3  22
BRANCH   6  31
HETATM   31  O5  UNL     1      27.822  11.781  22.033  1.00  0.00    -0.389 OA
ATOM     32  H5  UNL     1      26.901  11.788  21.800  1.00  0.00     0.210 HD
ENDBRANCH   6  31
TORSDOF 3
ENDMDL
MODEL 2
REMARK VINA RESULT: -7.531529219      1.097      1.263
REMARK  3 active torsions:
REMARK  status: ('A' for Active; 'I' for Inactive)
REMARK    1  A    between atoms: C3_3  and  C4_4 
REMARK    2  A    between atoms: C7_9  and  C8_10 
REMARK    3  A    between atoms: C11_15  and  O5_17 
ROOT
HETATM    1  C1  UNL     1      30.864  16.095  18.891  1.00  0.00     0.044 C 
HETATM    2  C2  UNL     1      30.364  14.974  19.752  1.00  0.00    -0.069 C 
HETATM    3  C3  UNL     1      30.329  14.586  20.981  1.00  0.00    -0.042 C 
HETATM    4  C9  UNL     1      29.390  13.511  20.642  1.00  0.00     0.033 C 
HETATM    5  C10 UNL     1      29.617  12.127  21.112  1.00  0.00     0.048 C 
HETATM    6  C11 UNL     1      28.404  11.268  21.083  1.00  0.00     0.062 C 
HETATM    7  C12 UNL     1      28.840   9.898  21.565  1.00  0.00     0.046 C 
HETATM    8  C13 UNL     1      27.622  11.155  19.836  1.00  0.00    -0.005 C 
HETATM    9  C14 UNL     1      28.197  10.282  18.763  1.00  0.00     0.019 C 
HETATM   10  C15 UNL     1      26.385  10.324  20.322  1.00  0.00     0.030 C 
HETATM   11  C16 UNL     1      25.375  10.436  19.228  1.00  0.00     0.116 A 
HETATM   12  C17 UNL     1      24.049  10.930  19.632  1.00  0.00     0.266 A 
HETATM   13  O6  UNL     1      23.037  10.423  20.159  1.00  0.00    -0.265 OA
HETATM   14  O7  UNL     1      24.400  12.185  19.182  1.00  0.00    -0.314 OA
HETATM   15  C18 UNL     1      25.619  11.784  18.659  1.00  0.00     0.151 A 
HETATM   16  C19 UNL     1      26.885  12.345  19.360  1.00  0.00     0.045 C 
HETATM   17  C20 UNL     1      27.423  13.370  18.525  1.00  0.00     0.090 C 
HETATM   18 CL1  UNL     1      26.724  14.962  19.057  1.00  0.00    -0.124 Cl
HETATM   19  C21 UNL     1      28.833  13.614  18.217  1.00  0.00     0.035 C 
HETATM   20  C22 UNL     1      29.837  13.670  19.300  1.00  0.00    -0.012 C 
HETATM   21  C23 UNL     1      31.099  12.864  18.924  1.00  0.00     0.021 C 
ENDROOT
BRANCH   3  22
HETATM   22  C4  UNL     1      30.783  15.002  22.323  1.00  0.00     0.176 C 
HETATM   23  O1  UNL     1      32.168  14.627  22.499  1.00  0.00    -0.310 OA
HETATM   24  C5  UNL     1      32.957  15.732  22.130  1.00  0.00     0.260 C 
HETATM   25  O2  UNL     1      34.202  15.704  21.978  1.00  0.00    -0.265 OA
HETATM   26  C6  UNL     1      32.081  16.899  21.956  1.00  0.00     0.129 C 
HETATM   27  C7  UNL     1      30.821  16.402  22.707  1.00  0.00     0.130 C 
BRANCH  27  28
HETATM   28  C8  UNL     1      29.692  17.279  22.582  1.00  0.00     0.180 C 
HETATM   29  O3  UNL     1      29.601  18.085  21.621  1.00  0.00    -0.648 OA
HETATM   30  O4  UNL     1      28.667  17.274  23.510  1.00  0.00    -0.648 OA
ENDBRANCH  27  28
ENDBRANCH   3  22
BRANCH   6  31
HETATM   31  O5  UNL     1      27.530  11.747  22.091  1.00  0.00    -0.389 OA
ATOM     32  H5  UNL     1      26.693  11.318  21.961  1.00  0.00     0.210 HD
ENDBRANCH   6  31
TORSDOF 3
ENDMDL
MODEL 3
REMARK VINA RESULT: -7.462149420      2.138      6.824
REMARK  3 active torsions:
REMARK  status: ('A' for Active; 'I' for Inactive)
REMARK    1  A    between atoms: C3_3  and  C4_4 
REMARK    2  A    between atoms: C7_9  and  C8_10 
REMARK    3  A    between atoms: C11_15  and  O5_17 
ROOT
HETATM    1  C1  UNL     1      26.983  13.590  17.636  1.00  0.00     0.044 C 
HETATM    2  C2  UNL     1      27.724  13.709  18.934  1.00  0.00    -0.069 C 
HETATM    3  C3  UNL     1      27.883  13.107  20.062  1.00  0.00    -0.042 C 
HETATM    4  C9  UNL     1      28.997  13.996  20.410  1.00  0.00     0.033 C 
HETATM    5  C10 UNL     1      29.061  14.654  21.733  1.00  0.00     0.048 C 
HETATM    6  C11 UNL     1      30.414  15.144  22.105  1.00  0.00     0.062 C 
HETATM    7  C12 UNL     1      30.270  15.806  23.461  1.00  0.00     0.046 C 
HETATM    8  C13 UNL     1      31.151  16.022  21.174  1.00  0.00    -0.005 C 
HETATM    9  C14 UNL     1      30.711  17.453  21.114  1.00  0.00     0.019 C 
HETATM   10  C15 UNL     1      32.544  16.126  21.885  1.00  0.00     0.030 C 
HETATM   11  C16 UNL     1      33.467  16.713  20.870  1.00  0.00     0.116 A 
HETATM   12  C17 UNL     1      34.689  15.940  20.595  1.00  0.00     0.266 A 
HETATM   13  O6  UNL     1      35.800  15.812  21.149  1.00  0.00    -0.265 OA
HETATM   14  O7  UNL     1      34.085  15.420  19.470  1.00  0.00    -0.314 OA
HETATM   15  C18 UNL     1      32.945  16.201  19.580  1.00  0.00     0.151 A 
HETATM   16  C19 UNL     1      31.624  15.449  19.895  1.00  0.00     0.045 C 
HETATM   17  C20 UNL     1      30.866  15.382  18.689  1.00  0.00     0.090 C 
HETATM   18 CL1  UNL     1      31.266  13.819  17.851  1.00  0.00    -0.124 Cl
HETATM   19  C21 UNL     1      29.423  15.581  18.536  1.00  0.00     0.035 C 
HETATM   20  C22 UNL     1      28.473  14.883  19.427  1.00  0.00    -0.012 C 
HETATM   21  C23 UNL     1      27.375  15.848  19.927  1.00  0.00     0.021 C 
ENDROOT
BRANCH   3  22
HETATM   22  C4  UNL     1      27.413  11.915  20.797  1.00  0.00     0.176 C 
HETATM   23  O1  UNL     1      26.549  11.133  19.941  1.00  0.00    -0.310 OA
HETATM   24  C5  UNL     1      27.346  10.160  19.310  1.00  0.00     0.260 C 
HETATM   25  O2  UNL     1      26.969   9.431  18.362  1.00  0.00    -0.265 OA
HETATM   26  C6  UNL     1      28.671  10.151  19.946  1.00  0.00     0.129 C 
HETATM   27  C7  UNL     1      28.342  10.899  21.261  1.00  0.00     0.130 C 
BRANCH  27  28
HETATM   28  C8  UNL     1      29.497  11.200  22.057  1.00  0.00     0.180 C 
HETATM   29  O3  UNL     1      30.658  11.076  21.589  1.00  0.00    -0.648 OA
HETATM   30  O4  UNL     1      29.380  11.632  23.366  1.00  0.00    -0.648 OA
ENDBRANCH  27  28
ENDBRANCH   3  22
BRANCH   6  31
HETATM   31  O5  UNL     1      31.220  14.002  22.341  1.00  0.00    -0.389 OA
ATOM     32  H5  UNL     1      31.853  14.241  23.008  1.00  0.00     0.210 HD
ENDBRANCH   6  31
TORSDOF 3
ENDMDL
MODEL 4
REMARK VINA RESULT: -7.459641521      6.949     10.607
REMARK  3 active torsions:
REMARK  status: ('A' for Active; 'I' for Inactive)
REMARK    1  A    between atoms: C3_3  and  C4_4 
REMARK    2  A    between atoms: C7_9  and  C8_10 
REMARK    3  A    between atoms: C11_15  and  O5_17 
ROOT
HETATM    1  C1  UNL     1      19.403   9.752  21.209  1.00  0.00     0.044 C 
HETATM    2  C2  UNL     1      20.067  10.685  22.178  1.00  0.00    -0.069 C 
HETATM    3  C3  UNL     1      20.931  11.640  22.225  1.00  0.00    -0.042 C 
HETATM    4  C9  UNL     1      20.579  11.925  23.620  1.00  0.00     0.033 C 
HETATM    5  C10 UNL     1      21.626  12.084  24.652  1.00  0.00     0.048 C 
HETATM    6  C11 UNL     1      21.171  12.790  25.878  1.00  0.00     0.062 C 
HETATM    7  C12 UNL     1      22.361  12.827  26.817  1.00  0.00     0.046 C 
HETATM    8  C13 UNL     1      19.966  12.315  26.587  1.00  0.00    -0.005 C 
HETATM    9  C14 UNL     1      20.125  11.083  27.424  1.00  0.00     0.019 C 
HETATM   10  C15 UNL     1      19.781  13.436  27.667  1.00  0.00     0.030 C 
HETATM   11  C16 UNL     1      18.409  13.234  28.220  1.00  0.00     0.116 A 
HETATM   12  C17 UNL     1      17.521  14.407  28.171  1.00  0.00     0.266 A 
HETATM   13  O6  UNL     1      17.368  15.432  28.866  1.00  0.00    -0.265 OA
HETATM   14  O7  UNL     1      16.935  13.892  27.034  1.00  0.00    -0.314 OA
HETATM   15  C18 UNL     1      17.640  12.699  27.070  1.00  0.00     0.151 A 
HETATM   16  C19 UNL     1      18.655  12.465  25.920  1.00  0.00     0.045 C 
HETATM   17  C20 UNL     1      18.075  11.525  25.016  1.00  0.00     0.090 C 
HETATM   18 CL1  UNL     1      17.196  12.448  23.721  1.00  0.00    -0.124 Cl
HETATM   19  C21 UNL     1      18.745  10.406  24.351  1.00  0.00     0.035 C 
HETATM   20  C22 UNL     1      20.031  10.611  23.653  1.00  0.00    -0.012 C 
HETATM   21  C23 UNL     1      21.032   9.486  23.998  1.00  0.00     0.021 C 
ENDROOT
BRANCH   3  22
HETATM   22  C4  UNL     1      21.833  12.409  21.345  1.00  0.00     0.176 C 
HETATM   23  O1  UNL     1      23.174  11.879  21.449  1.00  0.00    -0.310 OA
HETATM   24  C5  UNL     1      23.336  10.931  20.421  1.00  0.00     0.260 C 
HETATM   25  O2  UNL     1      24.304  10.140  20.324  1.00  0.00    -0.265 OA
HETATM   26  C6  UNL     1      22.193  11.032  19.503  1.00  0.00     0.129 C 
HETATM   27  C7  UNL     1      21.649  12.425  19.904  1.00  0.00     0.130 C 
BRANCH  27  28
HETATM   28  C8  UNL     1      20.402  12.759  19.278  1.00  0.00     0.180 C 
HETATM   29  O3  UNL     1      19.831  13.854  19.513  1.00  0.00    -0.648 OA
HETATM   30  O4  UNL     1      19.780  11.892  18.398  1.00  0.00    -0.648 OA
ENDBRANCH  27  28
ENDBRANCH   3  22
BRANCH   6  31
HETATM   31  O5  UNL     1      20.949  14.143  25.521  1.00  0.00    -0.389 OA
ATOM     32  H5  UNL     1      20.594  14.579  26.287  1.00  0.00     0.210 HD
ENDBRANCH   6  31
TORSDOF 3
ENDMDL
MODEL 5
REMARK VINA RESULT: -7.325055219      8.268     10.863
REMARK  3 active torsions:
REMARK  status: ('A' for Active; 'I' for Inactive)
REMARK    1  A    between atoms: C3_3  and  C4_4 
REMARK    2  A    between atoms: C7_9  and  C8_10 
REMARK    3  A    between atoms: C11_15  and  O5_17 
ROOT
HETATM    1  C1  UNL     1      22.203  12.907  27.527  1.00  0.00     0.044 C 
HETATM    2  C2  UNL     1      21.006  12.644  26.661  1.00  0.00    -0.069 C 
HETATM    3  C3  UNL     1      19.741  12.876  26.594  1.00  0.00    -0.042 C 
HETATM    4  C9  UNL     1      19.691  12.356  25.223  1.00  0.00     0.033 C 
HETATM    5  C10 UNL     1      18.659  11.378  24.818  1.00  0.00     0.048 C 
HETATM    6  C11 UNL     1      18.451  11.284  23.349  1.00  0.00     0.062 C 
HETATM    7  C12 UNL     1      17.392  10.222  23.134  1.00  0.00     0.046 C 
HETATM    8  C13 UNL     1      19.610  11.049  22.464  1.00  0.00    -0.005 C 
HETATM    9  C14 UNL     1      20.144   9.650  22.420  1.00  0.00     0.019 C 
HETATM   10  C15 UNL     1      18.953  11.205  21.049  1.00  0.00     0.030 C 
HETATM   11  C16 UNL     1      20.093  11.316  20.091  1.00  0.00     0.116 A 
HETATM   12  C17 UNL     1      20.080  12.503  19.220  1.00  0.00     0.266 A 
HETATM   13  O6  UNL     1      19.500  12.818  18.160  1.00  0.00    -0.265 OA
HETATM   14  O7  UNL     1      20.979  13.113  20.069  1.00  0.00    -0.314 OA
HETATM   15  C18 UNL     1      21.149  12.000  20.877  1.00  0.00     0.151 A 
HETATM   16  C19 UNL     1      20.621  12.120  22.332  1.00  0.00     0.045 C 
HETATM   17  C20 UNL     1      21.748  12.302  23.188  1.00  0.00     0.090 C 
HETATM   18 CL1  UNL     1      22.017  14.088  23.401  1.00  0.00    -0.124 Cl
HETATM   19  C21 UNL     1      21.977  11.685  24.495  1.00  0.00     0.035 C 
HETATM   20  C22 UNL     1      20.919  11.701  25.527  1.00  0.00    -0.012 C 
HETATM   21  C23 UNL     1      20.780  10.317  26.197  1.00  0.00     0.021 C 
ENDROOT
BRANCH   3  22
HETATM   22  C4  UNL     1      18.660  13.542  27.349  1.00  0.00     0.176 C 
HETATM   23  O1  UNL     1      18.039  12.589  28.240  1.00  0.00    -0.310 OA
HETATM   24  C5  UNL     1      18.679  12.695  29.489  1.00  0.00     0.260 C 
HETATM   25  O2  UNL     1      18.528  11.895  30.441  1.00  0.00    -0.265 OA
HETATM   26  C6  UNL     1      19.539  13.887  29.476  1.00  0.00     0.129 C 
HETATM   27  C7  UNL     1      18.940  14.637  28.261  1.00  0.00     0.130 C 
BRANCH  27  28
HETATM   28  C8  UNL     1      19.685  15.803  27.879  1.00  0.00     0.180 C 
HETATM   29  O3  UNL     1      19.329  16.508  26.900  1.00  0.00    -0.648 OA
HETATM   30  O4  UNL     1      20.819  16.194  28.567  1.00  0.00    -0.648 OA
ENDBRANCH  27  28
ENDBRANCH   3  22
BRANCH   6  31
HETATM   31  O5  UNL     1      17.840  12.495  22.937  1.00  0.00    -0.389 OA
ATOM     32  H5  UNL     1      18.487  13.183  23.040  1.00  0.00     0.210 HD
ENDBRANCH   6  31
TORSDOF 3
ENDMDL
