MODEL 1
REMARK VINA RESULT: -8.073803052      0.000      0.000
REMARK  6 active torsions:
REMARK  status: ('A' for Active; 'I' for Inactive)
REMARK    1  A    between atoms: C4_4  and  O1_5 
REMARK    2  A    between atoms: O1_5  and  C5_6 
REMARK    3  A    between atoms: C8_10  and  O3_12 
REMARK    4  A    between atoms: C11_15  and  C12_16 
REMARK    5  A    between atoms: C12_16  and  C13_17 
REMARK    6  A    between atoms: C17_24  and  O6_25 
ROOT
HETATM    1  C1  UNL     1      16.455   7.876  19.221  1.00  0.00     0.036 C 
HETATM    2  C2  UNL     1      16.447   8.567  20.512  1.00  0.00    -0.025 C 
HETATM    3  C3  UNL     1      17.118   9.662  20.841  1.00  0.00    -0.046 C 
HETATM    4  C4  UNL     1      16.859  10.100  22.276  1.00  0.00     0.164 C 
HETATM    5  C7  UNL     1      18.007   9.974  23.198  1.00  0.00     0.075 C 
HETATM    6  C8  UNL     1      18.771  11.217  23.526  1.00  0.00     0.063 C 
HETATM    7  C9  UNL     1      17.805  12.295  23.947  1.00  0.00     0.046 C 
HETATM    8  C10 UNL     1      19.675  11.789  22.477  1.00  0.00     0.059 C 
HETATM    9  C11 UNL     1      21.124  11.299  22.631  1.00  0.00     0.134 C 
HETATM   10  O4  UNL     1      21.533  10.823  21.415  1.00  0.00    -0.340 OA
HETATM   11  C16 UNL     1      20.679  11.104  20.411  1.00  0.00     0.232 C 
HETATM   12 BR1  UNL     1      20.935  12.817  19.562  1.00  0.00    -0.021 Br
HETATM   13  O5  UNL     1      20.408  10.179  19.458  1.00  0.00    -0.314 OA
HETATM   14  C17 UNL     1      19.215   9.517  19.405  1.00  0.00     0.269 C 
HETATM   15  C18 UNL     1      17.937  10.189  19.700  1.00  0.00     0.073 C 
HETATM   16  C19 UNL     1      18.382  11.569  20.279  1.00  0.00     0.025 C 
HETATM   17  C20 UNL     1      19.371  11.104  21.229  1.00  0.00     0.071 C 
ENDROOT
BRANCH   4  18
HETATM   18  O1  UNL     1      15.735   9.409  22.725  1.00  0.00    -0.312 OA
BRANCH  18  19
HETATM   19  C5  UNL     1      14.882   9.813  23.714  1.00  0.00     0.255 C 
HETATM   20  C6  UNL     1      15.151   9.397  25.111  1.00  0.00     0.126 C 
HETATM   21  O2  UNL     1      13.907  10.512  23.428  1.00  0.00    -0.266 OA
ENDBRANCH  18  19
ENDBRANCH   4  18
BRANCH   6  22
HETATM   22  O3  UNL     1      19.556  10.925  24.642  1.00  0.00    -0.390 OA
ATOM     23  H3  UNL     1      18.959  10.789  25.369  1.00  0.00     0.210 HD
ENDBRANCH   6  22
BRANCH  14  24
HETATM   24  O6  UNL     1      19.409   8.256  19.965  1.00  0.00    -0.370 OA
ATOM     25  H6  UNL     1      19.972   7.765  19.379  1.00  0.00     0.212 HD
ENDBRANCH  14  24
BRANCH   9  26
HETATM   26  C12 UNL     1      21.929  12.446  23.144  1.00  0.00     0.036 C 
BRANCH  26  27
HETATM   27  C13 UNL     1      22.940  12.041  24.190  1.00  0.00    -0.020 C 
HETATM   28  C14 UNL     1      22.936  10.515  24.353  1.00  0.00     0.009 C 
HETATM   29  C15 UNL     1      22.572  12.604  25.545  1.00  0.00     0.009 C 
ENDBRANCH  26  27
ENDBRANCH   9  26
TORSDOF 6
ENDMDL
MODEL 2
REMARK VINA RESULT: -7.900684210      2.551      4.656
REMARK  6 active torsions:
REMARK  status: ('A' for Active; 'I' for Inactive)
REMARK    1  A    between atoms: C4_4  and  O1_5 
REMARK    2  A    between atoms: O1_5  and  C5_6 
REMARK    3  A    between atoms: C8_10  and  O3_12 
REMARK    4  A    between atoms: C11_15  and  C12_16 
REMARK    5  A    between atoms: C12_16  and  C13_17 
REMARK    6  A    between atoms: C17_24  and  O6_25 
ROOT
HETATM    1  C1  UNL     1      18.828  11.423  25.476  1.00  0.00     0.036 C 
HETATM    2  C2  UNL     1      18.511  11.416  24.046  1.00  0.00    -0.025 C 
HETATM    3  C3  UNL     1      19.255  10.931  23.061  1.00  0.00    -0.046 C 
HETATM    4  C4  UNL     1      18.599  11.094  21.696  1.00  0.00     0.164 C 
HETATM    5  C7  UNL     1      19.261  12.044  20.780  1.00  0.00     0.075 C 
HETATM    6  C8  UNL     1      20.124  11.476  19.699  1.00  0.00     0.063 C 
HETATM    7  C9  UNL     1      19.359  10.403  18.967  1.00  0.00     0.046 C 
HETATM    8  C10 UNL     1      21.459  10.914  20.081  1.00  0.00     0.059 C 
HETATM    9  C11 UNL     1      22.587  11.947  19.932  1.00  0.00     0.134 C 
HETATM   10  O4  UNL     1      23.289  11.970  21.107  1.00  0.00    -0.340 OA
HETATM   11  C16 UNL     1      22.958  10.974  21.951  1.00  0.00     0.232 C 
HETATM   12 BR1  UNL     1      23.909   9.317  21.689  1.00  0.00    -0.021 Br
HETATM   13  O5  UNL     1      22.844  11.208  23.282  1.00  0.00    -0.314 OA
HETATM   14  C17 UNL     1      21.632  11.254  23.911  1.00  0.00     0.269 C 
HETATM   15  C18 UNL     1      20.537  10.333  23.560  1.00  0.00     0.073 C 
HETATM   16  C19 UNL     1      21.053   9.637  22.262  1.00  0.00     0.025 C 
HETATM   17  C20 UNL     1      21.481  10.813  21.534  1.00  0.00     0.071 C 
ENDROOT
BRANCH   4  18
HETATM   18  O1  UNL     1      17.259  11.407  21.915  1.00  0.00    -0.312 OA
BRANCH  18  19
HETATM   19  C5  UNL     1      16.188  10.600  21.646  1.00  0.00     0.255 C 
HETATM   20  C6  UNL     1      16.420   9.294  20.985  1.00  0.00     0.126 C 
HETATM   21  O2  UNL     1      15.053  10.972  21.955  1.00  0.00    -0.266 OA
ENDBRANCH  18  19
ENDBRANCH   4  18
BRANCH   6  22
HETATM   22  O3  UNL     1      20.349  12.503  18.781  1.00  0.00    -0.390 OA
ATOM     23  H3  UNL     1      20.671  12.095  17.986  1.00  0.00     0.210 HD
ENDBRANCH   6  22
BRANCH  14  24
HETATM   24  O6  UNL     1      21.299  12.596  24.083  1.00  0.00    -0.370 OA
ATOM     25  H6  UNL     1      20.502  12.629  24.598  1.00  0.00     0.212 HD
ENDBRANCH  14  24
BRANCH   9  26
HETATM   26  C12 UNL     1      23.396  11.554  18.741  1.00  0.00     0.036 C 
BRANCH  26  27
HETATM   27  C13 UNL     1      24.884  11.680  18.966  1.00  0.00    -0.020 C 
HETATM   28  C14 UNL     1      25.465  12.740  18.020  1.00  0.00     0.009 C 
HETATM   29  C15 UNL     1      25.594  10.388  18.628  1.00  0.00     0.009 C 
ENDBRANCH  26  27
ENDBRANCH   9  26
TORSDOF 6
ENDMDL
MODEL 3
REMARK VINA RESULT: -7.852431658      2.710      4.951
REMARK  6 active torsions:
REMARK  status: ('A' for Active; 'I' for Inactive)
REMARK    1  A    between atoms: C4_4  and  O1_5 
REMARK    2  A    between atoms: O1_5  and  C5_6 
REMARK    3  A    between atoms: C8_10  and  O3_12 
REMARK    4  A    between atoms: C11_15  and  C12_16 
REMARK    5  A    between atoms: C12_16  and  C13_17 
REMARK    6  A    between atoms: C17_24  and  O6_25 
ROOT
HETATM    1  C1  UNL     1      23.554   9.600  20.904  1.00  0.00     0.036 C 
HETATM    2  C2  UNL     1      22.125   9.762  21.183  1.00  0.00    -0.025 C 
HETATM    3  C3  UNL     1      21.558  10.662  21.974  1.00  0.00    -0.046 C 
HETATM    4  C4  UNL     1      20.041  10.532  22.018  1.00  0.00     0.164 C 
HETATM    5  C7  UNL     1      19.477  10.082  23.307  1.00  0.00     0.075 C 
HETATM    6  C8  UNL     1      18.875  11.121  24.199  1.00  0.00     0.063 C 
HETATM    7  C9  UNL     1      17.906  11.957  23.402  1.00  0.00     0.046 C 
HETATM    8  C10 UNL     1      19.799  12.049  24.928  1.00  0.00     0.059 C 
HETATM    9  C11 UNL     1      20.125  11.549  26.343  1.00  0.00     0.134 C 
HETATM   10  O4  UNL     1      21.487  11.563  26.486  1.00  0.00    -0.340 OA
HETATM   11  C16 UNL     1      22.127  12.190  25.480  1.00  0.00     0.232 C 
HETATM   12 BR1  UNL     1      22.323  14.097  25.685  1.00  0.00    -0.021 Br
HETATM   13  O5  UNL     1      23.279  11.682  24.975  1.00  0.00    -0.314 OA
HETATM   14  C17 UNL     1      23.332  11.078  23.751  1.00  0.00     0.269 C 
HETATM   15  C18 UNL     1      22.565  11.582  22.599  1.00  0.00     0.073 C 
HETATM   16  C19 UNL     1      21.622  12.651  23.234  1.00  0.00     0.025 C 
HETATM   17  C20 UNL     1      21.124  11.874  24.350  1.00  0.00     0.071 C 
ENDROOT
BRANCH   4  18
HETATM   18  O1  UNL     1      19.664   9.715  20.955  1.00  0.00    -0.312 OA
BRANCH  18  19
HETATM   19  C5  UNL     1      18.693   9.989  20.033  1.00  0.00     0.255 C 
HETATM   20  C6  UNL     1      17.286   9.639  20.343  1.00  0.00     0.126 C 
HETATM   21  O2  UNL     1      19.002  10.520  18.962  1.00  0.00    -0.266 OA
ENDBRANCH  18  19
ENDBRANCH   4  18
BRANCH   6  22
HETATM   22  O3  UNL     1      18.122  10.441  25.159  1.00  0.00    -0.390 OA
ATOM     23  H3  UNL     1      17.771  11.098  25.748  1.00  0.00     0.210 HD
ENDBRANCH   6  22
BRANCH  14  24
HETATM   24  O6  UNL     1      23.323   9.701  23.963  1.00  0.00    -0.370 OA
ATOM     25  H6  UNL     1      23.411   9.280  23.116  1.00  0.00     0.212 HD
ENDBRANCH  14  24
BRANCH   9  26
HETATM   26  C12 UNL     1      19.399  12.430  27.305  1.00  0.00     0.036 C 
BRANCH  26  27
HETATM   27  C13 UNL     1      19.995  12.414  28.692  1.00  0.00    -0.020 C 
HETATM   28  C14 UNL     1      18.886  12.201  29.732  1.00  0.00     0.009 C 
HETATM   29  C15 UNL     1      20.625  13.748  29.025  1.00  0.00     0.009 C 
ENDBRANCH  26  27
ENDBRANCH   9  26
TORSDOF 6
ENDMDL
MODEL 4
REMARK VINA RESULT: -7.851514168      2.526      5.273
REMARK  6 active torsions:
REMARK  status: ('A' for Active; 'I' for Inactive)
REMARK    1  A    between atoms: C4_4  and  O1_5 
REMARK    2  A    between atoms: O1_5  and  C5_6 
REMARK    3  A    between atoms: C8_10  and  O3_12 
REMARK    4  A    between atoms: C11_15  and  C12_16 
REMARK    5  A    between atoms: C12_16  and  C13_17 
REMARK    6  A    between atoms: C17_24  and  O6_25 
ROOT
HETATM    1  C1  UNL     1      24.073   9.790  21.057  1.00  0.00     0.036 C 
HETATM    2  C2  UNL     1      22.612   9.903  21.087  1.00  0.00    -0.025 C 
HETATM    3  C3  UNL     1      21.885  10.712  21.843  1.00  0.00    -0.046 C 
HETATM    4  C4  UNL     1      20.389  10.557  21.599  1.00  0.00     0.164 C 
HETATM    5  C7  UNL     1      19.618   9.974  22.715  1.00  0.00     0.075 C 
HETATM    6  C8  UNL     1      18.833  10.911  23.578  1.00  0.00     0.063 C 
HETATM    7  C9  UNL     1      17.997  11.807  22.701  1.00  0.00     0.046 C 
HETATM    8  C10 UNL     1      19.581  11.776  24.546  1.00  0.00     0.059 C 
HETATM    9  C11 UNL     1      19.664  11.143  25.944  1.00  0.00     0.134 C 
HETATM   10  O4  UNL     1      20.977  11.161  26.332  1.00  0.00    -0.340 OA
HETATM   11  C16 UNL     1      21.767  11.894  25.523  1.00  0.00     0.232 C 
HETATM   12 BR1  UNL     1      21.862  13.774  25.939  1.00  0.00    -0.021 Br
HETATM   13  O5  UNL     1      23.006  11.456  25.190  1.00  0.00    -0.314 OA
HETATM   14  C17 UNL     1      23.297  10.975  23.944  1.00  0.00     0.269 C 
HETATM   15  C18 UNL     1      22.733  11.580  22.725  1.00  0.00     0.073 C 
HETATM   16  C19 UNL     1      21.658  12.568  23.276  1.00  0.00     0.025 C 
HETATM   17  C20 UNL     1      20.993  11.678  24.205  1.00  0.00     0.071 C 
ENDROOT
BRANCH   4  18
HETATM   18  O1  UNL     1      20.235   9.844  20.412  1.00  0.00    -0.312 OA
BRANCH  18  19
HETATM   19  C5  UNL     1      19.515  10.242  19.320  1.00  0.00     0.255 C 
HETATM   20  C6  UNL     1      19.450  11.685  18.988  1.00  0.00     0.126 C 
HETATM   21  O2  UNL     1      18.934   9.397  18.633  1.00  0.00    -0.266 OA
ENDBRANCH  18  19
ENDBRANCH   4  18
BRANCH   6  22
HETATM   22  O3  UNL     1      17.943  10.129  24.316  1.00  0.00    -0.390 OA
ATOM     23  H3  UNL     1      17.164  10.656  24.453  1.00  0.00     0.210 HD
ENDBRANCH   6  22
BRANCH  14  24
HETATM   24  O6  UNL     1      23.294   9.584  24.019  1.00  0.00    -0.370 OA
ATOM     25  H6  UNL     1      22.514   9.275  23.575  1.00  0.00     0.212 HD
ENDBRANCH  14  24
BRANCH   9  26
HETATM   26  C12 UNL     1      18.749  11.914  26.836  1.00  0.00     0.036 C 
BRANCH  26  27
HETATM   27  C13 UNL     1      18.220  13.175  26.197  1.00  0.00    -0.020 C 
HETATM   28  C14 UNL     1      18.448  14.368  27.136  1.00  0.00     0.009 C 
HETATM   29  C15 UNL     1      16.725  13.090  25.988  1.00  0.00     0.009 C 
ENDBRANCH  26  27
ENDBRANCH   9  26
TORSDOF 6
ENDMDL
MODEL 5
REMARK VINA RESULT: -7.715409177      2.104      6.699
REMARK  6 active torsions:
REMARK  status: ('A' for Active; 'I' for Inactive)
REMARK    1  A    between atoms: C4_4  and  O1_5 
REMARK    2  A    between atoms: O1_5  and  C5_6 
REMARK    3  A    between atoms: C8_10  and  O3_12 
REMARK    4  A    between atoms: C11_15  and  C12_16 
REMARK    5  A    between atoms: C12_16  and  C13_17 
REMARK    6  A    between atoms: C17_24  and  O6_25 
ROOT
HETATM    1  C1  UNL     1      23.196  11.149  24.564  1.00  0.00     0.036 C 
HETATM    2  C2  UNL     1      22.990  11.303  23.122  1.00  0.00    -0.025 C 
HETATM    3  C3  UNL     1      21.851  11.569  22.498  1.00  0.00    -0.046 C 
HETATM    4  C4  UNL     1      22.018  11.663  20.987  1.00  0.00     0.164 C 
HETATM    5  C7  UNL     1      21.376  10.587  20.206  1.00  0.00     0.075 C 
HETATM    6  C8  UNL     1      20.073  10.898  19.540  1.00  0.00     0.063 C 
HETATM    7  C9  UNL     1      20.211  12.180  18.758  1.00  0.00     0.046 C 
HETATM    8  C10 UNL     1      18.849  11.008  20.397  1.00  0.00     0.059 C 
HETATM    9  C11 UNL     1      18.073   9.683  20.472  1.00  0.00     0.134 C 
HETATM   10  O4  UNL     1      17.852   9.405  21.794  1.00  0.00    -0.340 OA
HETATM   11  C16 UNL     1      18.159  10.426  22.618  1.00  0.00     0.232 C 
HETATM   12 BR1  UNL     1      16.755  11.716  22.897  1.00  0.00    -0.021 Br
HETATM   13  O5  UNL     1      18.782  10.192  23.799  1.00  0.00    -0.314 OA
HETATM   14  C17 UNL     1      20.097  10.500  24.002  1.00  0.00     0.269 C 
HETATM   15  C18 UNL     1      20.704  11.725  23.452  1.00  0.00     0.073 C 
HETATM   16  C19 UNL     1      19.603  12.272  22.491  1.00  0.00     0.025 C 
HETATM   17  C20 UNL     1      19.298  11.048  21.782  1.00  0.00     0.071 C 
ENDROOT
BRANCH   4  18
HETATM   18  O1  UNL     1      23.383  11.771  20.727  1.00  0.00    -0.312 OA
BRANCH  18  19
HETATM   19  C5  UNL     1      24.084  11.058  19.795  1.00  0.00     0.255 C 
HETATM   20  C6  UNL     1      24.254  11.623  18.435  1.00  0.00     0.126 C 
HETATM   21  O2  UNL     1      24.561   9.961  20.099  1.00  0.00    -0.266 OA
ENDBRANCH  18  19
ENDBRANCH   4  18
BRANCH   6  22
HETATM   22  O3  UNL     1      19.843   9.884  18.609  1.00  0.00    -0.390 OA
ATOM     23  H3  UNL     1      20.548   9.255  18.710  1.00  0.00     0.210 HD
ENDBRANCH   6  22
BRANCH  14  24
HETATM   24  O6  UNL     1      20.829   9.321  23.876  1.00  0.00    -0.370 OA
ATOM     25  H6  UNL     1      21.724   9.511  24.130  1.00  0.00     0.212 HD
ENDBRANCH  14  24
BRANCH   9  26
HETATM   26  C12 UNL     1      16.831   9.849  19.663  1.00  0.00     0.036 C 
BRANCH  26  27
HETATM   27  C13 UNL     1      16.071   8.559  19.469  1.00  0.00    -0.020 C 
HETATM   28  C14 UNL     1      15.170   8.299  20.685  1.00  0.00     0.009 C 
HETATM   29  C15 UNL     1      17.016   7.381  19.393  1.00  0.00     0.009 C 
ENDBRANCH  26  27
ENDBRANCH   9  26
TORSDOF 6
ENDMDL
