MODEL 1
REMARK VINA RESULT: -7.497281508      0.000      0.000
REMARK  6 active torsions:
REMARK  status: ('A' for Active; 'I' for Inactive)
REMARK    1  A    between atoms: C3_3  and  O1_4 
REMARK    2  A    between atoms: O1_4  and  N1_5 
REMARK    3  A    between atoms: C4_7  and  O2_8 
REMARK    4  A    between atoms: C4_7  and  C5_10 
REMARK    5  A    between atoms: C15_21  and  O4_23 
REMARK    6  A    between atoms: C21_30  and  O5_31 
ROOT
HETATM    1  C1  UNL     1      17.580   8.987  19.403  1.00  0.00     0.014 C 
HETATM    2  C2  UNL     1      16.746   9.026  20.273  1.00  0.00    -0.089 C 
HETATM    3  C3  UNL     1      15.750   9.097  21.315  1.00  0.00     0.294 C 
ENDROOT
BRANCH   3   4
HETATM    4  O1  UNL     1      15.854  10.329  22.044  1.00  0.00    -0.267 OA
BRANCH   4   5
HETATM    5  N1  UNL     1      16.945  10.614  22.803  1.00  0.00    -0.247 N 
HETATM    6  C4  UNL     1      17.681  11.635  22.662  1.00  0.00     0.145 C 
ATOM      7  H1  UNL     1      17.190   9.956  23.543  1.00  0.00     0.196 HD
BRANCH   6   8
HETATM    8  O2  UNL     1      17.255  12.464  21.625  1.00  0.00    -0.348 OA
ATOM      9  H2  UNL     1      17.634  13.334  21.673  1.00  0.00     0.219 HD
ENDBRANCH   6   8
BRANCH   6  10
HETATM   10  C5  UNL     1      18.857  12.074  23.377  1.00  0.00     0.107 C 
HETATM   11  C6  UNL     1      20.036  11.402  22.749  1.00  0.00    -0.050 C 
HETATM   12  C7  UNL     1      20.233  10.446  21.856  1.00  0.00    -0.014 C 
HETATM   13  C10 UNL     1      21.359  11.914  23.191  1.00  0.00     0.065 C 
HETATM   14  C8  UNL     1      21.685  10.217  21.643  1.00  0.00     0.107 C 
HETATM   15  C9  UNL     1      22.211  10.725  22.950  1.00  0.00     0.147 C 
HETATM   16  O3  UNL     1      23.106  10.197  23.546  1.00  0.00    -0.296 OA
HETATM   17  C11 UNL     1      21.762  12.887  22.054  1.00  0.00     0.033 C 
HETATM   18  C12 UNL     1      21.410  12.534  24.519  1.00  0.00    -0.055 C 
HETATM   19  C13 UNL     1      22.607  12.089  25.374  1.00  0.00     0.039 C 
HETATM   20  C24 UNL     1      20.167  12.622  25.318  1.00  0.00    -0.037 C 
HETATM   21  C14 UNL     1      22.712  13.194  26.443  1.00  0.00     0.044 C 
HETATM   22  C15 UNL     1      21.593  12.854  27.415  1.00  0.00     0.080 C 
HETATM   23  C16 UNL     1      21.647  13.881  28.525  1.00  0.00     0.048 C 
HETATM   24  C17 UNL     1      20.286  12.644  26.792  1.00  0.00     0.095 C 
HETATM   25 CL1  UNL     1      19.658  11.141  27.591  1.00  0.00    -0.111 Cl
HETATM   26  C18 UNL     1      19.210  13.642  27.265  1.00  0.00     0.015 C 
HETATM   27  C19 UNL     1      19.380  15.004  26.658  1.00  0.00     0.012 C 
HETATM   28  C20 UNL     1      17.929  12.995  26.875  1.00  0.00     0.039 C 
HETATM   29  C21 UNL     1      17.787  12.269  25.628  1.00  0.00     0.132 C 
HETATM   30  C22 UNL     1      18.973  11.757  24.856  1.00  0.00     0.022 C 
HETATM   31  C23 UNL     1      19.182  10.295  24.978  1.00  0.00     0.024 C 
BRANCH  22  32
HETATM   32  O4  UNL     1      22.128  11.691  28.044  1.00  0.00    -0.388 OA
ATOM     33  H4  UNL     1      22.437  11.206  27.287  1.00  0.00     0.210 HD
ENDBRANCH  22  32
BRANCH  29  34
HETATM   34  O5  UNL     1      17.007  11.122  25.947  1.00  0.00    -0.394 OA
ATOM     35  H5  UNL     1      16.768  10.740  25.111  1.00  0.00     0.210 HD
ENDBRANCH  29  34
ENDBRANCH   6  10
ENDBRANCH   4   5
ENDBRANCH   3   4
TORSDOF 6
ENDMDL
MODEL 2
REMARK VINA RESULT: -7.470135763      2.198      3.615
REMARK  6 active torsions:
REMARK  status: ('A' for Active; 'I' for Inactive)
REMARK    1  A    between atoms: C3_3  and  O1_4 
REMARK    2  A    between atoms: O1_4  and  N1_5 
REMARK    3  A    between atoms: C4_7  and  O2_8 
REMARK    4  A    between atoms: C4_7  and  C5_10 
REMARK    5  A    between atoms: C15_21  and  O4_23 
REMARK    6  A    between atoms: C21_30  and  O5_31 
ROOT
HETATM    1  C1  UNL     1      11.733  10.142  25.154  1.00  0.00     0.014 C 
HETATM    2  C2  UNL     1      12.753  10.784  25.174  1.00  0.00    -0.089 C 
HETATM    3  C3  UNL     1      13.974  11.555  25.173  1.00  0.00     0.294 C 
ENDROOT
BRANCH   3   4
HETATM    4  O1  UNL     1      14.553  11.600  23.860  1.00  0.00    -0.267 OA
BRANCH   4   5
HETATM    5  N1  UNL     1      15.877  11.362  23.661  1.00  0.00    -0.247 N 
HETATM    6  C4  UNL     1      16.659  12.114  23.008  1.00  0.00     0.145 C 
ATOM      7  H1  UNL     1      16.270  10.513  24.068  1.00  0.00     0.196 HD
BRANCH   6   8
HETATM    8  O2  UNL     1      16.019  13.243  22.499  1.00  0.00    -0.348 OA
ATOM      9  H2  UNL     1      16.617  13.962  22.338  1.00  0.00     0.219 HD
ENDBRANCH   6   8
BRANCH   6  10
HETATM   10  C5  UNL     1      18.069  12.002  22.712  1.00  0.00     0.107 C 
HETATM   11  C6  UNL     1      18.203  11.112  21.518  1.00  0.00    -0.050 C 
HETATM   12  C7  UNL     1      17.404  10.329  20.810  1.00  0.00    -0.014 C 
HETATM   13  C10 UNL     1      19.560  11.070  20.914  1.00  0.00     0.065 C 
HETATM   14  C8  UNL     1      18.152   9.682  19.701  1.00  0.00     0.107 C 
HETATM   15  C9  UNL     1      19.535   9.735  20.270  1.00  0.00     0.147 C 
HETATM   16  O3  UNL     1      20.326   8.842  20.157  1.00  0.00    -0.296 OA
HETATM   17  C11 UNL     1      19.449  12.052  19.721  1.00  0.00     0.033 C 
HETATM   18  C12 UNL     1      20.681  11.379  21.807  1.00  0.00    -0.055 C 
HETATM   19  C13 UNL     1      21.871  10.415  21.676  1.00  0.00     0.039 C 
HETATM   20  C24 UNL     1      20.402  11.716  23.220  1.00  0.00    -0.037 C 
HETATM   21  C14 UNL     1      23.040  11.203  22.299  1.00  0.00     0.044 C 
HETATM   22  C15 UNL     1      22.798  11.072  23.795  1.00  0.00     0.080 C 
HETATM   23  C16 UNL     1      23.929  11.797  24.489  1.00  0.00     0.048 C 
HETATM   24  C17 UNL     1      21.444  11.421  24.227  1.00  0.00     0.095 C 
HETATM   25 CL1  UNL     1      20.992  10.086  25.367  1.00  0.00    -0.111 Cl
HETATM   26  C18 UNL     1      21.399  12.610  25.209  1.00  0.00     0.015 C 
HETATM   27  C19 UNL     1      21.619  13.929  24.530  1.00  0.00     0.012 C 
HETATM   28  C20 UNL     1      20.054  12.502  25.834  1.00  0.00     0.039 C 
HETATM   29  C21 UNL     1      18.885  12.110  25.072  1.00  0.00     0.132 C 
HETATM   30  C22 UNL     1      18.988  11.393  23.753  1.00  0.00     0.022 C 
HETATM   31  C23 UNL     1      18.670   9.947  23.830  1.00  0.00     0.024 C 
BRANCH  22  32
HETATM   32  O4  UNL     1      23.135   9.702  24.002  1.00  0.00    -0.388 OA
ATOM     33  H4  UNL     1      24.030   9.688  23.682  1.00  0.00     0.210 HD
ENDBRANCH  22  32
BRANCH  29  34
HETATM   34  O5  UNL     1      18.150  11.243  25.929  1.00  0.00    -0.394 OA
ATOM     35  H5  UNL     1      18.449  10.367  25.716  1.00  0.00     0.210 HD
ENDBRANCH  29  34
ENDBRANCH   6  10
ENDBRANCH   4   5
ENDBRANCH   3   4
TORSDOF 6
ENDMDL
MODEL 3
REMARK VINA RESULT: -7.444435450      2.119      4.701
REMARK  6 active torsions:
REMARK  status: ('A' for Active; 'I' for Inactive)
REMARK    1  A    between atoms: C3_3  and  O1_4 
REMARK    2  A    between atoms: O1_4  and  N1_5 
REMARK    3  A    between atoms: C4_7  and  O2_8 
REMARK    4  A    between atoms: C4_7  and  C5_10 
REMARK    5  A    between atoms: C15_21  and  O4_23 
REMARK    6  A    between atoms: C21_30  and  O5_31 
ROOT
HETATM    1  C1  UNL     1      22.467  11.556  20.017  1.00  0.00     0.014 C 
HETATM    2  C2  UNL     1      23.082  10.698  20.600  1.00  0.00    -0.089 C 
HETATM    3  C3  UNL     1      23.802   9.672  21.317  1.00  0.00     0.294 C 
ENDROOT
BRANCH   3   4
HETATM    4  O1  UNL     1      23.461   9.682  22.711  1.00  0.00    -0.267 OA
BRANCH   4   5
HETATM    5  N1  UNL     1      22.375  10.359  23.171  1.00  0.00    -0.247 N 
HETATM    6  C4  UNL     1      21.735  10.073  24.225  1.00  0.00     0.145 C 
ATOM      7  H1  UNL     1      22.052  11.158  22.625  1.00  0.00     0.196 HD
BRANCH   6   8
HETATM    8  O2  UNL     1      22.262   8.967  24.890  1.00  0.00    -0.348 OA
ATOM      9  H2  UNL     1      23.072   8.659  24.503  1.00  0.00     0.219 HD
ENDBRANCH   6   8
BRANCH   6  10
HETATM   10  C5  UNL     1      20.580  10.686  24.839  1.00  0.00     0.107 C 
HETATM   11  C6  UNL     1      19.549  10.862  23.770  1.00  0.00    -0.050 C 
HETATM   12  C7  UNL     1      19.502  10.743  22.453  1.00  0.00    -0.014 C 
HETATM   13  C10 UNL     1      18.200  11.255  24.256  1.00  0.00     0.065 C 
HETATM   14  C8  UNL     1      18.144  11.066  21.945  1.00  0.00     0.107 C 
HETATM   15  C9  UNL     1      17.665  11.945  23.058  1.00  0.00     0.147 C 
HETATM   16  O3  UNL     1      17.015  12.935  22.879  1.00  0.00    -0.296 OA
HETATM   17  C11 UNL     1      17.426   9.913  24.281  1.00  0.00     0.033 C 
HETATM   18  C12 UNL     1      18.150  11.969  25.536  1.00  0.00    -0.055 C 
HETATM   19  C13 UNL     1      17.221  13.192  25.536  1.00  0.00     0.039 C 
HETATM   20  C24 UNL     1      19.414  12.240  26.257  1.00  0.00    -0.037 C 
HETATM   21  C14 UNL     1      16.961  13.444  27.034  1.00  0.00     0.044 C 
HETATM   22  C15 UNL     1      18.238  14.122  27.506  1.00  0.00     0.080 C 
HETATM   23  C16 UNL     1      18.053  14.436  28.974  1.00  0.00     0.048 C 
HETATM   24  C17 UNL     1      19.470  13.421  27.145  1.00  0.00     0.095 C 
HETATM   25 CL1  UNL     1      20.557  14.736  26.531  1.00  0.00    -0.111 Cl
HETATM   26  C18 UNL     1      20.299  12.965  28.364  1.00  0.00     0.015 C 
HETATM   27  C19 UNL     1      19.710  11.766  29.046  1.00  0.00     0.012 C 
HETATM   28  C20 UNL     1      21.648  12.700  27.796  1.00  0.00     0.039 C 
HETATM   29  C21 UNL     1      21.823  12.087  26.495  1.00  0.00     0.132 C 
HETATM   30  C22 UNL     1      20.727  12.061  25.464  1.00  0.00     0.022 C 
HETATM   31  C23 UNL     1      20.921  13.029  24.358  1.00  0.00     0.024 C 
BRANCH  22  32
HETATM   32  O4  UNL     1      18.102  15.404  26.896  1.00  0.00    -0.388 OA
ATOM     33  H4  UNL     1      18.433  15.222  26.024  1.00  0.00     0.210 HD
ENDBRANCH  22  32
BRANCH  29  34
HETATM   34  O5  UNL     1      22.907  12.786  25.893  1.00  0.00    -0.394 OA
ATOM     35  H5  UNL     1      23.481  12.112  25.551  1.00  0.00     0.210 HD
ENDBRANCH  29  34
ENDBRANCH   6  10
ENDBRANCH   4   5
ENDBRANCH   3   4
TORSDOF 6
ENDMDL
MODEL 4
REMARK VINA RESULT: -7.341448245      2.428      6.694
REMARK  6 active torsions:
REMARK  status: ('A' for Active; 'I' for Inactive)
REMARK    1  A    between atoms: C3_3  and  O1_4 
REMARK    2  A    between atoms: O1_4  and  N1_5 
REMARK    3  A    between atoms: C4_7  and  O2_8 
REMARK    4  A    between atoms: C4_7  and  C5_10 
REMARK    5  A    between atoms: C15_21  and  O4_23 
REMARK    6  A    between atoms: C21_30  and  O5_31 
ROOT
HETATM    1  C1  UNL     1      19.583  12.827  29.237  1.00  0.00     0.014 C 
HETATM    2  C2  UNL     1      20.726  12.512  29.018  1.00  0.00    -0.089 C 
HETATM    3  C3  UNL     1      22.095  12.150  28.736  1.00  0.00     0.294 C 
ENDROOT
BRANCH   3   4
HETATM    4  O1  UNL     1      22.451  12.492  27.389  1.00  0.00    -0.267 OA
BRANCH   4   5
HETATM    5  N1  UNL     1      21.767  11.991  26.325  1.00  0.00    -0.247 N 
HETATM    6  C4  UNL     1      21.105  12.684  25.497  1.00  0.00     0.145 C 
ATOM      7  H1  UNL     1      21.789  10.981  26.184  1.00  0.00     0.196 HD
BRANCH   6   8
HETATM    8  O2  UNL     1      21.144  14.047  25.784  1.00  0.00    -0.348 OA
ATOM      9  H2  UNL     1      21.230  14.584  25.005  1.00  0.00     0.219 HD
ENDBRANCH   6   8
BRANCH   6  10
HETATM   10  C5  UNL     1      20.337  12.307  24.332  1.00  0.00     0.107 C 
HETATM   11  C6  UNL     1      19.061  11.699  24.820  1.00  0.00    -0.050 C 
HETATM   12  C7  UNL     1      18.567  11.307  25.983  1.00  0.00    -0.014 C 
HETATM   13  C10 UNL     1      18.034  11.469  23.771  1.00  0.00     0.065 C 
HETATM   14  C8  UNL     1      17.195  10.763  25.815  1.00  0.00     0.107 C 
HETATM   15  C9  UNL     1      17.264  10.356  24.376  1.00  0.00     0.147 C 
HETATM   16  O3  UNL     1      16.772   9.348  23.955  1.00  0.00    -0.296 OA
HETATM   17  C11 UNL     1      17.091  12.690  23.923  1.00  0.00     0.033 C 
HETATM   18  C12 UNL     1      18.527  11.294  22.401  1.00  0.00    -0.055 C 
HETATM   19  C13 UNL     1      17.874  10.128  21.643  1.00  0.00     0.039 C 
HETATM   20  C24 UNL     1      19.983  11.367  22.148  1.00  0.00    -0.037 C 
HETATM   21  C14 UNL     1      18.164  10.456  20.165  1.00  0.00     0.044 C 
HETATM   22  C15 UNL     1      19.622  10.057  19.993  1.00  0.00     0.080 C 
HETATM   23  C16 UNL     1      19.982  10.318  18.548  1.00  0.00     0.048 C 
HETATM   24  C17 UNL     1      20.529  10.615  20.997  1.00  0.00     0.095 C 
HETATM   25 CL1  UNL     1      21.566   9.207  21.478  1.00  0.00    -0.111 Cl
HETATM   26  C18 UNL     1      21.618  11.531  20.401  1.00  0.00     0.015 C 
HETATM   27  C19 UNL     1      21.086  12.876  20.004  1.00  0.00     0.012 C 
HETATM   28  C20 UNL     1      22.641  11.611  21.478  1.00  0.00     0.039 C 
HETATM   29  C21 UNL     1      22.274  11.690  22.877  1.00  0.00     0.132 C 
HETATM   30  C22 UNL     1      20.915  11.280  23.377  1.00  0.00     0.022 C 
HETATM   31  C23 UNL     1      20.901   9.972  24.075  1.00  0.00     0.024 C 
BRANCH  22  32
HETATM   32  O4  UNL     1      19.517   8.635  20.035  1.00  0.00    -0.388 OA
ATOM     33  H4  UNL     1      19.693   8.417  19.127  1.00  0.00     0.210 HD
ENDBRANCH  22  32
BRANCH  29  34
HETATM   34  O5  UNL     1      23.205  10.855  23.558  1.00  0.00    -0.394 OA
ATOM     35  H5  UNL     1      22.768  10.591  24.358  1.00  0.00     0.210 HD
ENDBRANCH  29  34
ENDBRANCH   6  10
ENDBRANCH   4   5
ENDBRANCH   3   4
TORSDOF 6
ENDMDL
MODEL 5
REMARK VINA RESULT: -7.333499715      2.861      5.504
REMARK  6 active torsions:
REMARK  status: ('A' for Active; 'I' for Inactive)
REMARK    1  A    between atoms: C3_3  and  O1_4 
REMARK    2  A    between atoms: O1_4  and  N1_5 
REMARK    3  A    between atoms: C4_7  and  O2_8 
REMARK    4  A    between atoms: C4_7  and  C5_10 
REMARK    5  A    between atoms: C15_21  and  O4_23 
REMARK    6  A    between atoms: C21_30  and  O5_31 
ROOT
HETATM    1  C1  UNL     1      11.333  10.119  26.692  1.00  0.00     0.014 C 
HETATM    2  C2  UNL     1      12.227  10.280  25.899  1.00  0.00    -0.089 C 
HETATM    3  C3  UNL     1      13.313  10.462  24.967  1.00  0.00     0.294 C 
ENDROOT
BRANCH   3   4
HETATM    4  O1  UNL     1      14.583  10.295  25.615  1.00  0.00    -0.267 OA
BRANCH   4   5
HETATM    5  N1  UNL     1      15.739  10.704  25.027  1.00  0.00    -0.247 N 
HETATM    6  C4  UNL     1      16.740   9.961  24.801  1.00  0.00     0.145 C 
ATOM      7  H1  UNL     1      15.805  11.682  24.748  1.00  0.00     0.196 HD
BRANCH   6   8
HETATM    8  O2  UNL     1      16.540   8.647  25.222  1.00  0.00    -0.348 OA
ATOM      9  H2  UNL     1      16.213   8.086  24.529  1.00  0.00     0.219 HD
ENDBRANCH   6   8
BRANCH   6  10
HETATM   10  C5  UNL     1      18.020  10.241  24.193  1.00  0.00     0.107 C 
HETATM   11  C6  UNL     1      18.782  11.110  25.142  1.00  0.00    -0.050 C 
HETATM   12  C7  UNL     1      18.522  11.769  26.260  1.00  0.00    -0.014 C 
HETATM   13  C10 UNL     1      20.216  11.305  24.803  1.00  0.00     0.065 C 
HETATM   14  C8  UNL     1      19.734  12.476  26.747  1.00  0.00     0.107 C 
HETATM   15  C9  UNL     1      20.479  12.610  25.455  1.00  0.00     0.147 C 
HETATM   16  O3  UNL     1      21.096  13.592  25.152  1.00  0.00    -0.296 OA
HETATM   17  C11 UNL     1      20.940  10.287  25.719  1.00  0.00     0.033 C 
HETATM   18  C12 UNL     1      20.577  11.161  23.389  1.00  0.00    -0.055 C 
HETATM   19  C13 UNL     1      21.513  12.262  22.866  1.00  0.00     0.039 C 
HETATM   20  C24 UNL     1      19.521  10.827  22.408  1.00  0.00    -0.037 C 
HETATM   21  C14 UNL     1      22.117  11.641  21.591  1.00  0.00     0.044 C 
HETATM   22  C15 UNL     1      21.001  11.779  20.567  1.00  0.00     0.080 C 
HETATM   23  C16 UNL     1      21.526  11.218  19.264  1.00  0.00     0.048 C 
HETATM   24  C17 UNL     1      19.701  11.275  21.010  1.00  0.00     0.095 C 
HETATM   25 CL1  UNL     1      18.536  12.572  20.511  1.00  0.00    -0.111 Cl
HETATM   26  C18 UNL     1      19.163  10.115  20.147  1.00  0.00     0.015 C 
HETATM   27  C19 UNL     1      19.861   8.817  20.425  1.00  0.00     0.012 C 
HETATM   28  C20 UNL     1      17.713  10.071  20.477  1.00  0.00     0.039 C 
HETATM   29  C21 UNL     1      17.228  10.294  21.823  1.00  0.00     0.132 C 
HETATM   30  C22 UNL     1      18.056  10.986  22.873  1.00  0.00     0.022 C 
HETATM   31  C23 UNL     1      17.638  12.382  23.143  1.00  0.00     0.024 C 
BRANCH  22  32
HETATM   32  O4  UNL     1      21.025  13.186  20.331  1.00  0.00    -0.388 OA
ATOM     33  H4  UNL     1      20.782  13.217  19.413  1.00  0.00     0.210 HD
ENDBRANCH  22  32
BRANCH  29  34
HETATM   34  O5  UNL     1      16.053  11.084  21.673  1.00  0.00    -0.394 OA
ATOM     35  H5  UNL     1      15.459  10.555  21.155  1.00  0.00     0.210 HD
ENDBRANCH  29  34
ENDBRANCH   6  10
ENDBRANCH   4   5
ENDBRANCH   3   4
TORSDOF 6
ENDMDL
