MODEL 1
REMARK VINA RESULT: -8.386659004      0.000      0.000
REMARK  6 active torsions:
REMARK  status: ('A' for Active; 'I' for Inactive)
REMARK    1  A    between atoms: C2_2  and  S1_3 
REMARK    2  A    between atoms: S1_3  and  N1_6 
REMARK    3  A    between atoms: N1_6  and  C3_8 
REMARK    4  A    between atoms: C7_13  and  O3_14 
REMARK       I    between atoms: N3_20  and  C11_21 
REMARK    5  A    between atoms: C11_21  and  O5_23 
REMARK    6  A    between atoms: O5_23  and  C12_24 
ROOT
HETATM    1  C3  UNL     1      20.361  10.447  21.120  1.00  0.00     0.038 C 
HETATM    2  C4  UNL     1      19.799   9.372  20.260  1.00  0.00     0.018 A 
HETATM    3  C5  UNL     1      20.027   8.175  19.700  1.00  0.00     0.107 A 
HETATM    4  N2  UNL     1      18.883   7.706  19.109  1.00  0.00    -0.341 N 
HETATM    5  C6  UNL     1      18.735   6.442  18.404  1.00  0.00     0.158 C 
HETATM    6  C7  UNL     1      17.881   8.573  19.258  1.00  0.00     0.153 A 
HETATM    7  C8  UNL     1      18.399   9.572  19.933  1.00  0.00     0.038 A 
HETATM    8  C9  UNL     1      17.939  10.802  20.530  1.00  0.00     0.001 C 
HETATM    9  C10 UNL     1      16.918  10.701  21.325  1.00  0.00     0.117 C 
HETATM   10 CL1  UNL     1      15.921   9.441  21.800  1.00  0.00    -0.064 Cl
HETATM   11  N3  UNL     1      17.238  11.785  22.318  1.00  0.00    -0.282 N 
HETATM   12  C11 UNL     1      16.226  12.511  22.894  1.00  0.00     0.368 C 
HETATM   13  O4  UNL     1      14.994  12.278  22.600  1.00  0.00    -0.238 OA
HETATM   14  C16 UNL     1      18.718  11.898  22.609  1.00  0.00     0.147 C 
HETATM   15  C17 UNL     1      19.655  11.682  21.478  1.00  0.00     0.064 C 
HETATM   16  C18 UNL     1      18.674  12.064  20.274  1.00  0.00     0.030 C 
HETATM   17  C19 UNL     1      19.411  12.112  19.003  1.00  0.00     0.016 C 
ENDROOT
BRANCH   1  18
HETATM   18  N1  UNL     1      21.096  10.004  22.236  1.00  0.00    -0.287 N 
ATOM     19  H1  UNL     1      20.577   9.470  22.932  1.00  0.00     0.178 HD
BRANCH  18  20
HETATM   20  S1  UNL     1      22.663  10.239  22.546  1.00  0.00     0.230 S 
HETATM   21  O1  UNL     1      23.144   9.882  23.949  1.00  0.00    -0.206 OA
HETATM   22  O2  UNL     1      22.950  11.724  22.461  1.00  0.00    -0.206 OA
BRANCH  20  23
HETATM   23  C2  UNL     1      23.870   9.506  21.467  1.00  0.00     0.159 C 
HETATM   24  C1  UNL     1      24.035  10.496  20.299  1.00  0.00     0.023 C 
ENDBRANCH  20  23
ENDBRANCH  18  20
ENDBRANCH   1  18
BRANCH   6  25
HETATM   25  O3  UNL     1      16.563   8.593  18.879  1.00  0.00    -0.345 OA
ATOM     26  H3  UNL     1      15.754   8.290  19.272  1.00  0.00     0.219 HD
ENDBRANCH   6  25
BRANCH  12  27
HETATM   27  O5  UNL     1      16.365  13.517  23.803  1.00  0.00    -0.294 OA
BRANCH  27  28
HETATM   28  C12 UNL     1      16.229  13.381  25.196  1.00  0.00     0.061 C 
HETATM   29  C13 UNL     1      14.935  12.715  25.601  1.00  0.00     0.046 C 
HETATM   30  C14 UNL     1      17.356  12.683  25.865  1.00  0.00     0.046 C 
HETATM   31  C15 UNL     1      16.175  14.802  25.741  1.00  0.00     0.046 C 
ENDBRANCH  27  28
ENDBRANCH  12  27
TORSDOF 6
ENDMDL
MODEL 2
REMARK VINA RESULT: -8.234832642      1.014      1.359
REMARK  6 active torsions:
REMARK  status: ('A' for Active; 'I' for Inactive)
REMARK    1  A    between atoms: C2_2  and  S1_3 
REMARK    2  A    between atoms: S1_3  and  N1_6 
REMARK    3  A    between atoms: N1_6  and  C3_8 
REMARK    4  A    between atoms: C7_13  and  O3_14 
REMARK       I    between atoms: N3_20  and  C11_21 
REMARK    5  A    between atoms: C11_21  and  O5_23 
REMARK    6  A    between atoms: O5_23  and  C12_24 
ROOT
HETATM    1  C3  UNL     1      20.379  10.350  21.031  1.00  0.00     0.038 C 
HETATM    2  C4  UNL     1      19.792   9.283  20.178  1.00  0.00     0.018 A 
HETATM    3  C5  UNL     1      20.000   8.084  19.613  1.00  0.00     0.107 A 
HETATM    4  N2  UNL     1      18.841   7.627  19.040  1.00  0.00    -0.341 N 
HETATM    5  C6  UNL     1      18.669   6.366  18.336  1.00  0.00     0.158 C 
HETATM    6  C7  UNL     1      17.851   8.504  19.207  1.00  0.00     0.153 A 
HETATM    7  C8  UNL     1      18.389   9.496  19.875  1.00  0.00     0.038 A 
HETATM    8  C9  UNL     1      17.950  10.730  20.481  1.00  0.00     0.001 C 
HETATM    9  C10 UNL     1      16.942  10.637  21.292  1.00  0.00     0.117 C 
HETATM   10 CL1  UNL     1      15.941   9.387  21.782  1.00  0.00    -0.064 Cl
HETATM   11  N3  UNL     1      17.289  11.717  22.282  1.00  0.00    -0.282 N 
HETATM   12  C11 UNL     1      16.293  12.451  22.876  1.00  0.00     0.368 C 
HETATM   13  O4  UNL     1      15.055  12.231  22.602  1.00  0.00    -0.238 OA
HETATM   14  C16 UNL     1      18.775  11.816  22.549  1.00  0.00     0.147 C 
HETATM   15  C17 UNL     1      19.691  11.592  21.401  1.00  0.00     0.064 C 
HETATM   16  C18 UNL     1      18.693  11.985  20.214  1.00  0.00     0.030 C 
HETATM   17  C19 UNL     1      19.410  12.028  18.931  1.00  0.00     0.016 C 
ENDROOT
BRANCH   1  18
HETATM   18  N1  UNL     1      21.128   9.899  22.133  1.00  0.00    -0.287 N 
ATOM     19  H1  UNL     1      20.734   9.114  22.652  1.00  0.00     0.178 HD
BRANCH  18  20
HETATM   20  S1  UNL     1      22.535  10.474  22.676  1.00  0.00     0.230 S 
HETATM   21  O1  UNL     1      22.979  11.827  22.129  1.00  0.00    -0.206 OA
HETATM   22  O2  UNL     1      23.641   9.547  22.214  1.00  0.00    -0.206 OA
BRANCH  20  23
HETATM   23  C2  UNL     1      22.789  10.604  24.430  1.00  0.00     0.159 C 
HETATM   24  C1  UNL     1      21.381  10.585  25.053  1.00  0.00     0.023 C 
ENDBRANCH  20  23
ENDBRANCH  18  20
ENDBRANCH   1  18
BRANCH   6  25
HETATM   25  O3  UNL     1      16.527   8.537  18.850  1.00  0.00    -0.345 OA
ATOM     26  H3  UNL     1      15.851   9.204  18.862  1.00  0.00     0.219 HD
ENDBRANCH   6  25
BRANCH  12  27
HETATM   27  O5  UNL     1      16.457  13.455  23.783  1.00  0.00    -0.294 OA
BRANCH  27  28
HETATM   28  C12 UNL     1      16.298  13.329  25.175  1.00  0.00     0.061 C 
HETATM   29  C13 UNL     1      15.024  12.613  25.561  1.00  0.00     0.046 C 
HETATM   30  C14 UNL     1      17.439  12.686  25.875  1.00  0.00     0.046 C 
HETATM   31  C15 UNL     1      16.173  14.752  25.702  1.00  0.00     0.046 C 
ENDBRANCH  27  28
ENDBRANCH  12  27
TORSDOF 6
ENDMDL
MODEL 3
REMARK VINA RESULT: -8.224087149      1.087      1.332
REMARK  6 active torsions:
REMARK  status: ('A' for Active; 'I' for Inactive)
REMARK    1  A    between atoms: C2_2  and  S1_3 
REMARK    2  A    between atoms: S1_3  and  N1_6 
REMARK    3  A    between atoms: N1_6  and  C3_8 
REMARK    4  A    between atoms: C7_13  and  O3_14 
REMARK       I    between atoms: N3_20  and  C11_21 
REMARK    5  A    between atoms: C11_21  and  O5_23 
REMARK    6  A    between atoms: O5_23  and  C12_24 
ROOT
HETATM    1  C3  UNL     1      19.880  10.309  21.719  1.00  0.00     0.038 C 
HETATM    2  C4  UNL     1      19.440   9.448  20.590  1.00  0.00     0.018 A 
HETATM    3  C5  UNL     1      19.820   8.526  19.693  1.00  0.00     0.107 A 
HETATM    4  N2  UNL     1      18.728   8.051  19.015  1.00  0.00    -0.341 N 
HETATM    5  C6  UNL     1      18.738   7.041  17.968  1.00  0.00     0.158 C 
HETATM    6  C7  UNL     1      17.611   8.643  19.438  1.00  0.00     0.153 A 
HETATM    7  C8  UNL     1      18.005   9.478  20.369  1.00  0.00     0.038 A 
HETATM    8  C9  UNL     1      17.395  10.379  21.316  1.00  0.00     0.001 C 
HETATM    9  C10 UNL     1      16.467   9.870  22.067  1.00  0.00     0.117 C 
HETATM   10 CL1  UNL     1      15.729   8.369  22.167  1.00  0.00    -0.064 Cl
HETATM   11  N3  UNL     1      16.677  10.658  23.332  1.00  0.00    -0.282 N 
HETATM   12  C11 UNL     1      15.605  10.992  24.121  1.00  0.00     0.368 C 
HETATM   13  O4  UNL     1      14.410  10.637  23.798  1.00  0.00    -0.238 OA
HETATM   14  C16 UNL     1      18.136  10.947  23.610  1.00  0.00     0.147 C 
HETATM   15  C17 UNL     1      19.009  11.239  22.445  1.00  0.00     0.064 C 
HETATM   16  C18 UNL     1      17.890  11.772  21.432  1.00  0.00     0.030 C 
HETATM   17  C19 UNL     1      18.513  12.318  20.217  1.00  0.00     0.016 C 
ENDROOT
BRANCH   1  18
HETATM   18  N1  UNL     1      20.759   9.701  22.635  1.00  0.00    -0.287 N 
ATOM     19  H1  UNL     1      20.393   8.895  23.140  1.00  0.00     0.178 HD
BRANCH  18  20
HETATM   20  S1  UNL     1      22.277  10.127  22.981  1.00  0.00     0.230 S 
HETATM   21  O1  UNL     1      22.815   9.695  24.342  1.00  0.00    -0.206 OA
HETATM   22  O2  UNL     1      22.345  11.638  23.058  1.00  0.00    -0.206 OA
BRANCH  20  23
HETATM   23  C2  UNL     1      23.570   9.695  21.841  1.00  0.00     0.159 C 
HETATM   24  C1  UNL     1      23.351  10.593  20.609  1.00  0.00     0.023 C 
ENDBRANCH  20  23
ENDBRANCH  18  20
ENDBRANCH   1  18
BRANCH   6  25
HETATM   25  O3  UNL     1      16.283   8.535  19.112  1.00  0.00    -0.345 OA
ATOM     26  H3  UNL     1      15.617   7.871  19.247  1.00  0.00     0.219 HD
ENDBRANCH   6  25
BRANCH  12  27
HETATM   27  O5  UNL     1      15.643  11.699  25.285  1.00  0.00    -0.294 OA
BRANCH  27  28
HETATM   28  C12 UNL     1      15.730  13.099  25.385  1.00  0.00     0.061 C 
HETATM   29  C13 UNL     1      16.938  13.562  26.165  1.00  0.00     0.046 C 
HETATM   30  C14 UNL     1      15.695  13.818  24.085  1.00  0.00     0.046 C 
HETATM   31  C15 UNL     1      14.507  13.528  26.184  1.00  0.00     0.046 C 
ENDBRANCH  27  28
ENDBRANCH  12  27
TORSDOF 6
ENDMDL
MODEL 4
REMARK VINA RESULT: -8.212895950      1.497      1.810
REMARK  6 active torsions:
REMARK  status: ('A' for Active; 'I' for Inactive)
REMARK    1  A    between atoms: C2_2  and  S1_3 
REMARK    2  A    between atoms: S1_3  and  N1_6 
REMARK    3  A    between atoms: N1_6  and  C3_8 
REMARK    4  A    between atoms: C7_13  and  O3_14 
REMARK       I    between atoms: N3_20  and  C11_21 
REMARK    5  A    between atoms: C11_21  and  O5_23 
REMARK    6  A    between atoms: O5_23  and  C12_24 
ROOT
HETATM    1  C3  UNL     1      19.862  10.306  21.751  1.00  0.00     0.038 C 
HETATM    2  C4  UNL     1      19.434   9.446  20.616  1.00  0.00     0.018 A 
HETATM    3  C5  UNL     1      19.823   8.521  19.726  1.00  0.00     0.107 A 
HETATM    4  N2  UNL     1      18.738   8.051  19.032  1.00  0.00    -0.341 N 
HETATM    5  C6  UNL     1      18.758   7.039  17.987  1.00  0.00     0.158 C 
HETATM    6  C7  UNL     1      17.618   8.650  19.438  1.00  0.00     0.153 A 
HETATM    7  C8  UNL     1      18.003   9.484  20.374  1.00  0.00     0.038 A 
HETATM    8  C9  UNL     1      17.383  10.389  21.310  1.00  0.00     0.001 C 
HETATM    9  C10 UNL     1      16.442   9.886  22.048  1.00  0.00     0.117 C 
HETATM   10 CL1  UNL     1      15.694   8.390  22.138  1.00  0.00    -0.064 Cl
HETATM   11  N3  UNL     1      16.637  10.676  23.314  1.00  0.00    -0.282 N 
HETATM   12  C11 UNL     1      15.555  11.016  24.087  1.00  0.00     0.368 C 
HETATM   13  O4  UNL     1      14.363  10.667  23.747  1.00  0.00    -0.238 OA
HETATM   14  C16 UNL     1      18.093  10.956  23.615  1.00  0.00     0.147 C 
HETATM   15  C17 UNL     1      18.985  11.242  22.462  1.00  0.00     0.064 C 
HETATM   16  C18 UNL     1      17.885  11.779  21.432  1.00  0.00     0.030 C 
HETATM   17  C19 UNL     1      18.529  12.320  20.226  1.00  0.00     0.016 C 
ENDROOT
BRANCH   1  18
HETATM   18  N1  UNL     1      20.724   9.695  22.680  1.00  0.00    -0.287 N 
ATOM     19  H1  UNL     1      20.398   8.816  23.084  1.00  0.00     0.178 HD
BRANCH  18  20
HETATM   20  S1  UNL     1      22.165  10.216  23.185  1.00  0.00     0.230 S 
HETATM   21  O1  UNL     1      23.384   9.697  22.429  1.00  0.00    -0.206 OA
HETATM   22  O2  UNL     1      22.397   9.698  24.590  1.00  0.00    -0.206 OA
BRANCH  20  23
HETATM   23  C2  UNL     1      22.445  11.966  23.321  1.00  0.00     0.159 C 
HETATM   24  C1  UNL     1      23.193  12.163  24.652  1.00  0.00     0.023 C 
ENDBRANCH  20  23
ENDBRANCH  18  20
ENDBRANCH   1  18
BRANCH   6  25
HETATM   25  O3  UNL     1      16.295   8.548  19.092  1.00  0.00    -0.345 OA
ATOM     26  H3  UNL     1      15.599   9.175  18.931  1.00  0.00     0.219 HD
ENDBRANCH   6  25
BRANCH  12  27
HETATM   27  O5  UNL     1      15.580  11.725  25.251  1.00  0.00    -0.294 OA
BRANCH  27  28
HETATM   28  C12 UNL     1      15.665  13.125  25.350  1.00  0.00     0.061 C 
HETATM   29  C13 UNL     1      16.836  13.588  26.186  1.00  0.00     0.046 C 
HETATM   30  C14 UNL     1      15.695  13.839  24.048  1.00  0.00     0.046 C 
HETATM   31  C15 UNL     1      14.406  13.559  26.087  1.00  0.00     0.046 C 
ENDBRANCH  27  28
ENDBRANCH  12  27
TORSDOF 6
ENDMDL
MODEL 5
REMARK VINA RESULT: -7.847294818      1.281      1.490
REMARK  6 active torsions:
REMARK  status: ('A' for Active; 'I' for Inactive)
REMARK    1  A    between atoms: C2_2  and  S1_3 
REMARK    2  A    between atoms: S1_3  and  N1_6 
REMARK    3  A    between atoms: N1_6  and  C3_8 
REMARK    4  A    between atoms: C7_13  and  O3_14 
REMARK       I    between atoms: N3_20  and  C11_21 
REMARK    5  A    between atoms: C11_21  and  O5_23 
REMARK    6  A    between atoms: O5_23  and  C12_24 
ROOT
HETATM    1  C3  UNL     1      20.632  10.381  20.605  1.00  0.00     0.038 C 
HETATM    2  C4  UNL     1      19.794   9.425  19.834  1.00  0.00     0.018 A 
HETATM    3  C5  UNL     1      19.797   8.315  19.080  1.00  0.00     0.107 A 
HETATM    4  N2  UNL     1      18.511   7.918  18.823  1.00  0.00    -0.341 N 
HETATM    5  C6  UNL     1      18.109   6.757  18.043  1.00  0.00     0.158 C 
HETATM    6  C7  UNL     1      17.635   8.747  19.390  1.00  0.00     0.153 A 
HETATM    7  C8  UNL     1      18.369   9.652  19.992  1.00  0.00     0.038 A 
HETATM    8  C9  UNL     1      18.159  10.787  20.857  1.00  0.00     0.001 C 
HETATM    9  C10 UNL     1      17.435  10.571  21.912  1.00  0.00     0.117 C 
HETATM   10 CL1  UNL     1      16.596   9.249  22.509  1.00  0.00    -0.064 Cl
HETATM   11  N3  UNL     1      18.085  11.516  22.886  1.00  0.00    -0.282 N 
HETATM   12  C11 UNL     1      17.327  12.149  23.840  1.00  0.00     0.368 C 
HETATM   13  O4  UNL     1      16.058  11.944  23.920  1.00  0.00    -0.238 OA
HETATM   14  C16 UNL     1      19.584  11.605  22.710  1.00  0.00     0.147 C 
HETATM   15  C17 UNL     1      20.113  11.550  21.323  1.00  0.00     0.064 C 
HETATM   16  C18 UNL     1      18.817  12.079  20.549  1.00  0.00     0.030 C 
HETATM   17  C19 UNL     1      19.121  12.303  19.128  1.00  0.00     0.016 C 
ENDROOT
BRANCH   1  18
HETATM   18  N1  UNL     1      21.664   9.801  21.366  1.00  0.00    -0.287 N 
ATOM     19  H1  UNL     1      21.386   9.054  22.002  1.00  0.00     0.178 HD
BRANCH  18  20
HETATM   20  S1  UNL     1      23.233  10.177  21.354  1.00  0.00     0.230 S 
HETATM   21  O1  UNL     1      24.207   9.062  21.725  1.00  0.00    -0.206 OA
HETATM   22  O2  UNL     1      23.486  11.213  22.430  1.00  0.00    -0.206 OA
BRANCH  20  23
HETATM   23  C2  UNL     1      23.930  10.900  19.888  1.00  0.00     0.159 C 
HETATM   24  C1  UNL     1      25.425  10.534  19.917  1.00  0.00     0.023 C 
ENDBRANCH  20  23
ENDBRANCH  18  20
ENDBRANCH   1  18
BRANCH   6  25
HETATM   25  O3  UNL     1      16.265   8.804  19.451  1.00  0.00    -0.345 OA
ATOM     26  H3  UNL     1      15.604   9.358  19.054  1.00  0.00     0.219 HD
ENDBRANCH   6  25
BRANCH  12  27
HETATM   27  O5  UNL     1      17.775  13.027  24.782  1.00  0.00    -0.294 OA
BRANCH  27  28
HETATM   28  C12 UNL     1      18.406  12.675  25.988  1.00  0.00     0.061 C 
HETATM   29  C13 UNL     1      18.362  11.191  26.266  1.00  0.00     0.046 C 
HETATM   30  C14 UNL     1      19.809  13.145  26.116  1.00  0.00     0.046 C 
HETATM   31  C15 UNL     1      17.590  13.347  27.085  1.00  0.00     0.046 C 
ENDBRANCH  27  28
ENDBRANCH  12  27
TORSDOF 6
ENDMDL
