MODEL 1
REMARK VINA RESULT: -5.478313164      0.000      0.000
REMARK  6 active torsions:
REMARK  status: ('A' for Active; 'I' for Inactive)
REMARK    1  A    between atoms: N1_2  and  C3_4 
REMARK    2  A    between atoms: C10_12  and  C11_13 
REMARK    3  A    between atoms: C11_13  and  O2_14 
REMARK    4  A    between atoms: O2_14  and  C12_15 
REMARK    5  A    between atoms: C12_15  and  C13_17 
REMARK    6  A    between atoms: C14_19  and  O4_20 
ROOT
HETATM    1  C3  UNL     1      32.455  16.653  22.038  1.00  0.00     0.257 C 
HETATM    2  C4  UNL     1      32.738  17.058  23.442  1.00  0.00     0.115 C 
HETATM    3  C5  UNL     1      32.234  16.143  24.527  1.00  0.00     0.030 C 
HETATM    4  C6  UNL     1      30.789  16.207  24.833  1.00  0.00     0.042 C 
HETATM    5  C7  UNL     1      29.786  15.522  24.036  1.00  0.00     0.085 A 
HETATM    6  C8  UNL     1      28.912  14.623  24.993  1.00  0.00     0.049 C 
HETATM    7  O1  UNL     1      28.789  16.573  23.575  1.00  0.00    -0.369 OA
HETATM    8  C9  UNL     1      29.316  15.630  22.776  1.00  0.00     0.171 A 
HETATM    9  C10 UNL     1      30.094  15.854  21.501  1.00  0.00     0.055 C 
HETATM   10  C14 UNL     1      29.061  15.993  20.343  1.00  0.00     0.071 C 
HETATM   11  C15 UNL     1      29.462  15.635  18.986  1.00  0.00     0.040 C 
HETATM   12  C16 UNL     1      29.949  16.798  18.100  1.00  0.00     0.012 C 
HETATM   13  C17 UNL     1      30.258  17.861  19.197  1.00  0.00    -0.043 C 
HETATM   14  C18 UNL     1      30.788  19.041  18.348  1.00  0.00     0.015 C 
HETATM   15  C19 UNL     1      28.925  18.258  19.643  1.00  0.00     0.012 C 
HETATM   16  C20 UNL     1      28.181  17.176  20.371  1.00  0.00     0.040 C 
HETATM   17  C21 UNL     1      31.296  17.212  19.977  1.00  0.00     0.026 C 
HETATM   18  C22 UNL     1      31.090  16.972  21.491  1.00  0.00     0.027 C 
HETATM   19  C23 UNL     1      30.644  18.299  21.997  1.00  0.00     0.003 C 
HETATM   20  C24 UNL     1      31.303  18.977  23.151  1.00  0.00     0.080 C 
HETATM   21  N2  UNL     1      32.372  18.366  23.799  1.00  0.00    -0.392 N 
ATOM     22  H2  UNL     1      32.885  18.863  24.526  1.00  0.00     0.159 HD
ENDROOT
BRANCH   9  23
HETATM   23  C11 UNL     1      30.559  14.468  21.151  1.00  0.00     0.195 C 
BRANCH  23  24
HETATM   24  O2  UNL     1      29.984  13.382  21.846  1.00  0.00    -0.320 OA
BRANCH  24  25
HETATM   25  C12 UNL     1      30.013  12.145  21.278  1.00  0.00     0.272 C 
HETATM   26  O3  UNL     1      30.667  11.207  21.811  1.00  0.00    -0.264 OA
BRANCH  25  27
HETATM   27  C13 UNL     1      29.275  11.850  20.004  1.00  0.00     0.225 C 
HETATM   28 CL1  UNL     1      30.281  12.059  18.578  1.00  0.00    -0.120 Cl
ENDBRANCH  25  27
ENDBRANCH  24  25
ENDBRANCH  23  24
ENDBRANCH   9  23
BRANCH  10  29
HETATM   29  O4  UNL     1      28.153  14.917  20.647  1.00  0.00    -0.389 OA
ATOM     30  H4  UNL     1      27.321  15.374  20.655  1.00  0.00     0.210 HD
ENDBRANCH  10  29
BRANCH   1  31
HETATM   31  N1  UNL     1      33.591  16.933  21.190  1.00  0.00     0.087 N 
HETATM   32  C1  UNL     1      34.527  15.765  21.231  1.00  0.00     0.310 C 
HETATM   33  C2  UNL     1      34.485  17.983  21.647  1.00  0.00     0.310 C 
ENDBRANCH   1  31
TORSDOF 6
ENDMDL
MODEL 2
REMARK VINA RESULT: -5.440826656      2.364      4.850
REMARK  6 active torsions:
REMARK  status: ('A' for Active; 'I' for Inactive)
REMARK    1  A    between atoms: N1_2  and  C3_4 
REMARK    2  A    between atoms: C10_12  and  C11_13 
REMARK    3  A    between atoms: C11_13  and  O2_14 
REMARK    4  A    between atoms: O2_14  and  C12_15 
REMARK    5  A    between atoms: C12_15  and  C13_17 
REMARK    6  A    between atoms: C14_19  and  O4_20 
ROOT
HETATM    1  C3  UNL     1      28.008  17.389  20.776  1.00  0.00     0.257 C 
HETATM    2  C4  UNL     1      27.208  17.384  19.521  1.00  0.00     0.115 C 
HETATM    3  C5  UNL     1      26.702  16.049  19.045  1.00  0.00     0.030 C 
HETATM    4  C6  UNL     1      27.683  15.161  18.385  1.00  0.00     0.042 C 
HETATM    5  C7  UNL     1      28.623  14.340  19.128  1.00  0.00     0.085 A 
HETATM    6  C8  UNL     1      28.474  12.845  18.645  1.00  0.00     0.049 C 
HETATM    7  O1  UNL     1      30.016  14.704  18.639  1.00  0.00    -0.369 OA
HETATM    8  C9  UNL     1      29.680  14.571  19.934  1.00  0.00     0.171 A 
HETATM    9  C10 UNL     1      29.821  15.613  21.017  1.00  0.00     0.055 C 
HETATM   10  C14 UNL     1      31.272  15.509  21.578  1.00  0.00     0.071 C 
HETATM   11  C15 UNL     1      31.536  15.928  22.951  1.00  0.00     0.040 C 
HETATM   12  C16 UNL     1      32.043  17.371  23.128  1.00  0.00     0.012 C 
HETATM   13  C17 UNL     1      31.622  17.976  21.754  1.00  0.00    -0.043 C 
HETATM   14  C18 UNL     1      32.082  19.445  21.904  1.00  0.00     0.015 C 
HETATM   15  C19 UNL     1      32.565  17.355  20.828  1.00  0.00     0.012 C 
HETATM   16  C20 UNL     1      32.369  15.875  20.662  1.00  0.00     0.040 C 
HETATM   17  C21 UNL     1      30.177  17.828  21.778  1.00  0.00     0.026 C 
HETATM   18  C22 UNL     1      29.464  17.024  20.667  1.00  0.00     0.027 C 
HETATM   19  C23 UNL     1      30.029  17.588  19.410  1.00  0.00     0.003 C 
HETATM   20  C24 UNL     1      29.168  18.086  18.299  1.00  0.00     0.080 C 
HETATM   21  N2  UNL     1      27.783  18.029  18.414  1.00  0.00    -0.392 N 
ATOM     22  H2  UNL     1      27.189  18.452  17.701  1.00  0.00     0.159 HD
ENDROOT
BRANCH   9  23
HETATM   23  C11 UNL     1      29.139  14.964  22.189  1.00  0.00     0.195 C 
BRANCH  23  24
HETATM   24  O2  UNL     1      28.436  13.760  21.962  1.00  0.00    -0.320 OA
BRANCH  24  25
HETATM   25  C12 UNL     1      28.755  12.662  22.700  1.00  0.00     0.272 C 
HETATM   26  O3  UNL     1      28.740  12.706  23.961  1.00  0.00    -0.264 OA
BRANCH  25  27
HETATM   27  C13 UNL     1      29.134  11.363  22.050  1.00  0.00     0.225 C 
HETATM   28 CL1  UNL     1      29.631  10.144  23.216  1.00  0.00    -0.120 Cl
ENDBRANCH  25  27
ENDBRANCH  24  25
ENDBRANCH  23  24
ENDBRANCH   9  23
BRANCH  10  29
HETATM   29  O4  UNL     1      31.424  14.082  21.697  1.00  0.00    -0.389 OA
ATOM     30  H4  UNL     1      31.563  13.989  22.632  1.00  0.00     0.210 HD
ENDBRANCH  10  29
BRANCH   1  31
HETATM   31  N1  UNL     1      27.672  18.536  21.588  1.00  0.00     0.087 N 
HETATM   32  C1  UNL     1      26.944  18.069  22.811  1.00  0.00     0.310 C 
HETATM   33  C2  UNL     1      26.675  19.438  21.038  1.00  0.00     0.310 C 
ENDBRANCH   1  31
TORSDOF 6
ENDMDL
MODEL 3
REMARK VINA RESULT: -5.355533924      2.249      4.855
REMARK  6 active torsions:
REMARK  status: ('A' for Active; 'I' for Inactive)
REMARK    1  A    between atoms: N1_2  and  C3_4 
REMARK    2  A    between atoms: C10_12  and  C11_13 
REMARK    3  A    between atoms: C11_13  and  O2_14 
REMARK    4  A    between atoms: O2_14  and  C12_15 
REMARK    5  A    between atoms: C12_15  and  C13_17 
REMARK    6  A    between atoms: C14_19  and  O4_20 
ROOT
HETATM    1  C3  UNL     1      28.959  17.486  19.711  1.00  0.00     0.257 C 
HETATM    2  C4  UNL     1      29.544  18.173  18.526  1.00  0.00     0.115 C 
HETATM    3  C5  UNL     1      30.097  17.294  17.437  1.00  0.00     0.030 C 
HETATM    4  C6  UNL     1      31.415  16.673  17.687  1.00  0.00     0.042 C 
HETATM    5  C7  UNL     1      31.578  15.474  18.492  1.00  0.00     0.085 A 
HETATM    6  C8  UNL     1      32.373  14.406  17.645  1.00  0.00     0.049 C 
HETATM    7  O1  UNL     1      32.564  15.812  19.599  1.00  0.00    -0.369 OA
HETATM    8  C9  UNL     1      31.407  15.153  19.791  1.00  0.00     0.171 A 
HETATM    9  C10 UNL     1      30.281  15.551  20.714  1.00  0.00     0.055 C 
HETATM   10  C14 UNL     1      30.618  14.990  22.129  1.00  0.00     0.071 C 
HETATM   11  C15 UNL     1      29.529  14.691  23.053  1.00  0.00     0.040 C 
HETATM   12  C16 UNL     1      29.178  15.802  24.061  1.00  0.00     0.012 C 
HETATM   13  C17 UNL     1      29.852  17.022  23.364  1.00  0.00    -0.043 C 
HETATM   14  C18 UNL     1      29.490  18.175  24.330  1.00  0.00     0.015 C 
HETATM   15  C19 UNL     1      31.275  16.761  23.569  1.00  0.00     0.012 C 
HETATM   16  C20 UNL     1      31.789  15.569  22.815  1.00  0.00     0.040 C 
HETATM   17  C21 UNL     1      29.138  17.094  22.101  1.00  0.00     0.026 C 
HETATM   18  C22 UNL     1      29.914  17.001  20.767  1.00  0.00     0.027 C 
HETATM   19  C23 UNL     1      31.017  17.987  20.936  1.00  0.00     0.003 C 
HETATM   20  C24 UNL     1      31.292  19.059  19.936  1.00  0.00     0.080 C 
HETATM   21  N2  UNL     1      30.506  19.160  18.792  1.00  0.00    -0.392 N 
ATOM     22  H2  UNL     1      30.628  19.945  18.152  1.00  0.00     0.159 HD
ENDROOT
BRANCH   9  23
HETATM   23  C11 UNL     1      29.214  14.547  20.382  1.00  0.00     0.195 C 
BRANCH  23  24
HETATM   24  O2  UNL     1      29.568  13.447  19.570  1.00  0.00    -0.320 OA
BRANCH  24  25
HETATM   25  C12 UNL     1      28.704  12.401  19.462  1.00  0.00     0.272 C 
HETATM   26  O3  UNL     1      27.726  12.289  20.251  1.00  0.00    -0.264 OA
BRANCH  25  27
HETATM   27  C13 UNL     1      28.877  11.346  18.408  1.00  0.00     0.225 C 
HETATM   28 CL1  UNL     1      28.131   9.818  18.854  1.00  0.00    -0.120 Cl
ENDBRANCH  25  27
ENDBRANCH  24  25
ENDBRANCH  23  24
ENDBRANCH   9  23
BRANCH  10  29
HETATM   29  O4  UNL     1      31.068  13.661  21.804  1.00  0.00    -0.389 OA
ATOM     30  H4  UNL     1      30.524  13.462  21.050  1.00  0.00     0.210 HD
ENDBRANCH  10  29
BRANCH   1  31
HETATM   31  N1  UNL     1      27.767  18.170  20.158  1.00  0.00     0.087 N 
HETATM   32  C1  UNL     1      26.566  17.394  19.714  1.00  0.00     0.310 C 
HETATM   33  C2  UNL     1      27.486  19.445  19.521  1.00  0.00     0.310 C 
ENDBRANCH   1  31
TORSDOF 6
ENDMDL
MODEL 4
REMARK VINA RESULT: -5.210468934     15.233     17.503
REMARK  6 active torsions:
REMARK  status: ('A' for Active; 'I' for Inactive)
REMARK    1  A    between atoms: N1_2  and  C3_4 
REMARK    2  A    between atoms: C10_12  and  C11_13 
REMARK    3  A    between atoms: C11_13  and  O2_14 
REMARK    4  A    between atoms: O2_14  and  C12_15 
REMARK    5  A    between atoms: C12_15  and  C13_17 
REMARK    6  A    between atoms: C14_19  and  O4_20 
ROOT
HETATM    1  C3  UNL     1      13.190  13.102  27.279  1.00  0.00     0.257 C 
HETATM    2  C4  UNL     1      12.319  11.901  27.408  1.00  0.00     0.115 C 
HETATM    3  C5  UNL     1      12.975  10.562  27.208  1.00  0.00     0.030 C 
HETATM    4  C6  UNL     1      13.262  10.163  25.814  1.00  0.00     0.042 C 
HETATM    5  C7  UNL     1      14.424  10.641  25.084  1.00  0.00     0.085 A 
HETATM    6  C8  UNL     1      15.216   9.395  24.529  1.00  0.00     0.049 C 
HETATM    7  O1  UNL     1      13.911  11.295  23.810  1.00  0.00    -0.369 OA
HETATM    8  C9  UNL     1      14.845  11.834  24.614  1.00  0.00     0.171 A 
HETATM    9  C10 UNL     1      14.787  13.181  25.293  1.00  0.00     0.055 C 
HETATM   10  C14 UNL     1      15.321  14.237  24.278  1.00  0.00     0.071 C 
HETATM   11  C15 UNL     1      15.929  15.464  24.783  1.00  0.00     0.040 C 
HETATM   12  C16 UNL     1      14.993  16.684  24.887  1.00  0.00     0.012 C 
HETATM   13  C17 UNL     1      13.610  15.969  24.837  1.00  0.00    -0.043 C 
HETATM   14  C18 UNL     1      12.635  17.162  24.977  1.00  0.00     0.015 C 
HETATM   15  C19 UNL     1      13.520  15.541  23.443  1.00  0.00     0.012 C 
HETATM   16  C20 UNL     1      14.507  14.473  23.071  1.00  0.00     0.040 C 
HETATM   17  C21 UNL     1      13.651  15.128  26.020  1.00  0.00     0.026 C 
HETATM   18  C22 UNL     1      13.478  13.597  25.887  1.00  0.00     0.027 C 
HETATM   19  C23 UNL     1      12.260  13.455  25.043  1.00  0.00     0.003 C 
HETATM   20  C24 UNL     1      11.102  12.605  25.445  1.00  0.00     0.080 C 
HETATM   21  N2  UNL     1      11.139  11.904  26.646  1.00  0.00    -0.392 N 
ATOM     22  H2  UNL     1      10.316  11.397  26.971  1.00  0.00     0.159 HD
ENDROOT
BRANCH   9  23
HETATM   23  C11 UNL     1      16.006  13.158  26.172  1.00  0.00     0.195 C 
BRANCH  23  24
HETATM   24  O2  UNL     1      16.936  12.112  25.989  1.00  0.00    -0.320 OA
BRANCH  24  25
HETATM   25  C12 UNL     1      18.175  12.225  26.542  1.00  0.00     0.272 C 
HETATM   26  O3  UNL     1      18.311  12.412  27.782  1.00  0.00    -0.264 OA
BRANCH  25  27
HETATM   27  C13 UNL     1      19.418  12.132  25.707  1.00  0.00     0.225 C 
HETATM   28 CL1  UNL     1      19.131  11.360  24.154  1.00  0.00    -0.120 Cl
ENDBRANCH  25  27
ENDBRANCH  24  25
ENDBRANCH  23  24
ENDBRANCH   9  23
BRANCH  10  29
HETATM   29  O4  UNL     1      16.478  13.560  23.752  1.00  0.00    -0.389 OA
ATOM     30  H4  UNL     1      17.081  14.285  23.640  1.00  0.00     0.210 HD
ENDBRANCH  10  29
BRANCH   1  31
HETATM   31  N1  UNL     1      12.847  14.089  28.276  1.00  0.00     0.087 N 
HETATM   32  C1  UNL     1      13.803  13.974  29.423  1.00  0.00     0.310 C 
HETATM   33  C2  UNL     1      11.593  13.878  28.978  1.00  0.00     0.310 C 
ENDBRANCH   1  31
TORSDOF 6
ENDMDL
MODEL 5
REMARK VINA RESULT: -5.122078155     11.247     13.567
REMARK  6 active torsions:
REMARK  status: ('A' for Active; 'I' for Inactive)
REMARK    1  A    between atoms: N1_2  and  C3_4 
REMARK    2  A    between atoms: C10_12  and  C11_13 
REMARK    3  A    between atoms: C11_13  and  O2_14 
REMARK    4  A    between atoms: O2_14  and  C12_15 
REMARK    5  A    between atoms: C12_15  and  C13_17 
REMARK    6  A    between atoms: C14_19  and  O4_20 
ROOT
HETATM    1  C3  UNL     1      19.238   9.525  20.485  1.00  0.00     0.257 C 
HETATM    2  C4  UNL     1      20.191  10.105  19.500  1.00  0.00     0.115 C 
HETATM    3  C5  UNL     1      21.499  10.618  20.041  1.00  0.00     0.030 C 
HETATM    4  C6  UNL     1      21.467  11.926  20.730  1.00  0.00     0.042 C 
HETATM    5  C7  UNL     1      21.040  12.075  22.111  1.00  0.00     0.085 A 
HETATM    6  C8  UNL     1      22.174  12.830  22.908  1.00  0.00     0.049 C 
HETATM    7  O1  UNL     1      19.906  13.088  22.121  1.00  0.00    -0.369 OA
HETATM    8  C9  UNL     1      19.883  11.920  22.787  1.00  0.00     0.171 A 
HETATM    9  C10 UNL     1      18.858  10.820  22.649  1.00  0.00     0.055 C 
HETATM   10  C14 UNL     1      17.670  11.169  23.596  1.00  0.00     0.071 C 
HETATM   11  C15 UNL     1      16.844  10.089  24.127  1.00  0.00     0.040 C 
HETATM   12  C16 UNL     1      15.554   9.782  23.343  1.00  0.00     0.012 C 
HETATM   13  C17 UNL     1      15.890  10.472  21.987  1.00  0.00    -0.043 C 
HETATM   14  C18 UNL     1      14.628  10.154  21.152  1.00  0.00     0.015 C 
HETATM   15  C19 UNL     1      15.801  11.892  22.320  1.00  0.00     0.012 C 
HETATM   16  C20 UNL     1      16.876  12.364  23.257  1.00  0.00     0.040 C 
HETATM   17  C21 UNL     1      17.063   9.738  21.546  1.00  0.00     0.026 C 
HETATM   18  C22 UNL     1      18.386  10.488  21.268  1.00  0.00     0.027 C 
HETATM   19  C23 UNL     1      17.969  11.616  20.390  1.00  0.00     0.003 C 
HETATM   20  C24 UNL     1      18.629  11.898  19.082  1.00  0.00     0.080 C 
HETATM   21  N2  UNL     1      19.678  11.095  18.646  1.00  0.00    -0.392 N 
ATOM     22  H2  UNL     1      20.071  11.224  17.714  1.00  0.00     0.159 HD
ENDROOT
BRANCH   9  23
HETATM   23  C11 UNL     1      19.437   9.723  23.498  1.00  0.00     0.195 C 
BRANCH  23  24
HETATM   24  O2  UNL     1      20.820   9.463  23.390  1.00  0.00    -0.320 OA
BRANCH  24  25
HETATM   25  C12 UNL     1      21.631   9.756  24.444  1.00  0.00     0.272 C 
HETATM   26  O3  UNL     1      21.143  10.076  25.563  1.00  0.00    -0.264 OA
BRANCH  25  27
HETATM   27  C13 UNL     1      23.127   9.710  24.320  1.00  0.00     0.225 C 
HETATM   28 CL1  UNL     1      23.661   9.606  22.649  1.00  0.00    -0.120 Cl
ENDBRANCH  25  27
ENDBRANCH  24  25
ENDBRANCH  23  24
ENDBRANCH   9  23
BRANCH  10  29
HETATM   29  O4  UNL     1      18.370  11.581  24.784  1.00  0.00    -0.389 OA
ATOM     30  H4  UNL     1      17.837  12.314  25.068  1.00  0.00     0.210 HD
ENDBRANCH  10  29
BRANCH   1  31
HETATM   31  N1  UNL     1      18.586   8.358  19.937  1.00  0.00     0.087 N 
HETATM   32  C1  UNL     1      19.560   7.622  19.069  1.00  0.00     0.310 C 
HETATM   33  C2  UNL     1      17.534   8.611  18.967  1.00  0.00     0.310 C 
ENDBRANCH   1  31
TORSDOF 6
ENDMDL
