MODEL 1
REMARK VINA RESULT: -5.673235003      0.000      0.000
REMARK  6 active torsions:
REMARK  status: ('A' for Active; 'I' for Inactive)
REMARK    1  A    between atoms: S1_2  and  C2_3 
REMARK    2  A    between atoms: C6_7  and  N1_8 
REMARK    3  A    between atoms: C7_12  and  O1_13 
REMARK    4  A    between atoms: C10_17  and  O2_18 
REMARK    5  A    between atoms: O2_18  and  C11_19 
REMARK    6  A    between atoms: C11_19  and  N2_20 
ROOT
HETATM    1  C2  UNL     1     -27.642 -15.447  12.433  1.00  0.00     0.076 C 
HETATM    2  C3  UNL     1     -28.755 -15.890  13.320  1.00  0.00     0.018 C 
HETATM    3  C4  UNL     1     -29.219 -17.299  13.097  1.00  0.00     0.008 C 
HETATM    4  C5  UNL     1     -29.147 -17.703  11.669  1.00  0.00     0.025 C 
HETATM    5  C6  UNL     1     -30.321 -18.426  11.119  1.00  0.00     0.216 C 
HETATM    6  C7  UNL     1     -30.022 -18.313   9.615  1.00  0.00     0.149 C 
HETATM    7  C8  UNL     1     -29.635 -16.831   9.524  1.00  0.00     0.041 C 
HETATM    8  C9  UNL     1     -29.189 -16.403  10.856  1.00  0.00     0.024 C 
HETATM    9  C10 UNL     1     -27.789 -15.869  10.986  1.00  0.00     0.142 C 
ENDROOT
BRANCH   9  10
HETATM   10  O2  UNL     1     -27.473 -14.895  10.085  1.00  0.00    -0.358 OA
BRANCH  10  11
HETATM   11  C11 UNL     1     -27.664 -13.598  10.559  1.00  0.00     0.397 C 
BRANCH  11  12
HETATM   12  N2  UNL     1     -28.917 -13.021  10.140  1.00  0.00    -0.058 N 
ATOM     13  H23 UNL     1     -29.606 -13.748   9.946  1.00  0.00     0.276 HD
ATOM     14  H22 UNL     1     -29.380 -12.554  10.920  1.00  0.00     0.276 HD
ATOM     15  H21 UNL     1     -28.821 -12.391   9.344  1.00  0.00     0.276 HD
ENDBRANCH  11  12
ENDBRANCH  10  11
ENDBRANCH   9  10
BRANCH   1  16
HETATM   16  S1  UNL     1     -26.041 -15.988  13.080  1.00  0.00    -0.166 SA
HETATM   17  C1  UNL     1     -26.104 -16.298  14.849  1.00  0.00     0.090 C 
ENDBRANCH   1  16
BRANCH   5  18
HETATM   18  N1  UNL     1     -30.346 -19.840  11.414  1.00  0.00    -0.072 N 
ATOM     19  H13 UNL     1     -29.905 -20.367  10.661  1.00  0.00     0.274 HD
ATOM     20  H12 UNL     1     -29.705 -20.055  12.178  1.00  0.00     0.274 HD
ATOM     21  H11 UNL     1     -31.274 -20.215  11.613  1.00  0.00     0.274 HD
ENDBRANCH   5  18
BRANCH   6  22
HETATM   22  O1  UNL     1     -31.125 -18.611   8.856  1.00  0.00    -0.393 OA
ATOM     23  H1  UNL     1     -31.654 -19.292   9.256  1.00  0.00     0.210 HD
ENDBRANCH   6  22
TORSDOF 6
ENDMDL
MODEL 2
REMARK VINA RESULT: -5.655307987      2.718      3.695
REMARK  6 active torsions:
REMARK  status: ('A' for Active; 'I' for Inactive)
REMARK    1  A    between atoms: S1_2  and  C2_3 
REMARK    2  A    between atoms: C6_7  and  N1_8 
REMARK    3  A    between atoms: C7_12  and  O1_13 
REMARK    4  A    between atoms: C10_17  and  O2_18 
REMARK    5  A    between atoms: O2_18  and  C11_19 
REMARK    6  A    between atoms: C11_19  and  N2_20 
ROOT
HETATM    1  C2  UNL     1     -27.906 -16.659  11.414  1.00  0.00     0.076 C 
HETATM    2  C3  UNL     1     -27.662 -17.150  10.028  1.00  0.00     0.018 C 
HETATM    3  C4  UNL     1     -28.898 -17.383   9.212  1.00  0.00     0.008 C 
HETATM    4  C5  UNL     1     -30.036 -17.879  10.029  1.00  0.00     0.025 C 
HETATM    5  C6  UNL     1     -30.817 -19.010   9.470  1.00  0.00     0.216 C 
HETATM    6  C7  UNL     1     -31.594 -19.442  10.724  1.00  0.00     0.149 C 
HETATM    7  C8  UNL     1     -30.465 -19.431  11.764  1.00  0.00     0.041 C 
HETATM    8  C9  UNL     1     -29.414 -18.530  11.272  1.00  0.00     0.024 C 
HETATM    9  C10 UNL     1     -29.046 -17.352  12.131  1.00  0.00     0.142 C 
ENDROOT
BRANCH   9  10
HETATM   10  O2  UNL     1     -28.780 -17.666  13.431  1.00  0.00    -0.358 OA
BRANCH  10  11
HETATM   11  C11 UNL     1     -27.438 -17.947  13.685  1.00  0.00     0.397 C 
BRANCH  11  12
HETATM   12  N2  UNL     1     -27.145 -18.088  15.089  1.00  0.00    -0.058 N 
ATOM     13  H23 UNL     1     -26.478 -17.378  15.394  1.00  0.00     0.276 HD
ATOM     14  H22 UNL     1     -27.948 -17.819  15.657  1.00  0.00     0.276 HD
ATOM     15  H21 UNL     1     -26.820 -19.022  15.339  1.00  0.00     0.276 HD
ENDBRANCH  11  12
ENDBRANCH  10  11
ENDBRANCH   9  10
BRANCH   1  16
HETATM   16  S1  UNL     1     -28.155 -14.867  11.433  1.00  0.00    -0.166 SA
HETATM   17  C1  UNL     1     -29.567 -14.399  12.441  1.00  0.00     0.090 C 
ENDBRANCH   1  16
BRANCH   5  18
HETATM   18  N1  UNL     1     -31.815 -18.627   8.498  1.00  0.00    -0.072 N 
ATOM     19  H13 UNL     1     -32.579 -18.127   8.951  1.00  0.00     0.274 HD
ATOM     20  H12 UNL     1     -31.456 -17.888   7.893  1.00  0.00     0.274 HD
ATOM     21  H11 UNL     1     -32.178 -19.399   7.938  1.00  0.00     0.274 HD
ENDBRANCH   5  18
BRANCH   6  22
HETATM   22  O1  UNL     1     -32.151 -20.686  10.573  1.00  0.00    -0.393 OA
ATOM     23  H1  UNL     1     -31.487 -21.355  10.450  1.00  0.00     0.210 HD
ENDBRANCH   6  22
TORSDOF 6
ENDMDL
MODEL 3
REMARK VINA RESULT: -5.466116032      2.239      2.534
REMARK  6 active torsions:
REMARK  status: ('A' for Active; 'I' for Inactive)
REMARK    1  A    between atoms: S1_2  and  C2_3 
REMARK    2  A    between atoms: C6_7  and  N1_8 
REMARK    3  A    between atoms: C7_12  and  O1_13 
REMARK    4  A    between atoms: C10_17  and  O2_18 
REMARK    5  A    between atoms: O2_18  and  C11_19 
REMARK    6  A    between atoms: C11_19  and  N2_20 
ROOT
HETATM    1  C2  UNL     1     -27.669 -13.507  11.132  1.00  0.00     0.076 C 
HETATM    2  C3  UNL     1     -29.104 -13.513  11.530  1.00  0.00     0.018 C 
HETATM    3  C4  UNL     1     -29.549 -14.736  12.277  1.00  0.00     0.008 C 
HETATM    4  C5  UNL     1     -28.858 -15.968  11.815  1.00  0.00     0.025 C 
HETATM    5  C6  UNL     1     -29.705 -17.169  11.603  1.00  0.00     0.216 C 
HETATM    6  C7  UNL     1     -28.728 -18.044  10.801  1.00  0.00     0.149 C 
HETATM    7  C8  UNL     1     -28.198 -17.012   9.796  1.00  0.00     0.041 C 
HETATM    8  C9  UNL     1     -28.386 -15.679  10.384  1.00  0.00     0.024 C 
HETATM    9  C10 UNL     1     -27.164 -14.828  10.590  1.00  0.00     0.142 C 
ENDROOT
BRANCH   9  10
HETATM   10  O2  UNL     1     -26.368 -14.712   9.488  1.00  0.00    -0.358 OA
BRANCH  10  11
HETATM   11  C11 UNL     1     -25.025 -15.000   9.724  1.00  0.00     0.397 C 
BRANCH  11  12
HETATM   12  N2  UNL     1     -24.269 -15.210   8.514  1.00  0.00    -0.058 N 
ATOM     13  H23 UNL     1     -24.778 -14.857   7.703  1.00  0.00     0.276 HD
ATOM     14  H22 UNL     1     -23.456 -14.595   8.483  1.00  0.00     0.276 HD
ATOM     15  H21 UNL     1     -23.995 -16.182   8.376  1.00  0.00     0.276 HD
ENDBRANCH  11  12
ENDBRANCH  10  11
ENDBRANCH   9  10
BRANCH   1  16
HETATM   16  S1  UNL     1     -26.618 -12.952  12.498  1.00  0.00    -0.166 SA
HETATM   17  C1  UNL     1     -25.822 -14.330  13.331  1.00  0.00     0.090 C 
ENDBRANCH   1  16
BRANCH   5  18
HETATM   18  N1  UNL     1     -30.005 -17.910  12.806  1.00  0.00    -0.072 N 
ATOM     19  H13 UNL     1     -29.152 -18.301  13.205  1.00  0.00     0.274 HD
ATOM     20  H12 UNL     1     -30.274 -17.274  13.557  1.00  0.00     0.274 HD
ATOM     21  H11 UNL     1     -30.709 -18.639  12.690  1.00  0.00     0.274 HD
ENDBRANCH   5  18
BRANCH   6  22
HETATM   22  O1  UNL     1     -29.372 -19.087  10.185  1.00  0.00    -0.393 OA
ATOM     23  H1  UNL     1     -29.419 -19.852  10.747  1.00  0.00     0.210 HD
ENDBRANCH   6  22
TORSDOF 6
ENDMDL
MODEL 4
REMARK VINA RESULT: -5.401538786      2.585      3.704
REMARK  6 active torsions:
REMARK  status: ('A' for Active; 'I' for Inactive)
REMARK    1  A    between atoms: S1_2  and  C2_3 
REMARK    2  A    between atoms: C6_7  and  N1_8 
REMARK    3  A    between atoms: C7_12  and  O1_13 
REMARK    4  A    between atoms: C10_17  and  O2_18 
REMARK    5  A    between atoms: O2_18  and  C11_19 
REMARK    6  A    between atoms: C11_19  and  N2_20 
ROOT
HETATM    1  C2  UNL     1     -27.328 -15.945  13.362  1.00  0.00     0.076 C 
HETATM    2  C3  UNL     1     -26.432 -16.020  12.175  1.00  0.00     0.018 C 
HETATM    3  C4  UNL     1     -27.129 -15.935  10.849  1.00  0.00     0.008 C 
HETATM    4  C5  UNL     1     -28.465 -16.586  10.865  1.00  0.00     0.025 C 
HETATM    5  C6  UNL     1     -28.796 -17.459   9.712  1.00  0.00     0.216 C 
HETATM    6  C7  UNL     1     -30.020 -18.196  10.279  1.00  0.00     0.149 C 
HETATM    7  C8  UNL     1     -29.499 -18.553  11.679  1.00  0.00     0.041 C 
HETATM    8  C9  UNL     1     -28.427 -17.606  12.010  1.00  0.00     0.024 C 
HETATM    9  C10 UNL     1     -28.602 -16.754  13.237  1.00  0.00     0.142 C 
ENDROOT
BRANCH   9  10
HETATM   10  O2  UNL     1     -28.935 -17.450  14.362  1.00  0.00    -0.358 OA
BRANCH  10  11
HETATM   11  C11 UNL     1     -27.840 -17.909  15.092  1.00  0.00     0.397 C 
BRANCH  11  12
HETATM   12  N2  UNL     1     -27.904 -17.562  16.489  1.00  0.00    -0.058 N 
ATOM     13  H23 UNL     1     -28.751 -17.937  16.918  1.00  0.00     0.276 HD
ATOM     14  H22 UNL     1     -27.203 -18.075  17.023  1.00  0.00     0.276 HD
ATOM     15  H21 UNL     1     -27.826 -16.559  16.657  1.00  0.00     0.276 HD
ENDBRANCH  11  12
ENDBRANCH  10  11
ENDBRANCH   9  10
BRANCH   1  16
HETATM   16  S1  UNL     1     -27.720 -14.226  13.773  1.00  0.00    -0.166 SA
HETATM   17  C1  UNL     1     -29.359 -13.759  13.205  1.00  0.00     0.090 C 
ENDBRANCH   1  16
BRANCH   5  18
HETATM   18  N1  UNL     1     -29.266 -16.753   8.542  1.00  0.00    -0.072 N 
ATOM     19  H13 UNL     1     -28.509 -16.211   8.126  1.00  0.00     0.274 HD
ATOM     20  H12 UNL     1     -29.450 -17.409   7.782  1.00  0.00     0.274 HD
ATOM     21  H11 UNL     1     -30.080 -16.160   8.704  1.00  0.00     0.274 HD
ENDBRANCH   5  18
BRANCH   6  22
HETATM   22  O1  UNL     1     -30.329 -19.309   9.540  1.00  0.00    -0.393 OA
ATOM     23  H1  UNL     1     -30.967 -19.858   9.981  1.00  0.00     0.210 HD
ENDBRANCH   6  22
TORSDOF 6
ENDMDL
MODEL 5
REMARK VINA RESULT: -5.397990022      3.039      4.534
REMARK  6 active torsions:
REMARK  status: ('A' for Active; 'I' for Inactive)
REMARK    1  A    between atoms: S1_2  and  C2_3 
REMARK    2  A    between atoms: C6_7  and  N1_8 
REMARK    3  A    between atoms: C7_12  and  O1_13 
REMARK    4  A    between atoms: C10_17  and  O2_18 
REMARK    5  A    between atoms: O2_18  and  C11_19 
REMARK    6  A    between atoms: C11_19  and  N2_20 
ROOT
HETATM    1  C2  UNL     1     -27.781 -16.541  10.729  1.00  0.00     0.076 C 
HETATM    2  C3  UNL     1     -28.145 -16.845  12.142  1.00  0.00     0.018 C 
HETATM    3  C4  UNL     1     -29.338 -16.100  12.663  1.00  0.00     0.008 C 
HETATM    4  C5  UNL     1     -29.439 -14.726  12.105  1.00  0.00     0.025 C 
HETATM    5  C6  UNL     1     -29.754 -13.638  13.064  1.00  0.00     0.216 C 
HETATM    6  C7  UNL     1     -29.397 -12.414  12.205  1.00  0.00     0.149 C 
HETATM    7  C8  UNL     1     -28.050 -12.871  11.627  1.00  0.00     0.041 C 
HETATM    8  C9  UNL     1     -28.020 -14.339  11.670  1.00  0.00     0.024 C 
HETATM    9  C10 UNL     1     -27.847 -15.072  10.368  1.00  0.00     0.142 C 
ENDROOT
BRANCH   9  10
HETATM   10  O2  UNL     1     -26.799 -14.635   9.612  1.00  0.00    -0.358 OA
BRANCH  10  11
HETATM   11  C11 UNL     1     -25.557 -15.111  10.032  1.00  0.00     0.397 C 
BRANCH  11  12
HETATM   12  N2  UNL     1     -24.628 -15.303   8.947  1.00  0.00    -0.058 N 
ATOM     13  H23 UNL     1     -25.123 -15.470   8.070  1.00  0.00     0.276 HD
ATOM     14  H22 UNL     1     -24.159 -14.428   8.711  1.00  0.00     0.276 HD
ATOM     15  H21 UNL     1     -23.949 -16.042   9.127  1.00  0.00     0.276 HD
ENDBRANCH  11  12
ENDBRANCH  10  11
ENDBRANCH   9  10
BRANCH   1  16
HETATM   16  S1  UNL     1     -28.784 -17.511   9.577  1.00  0.00    -0.166 SA
HETATM   17  C1  UNL     1     -29.673 -18.832  10.411  1.00  0.00     0.090 C 
ENDBRANCH   1  16
BRANCH   5  18
HETATM   18  N1  UNL     1     -31.158 -13.504  13.379  1.00  0.00    -0.072 N 
ATOM     19  H13 UNL     1     -31.680 -13.206  12.556  1.00  0.00     0.274 HD
ATOM     20  H12 UNL     1     -31.577 -14.422  13.530  1.00  0.00     0.274 HD
ATOM     21  H11 UNL     1     -31.358 -12.890  14.168  1.00  0.00     0.274 HD
ENDBRANCH   5  18
BRANCH   6  22
HETATM   22  O1  UNL     1     -29.279 -11.278  12.965  1.00  0.00    -0.393 OA
ATOM     23  H1  UNL     1     -28.499 -10.785  12.739  1.00  0.00     0.210 HD
ENDBRANCH   6  22
TORSDOF 6
ENDMDL
