MODEL 1
REMARK VINA RESULT: -3.522025592      0.000      0.000
REMARK  9 active torsions:
REMARK  status: ('A' for Active; 'I' for Inactive)
REMARK    1  A    between atoms: N1_1  and  C1_4 
REMARK    2  A    between atoms: C4_11  and  N4_12 
REMARK    3  A    between atoms: N4_12  and  C5_14 
REMARK    4  A    between atoms: C5_14  and  C6_15 
REMARK    5  A    between atoms: C6_15  and  C7_16 
REMARK    6  A    between atoms: C7_16  and  C8_17 
REMARK    7  A    between atoms: C8_17  and  C9_18 
REMARK    8  A    between atoms: C9_18  and  C10_19 
REMARK    9  A    between atoms: C10_19  and  O1_20 
ROOT
HETATM    1  C1  UNL     1     -24.647   4.314 -23.249  1.00  0.00     0.129 A 
HETATM    2  N2  UNL     1     -24.075   3.392 -22.457  1.00  0.00    -0.337 N 
ATOM      3  H2  UNL     1     -24.412   2.429 -22.477  1.00  0.00     0.168 HD
HETATM    4  C2  UNL     1     -23.062   3.730 -21.638  1.00  0.00     0.182 A 
HETATM    5  N3  UNL     1     -22.603   4.996 -21.597  1.00  0.00    -0.347 N 
ATOM      6  H3  UNL     1     -21.835   5.242 -20.972  1.00  0.00     0.167 HD
HETATM    7  C3  UNL     1     -23.159   5.935 -22.380  1.00  0.00     0.108 A 
HETATM    8  C4  UNL     1     -22.678   7.239 -22.331  1.00  0.00     0.131 A 
HETATM    9  N5  UNL     1     -23.274   8.134 -23.137  1.00  0.00    -0.337 N 
ATOM     10  H5  UNL     1     -22.940   9.098 -23.119  1.00  0.00     0.168 HD
HETATM   11  C11 UNL     1     -24.289   7.827 -23.966  1.00  0.00     0.182 A 
HETATM   12  N6  UNL     1     -24.763   6.569 -24.023  1.00  0.00    -0.347 N 
ATOM     13  H6  UNL     1     -25.532   6.333 -24.650  1.00  0.00     0.167 HD
HETATM   14  C12 UNL     1     -24.199   5.613 -23.228  1.00  0.00     0.108 A 
ENDROOT
BRANCH   8  15
HETATM   15  N4  UNL     1     -21.715   7.563 -21.552  1.00  0.00    -0.374 N 
ATOM     16  H4  UNL     1     -21.806   7.417 -20.547  1.00  0.00     0.161 HD
BRANCH  15  17
HETATM   17  C5  UNL     1     -20.510   8.130 -22.080  1.00  0.00     0.121 C 
BRANCH  17  18
HETATM   18  C6  UNL     1     -19.288   7.331 -21.638  1.00  0.00     0.020 C 
BRANCH  18  19
HETATM   19  C7  UNL     1     -19.225   6.107 -22.494  1.00  0.00     0.002 C 
BRANCH  19  20
HETATM   20  C8  UNL     1     -19.278   6.417 -23.969  1.00  0.00     0.002 C 
BRANCH  20  21
HETATM   21  C9  UNL     1     -20.267   5.501 -24.637  1.00  0.00     0.026 C 
BRANCH  21  22
HETATM   22  C10 UNL     1     -20.169   4.099 -24.074  1.00  0.00     0.164 C 
BRANCH  22  23
HETATM   23  O1  UNL     1     -21.334   3.386 -24.225  1.00  0.00    -0.401 OA
ATOM     24  H1  UNL     1     -22.102   3.944 -24.274  1.00  0.00     0.209 HD
ENDBRANCH  22  23
ENDBRANCH  21  22
ENDBRANCH  20  21
ENDBRANCH  19  20
ENDBRANCH  18  19
ENDBRANCH  17  18
ENDBRANCH  15  17
ENDBRANCH   8  15
BRANCH   1  25
HETATM   25  N1  UNL     1     -25.627   4.022 -24.052  1.00  0.00    -0.384 N 
ATOM     26  H12 UNL     1     -26.064   3.105 -23.956  1.00  0.00     0.157 HD
ATOM     27  H11 UNL     1     -25.959   4.677 -24.759  1.00  0.00     0.157 HD
ENDBRANCH   1  25
TORSDOF 9
ENDMDL
MODEL 2
REMARK VINA RESULT: -2.595178673     10.062     12.057
REMARK  9 active torsions:
REMARK  status: ('A' for Active; 'I' for Inactive)
REMARK    1  A    between atoms: N1_1  and  C1_4 
REMARK    2  A    between atoms: C4_11  and  N4_12 
REMARK    3  A    between atoms: N4_12  and  C5_14 
REMARK    4  A    between atoms: C5_14  and  C6_15 
REMARK    5  A    between atoms: C6_15  and  C7_16 
REMARK    6  A    between atoms: C7_16  and  C8_17 
REMARK    7  A    between atoms: C8_17  and  C9_18 
REMARK    8  A    between atoms: C9_18  and  C10_19 
REMARK    9  A    between atoms: C10_19  and  O1_20 
ROOT
HETATM    1  C1  UNL     1     -30.399   0.553 -14.149  1.00  0.00     0.129 A 
HETATM    2  N2  UNL     1     -29.560   1.491 -13.678  1.00  0.00    -0.337 N 
ATOM      3  H2  UNL     1     -29.926   2.395 -13.382  1.00  0.00     0.168 HD
HETATM    4  C2  UNL     1     -28.239   1.244 -13.596  1.00  0.00     0.182 A 
HETATM    5  N3  UNL     1     -27.735   0.056 -13.983  1.00  0.00    -0.347 N 
ATOM      6  H3  UNL     1     -26.732  -0.121 -13.917  1.00  0.00     0.167 HD
HETATM    7  C3  UNL     1     -28.555  -0.897 -14.456  1.00  0.00     0.108 A 
HETATM    8  C4  UNL     1     -28.026  -2.120 -14.852  1.00  0.00     0.131 A 
HETATM    9  N5  UNL     1     -28.895  -3.034 -15.317  1.00  0.00    -0.337 N 
ATOM     10  H5  UNL     1     -28.531  -3.939 -15.614  1.00  0.00     0.168 HD
HETATM   11  C11 UNL     1     -30.220  -2.817 -15.412  1.00  0.00     0.182 A 
HETATM   12  N6  UNL     1     -30.744  -1.637 -15.032  1.00  0.00    -0.347 N 
ATOM     13  H6  UNL     1     -31.748  -1.470 -15.102  1.00  0.00     0.167 HD
HETATM   14  C12 UNL     1     -29.913  -0.667 -14.550  1.00  0.00     0.108 A 
ENDROOT
BRANCH   8  15
HETATM   15  N4  UNL     1     -26.770  -2.357 -14.775  1.00  0.00    -0.374 N 
ATOM     16  H4  UNL     1     -26.295  -2.278 -13.876  1.00  0.00     0.161 HD
BRANCH  15  17
HETATM   17  C5  UNL     1     -26.026  -2.732 -15.941  1.00  0.00     0.121 C 
BRANCH  17  18
HETATM   18  C6  UNL     1     -26.393  -1.854 -17.133  1.00  0.00     0.020 C 
BRANCH  18  19
HETATM   19  C7  UNL     1     -25.617  -0.583 -17.004  1.00  0.00     0.002 C 
BRANCH  19  20
HETATM   20  C8  UNL     1     -26.324   0.602 -17.612  1.00  0.00     0.002 C 
BRANCH  20  21
HETATM   21  C9  UNL     1     -26.352   1.732 -16.618  1.00  0.00     0.026 C 
BRANCH  21  22
HETATM   22  C10 UNL     1     -27.749   2.301 -16.488  1.00  0.00     0.164 C 
BRANCH  22  23
HETATM   23  O1  UNL     1     -27.748   3.646 -16.207  1.00  0.00    -0.401 OA
ATOM     24  H1  UNL     1     -28.087   4.170 -16.923  1.00  0.00     0.209 HD
ENDBRANCH  22  23
ENDBRANCH  21  22
ENDBRANCH  20  21
ENDBRANCH  19  20
ENDBRANCH  18  19
ENDBRANCH  17  18
ENDBRANCH  15  17
ENDBRANCH   8  15
BRANCH   1  25
HETATM   25  N1  UNL     1     -31.679   0.758 -14.242  1.00  0.00    -0.384 N 
ATOM     26  H12 UNL     1     -32.006   1.724 -14.279  1.00  0.00     0.157 HD
ATOM     27  H11 UNL     1     -32.348  -0.011 -14.278  1.00  0.00     0.157 HD
ENDBRANCH   1  25
TORSDOF 9
ENDMDL
MODEL 3
REMARK VINA RESULT: -2.157445080      9.754     12.238
REMARK  9 active torsions:
REMARK  status: ('A' for Active; 'I' for Inactive)
REMARK    1  A    between atoms: N1_1  and  C1_4 
REMARK    2  A    between atoms: C4_11  and  N4_12 
REMARK    3  A    between atoms: N4_12  and  C5_14 
REMARK    4  A    between atoms: C5_14  and  C6_15 
REMARK    5  A    between atoms: C6_15  and  C7_16 
REMARK    6  A    between atoms: C7_16  and  C8_17 
REMARK    7  A    between atoms: C8_17  and  C9_18 
REMARK    8  A    between atoms: C9_18  and  C10_19 
REMARK    9  A    between atoms: C10_19  and  O1_20 
ROOT
HETATM    1  C1  UNL     1     -25.860  -2.050 -16.337  1.00  0.00     0.129 A 
HETATM    2  N2  UNL     1     -25.963  -2.884 -15.289  1.00  0.00    -0.337 N 
ATOM      3  H2  UNL     1     -25.534  -3.808 -15.333  1.00  0.00     0.168 HD
HETATM    4  C2  UNL     1     -26.630  -2.507 -14.181  1.00  0.00     0.182 A 
HETATM    5  N3  UNL     1     -27.204  -1.290 -14.103  1.00  0.00    -0.347 N 
ATOM      6  H3  UNL     1     -27.706  -1.015 -13.260  1.00  0.00     0.167 HD
HETATM    7  C3  UNL     1     -27.113  -0.440 -15.139  1.00  0.00     0.108 A 
HETATM    8  C4  UNL     1     -27.709   0.813 -15.049  1.00  0.00     0.131 A 
HETATM    9  N5  UNL     1     -27.585   1.620 -16.117  1.00  0.00    -0.337 N 
ATOM     10  H5  UNL     1     -28.013   2.545 -16.076  1.00  0.00     0.168 HD
HETATM   11  C11 UNL     1     -26.926   1.272 -17.238  1.00  0.00     0.182 A 
HETATM   12  N6  UNL     1     -26.346   0.062 -17.337  1.00  0.00    -0.347 N 
ATOM     13  H6  UNL     1     -25.846  -0.205 -18.186  1.00  0.00     0.167 HD
HETATM   14  C12 UNL     1     -26.436  -0.804 -16.286  1.00  0.00     0.108 A 
ENDROOT
BRANCH   8  15
HETATM   15  N4  UNL     1     -28.343   1.173 -13.997  1.00  0.00    -0.374 N 
ATOM     16  H4  UNL     1     -27.947   0.980 -13.077  1.00  0.00     0.161 HD
BRANCH  15  17
HETATM   17  C5  UNL     1     -29.604   1.846 -14.101  1.00  0.00     0.121 C 
BRANCH  17  18
HETATM   18  C6  UNL     1     -30.658   0.943 -14.733  1.00  0.00     0.020 C 
BRANCH  18  19
HETATM   19  C7  UNL     1     -31.226   0.092 -13.643  1.00  0.00     0.002 C 
BRANCH  19  20
HETATM   20  C8  UNL     1     -30.800  -1.351 -13.741  1.00  0.00     0.002 C 
BRANCH  20  21
HETATM   21  C9  UNL     1     -30.404  -1.661 -15.159  1.00  0.00     0.026 C 
BRANCH  21  22
HETATM   22  C10 UNL     1     -29.907  -3.086 -15.280  1.00  0.00     0.164 C 
BRANCH  22  23
HETATM   23  O1  UNL     1     -28.915  -3.222 -16.222  1.00  0.00    -0.401 OA
ATOM     24  H1  UNL     1     -28.558  -2.386 -16.501  1.00  0.00     0.209 HD
ENDBRANCH  22  23
ENDBRANCH  21  22
ENDBRANCH  20  21
ENDBRANCH  19  20
ENDBRANCH  18  19
ENDBRANCH  17  18
ENDBRANCH  15  17
ENDBRANCH   8  15
BRANCH   1  25
HETATM   25  N1  UNL     1     -25.225  -2.382 -17.422  1.00  0.00    -0.384 N 
ATOM     26  H12 UNL     1     -24.734  -3.276 -17.432  1.00  0.00     0.157 HD
ATOM     27  H11 UNL     1     -25.208  -1.779 -18.244  1.00  0.00     0.157 HD
ENDBRANCH   1  25
TORSDOF 9
ENDMDL
MODEL 4
REMARK VINA RESULT: -1.798451058      9.669     11.686
REMARK  9 active torsions:
REMARK  status: ('A' for Active; 'I' for Inactive)
REMARK    1  A    between atoms: N1_1  and  C1_4 
REMARK    2  A    between atoms: C4_11  and  N4_12 
REMARK    3  A    between atoms: N4_12  and  C5_14 
REMARK    4  A    between atoms: C5_14  and  C6_15 
REMARK    5  A    between atoms: C6_15  and  C7_16 
REMARK    6  A    between atoms: C7_16  and  C8_17 
REMARK    7  A    between atoms: C8_17  and  C9_18 
REMARK    8  A    between atoms: C9_18  and  C10_19 
REMARK    9  A    between atoms: C10_19  and  O1_20 
ROOT
HETATM    1  C1  UNL     1     -30.716   0.893 -14.689  1.00  0.00     0.129 A 
HETATM    2  N2  UNL     1     -30.870  -0.387 -14.315  1.00  0.00    -0.337 N 
ATOM      3  H2  UNL     1     -31.762  -0.699 -13.930  1.00  0.00     0.168 HD
HETATM    4  C2  UNL     1     -29.854  -1.262 -14.443  1.00  0.00     0.182 A 
HETATM    5  N3  UNL     1     -28.668  -0.870 -14.948  1.00  0.00    -0.347 N 
ATOM      6  H3  UNL     1     -27.905  -1.541 -15.041  1.00  0.00     0.167 HD
HETATM    7  C3  UNL     1     -28.491   0.406 -15.330  1.00  0.00     0.108 A 
HETATM    8  C4  UNL     1     -27.264   0.800 -15.850  1.00  0.00     0.131 A 
HETATM    9  N5  UNL     1     -27.147   2.089 -16.214  1.00  0.00    -0.337 N 
ATOM     10  H5  UNL     1     -26.256   2.403 -16.599  1.00  0.00     0.168 HD
HETATM   11  C11 UNL     1     -28.143   2.986 -16.099  1.00  0.00     0.182 A 
HETATM   12  N6  UNL     1     -29.336   2.617 -15.596  1.00  0.00    -0.347 N 
ATOM     13  H6  UNL     1     -30.092   3.295 -15.507  1.00  0.00     0.167 HD
HETATM   14  C12 UNL     1     -29.518   1.321 -15.208  1.00  0.00     0.108 A 
ENDROOT
BRANCH   8  15
HETATM   15  N4  UNL     1     -26.297  -0.029 -15.973  1.00  0.00    -0.374 N 
ATOM     16  H4  UNL     1     -25.773  -0.321 -15.148  1.00  0.00     0.161 HD
BRANCH  15  17
HETATM   17  C5  UNL     1     -25.943  -0.553 -17.259  1.00  0.00     0.121 C 
BRANCH  17  18
HETATM   18  C6  UNL     1     -25.748  -2.064 -17.202  1.00  0.00     0.020 C 
BRANCH  18  19
HETATM   19  C7  UNL     1     -27.107  -2.685 -17.153  1.00  0.00     0.002 C 
BRANCH  19  20
HETATM   20  C8  UNL     1     -27.385  -3.390 -15.850  1.00  0.00     0.002 C 
BRANCH  20  21
HETATM   21  C9  UNL     1     -26.187  -3.264 -14.947  1.00  0.00     0.026 C 
BRANCH  21  22
HETATM   22  C10 UNL     1     -26.571  -2.632 -13.626  1.00  0.00     0.164 C 
BRANCH  22  23
HETATM   23  O1  UNL     1     -26.084  -1.354 -13.490  1.00  0.00    -0.401 OA
ATOM     24  H1  UNL     1     -26.758  -0.729 -13.248  1.00  0.00     0.209 HD
ENDBRANCH  22  23
ENDBRANCH  21  22
ENDBRANCH  20  21
ENDBRANCH  19  20
ENDBRANCH  18  19
ENDBRANCH  17  18
ENDBRANCH  15  17
ENDBRANCH   8  15
BRANCH   1  25
HETATM   25  N1  UNL     1     -31.675   1.764 -14.579  1.00  0.00    -0.384 N 
ATOM     26  H12 UNL     1     -32.205   1.999 -15.419  1.00  0.00     0.157 HD
ATOM     27  H11 UNL     1     -31.904   2.207 -13.689  1.00  0.00     0.157 HD
ENDBRANCH   1  25
TORSDOF 9
ENDMDL
MODEL 5
REMARK VINA RESULT: -1.771375159      9.702     11.579
REMARK  9 active torsions:
REMARK  status: ('A' for Active; 'I' for Inactive)
REMARK    1  A    between atoms: N1_1  and  C1_4 
REMARK    2  A    between atoms: C4_11  and  N4_12 
REMARK    3  A    between atoms: N4_12  and  C5_14 
REMARK    4  A    between atoms: C5_14  and  C6_15 
REMARK    5  A    between atoms: C6_15  and  C7_16 
REMARK    6  A    between atoms: C7_16  and  C8_17 
REMARK    7  A    between atoms: C8_17  and  C9_18 
REMARK    8  A    between atoms: C9_18  and  C10_19 
REMARK    9  A    between atoms: C10_19  and  O1_20 
ROOT
HETATM    1  C1  UNL     1     -29.028  -2.494 -14.338  1.00  0.00     0.129 A 
HETATM    2  N2  UNL     1     -27.711  -2.716 -14.197  1.00  0.00    -0.337 N 
ATOM      3  H2  UNL     1     -27.365  -3.671 -14.110  1.00  0.00     0.168 HD
HETATM    4  C2  UNL     1     -26.846  -1.684 -14.169  1.00  0.00     0.182 A 
HETATM    5  N3  UNL     1     -27.283  -0.415 -14.283  1.00  0.00    -0.347 N 
ATOM      6  H3  UNL     1     -26.619   0.359 -14.261  1.00  0.00     0.167 HD
HETATM    7  C3  UNL     1     -28.596  -0.170 -14.426  1.00  0.00     0.108 A 
HETATM    8  C4  UNL     1     -29.038   1.143 -14.543  1.00  0.00     0.131 A 
HETATM    9  N5  UNL     1     -30.362   1.326 -14.683  1.00  0.00    -0.337 N 
ATOM     10  H5  UNL     1     -30.711   2.280 -14.770  1.00  0.00     0.168 HD
HETATM   11  C11 UNL     1     -31.252   0.316 -14.713  1.00  0.00     0.182 A 
HETATM   12  N6  UNL     1     -30.837  -0.958 -14.601  1.00  0.00    -0.347 N 
ATOM     13  H6  UNL     1     -31.509  -1.726 -14.624  1.00  0.00     0.167 HD
HETATM   14  C12 UNL     1     -29.503  -1.211 -14.456  1.00  0.00     0.108 A 
ENDROOT
BRANCH   8  15
HETATM   15  N4  UNL     1     -28.217   2.125 -14.517  1.00  0.00    -0.374 N 
ATOM     16  H4  UNL     1     -27.832   2.439 -13.626  1.00  0.00     0.161 HD
BRANCH  15  17
HETATM   17  C5  UNL     1     -27.833   2.788 -15.728  1.00  0.00     0.121 C 
BRANCH  17  18
HETATM   18  C6  UNL     1     -27.317   1.790 -16.760  1.00  0.00     0.020 C 
BRANCH  18  19
HETATM   19  C7  UNL     1     -25.879   1.532 -16.447  1.00  0.00     0.002 C 
BRANCH  19  20
HETATM   20  C8  UNL     1     -25.325   0.332 -17.173  1.00  0.00     0.002 C 
BRANCH  20  21
HETATM   21  C9  UNL     1     -26.450  -0.607 -17.518  1.00  0.00     0.026 C 
BRANCH  21  22
HETATM   22  C10 UNL     1     -26.037  -2.046 -17.295  1.00  0.00     0.164 C 
BRANCH  22  23
HETATM   23  O1  UNL     1     -27.112  -2.902 -17.240  1.00  0.00    -0.401 OA
ATOM     24  H1  UNL     1     -27.087  -3.471 -16.479  1.00  0.00     0.209 HD
ENDBRANCH  22  23
ENDBRANCH  21  22
ENDBRANCH  20  21
ENDBRANCH  19  20
ENDBRANCH  18  19
ENDBRANCH  17  18
ENDBRANCH  15  17
ENDBRANCH   8  15
BRANCH   1  25
HETATM   25  N1  UNL     1     -29.891  -3.466 -14.368  1.00  0.00    -0.384 N 
ATOM     26  H12 UNL     1     -29.830  -4.134 -15.137  1.00  0.00     0.157 HD
ATOM     27  H11 UNL     1     -30.612  -3.571 -13.654  1.00  0.00     0.157 HD
ENDBRANCH   1  25
TORSDOF 9
ENDMDL
