MODEL 1
REMARK VINA RESULT: -2.794818579      0.000      0.000
REMARK  9 active torsions:
REMARK  status: ('A' for Active; 'I' for Inactive)
REMARK    1  A    between atoms: N1_1  and  C1_4 
REMARK    2  A    between atoms: C6_15  and  N5_16 
REMARK    3  A    between atoms: N5_16  and  C7_18 
REMARK    4  A    between atoms: C7_18  and  C8_19 
REMARK    5  A    between atoms: C8_19  and  C9_20 
REMARK    6  A    between atoms: C9_20  and  C10_21 
REMARK    7  A    between atoms: C10_21  and  C11_22 
REMARK    8  A    between atoms: C11_22  and  C12_23 
REMARK    9  A    between atoms: C12_23  and  O1_24 
ROOT
HETATM    1  C1  UNL     1     -27.462   1.812 -15.956  1.00  0.00     0.677 C 
HETATM    2  N2  UNL     1     -26.389   1.941 -16.729  1.00  0.00    -0.200 N 
ATOM      3  H2  UNL     1     -26.073   2.897 -16.897  1.00  0.00     0.183 HD
HETATM    4  C2  UNL     1     -25.658   0.962 -17.325  1.00  0.00     0.138 C 
HETATM    5  C3  UNL     1     -25.793  -0.407 -17.130  1.00  0.00     0.080 A 
HETATM    6  N3  UNL     1     -25.184  -1.326 -17.894  1.00  0.00    -0.349 N 
ATOM      7  H3  UNL     1     -24.566  -1.135 -18.683  1.00  0.00     0.166 HD
HETATM    8  C4  UNL     1     -25.528  -2.542 -17.437  1.00  0.00     0.181 A 
HETATM    9  N4  UNL     1     -26.351  -2.365 -16.392  1.00  0.00    -0.347 N 
ATOM     10  H4  UNL     1     -26.769  -3.120 -15.848  1.00  0.00     0.167 HD
HETATM   11  C5  UNL     1     -26.546  -1.063 -16.161  1.00  0.00     0.106 A 
HETATM   12  C6  UNL     1     -27.327  -0.511 -15.172  1.00  0.00     0.150 C 
HETATM   13  N6  UNL     1     -27.845   0.734 -15.233  1.00  0.00    -0.175 N 
ATOM     14  H6  UNL     1     -28.657   0.888 -14.636  1.00  0.00     0.186 HD
ENDROOT
BRANCH  12  15
HETATM   15  N5  UNL     1     -27.590  -1.162 -14.156  1.00  0.00    -0.354 N 
ATOM     16  H5  UNL     1     -26.953  -0.918 -13.398  1.00  0.00     0.166 HD
BRANCH  15  17
HETATM   17  C7  UNL     1     -28.500  -2.129 -13.739  1.00  0.00     0.062 C 
BRANCH  17  18
HETATM   18  C8  UNL     1     -29.204  -2.882 -14.846  1.00  0.00     0.044 C 
BRANCH  18  19
HETATM   19  C9  UNL     1     -30.395  -2.012 -15.312  1.00  0.00     0.005 C 
BRANCH  19  20
HETATM   20  C10 UNL     1     -30.722  -1.067 -14.210  1.00  0.00     0.002 C 
BRANCH  20  21
HETATM   21  C11 UNL     1     -30.970   0.338 -14.589  1.00  0.00     0.026 C 
BRANCH  21  22
HETATM   22  C12 UNL     1     -30.755   1.379 -13.547  1.00  0.00     0.164 C 
BRANCH  22  23
HETATM   23  O1  UNL     1     -29.433   1.523 -13.183  1.00  0.00    -0.401 OA
ATOM     24  H1  UNL     1     -28.862   0.872 -13.574  1.00  0.00     0.209 HD
ENDBRANCH  22  23
ENDBRANCH  21  22
ENDBRANCH  20  21
ENDBRANCH  19  20
ENDBRANCH  18  19
ENDBRANCH  17  18
ENDBRANCH  15  17
ENDBRANCH  12  15
BRANCH   1  25
HETATM   25  N1  UNL     1     -28.230   2.861 -15.898  1.00  0.00    -0.234 N 
ATOM     26  H12 UNL     1     -27.847   3.732 -16.265  1.00  0.00     0.174 HD
ATOM     27  H11 UNL     1     -29.149   2.702 -15.485  1.00  0.00     0.174 HD
ENDBRANCH   1  25
TORSDOF 9
ENDMDL
MODEL 2
REMARK VINA RESULT: -2.784686869      2.213      4.613
REMARK  9 active torsions:
REMARK  status: ('A' for Active; 'I' for Inactive)
REMARK    1  A    between atoms: N1_1  and  C1_4 
REMARK    2  A    between atoms: C6_15  and  N5_16 
REMARK    3  A    between atoms: N5_16  and  C7_18 
REMARK    4  A    between atoms: C7_18  and  C8_19 
REMARK    5  A    between atoms: C8_19  and  C9_20 
REMARK    6  A    between atoms: C9_20  and  C10_21 
REMARK    7  A    between atoms: C10_21  and  C11_22 
REMARK    8  A    between atoms: C11_22  and  C12_23 
REMARK    9  A    between atoms: C12_23  and  O1_24 
ROOT
HETATM    1  C1  UNL     1     -27.635   1.720 -15.963  1.00  0.00     0.677 C 
HETATM    2  N2  UNL     1     -28.744   2.273 -16.444  1.00  0.00    -0.200 N 
ATOM      3  H2  UNL     1     -28.629   2.849 -17.278  1.00  0.00     0.183 HD
HETATM    4  C2  UNL     1     -30.012   2.168 -15.965  1.00  0.00     0.138 C 
HETATM    5  C3  UNL     1     -30.445   1.332 -14.944  1.00  0.00     0.080 A 
HETATM    6  N3  UNL     1     -31.660   1.419 -14.382  1.00  0.00    -0.349 N 
ATOM      7  H3  UNL     1     -32.389   2.088 -14.631  1.00  0.00     0.166 HD
HETATM    8  C4  UNL     1     -31.751   0.471 -13.435  1.00  0.00     0.181 A 
HETATM    9  N4  UNL     1     -30.586  -0.198 -13.417  1.00  0.00    -0.347 N 
ATOM     10  H4  UNL     1     -30.373  -0.975 -12.792  1.00  0.00     0.167 HD
HETATM   11  C5  UNL     1     -29.746   0.295 -14.331  1.00  0.00     0.106 A 
HETATM   12  C6  UNL     1     -28.468  -0.142 -14.595  1.00  0.00     0.150 C 
HETATM   13  N6  UNL     1     -27.521   0.622 -15.181  1.00  0.00    -0.175 N 
ATOM     14  H6  UNL     1     -26.563   0.321 -15.006  1.00  0.00     0.186 HD
ENDROOT
BRANCH  12  15
HETATM   15  N5  UNL     1     -28.133  -1.291 -14.294  1.00  0.00    -0.354 N 
ATOM     16  H5  UNL     1     -28.896  -1.945 -14.468  1.00  0.00     0.166 HD
BRANCH  15  17
HETATM   17  C7  UNL     1     -27.022  -1.957 -13.788  1.00  0.00     0.062 C 
BRANCH  17  18
HETATM   18  C8  UNL     1     -26.367  -2.944 -14.729  1.00  0.00     0.044 C 
BRANCH  18  19
HETATM   19  C9  UNL     1     -27.424  -3.345 -15.785  1.00  0.00     0.005 C 
BRANCH  19  20
HETATM   20  C10 UNL     1     -27.036  -2.713 -17.075  1.00  0.00     0.002 C 
BRANCH  20  21
HETATM   21  C11 UNL     1     -25.722  -2.041 -17.119  1.00  0.00     0.026 C 
BRANCH  21  22
HETATM   22  C12 UNL     1     -25.684  -0.638 -17.614  1.00  0.00     0.164 C 
BRANCH  22  23
HETATM   23  O1  UNL     1     -24.807   0.163 -16.914  1.00  0.00    -0.401 OA
ATOM     24  H1  UNL     1     -24.313   0.756 -17.470  1.00  0.00     0.209 HD
ENDBRANCH  22  23
ENDBRANCH  21  22
ENDBRANCH  20  21
ENDBRANCH  19  20
ENDBRANCH  18  19
ENDBRANCH  17  18
ENDBRANCH  15  17
ENDBRANCH  12  15
BRANCH   1  25
HETATM   25  N1  UNL     1     -26.530   2.322 -16.295  1.00  0.00    -0.234 N 
ATOM     26  H12 UNL     1     -26.331   2.402 -17.291  1.00  0.00     0.174 HD
ATOM     27  H11 UNL     1     -25.968   2.657 -15.512  1.00  0.00     0.174 HD
ENDBRANCH   1  25
TORSDOF 9
ENDMDL
MODEL 3
REMARK VINA RESULT: -2.707392262      2.256      4.827
REMARK  9 active torsions:
REMARK  status: ('A' for Active; 'I' for Inactive)
REMARK    1  A    between atoms: N1_1  and  C1_4 
REMARK    2  A    between atoms: C6_15  and  N5_16 
REMARK    3  A    between atoms: N5_16  and  C7_18 
REMARK    4  A    between atoms: C7_18  and  C8_19 
REMARK    5  A    between atoms: C8_19  and  C9_20 
REMARK    6  A    between atoms: C9_20  and  C10_21 
REMARK    7  A    between atoms: C10_21  and  C11_22 
REMARK    8  A    between atoms: C11_22  and  C12_23 
REMARK    9  A    between atoms: C12_23  and  O1_24 
ROOT
HETATM    1  C1  UNL     1     -30.918   0.560 -14.340  1.00  0.00     0.677 C 
HETATM    2  N2  UNL     1     -31.007  -0.755 -14.513  1.00  0.00    -0.200 N 
ATOM      3  H2  UNL     1     -31.933  -1.112 -14.751  1.00  0.00     0.183 HD
HETATM    4  C2  UNL     1     -30.021  -1.685 -14.412  1.00  0.00     0.138 C 
HETATM    5  C3  UNL     1     -28.664  -1.439 -14.249  1.00  0.00     0.080 A 
HETATM    6  N3  UNL     1     -27.768  -2.394 -13.955  1.00  0.00    -0.349 N 
ATOM      7  H3  UNL     1     -27.972  -3.384 -13.821  1.00  0.00     0.166 HD
HETATM    8  C4  UNL     1     -26.558  -1.818 -13.868  1.00  0.00     0.181 A 
HETATM    9  N4  UNL     1     -26.714  -0.507 -14.109  1.00  0.00    -0.347 N 
ATOM     10  H4  UNL     1     -25.957   0.177 -14.108  1.00  0.00     0.167 HD
HETATM   11  C5  UNL     1     -27.996  -0.221 -14.351  1.00  0.00     0.106 A 
HETATM   12  C6  UNL     1     -28.524   1.017 -14.638  1.00  0.00     0.150 C 
HETATM   13  N6  UNL     1     -29.820   1.343 -14.444  1.00  0.00    -0.175 N 
ATOM     14  H6  UNL     1     -29.999   2.343 -14.361  1.00  0.00     0.186 HD
ENDROOT
BRANCH  12  15
HETATM   15  N5  UNL     1     -27.802   1.905 -15.101  1.00  0.00    -0.354 N 
ATOM     16  H5  UNL     1     -27.441   2.499 -14.356  1.00  0.00     0.166 HD
BRANCH  15  17
HETATM   17  C7  UNL     1     -27.335   2.333 -16.340  1.00  0.00     0.062 C 
BRANCH  17  18
HETATM   18  C8  UNL     1     -26.042   1.702 -16.804  1.00  0.00     0.044 C 
BRANCH  18  19
HETATM   19  C9  UNL     1     -26.409   0.413 -17.577  1.00  0.00     0.005 C 
BRANCH  19  20
HETATM   20  C10 UNL     1     -25.354  -0.598 -17.295  1.00  0.00     0.002 C 
BRANCH  20  21
HETATM   21  C11 UNL     1     -25.779  -2.011 -17.256  1.00  0.00     0.026 C 
BRANCH  21  22
HETATM   22  C12 UNL     1     -27.238  -2.293 -17.333  1.00  0.00     0.164 C 
BRANCH  22  23
HETATM   23  O1  UNL     1     -27.608  -3.444 -16.670  1.00  0.00    -0.401 OA
ATOM     24  H1  UNL     1     -27.744  -3.315 -15.738  1.00  0.00     0.209 HD
ENDBRANCH  22  23
ENDBRANCH  21  22
ENDBRANCH  20  21
ENDBRANCH  19  20
ENDBRANCH  18  19
ENDBRANCH  17  18
ENDBRANCH  15  17
ENDBRANCH  12  15
BRANCH   1  25
HETATM   25  N1  UNL     1     -32.035   1.153 -14.035  1.00  0.00    -0.234 N 
ATOM     26  H12 UNL     1     -32.755   0.581 -13.595  1.00  0.00     0.174 HD
ATOM     27  H11 UNL     1     -32.077   2.145 -14.271  1.00  0.00     0.174 HD
ENDBRANCH   1  25
TORSDOF 9
ENDMDL
MODEL 4
REMARK VINA RESULT: -2.706682723      1.687      3.554
REMARK  9 active torsions:
REMARK  status: ('A' for Active; 'I' for Inactive)
REMARK    1  A    between atoms: N1_1  and  C1_4 
REMARK    2  A    between atoms: C6_15  and  N5_16 
REMARK    3  A    between atoms: N5_16  and  C7_18 
REMARK    4  A    between atoms: C7_18  and  C8_19 
REMARK    5  A    between atoms: C8_19  and  C9_20 
REMARK    6  A    between atoms: C9_20  and  C10_21 
REMARK    7  A    between atoms: C10_21  and  C11_22 
REMARK    8  A    between atoms: C11_22  and  C12_23 
REMARK    9  A    between atoms: C12_23  and  O1_24 
ROOT
HETATM    1  C1  UNL     1     -26.787  -2.216 -14.201  1.00  0.00     0.677 C 
HETATM    2  N2  UNL     1     -26.548  -2.819 -15.361  1.00  0.00    -0.200 N 
ATOM      3  H2  UNL     1     -26.632  -3.835 -15.361  1.00  0.00     0.183 HD
HETATM    4  C2  UNL     1     -26.206  -2.252 -16.549  1.00  0.00     0.138 C 
HETATM    5  C3  UNL     1     -26.176  -0.894 -16.840  1.00  0.00     0.080 A 
HETATM    6  N3  UNL     1     -25.638  -0.389 -17.961  1.00  0.00    -0.349 N 
ATOM      7  H3  UNL     1     -25.202  -0.927 -18.710  1.00  0.00     0.166 HD
HETATM    8  C4  UNL     1     -25.774   0.946 -17.924  1.00  0.00     0.181 A 
HETATM    9  N4  UNL     1     -26.397   1.260 -16.777  1.00  0.00    -0.347 N 
ATOM     10  H4  UNL     1     -26.632   2.208 -16.485  1.00  0.00     0.167 HD
HETATM   11  C5  UNL     1     -26.667   0.158 -16.071  1.00  0.00     0.106 A 
HETATM   12  C6  UNL     1     -27.297   0.097 -14.850  1.00  0.00     0.150 C 
HETATM   13  N6  UNL     1     -27.164  -0.934 -13.988  1.00  0.00    -0.175 N 
ATOM     14  H6  UNL     1     -27.383  -0.709 -13.018  1.00  0.00     0.186 HD
ENDROOT
BRANCH  12  15
HETATM   15  N5  UNL     1     -28.034   1.018 -14.487  1.00  0.00    -0.354 N 
ATOM     16  H5  UNL     1     -27.903   1.214 -13.496  1.00  0.00     0.166 HD
BRANCH  15  17
HETATM   17  C7  UNL     1     -28.992   1.868 -15.032  1.00  0.00     0.062 C 
BRANCH  17  18
HETATM   18  C8  UNL     1     -30.367   1.266 -15.219  1.00  0.00     0.044 C 
BRANCH  18  19
HETATM   19  C9  UNL     1     -30.874   0.831 -13.824  1.00  0.00     0.005 C 
BRANCH  19  20
HETATM   20  C10 UNL     1     -30.893  -0.656 -13.794  1.00  0.00     0.002 C 
BRANCH  20  21
HETATM   21  C11 UNL     1     -30.523  -1.352 -15.042  1.00  0.00     0.026 C 
BRANCH  21  22
HETATM   22  C12 UNL     1     -30.078  -2.768 -14.934  1.00  0.00     0.164 C 
BRANCH  22  23
HETATM   23  O1  UNL     1     -29.438  -3.227 -16.066  1.00  0.00    -0.401 OA
ATOM     24  H1  UNL     1     -29.708  -4.102 -16.322  1.00  0.00     0.209 HD
ENDBRANCH  22  23
ENDBRANCH  21  22
ENDBRANCH  20  21
ENDBRANCH  19  20
ENDBRANCH  18  19
ENDBRANCH  17  18
ENDBRANCH  15  17
ENDBRANCH  12  15
BRANCH   1  25
HETATM   25  N1  UNL     1     -26.636  -2.966 -13.149  1.00  0.00    -0.234 N 
ATOM     26  H12 UNL     1     -26.289  -3.913 -13.304  1.00  0.00     0.174 HD
ATOM     27  H11 UNL     1     -26.884  -2.524 -12.263  1.00  0.00     0.174 HD
ENDBRANCH   1  25
TORSDOF 9
ENDMDL
MODEL 5
REMARK VINA RESULT: -2.678291570      2.232      4.584
REMARK  9 active torsions:
REMARK  status: ('A' for Active; 'I' for Inactive)
REMARK    1  A    between atoms: N1_1  and  C1_4 
REMARK    2  A    between atoms: C6_15  and  N5_16 
REMARK    3  A    between atoms: N5_16  and  C7_18 
REMARK    4  A    between atoms: C7_18  and  C8_19 
REMARK    5  A    between atoms: C8_19  and  C9_20 
REMARK    6  A    between atoms: C9_20  and  C10_21 
REMARK    7  A    between atoms: C10_21  and  C11_22 
REMARK    8  A    between atoms: C11_22  and  C12_23 
REMARK    9  A    between atoms: C12_23  and  O1_24 
ROOT
HETATM    1  C1  UNL     1     -30.558  -0.779 -14.123  1.00  0.00     0.677 C 
HETATM    2  N2  UNL     1     -31.061   0.449 -14.205  1.00  0.00    -0.200 N 
ATOM      3  H2  UNL     1     -31.976   0.585 -13.775  1.00  0.00     0.183 HD
HETATM    4  C2  UNL     1     -30.510   1.547 -14.787  1.00  0.00     0.138 C 
HETATM    5  C3  UNL     1     -29.223   1.654 -15.299  1.00  0.00     0.080 A 
HETATM    6  N3  UNL     1     -28.806   2.693 -16.040  1.00  0.00    -0.349 N 
ATOM      7  H3  UNL     1     -29.367   3.502 -16.305  1.00  0.00     0.166 HD
HETATM    8  C4  UNL     1     -27.521   2.480 -16.370  1.00  0.00     0.181 A 
HETATM    9  N4  UNL     1     -27.152   1.308 -15.830  1.00  0.00    -0.347 N 
ATOM     10  H4  UNL     1     -26.224   0.895 -15.920  1.00  0.00     0.167 HD
HETATM   11  C5  UNL     1     -28.167   0.758 -15.158  1.00  0.00     0.106 A 
HETATM   12  C6  UNL     1     -28.152  -0.438 -14.478  1.00  0.00     0.150 C 
HETATM   13  N6  UNL     1     -29.261  -1.156 -14.200  1.00  0.00    -0.175 N 
ATOM     14  H6  UNL     1     -29.093  -2.145 -14.017  1.00  0.00     0.186 HD
ENDROOT
BRANCH  12  15
HETATM   15  N5  UNL     1     -27.082  -0.912 -14.084  1.00  0.00    -0.354 N 
ATOM     16  H5  UNL     1     -26.369  -0.186 -14.020  1.00  0.00     0.166 HD
BRANCH  15  17
HETATM   17  C7  UNL     1     -26.562  -2.144 -13.701  1.00  0.00     0.062 C 
BRANCH  17  18
HETATM   18  C8  UNL     1     -26.104  -3.039 -14.832  1.00  0.00     0.044 C 
BRANCH  18  19
HETATM   19  C9  UNL     1     -27.324  -3.281 -15.752  1.00  0.00     0.005 C 
BRANCH  19  20
HETATM   20  C10 UNL     1     -27.015  -2.683 -17.078  1.00  0.00     0.002 C 
BRANCH  20  21
HETATM   21  C11 UNL     1     -25.708  -2.008 -17.217  1.00  0.00     0.026 C 
BRANCH  21  22
HETATM   22  C12 UNL     1     -25.713  -0.572 -17.605  1.00  0.00     0.164 C 
BRANCH  22  23
HETATM   23  O1  UNL     1     -24.812   0.189 -16.891  1.00  0.00    -0.401 OA
ATOM     24  H1  UNL     1     -24.232   0.702 -17.443  1.00  0.00     0.209 HD
ENDBRANCH  22  23
ENDBRANCH  21  22
ENDBRANCH  20  21
ENDBRANCH  19  20
ENDBRANCH  18  19
ENDBRANCH  17  18
ENDBRANCH  15  17
ENDBRANCH  12  15
BRANCH   1  25
HETATM   25  N1  UNL     1     -31.435  -1.723 -13.947  1.00  0.00    -0.234 N 
ATOM     26  H12 UNL     1     -31.876  -1.777 -13.029  1.00  0.00     0.174 HD
ATOM     27  H11 UNL     1     -31.594  -2.323 -14.757  1.00  0.00     0.174 HD
ENDBRANCH   1  25
TORSDOF 9
ENDMDL
