MODEL 1
REMARK VINA RESULT: -3.905013435      0.000      0.000
REMARK  7 active torsions:
REMARK  status: ('A' for Active; 'I' for Inactive)
REMARK    1  A    between atoms: O1_1  and  C1_3 
REMARK    2  A    between atoms: C1_3  and  C2_4 
REMARK    3  A    between atoms: C2_4  and  C3_5 
REMARK    4  A    between atoms: C6_8  and  C7_9 
REMARK    5  A    between atoms: C7_9  and  C8_10 
REMARK    6  A    between atoms: C9_17  and  N4_18 
REMARK    7  A    between atoms: N4_18  and  C10_20 
ROOT
HETATM    1  C8  UNL     1     -25.318   3.596 -23.104  1.00  0.00     0.076 A 
HETATM    2  N1  UNL     1     -25.889   2.495 -23.680  1.00  0.00    -0.286 N 
ATOM      3  H1  UNL     1     -25.711   1.520 -23.438  1.00  0.00     0.188 HD
HETATM    4  N2  UNL     1     -26.704   2.934 -24.599  1.00  0.00    -0.241 N 
ATOM      5  H2  UNL     1     -27.277   2.345 -25.203  1.00  0.00     0.208 HD
HETATM    6  N3  UNL     1     -26.674   4.260 -24.630  1.00  0.00    -0.270 N 
ATOM      7  H3  UNL     1     -27.222   4.844 -25.262  1.00  0.00     0.190 HD
HETATM    8  C9  UNL     1     -25.817   4.718 -23.710  1.00  0.00     0.142 A 
ENDROOT
BRANCH   1   9
HETATM    9  C7  UNL     1     -24.367   3.511 -21.979  1.00  0.00     0.101 C 
BRANCH   9  10
HETATM   10  C6  UNL     1     -23.002   3.946 -22.266  1.00  0.00    -0.052 A 
HETATM   11  C5  UNL     1     -22.442   3.592 -23.506  1.00  0.00     0.008 A 
HETATM   12  C4  UNL     1     -21.161   4.006 -23.801  1.00  0.00     0.007 A 
HETATM   13  C3  UNL     1     -20.410   4.756 -22.914  1.00  0.00    -0.056 A 
HETATM   14  C14 UNL     1     -20.954   5.097 -21.713  1.00  0.00     0.007 A 
HETATM   15  C13 UNL     1     -22.250   4.691 -21.393  1.00  0.00     0.008 A 
BRANCH  13  16
HETATM   16  C2  UNL     1     -19.036   5.198 -23.260  1.00  0.00     0.064 C 
BRANCH  16  17
HETATM   17  C1  UNL     1     -18.920   6.702 -23.309  1.00  0.00     0.168 C 
BRANCH  17  18
HETATM   18  O1  UNL     1     -20.131   7.164 -23.847  1.00  0.00    -0.401 OA
ATOM     19  H1  UNL     1     -19.898   7.656 -24.626  1.00  0.00     0.209 HD
ENDBRANCH  17  18
ENDBRANCH  16  17
ENDBRANCH  13  16
ENDBRANCH   9  10
ENDBRANCH   1   9
BRANCH   8  20
HETATM   20  N4  UNL     1     -25.486   6.055 -23.457  1.00  0.00    -0.366 N 
ATOM     21  H4  UNL     1     -26.274   6.678 -23.283  1.00  0.00     0.161 HD
BRANCH  20  22
HETATM   22  C10 UNL     1     -24.198   6.662 -23.408  1.00  0.00     0.134 C 
HETATM   23  C11 UNL     1     -24.117   8.135 -23.220  1.00  0.00     0.259 C 
HETATM   24  N5  UNL     1     -23.103   8.211 -24.243  1.00  0.00    -0.071 N 
HETATM   25  C12 UNL     1     -23.405   6.854 -24.637  1.00  0.00     0.259 C 
ATOM     26  H52 UNL     1     -23.129   8.962 -24.933  1.00  0.00     0.277 HD
ATOM     27  H51 UNL     1     -22.148   8.471 -23.997  1.00  0.00     0.277 HD
ENDBRANCH  20  22
ENDBRANCH   8  20
TORSDOF 7
ENDMDL
MODEL 2
REMARK VINA RESULT: -3.749990177      2.577      5.220
REMARK  7 active torsions:
REMARK  status: ('A' for Active; 'I' for Inactive)
REMARK    1  A    between atoms: O1_1  and  C1_3 
REMARK    2  A    between atoms: C1_3  and  C2_4 
REMARK    3  A    between atoms: C2_4  and  C3_5 
REMARK    4  A    between atoms: C6_8  and  C7_9 
REMARK    5  A    between atoms: C7_9  and  C8_10 
REMARK    6  A    between atoms: C9_17  and  N4_18 
REMARK    7  A    between atoms: N4_18  and  C10_20 
ROOT
HETATM    1  C8  UNL     1     -20.451   5.595 -22.616  1.00  0.00     0.076 A 
HETATM    2  N1  UNL     1     -19.522   5.668 -21.616  1.00  0.00    -0.286 N 
ATOM      3  H1  UNL     1     -18.958   4.899 -21.253  1.00  0.00     0.188 HD
HETATM    4  N2  UNL     1     -19.496   6.909 -21.218  1.00  0.00    -0.241 N 
ATOM      5  H2  UNL     1     -18.897   7.275 -20.479  1.00  0.00     0.208 HD
HETATM    6  N3  UNL     1     -20.366   7.624 -21.919  1.00  0.00    -0.270 N 
ATOM      7  H3  UNL     1     -20.535   8.624 -21.800  1.00  0.00     0.190 HD
HETATM    8  C9  UNL     1     -20.989   6.841 -22.807  1.00  0.00     0.142 A 
ENDROOT
BRANCH   1   9
HETATM    9  C7  UNL     1     -20.736   4.353 -23.359  1.00  0.00     0.101 C 
BRANCH   9  10
HETATM   10  C6  UNL     1     -22.138   3.943 -23.399  1.00  0.00    -0.052 A 
HETATM   11  C5  UNL     1     -22.870   3.970 -22.198  1.00  0.00     0.008 A 
HETATM   12  C4  UNL     1     -24.197   3.600 -22.218  1.00  0.00     0.007 A 
HETATM   13  C3  UNL     1     -24.830   3.202 -23.382  1.00  0.00    -0.056 A 
HETATM   14  C14 UNL     1     -24.120   3.176 -24.544  1.00  0.00     0.007 A 
HETATM   15  C13 UNL     1     -22.774   3.548 -24.548  1.00  0.00     0.008 A 
BRANCH  13  16
HETATM   16  C2  UNL     1     -26.264   2.819 -23.379  1.00  0.00     0.064 C 
BRANCH  16  17
HETATM   17  C1  UNL     1     -27.046   3.542 -24.449  1.00  0.00     0.168 C 
BRANCH  17  18
HETATM   18  O1  UNL     1     -26.454   4.809 -24.567  1.00  0.00    -0.401 OA
ATOM     19  H1  UNL     1     -27.059   5.417 -24.159  1.00  0.00     0.209 HD
ENDBRANCH  17  18
ENDBRANCH  16  17
ENDBRANCH  13  16
ENDBRANCH   9  10
ENDBRANCH   1   9
BRANCH   8  20
HETATM   20  N4  UNL     1     -21.994   7.217 -23.706  1.00  0.00    -0.366 N 
ATOM     21  H4  UNL     1     -21.720   7.899 -24.413  1.00  0.00     0.161 HD
BRANCH  20  22
HETATM   22  C10 UNL     1     -23.349   6.778 -23.767  1.00  0.00     0.134 C 
HETATM   23  C11 UNL     1     -24.300   7.532 -24.626  1.00  0.00     0.259 C 
HETATM   24  N5  UNL     1     -25.290   7.476 -23.579  1.00  0.00    -0.071 N 
HETATM   25  C12 UNL     1     -24.278   7.031 -22.650  1.00  0.00     0.259 C 
ATOM     26  H52 UNL     1     -25.855   8.298 -23.366  1.00  0.00     0.277 HD
ATOM     27  H51 UNL     1     -26.140   6.927 -23.710  1.00  0.00     0.277 HD
ENDBRANCH  20  22
ENDBRANCH   8  20
TORSDOF 7
ENDMDL
