MODEL 1
REMARK VINA RESULT: -2.430263539      0.000      0.000
REMARK  8 active torsions:
REMARK  status: ('A' for Active; 'I' for Inactive)
REMARK    1  A    between atoms: N1_2  and  C2_4 
REMARK    2  A    between atoms: C3_7  and  N3_8 
REMARK    3  A    between atoms: N4_13  and  C6_14 
REMARK    4  A    between atoms: C6_14  and  C7_15 
REMARK    5  A    between atoms: C7_15  and  C8_16 
REMARK    6  A    between atoms: C8_16  and  C9_17 
REMARK    7  A    between atoms: C9_17  and  C10_18 
REMARK    8  A    between atoms: C10_18  and  C11_19 
ROOT
HETATM    1  C2  UNL     1     -29.548  -1.522 -14.467  1.00  0.00     0.681 A 
HETATM    2  N2  UNL     1     -30.445  -0.566 -14.781  1.00  0.00    -0.177 N 
ATOM      3  H2  UNL     1     -31.365  -0.834 -15.130  1.00  0.00     0.185 HD
HETATM    4  C3  UNL     1     -30.142   0.742 -14.639  1.00  0.00     0.116 A 
HETATM    5  C4  UNL     1     -28.907   1.069 -14.171  1.00  0.00     0.066 A 
HETATM    6  C5  UNL     1     -28.007   0.059 -13.857  1.00  0.00     0.112 A 
HETATM    7  N4  UNL     1     -28.323  -1.237 -14.003  1.00  0.00    -0.193 N 
ENDROOT
BRANCH   7   8
HETATM    8  C6  UNL     1     -27.386  -2.249 -13.676  1.00  0.00     0.147 C 
BRANCH   8   9
HETATM    9  C7  UNL     1     -26.267  -2.433 -14.638  1.00  0.00     0.021 C 
BRANCH   9  10
HETATM   10  C8  UNL     1     -26.743  -3.318 -15.771  1.00  0.00     0.002 C 
BRANCH  10  11
HETATM   11  C9  UNL     1     -27.005  -2.589 -17.048  1.00  0.00     0.007 C 
BRANCH  11  12
HETATM   12  C10 UNL     1     -25.733  -1.782 -17.346  1.00  0.00     0.076 C 
BRANCH  12  13
HETATM   13  C11 UNL     1     -25.991  -0.334 -17.092  1.00  0.00     0.072 C 
HETATM   14  N5  UNL     1     -25.215   0.512 -16.526  1.00  0.00    -0.378 N 
HETATM   15  C12 UNL     1     -25.793   1.826 -16.452  1.00  0.00     0.140 C 
ATOM     16  H5  UNL     1     -24.288   0.279 -16.168  1.00  0.00     0.160 HD
HETATM   17  C13 UNL     1     -27.256   1.565 -16.761  1.00  0.00     0.140 C 
HETATM   18  N6  UNL     1     -27.184   0.298 -17.468  1.00  0.00    -0.378 N 
ATOM     19  H6  UNL     1     -27.877  -0.066 -18.120  1.00  0.00     0.160 HD
ENDBRANCH  12  13
ENDBRANCH  11  12
ENDBRANCH  10  11
ENDBRANCH   9  10
ENDBRANCH   8   9
ENDBRANCH   7   8
BRANCH   1  20
HETATM   20  N1  UNL     1     -29.884  -2.735 -14.619  1.00  0.00    -0.230 N 
HETATM   21  C1  UNL     1     -30.314  -3.341 -15.850  1.00  0.00     0.165 C 
ATOM     22  H1  UNL     1     -29.847  -3.334 -13.794  1.00  0.00     0.177 HD
ENDBRANCH   1  20
BRANCH   4  23
HETATM   23  N3  UNL     1     -31.048   1.605 -14.958  1.00  0.00    -0.385 N 
ATOM     24  H32 UNL     1     -31.997   1.360 -15.240  1.00  0.00     0.157 HD
ATOM     25  H31 UNL     1     -30.792   2.592 -14.924  1.00  0.00     0.157 HD
ENDBRANCH   4  23
TORSDOF 8
ENDMDL
MODEL 2
REMARK VINA RESULT: -1.478045182      1.544      4.252
REMARK  8 active torsions:
REMARK  status: ('A' for Active; 'I' for Inactive)
REMARK    1  A    between atoms: N1_2  and  C2_4 
REMARK    2  A    between atoms: C3_7  and  N3_8 
REMARK    3  A    between atoms: N4_13  and  C6_14 
REMARK    4  A    between atoms: C6_14  and  C7_15 
REMARK    5  A    between atoms: C7_15  and  C8_16 
REMARK    6  A    between atoms: C8_16  and  C9_17 
REMARK    7  A    between atoms: C9_17  and  C10_18 
REMARK    8  A    between atoms: C10_18  and  C11_19 
ROOT
HETATM    1  C2  UNL     1     -26.975  -2.156 -14.679  1.00  0.00     0.681 A 
HETATM    2  N2  UNL     1     -28.117  -2.597 -14.112  1.00  0.00    -0.177 N 
ATOM      3  H2  UNL     1     -28.245  -2.509 -13.105  1.00  0.00     0.185 HD
HETATM    4  C3  UNL     1     -29.091  -3.153 -14.862  1.00  0.00     0.116 A 
HETATM    5  C4  UNL     1     -28.892  -3.257 -16.203  1.00  0.00     0.066 A 
HETATM    6  C5  UNL     1     -27.705  -2.792 -16.754  1.00  0.00     0.112 A 
HETATM    7  N4  UNL     1     -26.744  -2.241 -15.997  1.00  0.00    -0.193 N 
ENDROOT
BRANCH   7   8
HETATM    8  C6  UNL     1     -25.542  -1.775 -16.583  1.00  0.00     0.147 C 
BRANCH   8   9
HETATM    9  C7  UNL     1     -25.683  -0.657 -17.554  1.00  0.00     0.021 C 
BRANCH   9  10
HETATM   10  C8  UNL     1     -26.021   0.606 -16.791  1.00  0.00     0.002 C 
BRANCH  10  11
HETATM   11  C9  UNL     1     -27.447   1.033 -16.918  1.00  0.00     0.007 C 
BRANCH  11  12
HETATM   12  C10 UNL     1     -27.765   1.837 -15.649  1.00  0.00     0.076 C 
BRANCH  12  13
HETATM   13  C11 UNL     1     -28.941   1.231 -14.957  1.00  0.00     0.072 C 
HETATM   14  N5  UNL     1     -29.630   0.219 -15.326  1.00  0.00    -0.378 N 
HETATM   15  C12 UNL     1     -30.695  -0.086 -14.410  1.00  0.00     0.140 C 
ATOM     16  H5  UNL     1     -29.444  -0.314 -16.176  1.00  0.00     0.160 HD
HETATM   17  C13 UNL     1     -30.775   1.169 -13.561  1.00  0.00     0.140 C 
HETATM   18  N6  UNL     1     -29.451   1.736 -13.753  1.00  0.00    -0.378 N 
ATOM     19  H6  UNL     1     -28.978   2.385 -13.125  1.00  0.00     0.160 HD
ENDBRANCH  12  13
ENDBRANCH  11  12
ENDBRANCH  10  11
ENDBRANCH   9  10
ENDBRANCH   8   9
ENDBRANCH   7   8
BRANCH   1  20
HETATM   20  N1  UNL     1     -26.092  -1.642 -13.929  1.00  0.00    -0.230 N 
HETATM   21  C1  UNL     1     -26.210  -0.396 -13.221  1.00  0.00     0.165 C 
ATOM     22  H1  UNL     1     -25.220  -2.159 -13.817  1.00  0.00     0.177 HD
ENDBRANCH   1  20
BRANCH   4  23
HETATM   23  N3  UNL     1     -30.158  -3.555 -14.255  1.00  0.00    -0.385 N 
ATOM     24  H32 UNL     1     -30.422  -3.269 -13.312  1.00  0.00     0.157 HD
ATOM     25  H31 UNL     1     -30.772  -4.198 -14.755  1.00  0.00     0.157 HD
ENDBRANCH   4  23
TORSDOF 8
ENDMDL
MODEL 3
REMARK VINA RESULT: -1.336702716      1.271      2.169
REMARK  8 active torsions:
REMARK  status: ('A' for Active; 'I' for Inactive)
REMARK    1  A    between atoms: N1_2  and  C2_4 
REMARK    2  A    between atoms: C3_7  and  N3_8 
REMARK    3  A    between atoms: N4_13  and  C6_14 
REMARK    4  A    between atoms: C6_14  and  C7_15 
REMARK    5  A    between atoms: C7_15  and  C8_16 
REMARK    6  A    between atoms: C8_16  and  C9_17 
REMARK    7  A    between atoms: C9_17  and  C10_18 
REMARK    8  A    between atoms: C10_18  and  C11_19 
ROOT
HETATM    1  C2  UNL     1     -28.118  -0.869 -14.167  1.00  0.00     0.681 A 
HETATM    2  N2  UNL     1     -28.634   0.290 -13.710  1.00  0.00    -0.177 N 
ATOM      3  H2  UNL     1     -28.040   0.935 -13.191  1.00  0.00     0.185 HD
HETATM    4  C3  UNL     1     -29.928   0.605 -13.930  1.00  0.00     0.116 A 
HETATM    5  C4  UNL     1     -30.696  -0.276 -14.625  1.00  0.00     0.066 A 
HETATM    6  C5  UNL     1     -30.132  -1.460 -15.082  1.00  0.00     0.112 A 
HETATM    7  N4  UNL     1     -28.844  -1.761 -14.856  1.00  0.00    -0.193 N 
ENDROOT
BRANCH   7   8
HETATM    8  C6  UNL     1     -28.293  -2.976 -15.332  1.00  0.00     0.147 C 
BRANCH   8   9
HETATM    9  C7  UNL     1     -27.748  -2.944 -16.716  1.00  0.00     0.021 C 
BRANCH   9  10
HETATM   10  C8  UNL     1     -26.313  -2.466 -16.659  1.00  0.00     0.002 C 
BRANCH  10  11
HETATM   11  C9  UNL     1     -25.976  -1.421 -17.672  1.00  0.00     0.007 C 
BRANCH  11  12
HETATM   12  C10 UNL     1     -25.301  -0.280 -16.898  1.00  0.00     0.076 C 
BRANCH  12  13
HETATM   13  C11 UNL     1     -26.255   0.860 -16.758  1.00  0.00     0.072 C 
HETATM   14  N5  UNL     1     -26.000   2.049 -16.361  1.00  0.00    -0.378 N 
HETATM   15  C12 UNL     1     -27.167   2.888 -16.351  1.00  0.00     0.140 C 
ATOM     16  H5  UNL     1     -25.071   2.367 -16.082  1.00  0.00     0.160 HD
HETATM   17  C13 UNL     1     -28.300   1.886 -16.476  1.00  0.00     0.140 C 
HETATM   18  N6  UNL     1     -27.618   0.746 -17.063  1.00  0.00    -0.378 N 
ATOM     19  H6  UNL     1     -28.052  -0.004 -17.600  1.00  0.00     0.160 HD
ENDBRANCH  12  13
ENDBRANCH  11  12
ENDBRANCH  10  11
ENDBRANCH   9  10
ENDBRANCH   8   9
ENDBRANCH   7   8
BRANCH   1  20
HETATM   20  N1  UNL     1     -26.897  -1.117 -13.932  1.00  0.00    -0.230 N 
HETATM   21  C1  UNL     1     -26.396  -2.197 -13.127  1.00  0.00     0.165 C 
ATOM     22  H1  UNL     1     -26.208  -0.493 -14.353  1.00  0.00     0.177 HD
ENDBRANCH   1  20
BRANCH   4  23
HETATM   23  N3  UNL     1     -30.357   1.731 -13.464  1.00  0.00    -0.385 N 
ATOM     24  H32 UNL     1     -29.759   2.531 -13.262  1.00  0.00     0.157 HD
ATOM     25  H31 UNL     1     -31.358   1.819 -13.290  1.00  0.00     0.157 HD
ENDBRANCH   4  23
TORSDOF 8
ENDMDL
MODEL 4
REMARK VINA RESULT: -1.129965455      1.680      3.973
REMARK  8 active torsions:
REMARK  status: ('A' for Active; 'I' for Inactive)
REMARK    1  A    between atoms: N1_2  and  C2_4 
REMARK    2  A    between atoms: C3_7  and  N3_8 
REMARK    3  A    between atoms: N4_13  and  C6_14 
REMARK    4  A    between atoms: C6_14  and  C7_15 
REMARK    5  A    between atoms: C7_15  and  C8_16 
REMARK    6  A    between atoms: C8_16  and  C9_17 
REMARK    7  A    between atoms: C9_17  and  C10_18 
REMARK    8  A    between atoms: C10_18  and  C11_19 
ROOT
HETATM    1  C2  UNL     1     -27.216  -2.593 -15.752  1.00  0.00     0.681 A 
HETATM    2  N2  UNL     1     -28.310  -3.259 -16.177  1.00  0.00    -0.177 N 
ATOM      3  H2  UNL     1     -28.231  -3.912 -16.956  1.00  0.00     0.185 HD
HETATM    4  C3  UNL     1     -29.508  -3.071 -15.583  1.00  0.00     0.116 A 
HETATM    5  C4  UNL     1     -29.582  -2.194 -14.547  1.00  0.00     0.066 A 
HETATM    6  C5  UNL     1     -28.437  -1.526 -14.135  1.00  0.00     0.112 A 
HETATM    7  N4  UNL     1     -27.252  -1.722 -14.734  1.00  0.00    -0.193 N 
ENDROOT
BRANCH   7   8
HETATM    8  C6  UNL     1     -26.098  -1.027 -14.295  1.00  0.00     0.147 C 
BRANCH   8   9
HETATM    9  C7  UNL     1     -26.126   0.450 -14.463  1.00  0.00     0.021 C 
BRANCH   9  10
HETATM   10  C8  UNL     1     -25.985   0.772 -15.936  1.00  0.00     0.002 C 
BRANCH  10  11
HETATM   11  C9  UNL     1     -27.280   1.037 -16.631  1.00  0.00     0.007 C 
BRANCH  11  12
HETATM   12  C10 UNL     1     -27.878   2.280 -15.957  1.00  0.00     0.076 C 
BRANCH  12  13
HETATM   13  C11 UNL     1     -29.067   1.885 -15.147  1.00  0.00     0.072 C 
HETATM   14  N5  UNL     1     -29.110   1.629 -13.894  1.00  0.00    -0.378 N 
HETATM   15  C12 UNL     1     -30.432   1.280 -13.448  1.00  0.00     0.140 C 
ATOM     16  H5  UNL     1     -28.297   1.669 -13.279  1.00  0.00     0.160 HD
HETATM   17  C13 UNL     1     -31.162   1.007 -14.750  1.00  0.00     0.140 C 
HETATM   18  N6  UNL     1     -30.345   1.740 -15.702  1.00  0.00    -0.378 N 
ATOM     19  H6  UNL     1     -30.648   2.088 -16.612  1.00  0.00     0.160 HD
ENDBRANCH  12  13
ENDBRANCH  11  12
ENDBRANCH  10  11
ENDBRANCH   9  10
ENDBRANCH   8   9
ENDBRANCH   7   8
BRANCH   1  20
HETATM   20  N1  UNL     1     -26.116  -2.807 -16.344  1.00  0.00    -0.230 N 
HETATM   21  C1  UNL     1     -25.639  -2.114 -17.511  1.00  0.00     0.165 C 
ATOM     22  H1  UNL     1     -25.515  -3.535 -15.958  1.00  0.00     0.177 HD
ENDBRANCH   1  20
BRANCH   4  23
HETATM   23  N3  UNL     1     -30.513  -3.741 -16.040  1.00  0.00    -0.385 N 
ATOM     24  H32 UNL     1     -31.484  -3.436 -15.968  1.00  0.00     0.157 HD
ATOM     25  H31 UNL     1     -30.319  -4.630 -16.501  1.00  0.00     0.157 HD
ENDBRANCH   4  23
TORSDOF 8
ENDMDL
MODEL 5
REMARK VINA RESULT: -1.067199532      1.152      2.096
REMARK  8 active torsions:
REMARK  status: ('A' for Active; 'I' for Inactive)
REMARK    1  A    between atoms: N1_2  and  C2_4 
REMARK    2  A    between atoms: C3_7  and  N3_8 
REMARK    3  A    between atoms: N4_13  and  C6_14 
REMARK    4  A    between atoms: C6_14  and  C7_15 
REMARK    5  A    between atoms: C7_15  and  C8_16 
REMARK    6  A    between atoms: C8_16  and  C9_17 
REMARK    7  A    between atoms: C9_17  and  C10_18 
REMARK    8  A    between atoms: C10_18  and  C11_19 
ROOT
HETATM    1  C2  UNL     1     -28.405  -0.925 -14.137  1.00  0.00     0.681 A 
HETATM    2  N2  UNL     1     -28.685   0.334 -13.742  1.00  0.00    -0.177 N 
ATOM      3  H2  UNL     1     -27.957   0.898 -13.305  1.00  0.00     0.185 HD
HETATM    4  C3  UNL     1     -29.917   0.856 -13.917  1.00  0.00     0.116 A 
HETATM    5  C4  UNL     1     -30.868   0.079 -14.502  1.00  0.00     0.066 A 
HETATM    6  C5  UNL     1     -30.546  -1.212 -14.898  1.00  0.00     0.112 A 
HETATM    7  N4  UNL     1     -29.317  -1.719 -14.717  1.00  0.00    -0.193 N 
ENDROOT
BRANCH   7   8
HETATM    8  C6  UNL     1     -29.013  -3.040 -15.129  1.00  0.00     0.147 C 
BRANCH   8   9
HETATM    9  C7  UNL     1     -28.291  -3.167 -16.423  1.00  0.00     0.021 C 
BRANCH   9  10
HETATM   10  C8  UNL     1     -26.851  -3.541 -16.139  1.00  0.00     0.002 C 
BRANCH  10  11
HETATM   11  C9  UNL     1     -25.857  -2.509 -16.560  1.00  0.00     0.007 C 
BRANCH  11  12
HETATM   12  C10 UNL     1     -26.578  -1.615 -17.580  1.00  0.00     0.076 C 
BRANCH  12  13
HETATM   13  C11 UNL     1     -26.471  -0.188 -17.155  1.00  0.00     0.072 C 
HETATM   14  N5  UNL     1     -25.414   0.452 -16.823  1.00  0.00    -0.378 N 
HETATM   15  C12 UNL     1     -25.686   1.819 -16.469  1.00  0.00     0.140 C 
ATOM     16  H5  UNL     1     -24.481   0.039 -16.812  1.00  0.00     0.160 HD
HETATM   17  C13 UNL     1     -27.193   1.823 -16.289  1.00  0.00     0.140 C 
HETATM   18  N6  UNL     1     -27.583   0.659 -17.066  1.00  0.00    -0.378 N 
ATOM     19  H6  UNL     1     -28.502   0.489 -17.473  1.00  0.00     0.160 HD
ENDBRANCH  12  13
ENDBRANCH  11  12
ENDBRANCH  10  11
ENDBRANCH   9  10
ENDBRANCH   8   9
ENDBRANCH   7   8
BRANCH   1  20
HETATM   20  N1  UNL     1     -27.232  -1.366 -13.949  1.00  0.00    -0.230 N 
HETATM   21  C1  UNL     1     -26.125  -0.617 -13.420  1.00  0.00     0.165 C 
ATOM     22  H1  UNL     1     -27.057  -2.341 -14.195  1.00  0.00     0.177 HD
ENDBRANCH   1  20
BRANCH   4  23
HETATM   23  N3  UNL     1     -30.117   2.067 -13.515  1.00  0.00    -0.385 N 
ATOM     24  H32 UNL     1     -29.371   2.720 -13.275  1.00  0.00     0.157 HD
ATOM     25  H31 UNL     1     -31.083   2.384 -13.435  1.00  0.00     0.157 HD
ENDBRANCH   4  23
TORSDOF 8
ENDMDL
