MODEL 1
REMARK VINA RESULT: -5.093004094      0.000      0.000
REMARK  3 active torsions:
REMARK  status: ('A' for Active; 'I' for Inactive)
REMARK    1  A    between atoms: C2_2  and  O1_3 
REMARK    2  A    between atoms: O1_3  and  C3_4 
REMARK    3  A    between atoms: C3_4  and  C4_5 
ROOT
HETATM    1  C4  UNL     1      -9.020 -32.521  17.532  1.00  0.00     0.210 C 
HETATM    2  C5  UNL     1     -10.275 -31.773  17.999  1.00  0.00     0.037 C 
HETATM    3  C6  UNL     1     -10.360 -32.054  19.462  1.00  0.00     0.029 C 
HETATM    4  C7  UNL     1      -9.287 -33.082  19.759  1.00  0.00     0.233 C 
HETATM    5  N1  UNL     1      -8.895 -33.607  18.454  1.00  0.00    -0.069 N 
ATOM      6  H11 UNL     1      -7.970 -34.036  18.451  1.00  0.00     0.277 HD
ATOM      7  H12 UNL     1      -9.418 -34.437  18.176  1.00  0.00     0.277 HD
ENDROOT
BRANCH   1   8
HETATM    8  C3  UNL     1      -9.276 -32.955  16.110  1.00  0.00     0.207 C 
BRANCH   8   9
HETATM    9  O1  UNL     1      -9.549 -31.905  15.237  1.00  0.00    -0.362 OA
BRANCH   9  10
HETATM   10  C2  UNL     1      -8.541 -31.350  14.477  1.00  0.00     0.124 C 
HETATM   11  C1  UNL     1      -8.343 -30.058  14.418  1.00  0.00     0.037 C 
ENDBRANCH   9  10
ENDBRANCH   8   9
ENDBRANCH   1   8
TORSDOF 3
ENDMDL
MODEL 2
REMARK VINA RESULT: -5.077574151      1.460      1.771
REMARK  3 active torsions:
REMARK  status: ('A' for Active; 'I' for Inactive)
REMARK    1  A    between atoms: C2_2  and  O1_3 
REMARK    2  A    between atoms: O1_3  and  C3_4 
REMARK    3  A    between atoms: C3_4  and  C4_5 
ROOT
HETATM    1  C4  UNL     1      -9.554 -33.223  16.926  1.00  0.00     0.210 C 
HETATM    2  C5  UNL     1      -9.011 -32.285  18.011  1.00  0.00     0.037 C 
HETATM    3  C6  UNL     1     -10.211 -31.546  18.505  1.00  0.00     0.029 C 
HETATM    4  C7  UNL     1     -11.355 -31.933  17.588  1.00  0.00     0.233 C 
HETATM    5  N1  UNL     1     -10.717 -32.555  16.431  1.00  0.00    -0.069 N 
ATOM      6  H11 UNL     1     -11.342 -33.165  15.904  1.00  0.00     0.277 HD
ATOM      7  H12 UNL     1     -10.517 -31.899  15.677  1.00  0.00     0.277 HD
ENDROOT
BRANCH   1   8
HETATM    8  C3  UNL     1      -8.459 -33.382  15.900  1.00  0.00     0.207 C 
BRANCH   8   9
HETATM    9  O1  UNL     1      -7.717 -32.225  15.678  1.00  0.00    -0.362 OA
BRANCH   9  10
HETATM   10  C2  UNL     1      -7.834 -31.540  14.486  1.00  0.00     0.124 C 
HETATM   11  C1  UNL     1      -8.418 -30.373  14.407  1.00  0.00     0.037 C 
ENDBRANCH   9  10
ENDBRANCH   8   9
ENDBRANCH   1   8
TORSDOF 3
ENDMDL
MODEL 3
REMARK VINA RESULT: -4.942340219      1.026      1.394
REMARK  3 active torsions:
REMARK  status: ('A' for Active; 'I' for Inactive)
REMARK    1  A    between atoms: C2_2  and  O1_3 
REMARK    2  A    between atoms: O1_3  and  C3_4 
REMARK    3  A    between atoms: C3_4  and  C4_5 
ROOT
HETATM    1  C4  UNL     1      -9.760 -32.813  17.164  1.00  0.00     0.210 C 
HETATM    2  C5  UNL     1      -8.869 -33.441  18.243  1.00  0.00     0.037 C 
HETATM    3  C6  UNL     1      -9.264 -32.753  19.507  1.00  0.00     0.029 C 
HETATM    4  C7  UNL     1     -10.216 -31.643  19.105  1.00  0.00     0.233 C 
HETATM    5  N1  UNL     1     -10.046 -31.504  17.662  1.00  0.00    -0.069 N 
ATOM      6  H11 UNL     1     -10.840 -31.060  17.201  1.00  0.00     0.277 HD
ATOM      7  H12 UNL     1      -9.347 -30.809  17.401  1.00  0.00     0.277 HD
ENDROOT
BRANCH   1   8
HETATM    8  C3  UNL     1      -8.962 -32.818  15.883  1.00  0.00     0.207 C 
BRANCH   8   9
HETATM    9  O1  UNL     1      -9.334 -31.827  14.979  1.00  0.00    -0.362 OA
BRANCH   9  10
HETATM   10  C2  UNL     1      -8.377 -31.164  14.238  1.00  0.00     0.124 C 
HETATM   11  C1  UNL     1      -8.203 -29.870  14.324  1.00  0.00     0.037 C 
ENDBRANCH   9  10
ENDBRANCH   8   9
ENDBRANCH   1   8
TORSDOF 3
ENDMDL
MODEL 4
REMARK VINA RESULT: -4.935259305      1.909      4.235
REMARK  3 active torsions:
REMARK  status: ('A' for Active; 'I' for Inactive)
REMARK    1  A    between atoms: C2_2  and  O1_3 
REMARK    2  A    between atoms: O1_3  and  C3_4 
REMARK    3  A    between atoms: C3_4  and  C4_5 
ROOT
HETATM    1  C4  UNL     1      -9.027 -32.933  15.860  1.00  0.00     0.210 C 
HETATM    2  C5  UNL     1      -9.768 -31.591  15.825  1.00  0.00     0.037 C 
HETATM    3  C6  UNL     1      -9.127 -30.835  14.709  1.00  0.00     0.029 C 
HETATM    4  C7  UNL     1      -7.940 -31.665  14.261  1.00  0.00     0.233 C 
HETATM    5  N1  UNL     1      -7.732 -32.634  15.333  1.00  0.00    -0.069 N 
ATOM      6  H11 UNL     1      -7.214 -33.461  15.036  1.00  0.00     0.277 HD
ATOM      7  H12 UNL     1      -7.069 -32.320  16.041  1.00  0.00     0.277 HD
ENDROOT
BRANCH   1   8
HETATM    8  C3  UNL     1      -9.011 -33.384  17.300  1.00  0.00     0.207 C 
BRANCH   8   9
HETATM    9  O1  UNL     1      -8.223 -32.594  18.133  1.00  0.00    -0.362 OA
BRANCH   9  10
HETATM   10  C2  UNL     1      -8.491 -32.522  19.485  1.00  0.00     0.124 C 
HETATM   11  C1  UNL     1      -9.431 -33.238  20.047  1.00  0.00     0.037 C 
ENDBRANCH   9  10
ENDBRANCH   8   9
ENDBRANCH   1   8
TORSDOF 3
ENDMDL
MODEL 5
REMARK VINA RESULT: -4.924827245      2.016      4.487
REMARK  3 active torsions:
REMARK  status: ('A' for Active; 'I' for Inactive)
REMARK    1  A    between atoms: C2_2  and  O1_3 
REMARK    2  A    between atoms: O1_3  and  C3_4 
REMARK    3  A    between atoms: C3_4  and  C4_5 
ROOT
HETATM    1  C4  UNL     1      -8.893 -32.071  16.260  1.00  0.00     0.210 C 
HETATM    2  C5  UNL     1      -7.841 -32.651  15.306  1.00  0.00     0.037 C 
HETATM    3  C6  UNL     1      -7.749 -31.657  14.196  1.00  0.00     0.029 C 
HETATM    4  C7  UNL     1      -8.855 -30.648  14.437  1.00  0.00     0.233 C 
HETATM    5  N1  UNL     1      -9.734 -31.280  15.417  1.00  0.00    -0.069 N 
ATOM      6  H11 UNL     1     -10.312 -30.614  15.931  1.00  0.00     0.277 HD
ATOM      7  H12 UNL     1     -10.498 -31.808  14.996  1.00  0.00     0.277 HD
ENDROOT
BRANCH   1   8
HETATM    8  C3  UNL     1      -9.597 -33.244  16.897  1.00  0.00     0.207 C 
BRANCH   8   9
HETATM    9  O1  UNL     1      -8.867 -33.861  17.909  1.00  0.00    -0.362 OA
BRANCH   9  10
HETATM   10  C2  UNL     1      -8.663 -33.218  19.113  1.00  0.00     0.124 C 
HETATM   11  C1  UNL     1      -9.542 -33.256  20.081  1.00  0.00     0.037 C 
ENDBRANCH   9  10
ENDBRANCH   8   9
ENDBRANCH   1   8
TORSDOF 3
ENDMDL
