MODEL 1
REMARK VINA RESULT: -4.996414501      0.000      0.000
REMARK  3 active torsions:
REMARK  status: ('A' for Active; 'I' for Inactive)
REMARK    1  A    between atoms: C2_2  and  C3_3 
REMARK    2  A    between atoms: C3_3  and  O1_4 
REMARK    3  A    between atoms: O1_4  and  C4_5 
ROOT
HETATM    1  C4  UNL     1      -9.356 -32.097  15.570  1.00  0.00     0.158 A 
HETATM    2  C5  UNL     1      -8.059 -32.452  15.216  1.00  0.00     0.076 A 
HETATM    3  C6  UNL     1      -7.625 -31.495  14.322  1.00  0.00     0.111 A 
HETATM    4  N1  UNL     1      -8.636 -30.612  14.162  1.00  0.00    -0.310 N 
ATOM      5  H1  UNL     1      -8.606 -29.791  13.556  1.00  0.00     0.186 HD
HETATM    6  N2  UNL     1      -9.661 -30.964  14.898  1.00  0.00    -0.280 N 
ATOM      7  H2  UNL     1     -10.548 -30.462  14.956  1.00  0.00     0.189 HD
ENDROOT
BRANCH   1   8
HETATM    8  O1  UNL     1     -10.157 -32.806  16.457  1.00  0.00    -0.331 OA
BRANCH   8   9
HETATM    9  C3  UNL     1     -11.096 -32.139  17.269  1.00  0.00     0.204 C 
BRANCH   9  10
HETATM   10  C2  UNL     1     -10.572 -31.902  18.632  1.00  0.00    -0.011 C 
HETATM   11  C1  UNL     1     -10.155 -30.706  18.983  1.00  0.00     0.009 C 
ENDBRANCH   9  10
ENDBRANCH   8   9
ENDBRANCH   1   8
TORSDOF 3
ENDMDL
MODEL 2
REMARK VINA RESULT: -4.985556801      2.626      4.419
REMARK  3 active torsions:
REMARK  status: ('A' for Active; 'I' for Inactive)
REMARK    1  A    between atoms: C2_2  and  C3_3 
REMARK    2  A    between atoms: C3_3  and  O1_4 
REMARK    3  A    between atoms: O1_4  and  C4_5 
ROOT
HETATM    1  C4  UNL     1      -9.558 -32.341  18.195  1.00  0.00     0.158 A 
HETATM    2  C5  UNL     1     -10.179 -32.193  19.429  1.00  0.00     0.076 A 
HETATM    3  C6  UNL     1      -9.751 -33.247  20.208  1.00  0.00     0.111 A 
HETATM    4  N1  UNL     1      -8.907 -33.985  19.451  1.00  0.00    -0.310 N 
ATOM      5  H1  UNL     1      -8.432 -34.832  19.762  1.00  0.00     0.186 HD
HETATM    6  N2  UNL     1      -8.790 -33.452  18.260  1.00  0.00    -0.280 N 
ATOM      7  H2  UNL     1      -8.211 -33.817  17.503  1.00  0.00     0.189 HD
ENDROOT
BRANCH   1   8
HETATM    8  O1  UNL     1      -9.724 -31.479  17.117  1.00  0.00    -0.331 OA
BRANCH   8   9
HETATM    9  C3  UNL     1      -9.708 -31.968  15.795  1.00  0.00     0.204 C 
BRANCH   9  10
HETATM   10  C2  UNL     1      -8.533 -31.478  15.043  1.00  0.00    -0.011 C 
HETATM   11  C1  UNL     1      -8.542 -30.277  14.508  1.00  0.00     0.009 C 
ENDBRANCH   9  10
ENDBRANCH   8   9
ENDBRANCH   1   8
TORSDOF 3
ENDMDL
MODEL 3
REMARK VINA RESULT: -4.965754741      1.439      1.530
REMARK  3 active torsions:
REMARK  status: ('A' for Active; 'I' for Inactive)
REMARK    1  A    between atoms: C2_2  and  C3_3 
REMARK    2  A    between atoms: C3_3  and  O1_4 
REMARK    3  A    between atoms: O1_4  and  C4_5 
ROOT
HETATM    1  C4  UNL     1      -9.818 -32.563  16.042  1.00  0.00     0.158 A 
HETATM    2  C5  UNL     1      -9.427 -31.424  15.348  1.00  0.00     0.076 A 
HETATM    3  C6  UNL     1      -8.119 -31.632  14.964  1.00  0.00     0.111 A 
HETATM    4  N1  UNL     1      -7.760 -32.854  15.420  1.00  0.00    -0.310 N 
ATOM      5  H1  UNL     1      -6.844 -33.282  15.288  1.00  0.00     0.186 HD
HETATM    6  N2  UNL     1      -8.762 -33.407  16.058  1.00  0.00    -0.280 N 
ATOM      7  H2  UNL     1      -8.748 -34.329  16.496  1.00  0.00     0.189 HD
ENDROOT
BRANCH   1   8
HETATM    8  O1  UNL     1     -11.075 -32.757  16.602  1.00  0.00    -0.331 OA
BRANCH   8   9
HETATM    9  C3  UNL     1     -11.561 -31.890  17.601  1.00  0.00     0.204 C 
BRANCH   9  10
HETATM   10  C2  UNL     1     -10.637 -31.810  18.753  1.00  0.00    -0.011 C 
HETATM   11  C1  UNL     1     -10.118 -30.656  19.108  1.00  0.00     0.009 C 
ENDBRANCH   9  10
ENDBRANCH   8   9
ENDBRANCH   1   8
TORSDOF 3
ENDMDL
MODEL 4
REMARK VINA RESULT: -4.943733033      0.897      1.114
REMARK  3 active torsions:
REMARK  status: ('A' for Active; 'I' for Inactive)
REMARK    1  A    between atoms: C2_2  and  C3_3 
REMARK    2  A    between atoms: C3_3  and  O1_4 
REMARK    3  A    between atoms: O1_4  and  C4_5 
ROOT
HETATM    1  C4  UNL     1      -9.876 -32.374  16.094  1.00  0.00     0.158 A 
HETATM    2  C5  UNL     1      -8.755 -33.190  16.009  1.00  0.00     0.076 A 
HETATM    3  C6  UNL     1      -7.880 -32.560  15.148  1.00  0.00     0.111 A 
HETATM    4  N1  UNL     1      -8.474 -31.413  14.747  1.00  0.00    -0.310 N 
ATOM      5  H1  UNL     1      -8.064 -30.736  14.104  1.00  0.00     0.186 HD
HETATM    6  N2  UNL     1      -9.654 -31.299  15.305  1.00  0.00    -0.280 N 
ATOM      7  H2  UNL     1     -10.302 -30.523  15.165  1.00  0.00     0.189 HD
ENDROOT
BRANCH   1   8
HETATM    8  O1  UNL     1     -10.999 -32.649  16.866  1.00  0.00    -0.331 OA
BRANCH   8   9
HETATM    9  C3  UNL     1     -11.420 -31.756  17.871  1.00  0.00     0.204 C 
BRANCH   9  10
HETATM   10  C2  UNL     1     -10.384 -31.574  18.911  1.00  0.00    -0.011 C 
HETATM   11  C1  UNL     1     -10.109 -32.549  19.749  1.00  0.00     0.009 C 
ENDBRANCH   9  10
ENDBRANCH   8   9
ENDBRANCH   1   8
TORSDOF 3
ENDMDL
MODEL 5
REMARK VINA RESULT: -4.872866018      1.099      1.330
REMARK  3 active torsions:
REMARK  status: ('A' for Active; 'I' for Inactive)
REMARK    1  A    between atoms: C2_2  and  C3_3 
REMARK    2  A    between atoms: C3_3  and  O1_4 
REMARK    3  A    between atoms: O1_4  and  C4_5 
ROOT
HETATM    1  C4  UNL     1      -9.242 -32.074  15.728  1.00  0.00     0.158 A 
HETATM    2  C5  UNL     1      -8.047 -32.570  15.220  1.00  0.00     0.076 A 
HETATM    3  C6  UNL     1      -7.715 -31.763  14.151  1.00  0.00     0.111 A 
HETATM    4  N1  UNL     1      -8.686 -30.827  14.043  1.00  0.00    -0.310 N 
ATOM      5  H1  UNL     1      -8.710 -30.089  13.339  1.00  0.00     0.186 HD
HETATM    6  N2  UNL     1      -9.590 -31.007  14.974  1.00  0.00    -0.280 N 
ATOM      7  H2  UNL     1     -10.423 -30.434  15.108  1.00  0.00     0.189 HD
ENDROOT
BRANCH   1   8
HETATM    8  O1  UNL     1      -9.921 -32.607  16.818  1.00  0.00    -0.331 OA
BRANCH   8   9
HETATM    9  C3  UNL     1      -9.969 -31.917  18.044  1.00  0.00     0.204 C 
BRANCH   9  10
HETATM   10  C2  UNL     1      -8.892 -32.351  18.961  1.00  0.00    -0.011 C 
HETATM   11  C1  UNL     1      -8.794 -33.613  19.317  1.00  0.00     0.009 C 
ENDBRANCH   9  10
ENDBRANCH   8   9
ENDBRANCH   1   8
TORSDOF 3
ENDMDL
