MODEL 1
REMARK VINA RESULT: -5.916220426      0.000      0.000
REMARK  2 active torsions:
REMARK  status: ('A' for Active; 'I' for Inactive)
REMARK    1  A    between atoms: C2_2  and  C3_3 
REMARK    2  A    between atoms: C3_3  and  C4_4 
ROOT
HETATM    1  C4  UNL     1      -9.145 -31.913  15.671  1.00  0.00     0.109 A 
HETATM    2  N1  UNL     1      -8.106 -32.569  15.105  1.00  0.00    -0.339 N 
ATOM      3  H1  UNL     1      -7.679 -33.423  15.466  1.00  0.00     0.168 HD
HETATM    4  C5  UNL     1      -7.729 -31.925  14.007  1.00  0.00     0.198 A 
HETATM    5  N2  UNL     1      -8.555 -30.858  13.906  1.00  0.00    -0.295 N 
ATOM      6  H2  UNL     1      -8.524 -30.160  13.163  1.00  0.00     0.187 HD
HETATM    7  N3  UNL     1      -9.415 -30.857  14.924  1.00  0.00    -0.287 N 
ATOM      8  H3  UNL     1     -10.147 -30.168  15.095  1.00  0.00     0.188 HD
ENDROOT
BRANCH   1   9
HETATM    9  C3  UNL     1      -9.785 -32.408  16.932  1.00  0.00     0.037 A 
HETATM   10  C6  UNL     1     -10.826 -31.603  17.600  1.00  0.00     0.023 A 
HETATM   11  C7  UNL     1     -11.251 -32.722  16.746  1.00  0.00     0.023 A 
BRANCH   9  12
HETATM   12  C2  UNL     1      -8.943 -33.368  17.670  1.00  0.00    -0.020 C 
HETATM   13  C1  UNL     1      -8.632 -33.188  18.937  1.00  0.00     0.008 C 
ENDBRANCH   9  12
ENDBRANCH   1   9
TORSDOF 2
ENDMDL
MODEL 2
REMARK VINA RESULT: -5.690694723      0.655      1.162
REMARK  2 active torsions:
REMARK  status: ('A' for Active; 'I' for Inactive)
REMARK    1  A    between atoms: C2_2  and  C3_3 
REMARK    2  A    between atoms: C3_3  and  C4_4 
ROOT
HETATM    1  C4  UNL     1      -8.951 -32.069  15.859  1.00  0.00     0.109 A 
HETATM    2  N1  UNL     1      -9.147 -30.863  15.275  1.00  0.00    -0.339 N 
ATOM      3  H1  UNL     1      -9.797 -30.148  15.600  1.00  0.00     0.168 HD
HETATM    4  C5  UNL     1      -8.359 -30.760  14.212  1.00  0.00     0.198 A 
HETATM    5  N2  UNL     1      -7.673 -31.926  14.150  1.00  0.00    -0.295 N 
ATOM      6  H2  UNL     1      -6.981 -32.162  13.439  1.00  0.00     0.187 HD
HETATM    7  N3  UNL     1      -8.040 -32.718  15.156  1.00  0.00    -0.287 N 
ATOM      8  H3  UNL     1      -7.683 -33.654  15.350  1.00  0.00     0.188 HD
ENDROOT
BRANCH   1   9
HETATM    9  C3  UNL     1      -9.708 -32.471  17.088  1.00  0.00     0.037 A 
HETATM   10  C6  UNL     1     -10.780 -31.603  17.615  1.00  0.00     0.023 A 
HETATM   11  C7  UNL     1     -11.161 -32.765  16.796  1.00  0.00     0.023 A 
BRANCH   9  12
HETATM   12  C2  UNL     1      -8.957 -33.401  17.951  1.00  0.00    -0.020 C 
HETATM   13  C1  UNL     1      -8.520 -33.044  19.141  1.00  0.00     0.008 C 
ENDBRANCH   9  12
ENDBRANCH   1   9
TORSDOF 2
ENDMDL
MODEL 3
REMARK VINA RESULT: -5.660865607      1.854      2.236
REMARK  2 active torsions:
REMARK  status: ('A' for Active; 'I' for Inactive)
REMARK    1  A    between atoms: C2_2  and  C3_3 
REMARK    2  A    between atoms: C3_3  and  C4_4 
ROOT
HETATM    1  C4  UNL     1      -9.265 -32.649  17.421  1.00  0.00     0.109 A 
HETATM    2  N1  UNL     1      -8.132 -32.093  16.933  1.00  0.00    -0.339 N 
ATOM      3  H1  UNL     1      -7.634 -31.305  17.346  1.00  0.00     0.168 HD
HETATM    4  C5  UNL     1      -7.771 -32.737  15.828  1.00  0.00     0.198 A 
HETATM    5  N2  UNL     1      -8.704 -33.700  15.645  1.00  0.00    -0.295 N 
ATOM      6  H2  UNL     1      -8.712 -34.370  14.876  1.00  0.00     0.187 HD
HETATM    7  N3  UNL     1      -9.611 -33.640  16.619  1.00  0.00    -0.287 N 
ATOM      8  H3  UNL     1     -10.424 -34.247  16.726  1.00  0.00     0.188 HD
ENDROOT
BRANCH   1   9
HETATM    9  C3  UNL     1      -9.912 -32.129  18.668  1.00  0.00     0.037 A 
HETATM   10  C6  UNL     1     -10.144 -30.680  18.834  1.00  0.00     0.023 A 
HETATM   11  C7  UNL     1     -11.269 -31.522  18.400  1.00  0.00     0.023 A 
BRANCH   9  12
HETATM   12  C2  UNL     1      -9.757 -33.035  19.821  1.00  0.00    -0.020 C 
HETATM   13  C1  UNL     1      -8.616 -33.639  20.082  1.00  0.00     0.008 C 
ENDBRANCH   9  12
ENDBRANCH   1   9
TORSDOF 2
ENDMDL
MODEL 4
REMARK VINA RESULT: -5.570253484      1.282      2.665
REMARK  2 active torsions:
REMARK  status: ('A' for Active; 'I' for Inactive)
REMARK    1  A    between atoms: C2_2  and  C3_3 
REMARK    2  A    between atoms: C3_3  and  C4_4 
ROOT
HETATM    1  C4  UNL     1      -8.899 -32.474  17.026  1.00  0.00     0.109 A 
HETATM    2  N1  UNL     1      -8.978 -31.355  16.270  1.00  0.00    -0.339 N 
ATOM      3  H1  UNL     1      -9.329 -30.451  16.587  1.00  0.00     0.168 HD
HETATM    4  C5  UNL     1      -8.526 -31.620  15.050  1.00  0.00     0.198 A 
HETATM    5  N2  UNL     1      -8.168 -32.925  15.068  1.00  0.00    -0.295 N 
ATOM      6  H2  UNL     1      -7.780 -33.438  14.275  1.00  0.00     0.187 HD
HETATM    7  N3  UNL     1      -8.398 -33.439  16.275  1.00  0.00    -0.287 N 
ATOM      8  H3  UNL     1      -8.221 -34.400  16.566  1.00  0.00     0.188 HD
ENDROOT
BRANCH   1   9
HETATM    9  C3  UNL     1      -9.341 -32.480  18.458  1.00  0.00     0.037 A 
HETATM   10  C6  UNL     1      -8.929 -33.576  19.357  1.00  0.00     0.023 A 
HETATM   11  C7  UNL     1      -8.186 -32.308  19.416  1.00  0.00     0.023 A 
BRANCH   9  12
HETATM   12  C2  UNL     1     -10.572 -31.700  18.686  1.00  0.00    -0.020 C 
HETATM   13  C1  UNL     1     -11.646 -31.863  17.941  1.00  0.00     0.008 C 
ENDBRANCH   9  12
ENDBRANCH   1   9
TORSDOF 2
ENDMDL
MODEL 5
REMARK VINA RESULT: -5.402902962      1.334      2.551
REMARK  2 active torsions:
REMARK  status: ('A' for Active; 'I' for Inactive)
REMARK    1  A    between atoms: C2_2  and  C3_3 
REMARK    2  A    between atoms: C3_3  and  C4_4 
ROOT
HETATM    1  C4  UNL     1      -8.946 -32.418  17.174  1.00  0.00     0.109 A 
HETATM    2  N1  UNL     1      -8.559 -33.560  16.559  1.00  0.00    -0.339 N 
ATOM      3  H1  UNL     1      -8.541 -34.485  16.987  1.00  0.00     0.168 HD
HETATM    4  C5  UNL     1      -8.205 -33.283  15.309  1.00  0.00     0.198 A 
HETATM    5  N2  UNL     1      -8.381 -31.949  15.166  1.00  0.00    -0.295 N 
ATOM      6  H2  UNL     1      -8.195 -31.420  14.313  1.00  0.00     0.187 HD
HETATM    7  N3  UNL     1      -8.832 -31.429  16.307  1.00  0.00    -0.287 N 
ATOM      8  H3  UNL     1      -9.050 -30.447  16.479  1.00  0.00     0.188 HD
ENDROOT
BRANCH   1   9
HETATM    9  C3  UNL     1      -9.402 -32.420  18.602  1.00  0.00     0.037 A 
HETATM   10  C6  UNL     1      -8.962 -33.489  19.519  1.00  0.00     0.023 A 
HETATM   11  C7  UNL     1      -8.263 -32.196  19.568  1.00  0.00     0.023 A 
BRANCH   9  12
HETATM   12  C2  UNL     1     -10.661 -31.680  18.808  1.00  0.00    -0.020 C 
HETATM   13  C1  UNL     1     -11.674 -31.786  17.973  1.00  0.00     0.008 C 
ENDBRANCH   9  12
ENDBRANCH   1   9
TORSDOF 2
ENDMDL
