MODEL 1
REMARK VINA RESULT: -5.440826889      0.000      0.000
REMARK  2 active torsions:
REMARK  status: ('A' for Active; 'I' for Inactive)
REMARK    1  A    between atoms: C2_2  and  C3_3 
REMARK    2  A    between atoms: C3_3  and  N1_4 
ROOT
HETATM    1  N1  UNL     1      -8.930 -32.477  16.203  1.00  0.00    -0.373 N 
ATOM      2  H1  UNL     1      -8.251 -33.108  15.777  1.00  0.00     0.161 HD
HETATM    3  C4  UNL     1      -9.261 -32.589  17.440  1.00  0.00     0.103 A 
HETATM    4  C5  UNL     1     -10.172 -31.746  18.036  1.00  0.00     0.065 A 
HETATM    5  C6  UNL     1     -10.497 -31.901  19.365  1.00  0.00     0.092 A 
HETATM    6  N2  UNL     1      -9.906 -32.884  20.051  1.00  0.00    -0.362 N 
ATOM      7  H2  UNL     1     -10.126 -33.023  21.037  1.00  0.00     0.165 HD
HETATM    8  C7  UNL     1      -9.017 -33.693  19.437  1.00  0.00     0.181 A 
HETATM    9  N3  UNL     1      -8.681 -33.565  18.142  1.00  0.00    -0.339 N 
ATOM     10  H3  UNL     1      -8.004 -34.193  17.709  1.00  0.00     0.168 HD
ENDROOT
BRANCH   1  11
HETATM   11  C3  UNL     1      -9.557 -31.420  15.441  1.00  0.00     0.147 C 
BRANCH  11  12
HETATM   12  C2  UNL     1      -8.607 -30.993  14.372  1.00  0.00    -0.018 C 
HETATM   13  C1  UNL     1      -8.202 -29.751  14.326  1.00  0.00     0.008 C 
ENDBRANCH  11  12
ENDBRANCH   1  11
TORSDOF 2
ENDMDL
MODEL 2
REMARK VINA RESULT: -5.421188956      1.027      1.610
REMARK  2 active torsions:
REMARK  status: ('A' for Active; 'I' for Inactive)
REMARK    1  A    between atoms: C2_2  and  C3_3 
REMARK    2  A    between atoms: C3_3  and  N1_4 
ROOT
HETATM    1  N1  UNL     1      -9.434 -31.645  16.118  1.00  0.00    -0.373 N 
ATOM      2  H1  UNL     1     -10.011 -30.864  15.805  1.00  0.00     0.161 HD
HETATM    3  C4  UNL     1      -9.508 -32.089  17.322  1.00  0.00     0.103 A 
HETATM    4  C5  UNL     1      -8.740 -33.144  17.763  1.00  0.00     0.065 A 
HETATM    5  C6  UNL     1      -8.852 -33.589  19.062  1.00  0.00     0.092 A 
HETATM    6  N2  UNL     1      -9.721 -32.973  19.870  1.00  0.00    -0.362 N 
ATOM      7  H2  UNL     1      -9.826 -33.281  20.836  1.00  0.00     0.165 HD
HETATM    8  C7  UNL     1     -10.459 -31.944  19.405  1.00  0.00     0.181 A 
HETATM    9  N3  UNL     1     -10.370 -31.488  18.144  1.00  0.00    -0.339 N 
ATOM     10  H3  UNL     1     -10.944 -30.707  17.825  1.00  0.00     0.168 HD
ENDROOT
BRANCH   1  11
HETATM   11  C3  UNL     1      -8.500 -32.295  15.226  1.00  0.00     0.147 C 
BRANCH  11  12
HETATM   12  C2  UNL     1      -7.972 -31.270  14.279  1.00  0.00    -0.018 C 
HETATM   13  C1  UNL     1      -8.357 -30.026  14.392  1.00  0.00     0.008 C 
ENDBRANCH  11  12
ENDBRANCH   1  11
TORSDOF 2
ENDMDL
MODEL 3
REMARK VINA RESULT: -5.409302777      1.537      4.648
REMARK  2 active torsions:
REMARK  status: ('A' for Active; 'I' for Inactive)
REMARK    1  A    between atoms: C2_2  and  C3_3 
REMARK    2  A    between atoms: C3_3  and  N1_4 
ROOT
HETATM    1  N1  UNL     1      -8.772 -33.358  16.863  1.00  0.00    -0.373 N 
ATOM      2  H1  UNL     1      -8.226 -34.219  16.903  1.00  0.00     0.161 HD
HETATM    3  C4  UNL     1      -8.663 -32.544  15.875  1.00  0.00     0.103 A 
HETATM    4  C5  UNL     1      -9.393 -31.378  15.801  1.00  0.00     0.065 A 
HETATM    5  C6  UNL     1      -9.246 -30.533  14.723  1.00  0.00     0.092 A 
HETATM    6  N2  UNL     1      -8.383 -30.878  13.762  1.00  0.00    -0.362 N 
ATOM      7  H2  UNL     1      -8.254 -30.273  12.952  1.00  0.00     0.165 HD
HETATM    8  C7  UNL     1      -7.684 -32.027  13.865  1.00  0.00     0.181 A 
HETATM    9  N3  UNL     1      -7.807 -32.870  14.905  1.00  0.00    -0.339 N 
ATOM     10  H3  UNL     1      -7.263 -33.732  14.951  1.00  0.00     0.168 HD
ENDROOT
BRANCH   1  11
HETATM   11  C3  UNL     1      -9.699 -33.006  17.916  1.00  0.00     0.147 C 
BRANCH  11  12
HETATM   12  C2  UNL     1      -9.003 -33.184  19.224  1.00  0.00    -0.018 C 
HETATM   13  C1  UNL     1      -9.707 -33.320  20.318  1.00  0.00     0.008 C 
ENDBRANCH  11  12
ENDBRANCH   1  11
TORSDOF 2
ENDMDL
MODEL 4
REMARK VINA RESULT: -5.279313101      1.644      4.301
REMARK  2 active torsions:
REMARK  status: ('A' for Active; 'I' for Inactive)
REMARK    1  A    between atoms: C2_2  and  C3_3 
REMARK    2  A    between atoms: C3_3  and  N1_4 
ROOT
HETATM    1  N1  UNL     1      -9.827 -32.930  16.815  1.00  0.00    -0.373 N 
ATOM      2  H1  UNL     1      -9.477 -33.836  17.126  1.00  0.00     0.161 HD
HETATM    3  C4  UNL     1      -9.265 -32.291  15.852  1.00  0.00     0.103 A 
HETATM    4  C5  UNL     1      -9.724 -31.068  15.415  1.00  0.00     0.065 A 
HETATM    5  C6  UNL     1      -9.092 -30.418  14.378  1.00  0.00     0.092 A 
HETATM    6  N2  UNL     1      -8.032 -31.006  13.815  1.00  0.00    -0.362 N 
ATOM      7  H2  UNL     1      -7.544 -30.549  13.045  1.00  0.00     0.165 HD
HETATM    8  C7  UNL     1      -7.607 -32.205  14.267  1.00  0.00     0.181 A 
HETATM    9  N3  UNL     1      -8.204 -32.862  15.277  1.00  0.00    -0.339 N 
ATOM     10  H3  UNL     1      -7.858 -33.767  15.593  1.00  0.00     0.168 HD
ENDROOT
BRANCH   1  11
HETATM   11  C3  UNL     1     -10.976 -32.313  17.440  1.00  0.00     0.147 C 
BRANCH  11  12
HETATM   12  C2  UNL     1     -10.597 -31.929  18.831  1.00  0.00    -0.018 C 
HETATM   13  C1  UNL     1     -10.118 -30.735  19.065  1.00  0.00     0.008 C 
ENDBRANCH  11  12
ENDBRANCH   1  11
TORSDOF 2
ENDMDL
MODEL 5
REMARK VINA RESULT: -5.234827736      1.573      4.845
REMARK  2 active torsions:
REMARK  status: ('A' for Active; 'I' for Inactive)
REMARK    1  A    between atoms: C2_2  and  C3_3 
REMARK    2  A    between atoms: C3_3  and  N1_4 
ROOT
HETATM    1  N1  UNL     1      -9.416 -32.358  17.352  1.00  0.00    -0.373 N 
ATOM      2  H1  UNL     1     -10.135 -31.839  17.857  1.00  0.00     0.161 HD
HETATM    3  C4  UNL     1      -9.017 -31.986  16.189  1.00  0.00     0.103 A 
HETATM    4  C5  UNL     1      -8.047 -32.671  15.492  1.00  0.00     0.065 A 
HETATM    5  C6  UNL     1      -7.648 -32.237  14.247  1.00  0.00     0.092 A 
HETATM    6  N2  UNL     1      -8.226 -31.142  13.743  1.00  0.00    -0.362 N 
ATOM      7  H2  UNL     1      -7.950 -30.796  12.824  1.00  0.00     0.165 HD
HETATM    8  C7  UNL     1      -9.173 -30.494  14.452  1.00  0.00     0.181 A 
HETATM    9  N3  UNL     1      -9.582 -30.894  15.669  1.00  0.00    -0.339 N 
ATOM     10  H3  UNL     1     -10.301 -30.381  16.178  1.00  0.00     0.168 HD
ENDROOT
BRANCH   1  11
HETATM   11  C3  UNL     1      -8.806 -33.541  17.918  1.00  0.00     0.147 C 
BRANCH  11  12
HETATM   12  C2  UNL     1      -8.643 -33.323  19.385  1.00  0.00    -0.018 C 
HETATM   13  C1  UNL     1      -9.701 -33.247  20.149  1.00  0.00     0.008 C 
ENDBRANCH  11  12
ENDBRANCH   1  11
TORSDOF 2
ENDMDL
