MODEL 1
REMARK VINA RESULT: -6.041414532      0.000      0.000
REMARK  3 active torsions:
REMARK  status: ('A' for Active; 'I' for Inactive)
REMARK    1  A    between atoms: C3_3  and  C4_4 
REMARK    2  A    between atoms: C4_4  and  C5_5 
REMARK    3  A    between atoms: C5_5  and  C6_6 
ROOT
HETATM    1  C1  UNL     1      -9.450 -33.271  20.130  1.00  0.00     0.012 C 
HETATM    2  C2  UNL     1      -9.993 -32.462  19.412  1.00  0.00    -0.117 C 
HETATM    3  C3  UNL     1     -10.650 -31.483  18.546  1.00  0.00     0.093 C 
ENDROOT
BRANCH   3   4
HETATM    4  C4  UNL     1     -11.053 -32.089  17.224  1.00  0.00     0.020 C 
BRANCH   4   5
HETATM    5  C5  UNL     1      -9.965 -32.909  16.609  1.00  0.00     0.079 C 
BRANCH   5   6
HETATM    6  C6  UNL     1      -9.217 -32.197  15.560  1.00  0.00     0.096 A 
HETATM    7  N1  UNL     1      -9.585 -31.044  14.990  1.00  0.00    -0.288 N 
HETATM    8  N2  UNL     1      -8.678 -30.710  14.102  1.00  0.00    -0.295 N 
ATOM      9  H1  UNL     1     -10.428 -30.513  15.210  1.00  0.00     0.188 HD
HETATM   10  C7  UNL     1      -7.705 -31.636  14.074  1.00  0.00     0.198 A 
ATOM     11  H2  UNL     1      -8.708 -29.873  13.519  1.00  0.00     0.187 HD
HETATM   12  N3  UNL     1      -8.061 -32.558  14.995  1.00  0.00    -0.340 N 
ATOM     13  H3  UNL     1      -7.531 -33.399  15.224  1.00  0.00     0.168 HD
ENDBRANCH   5   6
ENDBRANCH   4   5
ENDBRANCH   3   4
TORSDOF 3
ENDMDL
MODEL 2
REMARK VINA RESULT: -5.926516782      0.813      1.270
REMARK  3 active torsions:
REMARK  status: ('A' for Active; 'I' for Inactive)
REMARK    1  A    between atoms: C3_3  and  C4_4 
REMARK    2  A    between atoms: C4_4  and  C5_5 
REMARK    3  A    between atoms: C5_5  and  C6_6 
ROOT
HETATM    1  C1  UNL     1      -8.900 -33.629  19.756  1.00  0.00     0.012 C 
HETATM    2  C2  UNL     1      -9.402 -32.632  19.286  1.00  0.00    -0.117 C 
HETATM    3  C3  UNL     1     -10.008 -31.427  18.719  1.00  0.00     0.093 C 
ENDROOT
BRANCH   3   4
HETATM    4  C4  UNL     1     -11.119 -31.763  17.754  1.00  0.00     0.020 C 
BRANCH   4   5
HETATM    5  C5  UNL     1     -10.686 -32.707  16.680  1.00  0.00     0.079 C 
BRANCH   5   6
HETATM    6  C6  UNL     1      -9.643 -32.156  15.800  1.00  0.00     0.096 A 
HETATM    7  N1  UNL     1      -8.455 -32.721  15.555  1.00  0.00    -0.288 N 
HETATM    8  N2  UNL     1      -7.789 -31.950  14.727  1.00  0.00    -0.295 N 
ATOM      9  H1  UNL     1      -8.123 -33.604  15.945  1.00  0.00     0.188 HD
HETATM   10  C7  UNL     1      -8.526 -30.870  14.419  1.00  0.00     0.198 A 
ATOM     11  H2  UNL     1      -6.852 -32.142  14.372  1.00  0.00     0.187 HD
HETATM   12  N3  UNL     1      -9.683 -31.019  15.100  1.00  0.00    -0.340 N 
ATOM     13  H3  UNL     1     -10.466 -30.365  15.083  1.00  0.00     0.168 HD
ENDBRANCH   5   6
ENDBRANCH   4   5
ENDBRANCH   3   4
TORSDOF 3
ENDMDL
MODEL 3
REMARK VINA RESULT: -5.727429849      0.934      1.282
REMARK  3 active torsions:
REMARK  status: ('A' for Active; 'I' for Inactive)
REMARK    1  A    between atoms: C3_3  and  C4_4 
REMARK    2  A    between atoms: C4_4  and  C5_5 
REMARK    3  A    between atoms: C5_5  and  C6_6 
ROOT
HETATM    1  C1  UNL     1     -10.344 -33.189  20.782  1.00  0.00     0.012 C 
HETATM    2  C2  UNL     1      -9.490 -33.085  19.930  1.00  0.00    -0.117 C 
HETATM    3  C3  UNL     1      -8.457 -32.958  18.902  1.00  0.00     0.093 C 
ENDROOT
BRANCH   3   4
HETATM    4  C4  UNL     1      -8.962 -33.390  17.547  1.00  0.00     0.020 C 
BRANCH   4   5
HETATM    5  C5  UNL     1      -9.671 -32.295  16.818  1.00  0.00     0.079 C 
BRANCH   5   6
HETATM    6  C6  UNL     1      -9.008 -31.900  15.565  1.00  0.00     0.096 A 
HETATM    7  N1  UNL     1      -9.347 -30.853  14.803  1.00  0.00    -0.288 N 
HETATM    8  N2  UNL     1      -8.540 -30.811  13.769  1.00  0.00    -0.295 N 
ATOM      9  H1  UNL     1     -10.105 -30.198  14.995  1.00  0.00     0.188 HD
HETATM   10  C7  UNL     1      -7.662 -31.826  13.835  1.00  0.00     0.198 A 
ATOM     11  H2  UNL     1      -8.574 -30.112  13.027  1.00  0.00     0.187 HD
HETATM   12  N3  UNL     1      -7.973 -32.496  14.967  1.00  0.00    -0.340 N 
ATOM     13  H3  UNL     1      -7.491 -33.326  15.312  1.00  0.00     0.168 HD
ENDBRANCH   5   6
ENDBRANCH   4   5
ENDBRANCH   3   4
TORSDOF 3
ENDMDL
MODEL 4
REMARK VINA RESULT: -5.723157992      0.869      1.527
REMARK  3 active torsions:
REMARK  status: ('A' for Active; 'I' for Inactive)
REMARK    1  A    between atoms: C3_3  and  C4_4 
REMARK    2  A    between atoms: C4_4  and  C5_5 
REMARK    3  A    between atoms: C5_5  and  C6_6 
ROOT
HETATM    1  C1  UNL     1     -10.361 -30.517  19.046  1.00  0.00     0.012 C 
HETATM    2  C2  UNL     1      -9.894 -31.633  19.085  1.00  0.00    -0.117 C 
HETATM    3  C3  UNL     1      -9.330 -32.983  19.135  1.00  0.00     0.093 C 
ENDROOT
BRANCH   3   4
HETATM    4  C4  UNL     1      -8.612 -33.334  17.854  1.00  0.00     0.020 C 
BRANCH   4   5
HETATM    5  C5  UNL     1      -9.502 -33.269  16.656  1.00  0.00     0.079 C 
BRANCH   5   6
HETATM    6  C6  UNL     1      -9.003 -32.367  15.605  1.00  0.00     0.096 A 
HETATM    7  N1  UNL     1      -9.570 -31.211  15.240  1.00  0.00    -0.288 N 
HETATM    8  N2  UNL     1      -8.854 -30.680  14.277  1.00  0.00    -0.295 N 
ATOM      9  H1  UNL     1     -10.417 -30.810  15.643  1.00  0.00     0.188 HD
HETATM   10  C7  UNL     1      -7.809 -31.477  13.995  1.00  0.00     0.198 A 
ATOM     11  H2  UNL     1      -9.059 -29.796  13.812  1.00  0.00     0.187 HD
HETATM   12  N3  UNL     1      -7.921 -32.527  14.838  1.00  0.00    -0.340 N 
ATOM     13  H3  UNL     1      -7.279 -33.319  14.882  1.00  0.00     0.168 HD
ENDBRANCH   5   6
ENDBRANCH   4   5
ENDBRANCH   3   4
TORSDOF 3
ENDMDL
MODEL 5
REMARK VINA RESULT: -5.698030158      1.059      1.889
REMARK  3 active torsions:
REMARK  status: ('A' for Active; 'I' for Inactive)
REMARK    1  A    between atoms: C3_3  and  C4_4 
REMARK    2  A    between atoms: C4_4  and  C5_5 
REMARK    3  A    between atoms: C5_5  and  C6_6 
ROOT
HETATM    1  C1  UNL     1     -10.281 -30.521  19.091  1.00  0.00     0.012 C 
HETATM    2  C2  UNL     1      -9.903 -31.671  19.121  1.00  0.00    -0.117 C 
HETATM    3  C3  UNL     1      -9.447 -33.061  19.159  1.00  0.00     0.093 C 
ENDROOT
BRANCH   3   4
HETATM    4  C4  UNL     1      -8.685 -33.432  17.910  1.00  0.00     0.020 C 
BRANCH   4   5
HETATM    5  C5  UNL     1      -9.513 -33.317  16.672  1.00  0.00     0.079 C 
BRANCH   5   6
HETATM    6  C6  UNL     1      -8.965 -32.372  15.686  1.00  0.00     0.096 A 
HETATM    7  N1  UNL     1      -7.877 -32.577  14.934  1.00  0.00    -0.288 N 
HETATM    8  N2  UNL     1      -7.690 -31.524  14.174  1.00  0.00    -0.295 N 
ATOM      9  H1  UNL     1      -7.292 -33.413  14.949  1.00  0.00     0.188 HD
HETATM   10  C7  UNL     1      -8.647 -30.613  14.415  1.00  0.00     0.198 A 
ATOM     11  H2  UNL     1      -6.931 -31.413  13.502  1.00  0.00     0.187 HD
HETATM   12  N3  UNL     1      -9.436 -31.164  15.364  1.00  0.00    -0.340 N 
ATOM     13  H3  UNL     1     -10.262 -30.725  15.772  1.00  0.00     0.168 HD
ENDBRANCH   5   6
ENDBRANCH   4   5
ENDBRANCH   3   4
TORSDOF 3
ENDMDL
