MODEL 1
REMARK VINA RESULT: -5.101549479      0.000      0.000
REMARK  3 active torsions:
REMARK  status: ('A' for Active; 'I' for Inactive)
REMARK    1  A    between atoms: C1_2  and  C2_3 
REMARK    2  A    between atoms: C2_3  and  C3_4 
REMARK    3  A    between atoms: C3_4  and  N1_5 
ROOT
HETATM    1  N1  UNL     1      -8.721 -32.504  17.890  1.00  0.00     0.088 N 
HETATM    2  C4  UNL     1      -8.621 -33.472  18.961  1.00  0.00     0.272 C 
HETATM    3  C5  UNL     1      -8.990 -32.721  20.214  1.00  0.00     0.032 C 
HETATM    4  C6  UNL     1     -10.188 -31.933  19.675  1.00  0.00     0.032 C 
HETATM    5  C7  UNL     1      -9.552 -31.403  18.386  1.00  0.00     0.272 C 
ENDROOT
BRANCH   1   6
HETATM    6  C3  UNL     1      -9.401 -33.051  16.707  1.00  0.00     0.273 C 
BRANCH   6   7
HETATM    7  C2  UNL     1      -9.613 -31.898  15.759  1.00  0.00     0.041 C 
BRANCH   7   8
HETATM    8  C1  UNL     1      -8.441 -31.785  14.778  1.00  0.00     0.087 C 
HETATM    9 BR1  UNL     1      -8.192 -29.878  14.467  1.00  0.00    -0.096 Br
ENDBRANCH   7   8
ENDBRANCH   6   7
ENDBRANCH   1   6
TORSDOF 3
ENDMDL
MODEL 2
REMARK VINA RESULT: -5.064168880      1.114      1.265
REMARK  3 active torsions:
REMARK  status: ('A' for Active; 'I' for Inactive)
REMARK    1  A    between atoms: C1_2  and  C2_3 
REMARK    2  A    between atoms: C2_3  and  C3_4 
REMARK    3  A    between atoms: C3_4  and  N1_5 
ROOT
HETATM    1  N1  UNL     1      -9.294 -31.881  18.197  1.00  0.00     0.088 N 
HETATM    2  C4  UNL     1      -8.730 -33.212  18.257  1.00  0.00     0.272 C 
HETATM    3  C5  UNL     1      -8.397 -33.440  19.709  1.00  0.00     0.032 C 
HETATM    4  C6  UNL     1      -9.664 -32.851  20.338  1.00  0.00     0.032 C 
HETATM    5  C7  UNL     1      -9.717 -31.535  19.556  1.00  0.00     0.272 C 
ENDROOT
BRANCH   1   6
HETATM    6  C3  UNL     1     -10.493 -31.823  17.350  1.00  0.00     0.273 C 
BRANCH   6   7
HETATM    7  C2  UNL     1     -10.064 -32.231  15.963  1.00  0.00     0.041 C 
BRANCH   7   8
HETATM    8  C1  UNL     1      -9.415 -31.051  15.231  1.00  0.00     0.087 C 
HETATM    9 BR1  UNL     1      -7.857 -31.783  14.320  1.00  0.00    -0.096 Br
ENDBRANCH   7   8
ENDBRANCH   6   7
ENDBRANCH   1   6
TORSDOF 3
ENDMDL
MODEL 3
REMARK VINA RESULT: -5.000564288      2.147      4.071
REMARK  3 active torsions:
REMARK  status: ('A' for Active; 'I' for Inactive)
REMARK    1  A    between atoms: C1_2  and  C2_3 
REMARK    2  A    between atoms: C2_3  and  C3_4 
REMARK    3  A    between atoms: C3_4  and  N1_5 
ROOT
HETATM    1  N1  UNL     1      -8.109 -32.801  16.786  1.00  0.00     0.088 N 
HETATM    2  C4  UNL     1      -7.734 -31.690  15.938  1.00  0.00     0.272 C 
HETATM    3  C5  UNL     1      -8.819 -31.597  14.896  1.00  0.00     0.032 C 
HETATM    4  C6  UNL     1     -10.036 -31.808  15.803  1.00  0.00     0.032 C 
HETATM    5  C7  UNL     1      -9.540 -33.037  16.570  1.00  0.00     0.272 C 
ENDROOT
BRANCH   1   6
HETATM    6  C3  UNL     1      -7.939 -32.493  18.213  1.00  0.00     0.273 C 
BRANCH   6   7
HETATM    7  C2  UNL     1      -8.715 -33.538  18.975  1.00  0.00     0.041 C 
BRANCH   7   8
HETATM    8  C1  UNL     1      -9.334 -32.932  20.240  1.00  0.00     0.087 C 
HETATM    9 BR1  UNL     1     -10.267 -31.324  19.656  1.00  0.00    -0.096 Br
ENDBRANCH   7   8
ENDBRANCH   6   7
ENDBRANCH   1   6
TORSDOF 3
ENDMDL
MODEL 4
REMARK VINA RESULT: -4.989546709      0.907      1.555
REMARK  3 active torsions:
REMARK  status: ('A' for Active; 'I' for Inactive)
REMARK    1  A    between atoms: C1_2  and  C2_3 
REMARK    2  A    between atoms: C2_3  and  C3_4 
REMARK    3  A    between atoms: C3_4  and  N1_5 
ROOT
HETATM    1  N1  UNL     1      -9.809 -32.367  17.518  1.00  0.00     0.088 N 
HETATM    2  C4  UNL     1     -10.322 -31.485  18.545  1.00  0.00     0.272 C 
HETATM    3  C5  UNL     1      -9.834 -32.063  19.848  1.00  0.00     0.032 C 
HETATM    4  C6  UNL     1      -8.398 -32.403  19.435  1.00  0.00     0.032 C 
HETATM    5  C7  UNL     1      -8.704 -33.121  18.116  1.00  0.00     0.272 C 
ENDROOT
BRANCH   1   6
HETATM    6  C3  UNL     1      -9.251 -31.627  16.377  1.00  0.00     0.273 C 
BRANCH   6   7
HETATM    7  C2  UNL     1      -8.323 -32.575  15.661  1.00  0.00     0.041 C 
BRANCH   7   8
HETATM    8  C1  UNL     1      -7.818 -31.949  14.356  1.00  0.00     0.087 C 
HETATM    9 BR1  UNL     1      -8.188 -30.042  14.504  1.00  0.00    -0.096 Br
ENDBRANCH   7   8
ENDBRANCH   6   7
ENDBRANCH   1   6
TORSDOF 3
ENDMDL
MODEL 5
REMARK VINA RESULT: -4.984591158      2.556      4.300
REMARK  3 active torsions:
REMARK  status: ('A' for Active; 'I' for Inactive)
REMARK    1  A    between atoms: C1_2  and  C2_3 
REMARK    2  A    between atoms: C2_3  and  C3_4 
REMARK    3  A    between atoms: C3_4  and  N1_5 
ROOT
HETATM    1  N1  UNL     1      -9.234 -32.595  15.985  1.00  0.00     0.088 N 
HETATM    2  C4  UNL     1      -7.919 -32.688  15.388  1.00  0.00     0.272 C 
HETATM    3  C5  UNL     1      -7.952 -31.758  14.202  1.00  0.00     0.032 C 
HETATM    4  C6  UNL     1      -8.687 -30.578  14.847  1.00  0.00     0.032 C 
HETATM    5  C7  UNL     1      -9.838 -31.352  15.497  1.00  0.00     0.272 C 
ENDROOT
BRANCH   1   6
HETATM    6  C3  UNL     1      -9.174 -32.492  17.450  1.00  0.00     0.273 C 
BRANCH   6   7
HETATM    7  C2  UNL     1     -10.442 -31.804  17.887  1.00  0.00     0.041 C 
BRANCH   7   8
HETATM    8  C1  UNL     1     -10.367 -31.431  19.372  1.00  0.00     0.087 C 
HETATM    9 BR1  UNL     1      -9.378 -32.873  20.232  1.00  0.00    -0.096 Br
ENDBRANCH   7   8
ENDBRANCH   6   7
ENDBRANCH   1   6
TORSDOF 3
ENDMDL
