MODEL 1
REMARK VINA RESULT: -6.694202651      0.000      0.000
REMARK  3 active torsions:
REMARK  status: ('A' for Active; 'I' for Inactive)
REMARK    1  A    between atoms: C7_7  and  N1_8 
REMARK    2  A    between atoms: N1_8  and  C8_11 
REMARK    3  A    between atoms: C8_11  and  C9_12 
ROOT
HETATM    1  C1  UNL     1     -10.458 -32.895  21.434  1.00  0.00     0.013 C 
HETATM    2  C2  UNL     1      -9.974 -32.522  20.395  1.00  0.00    -0.108 C 
HETATM    3  C3  UNL     1      -9.365 -32.056  19.132  1.00  0.00     0.021 C 
HETATM    4  C4  UNL     1      -9.663 -30.598  18.882  1.00  0.00     0.029 C 
HETATM    5  C5  UNL     1      -7.880 -32.282  19.213  1.00  0.00     0.024 C 
HETATM    6  C6  UNL     1      -7.497 -32.299  17.726  1.00  0.00     0.034 C 
HETATM    7  C7  UNL     1      -8.593 -33.151  17.122  1.00  0.00     0.187 C 
HETATM    8  C12 UNL     1      -9.786 -32.930  17.991  1.00  0.00     0.055 C 
ENDROOT
BRANCH   7   9
HETATM    9  N1  UNL     1      -8.793 -32.891  15.728  1.00  0.00    -0.070 N 
ATOM     10  H12 UNL     1      -7.911 -32.752  15.234  1.00  0.00     0.277 HD
ATOM     11  H11 UNL     1      -9.115 -33.719  15.227  1.00  0.00     0.277 HD
BRANCH   9  12
HETATM   12  C8  UNL     1      -9.689 -31.774  15.559  1.00  0.00     0.237 C 
BRANCH  12  13
HETATM   13  C9  UNL     1      -9.163 -30.723  14.643  1.00  0.00     0.011 A 
HETATM   14  C10 UNL     1      -7.771 -30.225  14.728  1.00  0.00     0.007 A 
HETATM   15  C11 UNL     1      -8.149 -31.216  13.622  1.00  0.00     0.007 A 
ENDBRANCH  12  13
ENDBRANCH   9  12
ENDBRANCH   7   9
TORSDOF 3
ENDMDL
MODEL 2
REMARK VINA RESULT: -6.332605420      1.029      1.307
REMARK  3 active torsions:
REMARK  status: ('A' for Active; 'I' for Inactive)
REMARK    1  A    between atoms: C7_7  and  N1_8 
REMARK    2  A    between atoms: N1_8  and  C8_11 
REMARK    3  A    between atoms: C8_11  and  C9_12 
ROOT
HETATM    1  C1  UNL     1     -10.446 -32.866  21.517  1.00  0.00     0.013 C 
HETATM    2  C2  UNL     1      -9.916 -32.619  20.463  1.00  0.00    -0.108 C 
HETATM    3  C3  UNL     1      -9.252 -32.331  19.175  1.00  0.00     0.021 C 
HETATM    4  C4  UNL     1      -8.136 -31.330  19.343  1.00  0.00     0.029 C 
HETATM    5  C5  UNL     1      -8.719 -33.624  18.619  1.00  0.00     0.024 C 
HETATM    6  C6  UNL     1      -8.593 -33.281  17.128  1.00  0.00     0.034 C 
HETATM    7  C7  UNL     1      -9.891 -32.552  16.856  1.00  0.00     0.187 C 
HETATM    8  C12 UNL     1     -10.256 -31.903  18.149  1.00  0.00     0.055 C 
ENDROOT
BRANCH   7   9
HETATM    9  N1  UNL     1      -9.807 -31.671  15.730  1.00  0.00    -0.070 N 
ATOM     10  H12 UNL     1     -10.694 -31.604  15.230  1.00  0.00     0.277 HD
ATOM     11  H11 UNL     1      -9.721 -30.695  16.013  1.00  0.00     0.277 HD
BRANCH   9  12
HETATM   12  C8  UNL     1      -8.728 -32.080  14.864  1.00  0.00     0.237 C 
BRANCH  12  13
HETATM   13  C9  UNL     1      -8.130 -30.957  14.088  1.00  0.00     0.011 A 
HETATM   14  C10 UNL     1      -8.420 -29.539  14.400  1.00  0.00     0.007 A 
HETATM   15  C11 UNL     1      -7.085 -30.148  14.840  1.00  0.00     0.007 A 
ENDBRANCH  12  13
ENDBRANCH   9  12
ENDBRANCH   7   9
TORSDOF 3
ENDMDL
MODEL 3
REMARK VINA RESULT: -6.138773365      1.511      4.703
REMARK  3 active torsions:
REMARK  status: ('A' for Active; 'I' for Inactive)
REMARK    1  A    between atoms: C7_7  and  N1_8 
REMARK    2  A    between atoms: N1_8  and  C8_11 
REMARK    3  A    between atoms: C8_11  and  C9_12 
ROOT
HETATM    1  C1  UNL     1      -7.894 -31.468  13.308  1.00  0.00     0.013 C 
HETATM    2  C2  UNL     1      -8.289 -31.730  14.417  1.00  0.00    -0.108 C 
HETATM    3  C3  UNL     1      -8.780 -32.069  15.769  1.00  0.00     0.021 C 
HETATM    4  C4  UNL     1     -10.242 -31.728  15.925  1.00  0.00     0.029 C 
HETATM    5  C5  UNL     1      -8.557 -33.540  15.997  1.00  0.00     0.024 C 
HETATM    6  C6  UNL     1      -8.569 -33.612  17.530  1.00  0.00     0.034 C 
HETATM    7  C7  UNL     1      -7.725 -32.416  17.914  1.00  0.00     0.187 C 
HETATM    8  C12 UNL     1      -7.926 -31.424  16.816  1.00  0.00     0.055 C 
ENDROOT
BRANCH   7   9
HETATM    9  N1  UNL     1      -8.010 -31.936  19.233  1.00  0.00    -0.070 N 
ATOM     10  H12 UNL     1      -7.227 -32.083  19.871  1.00  0.00     0.277 HD
ATOM     11  H11 UNL     1      -8.044 -30.917  19.271  1.00  0.00     0.277 HD
BRANCH   9  12
HETATM   12  C8  UNL     1      -9.226 -32.536  19.723  1.00  0.00     0.237 C 
BRANCH  12  13
HETATM   13  C9  UNL     1     -10.308 -31.548  19.997  1.00  0.00     0.011 A 
HETATM   14  C10 UNL     1     -10.311 -30.194  19.399  1.00  0.00     0.007 A 
HETATM   15  C11 UNL     1     -11.233 -31.273  18.821  1.00  0.00     0.007 A 
ENDBRANCH  12  13
ENDBRANCH   9  12
ENDBRANCH   7   9
TORSDOF 3
ENDMDL
MODEL 4
REMARK VINA RESULT: -6.137196026      1.348      4.762
REMARK  3 active torsions:
REMARK  status: ('A' for Active; 'I' for Inactive)
REMARK    1  A    between atoms: C7_7  and  N1_8 
REMARK    2  A    between atoms: N1_8  and  C8_11 
REMARK    3  A    between atoms: C8_11  and  C9_12 
ROOT
HETATM    1  C1  UNL     1      -7.994 -29.102  14.107  1.00  0.00     0.013 C 
HETATM    2  C2  UNL     1      -8.373 -30.068  14.719  1.00  0.00    -0.108 C 
HETATM    3  C3  UNL     1      -8.839 -31.265  15.451  1.00  0.00     0.021 C 
HETATM    4  C4  UNL     1     -10.342 -31.388  15.404  1.00  0.00     0.029 C 
HETATM    5  C5  UNL     1      -8.192 -32.476  14.835  1.00  0.00     0.024 C 
HETATM    6  C6  UNL     1      -8.300 -33.491  15.983  1.00  0.00     0.034 C 
HETATM    7  C7  UNL     1      -7.897 -32.661  17.183  1.00  0.00     0.187 C 
HETATM    8  C12 UNL     1      -8.308 -31.265  16.852  1.00  0.00     0.055 C 
ENDROOT
BRANCH   7   9
HETATM    9  N1  UNL     1      -8.417 -33.177  18.414  1.00  0.00    -0.070 N 
ATOM     10  H12 UNL     1      -9.345 -33.583  18.297  1.00  0.00     0.277 HD
ATOM     11  H11 UNL     1      -7.924 -34.018  18.714  1.00  0.00     0.277 HD
BRANCH   9  12
HETATM   12  C8  UNL     1      -8.399 -32.149  19.425  1.00  0.00     0.237 C 
BRANCH  12  13
HETATM   13  C9  UNL     1      -9.750 -31.812  19.954  1.00  0.00     0.011 A 
HETATM   14  C10 UNL     1     -10.424 -30.531  19.641  1.00  0.00     0.007 A 
HETATM   15  C11 UNL     1     -10.860 -31.808  18.914  1.00  0.00     0.007 A 
ENDBRANCH  12  13
ENDBRANCH   9  12
ENDBRANCH   7   9
TORSDOF 3
ENDMDL
MODEL 5
REMARK VINA RESULT: -5.912821307      1.065      1.301
REMARK  3 active torsions:
REMARK  status: ('A' for Active; 'I' for Inactive)
REMARK    1  A    between atoms: C7_7  and  N1_8 
REMARK    2  A    between atoms: N1_8  and  C8_11 
REMARK    3  A    between atoms: C8_11  and  C9_12 
ROOT
HETATM    1  C1  UNL     1     -10.005 -32.754  21.298  1.00  0.00     0.013 C 
HETATM    2  C2  UNL     1      -9.619 -32.560  20.172  1.00  0.00    -0.108 C 
HETATM    3  C3  UNL     1      -9.130 -32.337  18.796  1.00  0.00     0.021 C 
HETATM    4  C4  UNL     1      -7.971 -31.371  18.773  1.00  0.00     0.029 C 
HETATM    5  C5  UNL     1      -8.718 -33.665  18.220  1.00  0.00     0.024 C 
HETATM    6  C6  UNL     1      -8.788 -33.375  16.714  1.00  0.00     0.034 C 
HETATM    7  C7  UNL     1     -10.088 -32.609  16.595  1.00  0.00     0.187 C 
HETATM    8  C12 UNL     1     -10.252 -31.906  17.902  1.00  0.00     0.055 C 
ENDROOT
BRANCH   7   9
HETATM    9  N1  UNL     1     -10.134 -31.768  15.437  1.00  0.00    -0.070 N 
ATOM     10  H12 UNL     1      -9.695 -32.208  14.628  1.00  0.00     0.277 HD
ATOM     11  H11 UNL     1     -11.079 -31.680  15.065  1.00  0.00     0.277 HD
BRANCH   9  12
HETATM   12  C8  UNL     1      -9.549 -30.485  15.738  1.00  0.00     0.237 C 
BRANCH  12  13
HETATM   13  C9  UNL     1      -8.499 -30.067  14.766  1.00  0.00     0.011 A 
HETATM   14  C10 UNL     1      -7.123 -30.613  14.808  1.00  0.00     0.007 A 
HETATM   15  C11 UNL     1      -8.108 -31.132  13.754  1.00  0.00     0.007 A 
ENDBRANCH  12  13
ENDBRANCH   9  12
ENDBRANCH   7   9
TORSDOF 3
ENDMDL
