MODEL 1
REMARK VINA RESULT: -7.288383598      0.000      0.000
REMARK  3 active torsions:
REMARK  status: ('A' for Active; 'I' for Inactive)
REMARK    1  A    between atoms: C4_5  and  C5_6 
REMARK    2  A    between atoms: C5_6  and  N1_7 
REMARK    3  A    between atoms: N1_7  and  C6_9 
ROOT
HETATM    1  C5  UNL     1      -8.941 -33.267  16.776  1.00  0.00     0.118 C 
ENDROOT
BRANCH   1   2
HETATM    2  C4  UNL     1      -8.878 -32.401  18.018  1.00  0.00     0.006 C 
HETATM    3  C3  UNL     1     -10.257 -31.827  18.248  1.00  0.00     0.009 C 
HETATM    4  C2  UNL     1     -10.303 -31.669  19.756  1.00  0.00     0.037 C 
HETATM    5  C1  UNL     1      -9.664 -32.950  20.232  1.00  0.00     0.170 C 
HETATM    6  F1  UNL     1      -9.241 -32.799  21.521  1.00  0.00    -0.249 F 
HETATM    7  C11 UNL     1      -8.547 -33.208  19.245  1.00  0.00     0.043 C 
ENDBRANCH   1   2
BRANCH   1   8
HETATM    8  N1  UNL     1      -8.098 -32.780  15.724  1.00  0.00    -0.416 N 
ATOM      9  H1  UNL     1      -7.530 -33.402  15.150  1.00  0.00     0.153 HD
BRANCH   8  10
HETATM   10  C6  UNL     1      -8.109 -31.382  15.535  1.00  0.00     0.084 C 
HETATM   11  C7  UNL     1      -9.094 -30.794  14.588  1.00  0.00     0.009 C 
HETATM   12  C8  UNL     1      -8.116 -29.640  14.511  1.00  0.00     0.013 C 
HETATM   13  C10 UNL     1      -8.278 -31.397  13.483  1.00  0.00     0.013 C 
HETATM   14  C9  UNL     1      -7.246 -30.872  14.454  1.00  0.00     0.009 C 
ENDBRANCH   8  10
ENDBRANCH   1   8
TORSDOF 3
ENDMDL
MODEL 2
REMARK VINA RESULT: -7.168804928      1.009      1.110
REMARK  3 active torsions:
REMARK  status: ('A' for Active; 'I' for Inactive)
REMARK    1  A    between atoms: C4_5  and  C5_6 
REMARK    2  A    between atoms: C5_6  and  N1_7 
REMARK    3  A    between atoms: N1_7  and  C6_9 
ROOT
HETATM    1  C5  UNL     1     -10.386 -32.395  16.655  1.00  0.00     0.118 C 
ENDROOT
BRANCH   1   2
HETATM    2  C4  UNL     1      -9.759 -31.797  17.897  1.00  0.00     0.006 C 
HETATM    3  C3  UNL     1     -10.879 -31.312  18.788  1.00  0.00     0.009 C 
HETATM    4  C2  UNL     1     -10.287 -31.463  20.176  1.00  0.00     0.037 C 
HETATM    5  C1  UNL     1      -9.593 -32.799  20.086  1.00  0.00     0.170 C 
HETATM    6  F1  UNL     1      -8.665 -32.902  21.082  1.00  0.00    -0.249 F 
HETATM    7  C11 UNL     1      -9.003 -32.828  18.692  1.00  0.00     0.043 C 
ENDBRANCH   1   2
BRANCH   1   8
HETATM    8  N1  UNL     1     -10.090 -31.640  15.472  1.00  0.00    -0.416 N 
ATOM      9  H1  UNL     1     -10.728 -31.601  14.678  1.00  0.00     0.153 HD
BRANCH   8  10
HETATM   10  C6  UNL     1      -8.857 -30.955  15.482  1.00  0.00     0.084 C 
HETATM   11  C7  UNL     1      -8.514 -30.081  14.328  1.00  0.00     0.009 C 
HETATM   12  C8  UNL     1      -7.082 -30.303  14.769  1.00  0.00     0.013 C 
HETATM   13  C10 UNL     1      -8.332 -31.337  13.528  1.00  0.00     0.013 C 
HETATM   14  C9  UNL     1      -7.721 -31.667  14.870  1.00  0.00     0.009 C 
ENDBRANCH   8  10
ENDBRANCH   1   8
TORSDOF 3
ENDMDL
MODEL 3
REMARK VINA RESULT: -7.026606383      1.023      1.491
REMARK  3 active torsions:
REMARK  status: ('A' for Active; 'I' for Inactive)
REMARK    1  A    between atoms: C4_5  and  C5_6 
REMARK    2  A    between atoms: C5_6  and  N1_7 
REMARK    3  A    between atoms: N1_7  and  C6_9 
ROOT
HETATM    1  C5  UNL     1      -9.050 -33.222  16.409  1.00  0.00     0.118 C 
ENDROOT
BRANCH   1   2
HETATM    2  C4  UNL     1      -9.447 -33.118  17.867  1.00  0.00     0.006 C 
HETATM    3  C3  UNL     1      -8.191 -32.855  18.666  1.00  0.00     0.009 C 
HETATM    4  C2  UNL     1      -8.711 -32.051  19.844  1.00  0.00     0.037 C 
HETATM    5  C1  UNL     1      -9.688 -31.111  19.183  1.00  0.00     0.170 C 
HETATM    6  F1  UNL     1     -10.549 -30.614  20.119  1.00  0.00    -0.249 F 
HETATM    7  C11 UNL     1     -10.359 -31.947  18.115  1.00  0.00     0.043 C 
ENDBRANCH   1   2
BRANCH   1   8
HETATM    8  N1  UNL     1      -7.873 -32.461  16.104  1.00  0.00    -0.416 N 
ATOM      9  H1  UNL     1      -6.936 -32.854  16.181  1.00  0.00     0.153 HD
BRANCH   8  10
HETATM   10  C6  UNL     1      -8.100 -31.131  15.691  1.00  0.00     0.084 C 
HETATM   11  C7  UNL     1      -9.054 -30.881  14.577  1.00  0.00     0.009 C 
HETATM   12  C8  UNL     1      -8.285 -29.587  14.401  1.00  0.00     0.013 C 
HETATM   13  C10 UNL     1      -8.024 -31.473  13.662  1.00  0.00     0.013 C 
HETATM   14  C9  UNL     1      -7.217 -30.631  14.622  1.00  0.00     0.009 C 
ENDBRANCH   8  10
ENDBRANCH   1   8
TORSDOF 3
ENDMDL
MODEL 4
REMARK VINA RESULT: -6.967494659      1.044      1.814
REMARK  3 active torsions:
REMARK  status: ('A' for Active; 'I' for Inactive)
REMARK    1  A    between atoms: C4_5  and  C5_6 
REMARK    2  A    between atoms: C5_6  and  N1_7 
REMARK    3  A    between atoms: N1_7  and  C6_9 
ROOT
HETATM    1  C5  UNL     1      -8.316 -33.381  16.991  1.00  0.00     0.118 C 
ENDROOT
BRANCH   1   2
HETATM    2  C4  UNL     1      -9.324 -33.235  18.113  1.00  0.00     0.006 C 
HETATM    3  C3  UNL     1      -8.594 -33.464  19.417  1.00  0.00     0.009 C 
HETATM    4  C2  UNL     1      -9.377 -32.604  20.390  1.00  0.00     0.037 C 
HETATM    5  C1  UNL     1      -9.615 -31.348  19.588  1.00  0.00     0.170 C 
HETATM    6  F1  UNL     1     -10.649 -30.644  20.135  1.00  0.00    -0.249 F 
HETATM    7  C11 UNL     1      -9.884 -31.840  18.182  1.00  0.00     0.043 C 
ENDBRANCH   1   2
BRANCH   1   8
HETATM    8  N1  UNL     1      -7.807 -32.118  16.542  1.00  0.00    -0.416 N 
ATOM      9  H1  UNL     1      -7.446 -31.417  17.187  1.00  0.00     0.153 HD
BRANCH   8  10
HETATM   10  C6  UNL     1      -7.840 -31.912  15.146  1.00  0.00     0.084 C 
HETATM   11  C7  UNL     1      -7.388 -30.602  14.605  1.00  0.00     0.009 C 
HETATM   12  C8  UNL     1      -8.252 -30.959  13.413  1.00  0.00     0.013 C 
HETATM   13  C10 UNL     1      -8.644 -30.017  15.182  1.00  0.00     0.013 C 
HETATM   14  C9  UNL     1      -9.089 -31.343  14.610  1.00  0.00     0.009 C 
ENDBRANCH   8  10
ENDBRANCH   1   8
TORSDOF 3
ENDMDL
MODEL 5
REMARK VINA RESULT: -6.838852439      2.595      5.092
REMARK  3 active torsions:
REMARK  status: ('A' for Active; 'I' for Inactive)
REMARK    1  A    between atoms: C4_5  and  C5_6 
REMARK    2  A    between atoms: C5_6  and  N1_7 
REMARK    3  A    between atoms: N1_7  and  C6_9 
ROOT
HETATM    1  C5  UNL     1      -8.039 -33.216  16.431  1.00  0.00     0.118 C 
ENDROOT
BRANCH   1   2
HETATM    2  C4  UNL     1      -8.480 -32.412  15.225  1.00  0.00     0.006 C 
HETATM    3  C3  UNL     1      -9.769 -31.711  15.587  1.00  0.00     0.009 C 
HETATM    4  C2  UNL     1      -9.711 -30.453  14.742  1.00  0.00     0.037 C 
HETATM    5  C1  UNL     1      -8.271 -30.031  14.893  1.00  0.00     0.170 C 
HETATM    6  F1  UNL     1      -7.935 -29.178  13.882  1.00  0.00    -0.249 F 
HETATM    7  C11 UNL     1      -7.491 -31.328  14.886  1.00  0.00     0.043 C 
ENDBRANCH   1   2
BRANCH   1   8
HETATM    8  N1  UNL     1      -7.876 -32.406  17.602  1.00  0.00    -0.416 N 
ATOM      9  H1  UNL     1      -7.378 -31.516  17.584  1.00  0.00     0.153 HD
BRANCH   8  10
HETATM   10  C6  UNL     1      -8.451 -32.922  18.783  1.00  0.00     0.084 C 
HETATM   11  C7  UNL     1      -9.886 -32.644  19.061  1.00  0.00     0.009 C 
HETATM   12  C8  UNL     1      -9.507 -32.899  20.505  1.00  0.00     0.013 C 
HETATM   13  C10 UNL     1      -9.480 -31.226  19.334  1.00  0.00     0.013 C 
HETATM   14  C9  UNL     1      -8.381 -32.048  19.967  1.00  0.00     0.009 C 
ENDBRANCH   8  10
ENDBRANCH   1   8
TORSDOF 3
ENDMDL
