MODEL 1
REMARK VINA RESULT: -7.029116565      0.000      0.000
REMARK  2 active torsions:
REMARK  status: ('A' for Active; 'I' for Inactive)
REMARK    1  A    between atoms: C2_2  and  C3_3 
REMARK    2  A    between atoms: C5_5  and  C6_7 
ROOT
HETATM    1  C3  UNL     1      -8.553 -30.657  15.476  1.00  0.00     0.013 C 
HETATM    2  C4  UNL     1      -7.763 -31.945  15.753  1.00  0.00     0.052 C 
HETATM    3  C5  UNL     1      -9.053 -32.487  16.337  1.00  0.00     0.108 C 
HETATM    4  F1  UNL     1      -9.199 -33.802  16.008  1.00  0.00    -0.243 F 
HETATM    5  C11 UNL     1      -9.779 -31.545  15.420  1.00  0.00     0.052 C 
ENDROOT
BRANCH   3   6
HETATM    6  C6  UNL     1      -9.114 -32.156  17.799  1.00  0.00     0.028 C 
HETATM    7  C7  UNL     1      -8.589 -33.279  18.626  1.00  0.00     0.027 C 
HETATM    8  C8  UNL     1      -9.178 -33.413  19.994  1.00  0.00     0.114 C 
HETATM    9  N1  UNL     1      -9.706 -32.224  20.563  1.00  0.00    -0.421 N 
HETATM   10  C9  UNL     1     -10.370 -31.328  19.680  1.00  0.00     0.114 C 
ATOM     11  H1  UNL     1      -9.614 -32.021  21.559  1.00  0.00     0.153 HD
HETATM   12  C10 UNL     1     -10.539 -31.904  18.274  1.00  0.00     0.027 C 
ENDBRANCH   3   6
BRANCH   1  13
HETATM   13  C2  UNL     1      -8.191 -30.010  14.200  1.00  0.00    -0.032 C 
HETATM   14  C1  UNL     1      -8.200 -28.691  14.133  1.00  0.00     0.007 C 
ENDBRANCH   1  13
TORSDOF 2
ENDMDL
MODEL 2
REMARK VINA RESULT: -6.444722025      1.173      1.287
REMARK  2 active torsions:
REMARK  status: ('A' for Active; 'I' for Inactive)
REMARK    1  A    between atoms: C2_2  and  C3_3 
REMARK    2  A    between atoms: C5_5  and  C6_7 
ROOT
HETATM    1  C3  UNL     1      -8.183 -31.931  15.470  1.00  0.00     0.013 C 
HETATM    2  C4  UNL     1      -8.604 -33.329  15.946  1.00  0.00     0.052 C 
HETATM    3  C5  UNL     1      -9.818 -32.646  16.544  1.00  0.00     0.108 C 
HETATM    4  F1  UNL     1     -10.921 -33.431  16.386  1.00  0.00    -0.243 F 
HETATM    5  C11 UNL     1      -9.660 -31.596  15.482  1.00  0.00     0.052 C 
ENDROOT
BRANCH   3   6
HETATM    6  C6  UNL     1      -9.505 -32.213  17.945  1.00  0.00     0.028 C 
HETATM    7  C7  UNL     1      -9.047 -33.365  18.773  1.00  0.00     0.027 C 
HETATM    8  C8  UNL     1      -9.350 -33.279  20.235  1.00  0.00     0.114 C 
HETATM    9  N1  UNL     1      -9.505 -31.970  20.763  1.00  0.00    -0.421 N 
HETATM   10  C9  UNL     1     -10.152 -31.015  19.932  1.00  0.00     0.114 C 
ATOM     11  H1  UNL     1      -9.168 -31.725  21.694  1.00  0.00     0.153 HD
HETATM   12  C10 UNL     1     -10.722 -31.634  18.655  1.00  0.00     0.027 C 
ENDBRANCH   3   6
BRANCH   1  13
HETATM   13  C2  UNL     1      -7.553 -31.930  14.136  1.00  0.00    -0.032 C 
HETATM   14  C1  UNL     1      -8.179 -31.331  13.139  1.00  0.00     0.007 C 
ENDBRANCH   1  13
TORSDOF 2
ENDMDL
MODEL 3
REMARK VINA RESULT: -6.373140573      2.191      4.957
REMARK  2 active torsions:
REMARK  status: ('A' for Active; 'I' for Inactive)
REMARK    1  A    between atoms: C2_2  and  C3_3 
REMARK    2  A    between atoms: C5_5  and  C6_7 
ROOT
HETATM    1  C3  UNL     1      -8.853 -32.345  19.062  1.00  0.00     0.013 C 
HETATM    2  C4  UNL     1     -10.187 -32.091  18.344  1.00  0.00     0.052 C 
HETATM    3  C5  UNL     1      -9.518 -32.677  17.116  1.00  0.00     0.108 C 
HETATM    4  F1  UNL     1     -10.405 -33.444  16.421  1.00  0.00    -0.243 F 
HETATM    5  C11 UNL     1      -8.642 -33.455  18.054  1.00  0.00     0.052 C 
ENDROOT
BRANCH   3   6
HETATM    6  C6  UNL     1      -8.843 -31.579  16.347  1.00  0.00     0.028 C 
HETATM    7  C7  UNL     1      -9.772 -30.972  15.351  1.00  0.00     0.027 C 
HETATM    8  C8  UNL     1      -9.133 -30.413  14.120  1.00  0.00     0.114 C 
HETATM    9  N1  UNL     1      -7.778 -30.007  14.252  1.00  0.00    -0.421 N 
HETATM   10  C9  UNL     1      -6.945 -30.807  15.081  1.00  0.00     0.114 C 
ATOM     11  H1  UNL     1      -7.418 -29.181  13.774  1.00  0.00     0.153 HD
HETATM   12  C10 UNL     1      -7.640 -32.082  15.559  1.00  0.00     0.027 C 
ENDBRANCH   3   6
BRANCH   1  13
HETATM   13  C2  UNL     1      -9.014 -32.791  20.459  1.00  0.00    -0.032 C 
HETATM   14  C1  UNL     1     -10.229 -32.829  20.977  1.00  0.00     0.007 C 
ENDBRANCH   1  13
TORSDOF 2
ENDMDL
MODEL 4
REMARK VINA RESULT: -5.719064574      2.442      4.908
REMARK  2 active torsions:
REMARK  status: ('A' for Active; 'I' for Inactive)
REMARK    1  A    between atoms: C2_2  and  C3_3 
REMARK    2  A    between atoms: C5_5  and  C6_7 
ROOT
HETATM    1  C3  UNL     1      -9.914 -32.058  18.615  1.00  0.00     0.013 C 
HETATM    2  C4  UNL     1      -8.925 -33.157  18.202  1.00  0.00     0.052 C 
HETATM    3  C5  UNL     1      -8.112 -32.043  17.572  1.00  0.00     0.108 C 
HETATM    4  F1  UNL     1      -6.781 -32.270  17.763  1.00  0.00    -0.243 F 
HETATM    5  C11 UNL     1      -8.725 -31.120  18.585  1.00  0.00     0.052 C 
ENDROOT
BRANCH   3   6
HETATM    6  C6  UNL     1      -8.556 -31.846  16.152  1.00  0.00     0.028 C 
HETATM    7  C7  UNL     1      -7.774 -32.707  15.221  1.00  0.00     0.027 C 
HETATM    8  C8  UNL     1      -7.593 -32.174  13.835  1.00  0.00     0.114 C 
HETATM    9  N1  UNL     1      -8.585 -31.261  13.385  1.00  0.00    -0.421 N 
HETATM   10  C9  UNL     1      -9.101 -30.349  14.346  1.00  0.00     0.114 C 
ATOM     11  H1  UNL     1      -8.912 -31.261  12.419  1.00  0.00     0.153 HD
HETATM   12  C10 UNL     1      -8.355 -30.412  15.679  1.00  0.00     0.027 C 
ENDBRANCH   3   6
BRANCH   1  13
HETATM   13  C2  UNL     1     -10.507 -32.272  19.949  1.00  0.00    -0.032 C 
HETATM   14  C1  UNL     1      -9.813 -32.944  20.851  1.00  0.00     0.007 C 
ENDBRANCH   1  13
TORSDOF 2
ENDMDL
MODEL 5
REMARK VINA RESULT: -5.322690078      2.238      4.910
REMARK  2 active torsions:
REMARK  status: ('A' for Active; 'I' for Inactive)
REMARK    1  A    between atoms: C2_2  and  C3_3 
REMARK    2  A    between atoms: C5_5  and  C6_7 
ROOT
HETATM    1  C3  UNL     1      -8.890 -32.580  18.829  1.00  0.00     0.013 C 
HETATM    2  C4  UNL     1      -9.613 -33.235  17.643  1.00  0.00     0.052 C 
HETATM    3  C5  UNL     1      -8.318 -33.039  16.879  1.00  0.00     0.108 C 
HETATM    4  F1  UNL     1      -8.082 -34.115  16.076  1.00  0.00    -0.243 F 
HETATM    5  C11 UNL     1      -7.613 -33.101  18.203  1.00  0.00     0.052 C 
ENDROOT
BRANCH   3   6
HETATM    6  C6  UNL     1      -8.335 -31.698  16.208  1.00  0.00     0.028 C 
HETATM    7  C7  UNL     1      -9.634 -31.459  15.518  1.00  0.00     0.027 C 
HETATM    8  C8  UNL     1      -9.580 -30.579  14.310  1.00  0.00     0.114 C 
HETATM    9  N1  UNL     1      -8.506 -29.649  14.266  1.00  0.00    -0.421 N 
HETATM   10  C9  UNL     1      -7.255 -30.089  14.777  1.00  0.00     0.114 C 
ATOM     11  H1  UNL     1      -8.627 -28.711  13.884  1.00  0.00     0.153 HD
HETATM   12  C10 UNL     1      -7.255 -31.574  15.140  1.00  0.00     0.027 C 
ENDBRANCH   3   6
BRANCH   1  13
HETATM   13  C2  UNL     1      -9.237 -33.179  20.131  1.00  0.00    -0.032 C 
HETATM   14  C1  UNL     1     -10.075 -32.534  20.924  1.00  0.00     0.007 C 
ENDBRANCH   1  13
TORSDOF 2
ENDMDL
