MODEL 1
REMARK VINA RESULT: -6.276021712      0.000      0.000
REMARK  5 active torsions:
REMARK  status: ('A' for Active; 'I' for Inactive)
REMARK    1  A    between atoms: C2_2  and  C3_3 
REMARK    2  A    between atoms: C3_3  and  C4_4 
REMARK    3  A    between atoms: C5_5  and  C6_6 
REMARK    4  A    between atoms: C6_6  and  C7_7 
REMARK    5  A    between atoms: C7_7  and  C8_8 
ROOT
HETATM    1  C8  UNL     1     -10.009 -32.204  18.553  1.00  0.00     0.051 C 
HETATM    2  C9  UNL     1     -10.125 -32.707  19.960  1.00  0.00     0.195 C 
HETATM    3  C10 UNL     1      -8.708 -33.011  20.375  1.00  0.00     0.072 C 
HETATM    4  C11 UNL     1      -8.039 -31.742  19.808  1.00  0.00     0.203 C 
HETATM    5  F1  UNL     1      -7.123 -32.071  18.854  1.00  0.00    -0.247 F 
HETATM    6  C12 UNL     1      -9.269 -31.075  19.273  1.00  0.00     0.226 C 
HETATM    7  N1  UNL     1     -10.224 -31.290  20.351  1.00  0.00    -0.063 N 
ATOM      8  H11 UNL     1     -10.054 -30.973  21.305  1.00  0.00     0.278 HD
ATOM      9  H12 UNL     1     -11.115 -30.796  20.401  1.00  0.00     0.278 HD
ENDROOT
BRANCH   1  10
HETATM   10  C7  UNL     1     -11.254 -31.664  17.936  1.00  0.00     0.021 C 
BRANCH  10  11
HETATM   11  C6  UNL     1     -11.396 -32.016  16.474  1.00  0.00     0.094 C 
BRANCH  11  12
HETATM   12  C5  UNL     1     -10.103 -31.932  15.795  1.00  0.00    -0.107 C 
HETATM   13  C4  UNL     1      -9.042 -31.857  15.237  1.00  0.00    -0.107 C 
BRANCH  13  14
HETATM   14  C3  UNL     1      -7.757 -31.784  14.544  1.00  0.00     0.093 C 
BRANCH  14  15
HETATM   15  C2  UNL     1      -7.199 -30.392  14.740  1.00  0.00     0.007 C 
HETATM   16  C1  UNL     1      -8.176 -29.333  14.276  1.00  0.00     0.006 C 
ENDBRANCH  14  15
ENDBRANCH  13  14
ENDBRANCH  11  12
ENDBRANCH  10  11
ENDBRANCH   1  10
TORSDOF 5
ENDMDL
MODEL 2
REMARK VINA RESULT: -5.819897476      2.109      4.903
REMARK  5 active torsions:
REMARK  status: ('A' for Active; 'I' for Inactive)
REMARK    1  A    between atoms: C2_2  and  C3_3 
REMARK    2  A    between atoms: C3_3  and  C4_4 
REMARK    3  A    between atoms: C5_5  and  C6_6 
REMARK    4  A    between atoms: C6_6  and  C7_7 
REMARK    5  A    between atoms: C7_7  and  C8_8 
ROOT
HETATM    1  C8  UNL     1      -9.310 -30.867  15.632  1.00  0.00     0.051 C 
HETATM    2  C9  UNL     1      -8.551 -30.081  14.608  1.00  0.00     0.195 C 
HETATM    3  C10 UNL     1      -7.102 -30.259  14.987  1.00  0.00     0.072 C 
HETATM    4  C11 UNL     1      -7.138 -31.774  15.274  1.00  0.00     0.203 C 
HETATM    5  F1  UNL     1      -6.818 -32.020  16.575  1.00  0.00    -0.247 F 
HETATM    6  C12 UNL     1      -8.578 -32.019  14.941  1.00  0.00     0.226 C 
HETATM    7  N1  UNL     1      -8.743 -31.241  13.721  1.00  0.00    -0.063 N 
ATOM      8  H11 UNL     1      -8.172 -31.396  12.890  1.00  0.00     0.278 HD
ATOM      9  H12 UNL     1      -9.558 -31.338  13.114  1.00  0.00     0.278 HD
ENDROOT
BRANCH   1  10
HETATM   10  C7  UNL     1     -10.777 -31.009  15.406  1.00  0.00     0.021 C 
BRANCH  10  11
HETATM   11  C6  UNL     1     -11.426 -32.020  16.322  1.00  0.00     0.094 C 
BRANCH  11  12
HETATM   12  C5  UNL     1     -10.951 -31.854  17.695  1.00  0.00    -0.107 C 
HETATM   13  C4  UNL     1     -10.556 -31.713  18.821  1.00  0.00    -0.107 C 
BRANCH  13  14
HETATM   14  C3  UNL     1     -10.076 -31.567  20.194  1.00  0.00     0.093 C 
BRANCH  14  15
HETATM   15  C2  UNL     1      -9.501 -32.896  20.631  1.00  0.00     0.007 C 
HETATM   16  C1  UNL     1      -8.515 -33.433  19.616  1.00  0.00     0.006 C 
ENDBRANCH  14  15
ENDBRANCH  13  14
ENDBRANCH  11  12
ENDBRANCH  10  11
ENDBRANCH   1  10
TORSDOF 5
ENDMDL
MODEL 3
REMARK VINA RESULT: -5.710733408      0.646      1.180
REMARK  5 active torsions:
REMARK  status: ('A' for Active; 'I' for Inactive)
REMARK    1  A    between atoms: C2_2  and  C3_3 
REMARK    2  A    between atoms: C3_3  and  C4_4 
REMARK    3  A    between atoms: C5_5  and  C6_6 
REMARK    4  A    between atoms: C6_6  and  C7_7 
REMARK    5  A    between atoms: C7_7  and  C8_8 
ROOT
HETATM    1  C8  UNL     1     -10.158 -32.181  18.621  1.00  0.00     0.051 C 
HETATM    2  C9  UNL     1     -10.185 -32.675  20.034  1.00  0.00     0.195 C 
HETATM    3  C10 UNL     1      -8.746 -32.990  20.357  1.00  0.00     0.072 C 
HETATM    4  C11 UNL     1      -8.106 -31.729  19.740  1.00  0.00     0.203 C 
HETATM    5  F1  UNL     1      -7.258 -32.071  18.729  1.00  0.00    -0.247 F 
HETATM    6  C12 UNL     1      -9.363 -31.055  19.284  1.00  0.00     0.226 C 
HETATM    7  N1  UNL     1     -10.246 -31.256  20.424  1.00  0.00    -0.063 N 
ATOM      8  H11 UNL     1     -10.011 -30.935  21.363  1.00  0.00     0.278 HD
ATOM      9  H12 UNL     1     -11.128 -30.755  20.531  1.00  0.00     0.278 HD
ENDROOT
BRANCH   1  10
HETATM   10  C7  UNL     1     -11.437 -31.633  18.085  1.00  0.00     0.021 C 
BRANCH  10  11
HETATM   11  C6  UNL     1     -11.677 -31.986  16.636  1.00  0.00     0.094 C 
BRANCH  11  12
HETATM   12  C5  UNL     1     -10.555 -31.548  15.806  1.00  0.00    -0.107 C 
HETATM   13  C4  UNL     1      -9.637 -31.186  15.121  1.00  0.00    -0.107 C 
BRANCH  13  14
HETATM   14  C3  UNL     1      -8.508 -30.767  14.292  1.00  0.00     0.093 C 
BRANCH  14  15
HETATM   15  C2  UNL     1      -7.539 -31.926  14.202  1.00  0.00     0.007 C 
HETATM   16  C1  UNL     1      -7.593 -32.789  15.444  1.00  0.00     0.006 C 
ENDBRANCH  14  15
ENDBRANCH  13  14
ENDBRANCH  11  12
ENDBRANCH  10  11
ENDBRANCH   1  10
TORSDOF 5
ENDMDL
MODEL 4
REMARK VINA RESULT: -5.670709629      2.247      5.156
REMARK  5 active torsions:
REMARK  status: ('A' for Active; 'I' for Inactive)
REMARK    1  A    between atoms: C2_2  and  C3_3 
REMARK    2  A    between atoms: C3_3  and  C4_4 
REMARK    3  A    between atoms: C5_5  and  C6_6 
REMARK    4  A    between atoms: C6_6  and  C7_7 
REMARK    5  A    between atoms: C7_7  and  C8_8 
ROOT
HETATM    1  C8  UNL     1      -9.330 -31.658  14.937  1.00  0.00     0.051 C 
HETATM    2  C9  UNL     1      -7.970 -32.199  14.615  1.00  0.00     0.195 C 
HETATM    3  C10 UNL     1      -7.292 -31.093  13.846  1.00  0.00     0.072 C 
HETATM    4  C11 UNL     1      -7.723 -29.911  14.738  1.00  0.00     0.203 C 
HETATM    5  F1  UNL     1      -8.485 -29.032  14.030  1.00  0.00    -0.247 F 
HETATM    6  C12 UNL     1      -8.484 -30.691  15.767  1.00  0.00     0.226 C 
HETATM    7  N1  UNL     1      -7.607 -31.831  15.994  1.00  0.00    -0.063 N 
ATOM      8  H11 UNL     1      -6.639 -31.726  16.296  1.00  0.00     0.278 HD
ATOM      9  H12 UNL     1      -7.728 -32.468  16.781  1.00  0.00     0.278 HD
ENDROOT
BRANCH   1  10
HETATM   10  C7  UNL     1     -10.173 -32.483  15.848  1.00  0.00     0.021 C 
BRANCH  10  11
HETATM   11  C6  UNL     1     -11.208 -31.676  16.596  1.00  0.00     0.094 C 
BRANCH  11  12
HETATM   12  C5  UNL     1     -10.911 -31.657  18.027  1.00  0.00    -0.107 C 
HETATM   13  C4  UNL     1     -10.664 -31.638  19.203  1.00  0.00    -0.107 C 
BRANCH  13  14
HETATM   14  C3  UNL     1     -10.362 -31.639  20.633  1.00  0.00     0.093 C 
BRANCH  14  15
HETATM   15  C2  UNL     1      -9.682 -32.949  20.966  1.00  0.00     0.007 C 
HETATM   16  C1  UNL     1      -8.649 -33.316  19.923  1.00  0.00     0.006 C 
ENDBRANCH  14  15
ENDBRANCH  13  14
ENDBRANCH  11  12
ENDBRANCH  10  11
ENDBRANCH   1  10
TORSDOF 5
ENDMDL
MODEL 5
REMARK VINA RESULT: -5.509336223      2.489      5.358
REMARK  5 active torsions:
REMARK  status: ('A' for Active; 'I' for Inactive)
REMARK    1  A    between atoms: C2_2  and  C3_3 
REMARK    2  A    between atoms: C3_3  and  C4_4 
REMARK    3  A    between atoms: C5_5  and  C6_6 
REMARK    4  A    between atoms: C6_6  and  C7_7 
REMARK    5  A    between atoms: C7_7  and  C8_8 
ROOT
HETATM    1  C8  UNL     1      -8.742 -31.269  15.489  1.00  0.00     0.051 C 
HETATM    2  C9  UNL     1      -9.302 -30.376  14.425  1.00  0.00     0.195 C 
HETATM    3  C10 UNL     1      -8.277 -29.281  14.267  1.00  0.00     0.072 C 
HETATM    4  C11 UNL     1      -7.013 -30.164  14.280  1.00  0.00     0.203 C 
HETATM    5  F1  UNL     1      -6.217 -29.842  15.339  1.00  0.00    -0.247 F 
HETATM    6  C12 UNL     1      -7.687 -31.497  14.404  1.00  0.00     0.226 C 
HETATM    7  N1  UNL     1      -8.791 -31.367  13.463  1.00  0.00    -0.063 N 
ATOM      8  H11 UNL     1      -8.647 -31.150  12.477  1.00  0.00     0.278 HD
ATOM      9  H12 UNL     1      -9.344 -32.165  13.152  1.00  0.00     0.278 HD
ENDROOT
BRANCH   1  10
HETATM   10  C7  UNL     1      -9.475 -32.543  15.738  1.00  0.00     0.021 C 
BRANCH  10  11
HETATM   11  C6  UNL     1      -8.635 -33.588  16.435  1.00  0.00     0.094 C 
BRANCH  11  12
HETATM   12  C5  UNL     1      -8.691 -33.412  17.885  1.00  0.00    -0.107 C 
HETATM   13  C4  UNL     1      -8.733 -33.271  19.078  1.00  0.00    -0.107 C 
BRANCH  13  14
HETATM   14  C3  UNL     1      -8.809 -33.103  20.528  1.00  0.00     0.093 C 
BRANCH  14  15
HETATM   15  C2  UNL     1     -10.135 -32.452  20.854  1.00  0.00     0.007 C 
HETATM   16  C1  UNL     1     -10.468 -31.352  19.869  1.00  0.00     0.006 C 
ENDBRANCH  14  15
ENDBRANCH  13  14
ENDBRANCH  11  12
ENDBRANCH  10  11
ENDBRANCH   1  10
TORSDOF 5
ENDMDL
