MODEL 1
REMARK VINA RESULT: -6.232679571      0.000      0.000
REMARK  3 active torsions:
REMARK  status: ('A' for Active; 'I' for Inactive)
REMARK    1  A    between atoms: C2_2  and  C3_3 
REMARK    2  A    between atoms: C3_3  and  N1_4 
REMARK    3  A    between atoms: N1_4  and  C4_6 
ROOT
HETATM    1  C4  UNL     1      -9.190 -32.716  17.374  1.00  0.00     0.032 C 
HETATM    2  C5  UNL     1      -8.642 -33.129  18.479  1.00  0.00     0.040 C 
HETATM    3  C6  UNL     1      -9.400 -32.655  19.683  1.00  0.00     0.199 C 
HETATM    4  F1  UNL     1      -8.485 -32.147  20.610  1.00  0.00    -0.245 F 
HETATM    5  C7  UNL     1     -10.314 -31.562  19.168  1.00  0.00     0.081 C 
HETATM    6  C8  UNL     1     -10.408 -31.930  17.724  1.00  0.00    -0.038 C 
HETATM    7  C9  UNL     1     -11.381 -31.639  16.887  1.00  0.00     0.021 C 
ENDROOT
BRANCH   1   8
HETATM    8  N1  UNL     1      -8.843 -32.901  16.025  1.00  0.00    -0.386 N 
ATOM      9  H1  UNL     1      -9.289 -33.679  15.539  1.00  0.00     0.160 HD
BRANCH   8  10
HETATM   10  C3  UNL     1      -7.935 -32.114  15.273  1.00  0.00     0.146 C 
BRANCH  10  11
HETATM   11  C2  UNL     1      -8.640 -31.087  14.478  1.00  0.00    -0.018 C 
HETATM   12  C1  UNL     1      -8.325 -29.805  14.728  1.00  0.00     0.008 C 
ENDBRANCH  10  11
ENDBRANCH   8  10
ENDBRANCH   1   8
TORSDOF 3
ENDMDL
MODEL 2
REMARK VINA RESULT: -6.098599858      2.438      4.539
REMARK  3 active torsions:
REMARK  status: ('A' for Active; 'I' for Inactive)
REMARK    1  A    between atoms: C2_2  and  C3_3 
REMARK    2  A    between atoms: C3_3  and  N1_4 
REMARK    3  A    between atoms: N1_4  and  C4_6 
ROOT
HETATM    1  C4  UNL     1      -9.878 -31.483  15.924  1.00  0.00     0.032 C 
HETATM    2  C5  UNL     1      -9.862 -30.482  15.094  1.00  0.00     0.040 C 
HETATM    3  C6  UNL     1      -8.532 -30.349  14.414  1.00  0.00     0.199 C 
HETATM    4  F1  UNL     1      -8.145 -29.006  14.456  1.00  0.00    -0.245 F 
HETATM    5  C7  UNL     1      -7.587 -31.212  15.226  1.00  0.00     0.081 C 
HETATM    6  C8  UNL     1      -8.549 -32.155  15.869  1.00  0.00    -0.038 C 
HETATM    7  C9  UNL     1      -8.302 -33.371  16.310  1.00  0.00     0.021 C 
ENDROOT
BRANCH   1   8
HETATM    8  N1  UNL     1     -10.880 -31.986  16.772  1.00  0.00    -0.386 N 
ATOM      9  H1  UNL     1     -11.291 -32.883  16.515  1.00  0.00     0.160 HD
BRANCH   8  10
HETATM   10  C3  UNL     1     -11.377 -31.370  17.948  1.00  0.00     0.146 C 
BRANCH  10  11
HETATM   11  C2  UNL     1     -10.284 -31.028  18.881  1.00  0.00    -0.018 C 
HETATM   12  C1  UNL     1      -9.765 -32.035  19.603  1.00  0.00     0.008 C 
ENDBRANCH  10  11
ENDBRANCH   8  10
ENDBRANCH   1   8
TORSDOF 3
ENDMDL
MODEL 3
REMARK VINA RESULT: -5.706124529      2.283      4.232
REMARK  3 active torsions:
REMARK  status: ('A' for Active; 'I' for Inactive)
REMARK    1  A    between atoms: C2_2  and  C3_3 
REMARK    2  A    between atoms: C3_3  and  N1_4 
REMARK    3  A    between atoms: N1_4  and  C4_6 
ROOT
HETATM    1  C4  UNL     1      -8.733 -32.356  17.049  1.00  0.00     0.032 C 
HETATM    2  C5  UNL     1      -7.659 -31.933  16.449  1.00  0.00     0.040 C 
HETATM    3  C6  UNL     1      -7.988 -31.021  15.306  1.00  0.00     0.199 C 
HETATM    4  F1  UNL     1      -7.229 -31.408  14.197  1.00  0.00    -0.245 F 
HETATM    5  C7  UNL     1      -9.467 -31.228  15.050  1.00  0.00     0.081 C 
HETATM    6  C8  UNL     1      -9.914 -31.742  16.378  1.00  0.00    -0.038 C 
HETATM    7  C9  UNL     1     -11.122 -31.673  16.897  1.00  0.00     0.021 C 
ENDROOT
BRANCH   1   8
HETATM    8  N1  UNL     1      -8.921 -33.213  18.147  1.00  0.00    -0.386 N 
ATOM      9  H1  UNL     1      -9.433 -34.078  17.972  1.00  0.00     0.160 HD
BRANCH   8  10
HETATM   10  C3  UNL     1      -8.472 -32.995  19.474  1.00  0.00     0.146 C 
BRANCH  10  11
HETATM   11  C2  UNL     1      -9.602 -32.916  20.421  1.00  0.00    -0.018 C 
HETATM   12  C1  UNL     1     -10.343 -31.795  20.390  1.00  0.00     0.008 C 
ENDBRANCH  10  11
ENDBRANCH   8  10
ENDBRANCH   1   8
TORSDOF 3
ENDMDL
MODEL 4
REMARK VINA RESULT: -5.625781559      1.353      1.590
REMARK  3 active torsions:
REMARK  status: ('A' for Active; 'I' for Inactive)
REMARK    1  A    between atoms: C2_2  and  C3_3 
REMARK    2  A    between atoms: C3_3  and  N1_4 
REMARK    3  A    between atoms: N1_4  and  C4_6 
ROOT
HETATM    1  C4  UNL     1      -9.246 -31.731  17.846  1.00  0.00     0.032 C 
HETATM    2  C5  UNL     1      -8.936 -32.971  18.085  1.00  0.00     0.040 C 
HETATM    3  C6  UNL     1      -9.129 -33.321  19.530  1.00  0.00     0.199 C 
HETATM    4  F1  UNL     1      -7.999 -34.014  19.974  1.00  0.00    -0.245 F 
HETATM    5  C7  UNL     1      -9.265 -31.991  20.243  1.00  0.00     0.081 C 
HETATM    6  C8  UNL     1      -9.713 -31.114  19.121  1.00  0.00    -0.038 C 
HETATM    7  C9  UNL     1     -10.406 -29.998  19.206  1.00  0.00     0.021 C 
ENDROOT
BRANCH   1   8
HETATM    8  N1  UNL     1      -9.224 -30.966  16.668  1.00  0.00    -0.386 N 
ATOM      9  H1  UNL     1      -9.075 -29.962  16.775  1.00  0.00     0.160 HD
BRANCH   8  10
HETATM   10  C3  UNL     1      -9.387 -31.449  15.345  1.00  0.00     0.146 C 
BRANCH  10  11
HETATM   11  C2  UNL     1      -8.450 -30.794  14.410  1.00  0.00    -0.018 C 
HETATM   12  C1  UNL     1      -8.218 -29.484  14.603  1.00  0.00     0.008 C 
ENDBRANCH  10  11
ENDBRANCH   8  10
ENDBRANCH   1   8
TORSDOF 3
ENDMDL
MODEL 5
REMARK VINA RESULT: -5.620494952      1.635      2.350
REMARK  3 active torsions:
REMARK  status: ('A' for Active; 'I' for Inactive)
REMARK    1  A    between atoms: C2_2  and  C3_3 
REMARK    2  A    between atoms: C3_3  and  N1_4 
REMARK    3  A    between atoms: N1_4  and  C4_6 
ROOT
HETATM    1  C4  UNL     1      -9.258 -32.010  16.984  1.00  0.00     0.032 C 
HETATM    2  C5  UNL     1     -10.463 -31.537  16.857  1.00  0.00     0.040 C 
HETATM    3  C6  UNL     1     -11.045 -31.142  18.181  1.00  0.00     0.199 C 
HETATM    4  F1  UNL     1     -12.345 -31.649  18.263  1.00  0.00    -0.245 F 
HETATM    5  C7  UNL     1     -10.145 -31.787  19.214  1.00  0.00     0.081 C 
HETATM    6  C8  UNL     1      -8.887 -31.957  18.427  1.00  0.00    -0.038 C 
HETATM    7  C9  UNL     1      -7.658 -32.040  18.891  1.00  0.00     0.021 C 
ENDROOT
BRANCH   1   8
HETATM    8  N1  UNL     1      -8.336 -32.500  16.044  1.00  0.00    -0.386 N 
ATOM      9  H1  UNL     1      -7.865 -33.374  16.276  1.00  0.00     0.160 HD
BRANCH   8  10
HETATM   10  C3  UNL     1      -7.994 -31.900  14.806  1.00  0.00     0.146 C 
BRANCH  10  11
HETATM   11  C2  UNL     1      -7.474 -30.530  14.995  1.00  0.00    -0.018 C 
HETATM   12  C1  UNL     1      -8.221 -29.525  14.508  1.00  0.00     0.008 C 
ENDBRANCH  10  11
ENDBRANCH   8  10
ENDBRANCH   1   8
TORSDOF 3
ENDMDL
