MODEL 1
REMARK VINA RESULT: -6.624784196      0.000      0.000
REMARK  3 active torsions:
REMARK  status: ('A' for Active; 'I' for Inactive)
REMARK    1  A    between atoms: C2_3  and  C3_4 
REMARK    2  A    between atoms: C3_4  and  N1_5 
REMARK    3  A    between atoms: N1_5  and  C4_7 
ROOT
HETATM    1  C4  UNL     1      -9.849 -32.232  17.497  1.00  0.00     0.028 A 
HETATM    2  C5  UNL     1     -10.583 -31.430  18.350  1.00  0.00     0.029 A 
HETATM    3  C6  UNL     1     -10.429 -31.486  19.717  1.00  0.00     0.002 A 
HETATM    4  C7  UNL     1      -9.515 -32.367  20.255  1.00  0.00     0.000 A 
HETATM    5  C8  UNL     1      -8.761 -33.185  19.454  1.00  0.00     0.002 A 
HETATM    6  C9  UNL     1      -8.940 -33.103  18.097  1.00  0.00     0.029 A 
ENDROOT
BRANCH   1   7
HETATM    7  N1  UNL     1     -10.017 -32.163  16.101  1.00  0.00    -0.386 N 
ATOM      8  H1  UNL     1     -10.411 -32.958  15.597  1.00  0.00     0.160 HD
BRANCH   7   9
HETATM    9  C3  UNL     1      -9.639 -30.981  15.387  1.00  0.00     0.149 C 
BRANCH   9  10
HETATM   10  C2  UNL     1      -8.199 -30.909  15.086  1.00  0.00     0.022 C 
HETATM   11  C1  UNL     1      -7.680 -29.797  14.580  1.00  0.00     0.186 C 
HETATM   12  F1  UNL     1      -8.473 -28.723  14.337  1.00  0.00    -0.220 F 
ENDBRANCH   9  10
ENDBRANCH   7   9
ENDBRANCH   1   7
TORSDOF 3
ENDMDL
MODEL 2
REMARK VINA RESULT: -6.622707069      0.788      1.649
REMARK  3 active torsions:
REMARK  status: ('A' for Active; 'I' for Inactive)
REMARK    1  A    between atoms: C2_3  and  C3_4 
REMARK    2  A    between atoms: C3_4  and  N1_5 
REMARK    3  A    between atoms: N1_5  and  C4_7 
ROOT
HETATM    1  C4  UNL     1      -9.657 -32.387  17.566  1.00  0.00     0.028 A 
HETATM    2  C5  UNL     1      -8.834 -33.222  18.296  1.00  0.00     0.029 A 
HETATM    3  C6  UNL     1      -8.794 -33.187  19.672  1.00  0.00     0.002 A 
HETATM    4  C7  UNL     1      -9.599 -32.292  20.345  1.00  0.00     0.000 A 
HETATM    5  C8  UNL     1     -10.434 -31.441  19.669  1.00  0.00     0.002 A 
HETATM    6  C9  UNL     1     -10.448 -31.503  18.299  1.00  0.00     0.029 A 
ENDROOT
BRANCH   1   7
HETATM    7  N1  UNL     1      -9.686 -32.435  16.159  1.00  0.00    -0.386 N 
ATOM      8  H1  UNL     1     -10.450 -32.915  15.682  1.00  0.00     0.160 HD
BRANCH   7   9
HETATM    9  C3  UNL     1      -8.648 -31.810  15.395  1.00  0.00     0.149 C 
BRANCH   9  10
HETATM   10  C2  UNL     1      -9.047 -30.524  14.797  1.00  0.00     0.022 C 
HETATM   11  C1  UNL     1      -8.137 -29.584  14.573  1.00  0.00     0.186 C 
HETATM   12  F1  UNL     1      -6.837 -29.803  14.895  1.00  0.00    -0.220 F 
ENDBRANCH   9  10
ENDBRANCH   7   9
ENDBRANCH   1   7
TORSDOF 3
ENDMDL
MODEL 3
REMARK VINA RESULT: -6.450516821      1.162      1.818
REMARK  3 active torsions:
REMARK  status: ('A' for Active; 'I' for Inactive)
REMARK    1  A    between atoms: C2_3  and  C3_4 
REMARK    2  A    between atoms: C3_4  and  N1_5 
REMARK    3  A    between atoms: N1_5  and  C4_7 
ROOT
HETATM    1  C4  UNL     1      -9.308 -32.302  17.100  1.00  0.00     0.028 A 
HETATM    2  C5  UNL     1      -8.541 -32.082  18.228  1.00  0.00     0.029 A 
HETATM    3  C6  UNL     1      -9.068 -31.521  19.370  1.00  0.00     0.002 A 
HETATM    4  C7  UNL     1     -10.400 -31.167  19.393  1.00  0.00     0.000 A 
HETATM    5  C8  UNL     1     -11.206 -31.364  18.301  1.00  0.00     0.002 A 
HETATM    6  C9  UNL     1     -10.648 -31.925  17.180  1.00  0.00     0.029 A 
ENDROOT
BRANCH   1   7
HETATM    7  N1  UNL     1      -8.755 -32.877  15.940  1.00  0.00    -0.386 N 
ATOM      8  H1  UNL     1      -8.887 -33.871  15.753  1.00  0.00     0.160 HD
BRANCH   7   9
HETATM    9  C3  UNL     1      -8.008 -32.070  15.022  1.00  0.00     0.149 C 
BRANCH   9  10
HETATM   10  C2  UNL     1      -8.747 -30.892  14.535  1.00  0.00     0.022 C 
HETATM   11  C1  UNL     1      -8.159 -29.702  14.510  1.00  0.00     0.186 C 
HETATM   12  F1  UNL     1      -6.878 -29.565  14.932  1.00  0.00    -0.220 F 
ENDBRANCH   9  10
ENDBRANCH   7   9
ENDBRANCH   1   7
TORSDOF 3
ENDMDL
MODEL 4
REMARK VINA RESULT: -6.403306959      1.005      1.232
REMARK  3 active torsions:
REMARK  status: ('A' for Active; 'I' for Inactive)
REMARK    1  A    between atoms: C2_3  and  C3_4 
REMARK    2  A    between atoms: C3_4  and  N1_5 
REMARK    3  A    between atoms: N1_5  and  C4_7 
ROOT
HETATM    1  C4  UNL     1      -9.333 -32.519  17.491  1.00  0.00     0.028 A 
HETATM    2  C5  UNL     1     -10.317 -31.552  17.566  1.00  0.00     0.029 A 
HETATM    3  C6  UNL     1     -10.821 -31.115  18.772  1.00  0.00     0.002 A 
HETATM    4  C7  UNL     1     -10.331 -31.658  19.941  1.00  0.00     0.000 A 
HETATM    5  C8  UNL     1      -9.356 -32.622  19.923  1.00  0.00     0.002 A 
HETATM    6  C9  UNL     1      -8.877 -33.033  18.705  1.00  0.00     0.029 A 
ENDROOT
BRANCH   1   7
HETATM    7  N1  UNL     1      -8.828 -32.955  16.252  1.00  0.00    -0.386 N 
ATOM      8  H1  UNL     1      -9.256 -33.752  15.780  1.00  0.00     0.160 HD
BRANCH   7   9
HETATM    9  C3  UNL     1      -7.716 -32.281  15.650  1.00  0.00     0.149 C 
BRANCH   9  10
HETATM   10  C2  UNL     1      -8.029 -31.675  14.345  1.00  0.00     0.022 C 
HETATM   11  C1  UNL     1      -8.465 -30.422  14.280  1.00  0.00     0.186 C 
HETATM   12  F1  UNL     1      -8.624 -29.697  15.415  1.00  0.00    -0.220 F 
ENDBRANCH   9  10
ENDBRANCH   7   9
ENDBRANCH   1   7
TORSDOF 3
ENDMDL
MODEL 5
REMARK VINA RESULT: -6.328461680      1.353      1.417
REMARK  3 active torsions:
REMARK  status: ('A' for Active; 'I' for Inactive)
REMARK    1  A    between atoms: C2_3  and  C3_4 
REMARK    2  A    between atoms: C3_4  and  N1_5 
REMARK    3  A    between atoms: N1_5  and  C4_7 
ROOT
HETATM    1  C4  UNL     1      -9.843 -31.864  17.445  1.00  0.00     0.028 A 
HETATM    2  C5  UNL     1     -10.524 -31.185  18.437  1.00  0.00     0.029 A 
HETATM    3  C6  UNL     1     -10.386 -31.507  19.769  1.00  0.00     0.002 A 
HETATM    4  C7  UNL     1      -9.544 -32.539  20.127  1.00  0.00     0.000 A 
HETATM    5  C8  UNL     1      -8.845 -33.245  19.182  1.00  0.00     0.002 A 
HETATM    6  C9  UNL     1      -9.006 -32.897  17.865  1.00  0.00     0.029 A 
ENDROOT
BRANCH   1   7
HETATM    7  N1  UNL     1      -9.994 -31.522  16.088  1.00  0.00    -0.386 N 
ATOM      8  H1  UNL     1     -10.671 -32.022  15.510  1.00  0.00     0.160 HD
BRANCH   7   9
HETATM    9  C3  UNL     1      -9.202 -30.475  15.516  1.00  0.00     0.149 C 
BRANCH   9  10
HETATM   10  C2  UNL     1      -8.640 -30.813  14.197  1.00  0.00     0.022 C 
HETATM   11  C1  UNL     1      -7.707 -31.751  14.092  1.00  0.00     0.186 C 
HETATM   12  F1  UNL     1      -7.267 -32.401  15.198  1.00  0.00    -0.220 F 
ENDBRANCH   9  10
ENDBRANCH   7   9
ENDBRANCH   1   7
TORSDOF 3
ENDMDL
