MODEL 1
REMARK VINA RESULT: -6.176511094      0.000      0.000
REMARK  4 active torsions:
REMARK  status: ('A' for Active; 'I' for Inactive)
REMARK    1  A    between atoms: C2_2  and  C3_3 
REMARK    2  A    between atoms: C3_3  and  C4_4 
REMARK    3  A    between atoms: C7_8  and  C8_9 
REMARK    4  A    between atoms: C8_9  and  N1_10 
ROOT
HETATM    1  C4  UNL     1      -8.802 -33.038  17.298  1.00  0.00     0.015 C 
HETATM    2  C5  UNL     1     -10.112 -32.561  16.804  1.00  0.00     0.016 C 
HETATM    3  C6  UNL     1      -9.911 -31.565  15.965  1.00  0.00     0.096 C 
HETATM    4  F1  UNL     1     -10.904 -30.885  15.316  1.00  0.00    -0.211 F 
HETATM    5  C7  UNL     1      -8.482 -31.225  15.772  1.00  0.00     0.073 C 
HETATM    6  C9  UNL     1      -7.864 -31.930  16.967  1.00  0.00     0.022 C 
ENDROOT
BRANCH   5   7
HETATM    7  C8  UNL     1      -7.923 -31.698  14.465  1.00  0.00     0.241 C 
BRANCH   7   8
HETATM    8  N1  UNL     1      -8.438 -30.986  13.338  1.00  0.00    -0.079 N 
ATOM      9  H13 UNL     1      -9.458 -30.986  13.344  1.00  0.00     0.274 HD
ATOM     10  H12 UNL     1      -8.269 -29.985  13.434  1.00  0.00     0.274 HD
ATOM     11  H11 UNL     1      -8.083 -31.330  12.446  1.00  0.00     0.274 HD
ENDBRANCH   7   8
ENDBRANCH   5   7
BRANCH   1  12
HETATM   12  C3  UNL     1      -8.833 -33.374  18.772  1.00  0.00     0.035 C 
BRANCH  12  13
HETATM   13  C2  UNL     1      -9.550 -32.367  19.568  1.00  0.00    -0.036 C 
HETATM   14  C1  UNL     1      -9.931 -32.614  20.806  1.00  0.00     0.007 C 
ENDBRANCH  12  13
ENDBRANCH   1  12
TORSDOF 4
ENDMDL
MODEL 2
REMARK VINA RESULT: -5.992863759      1.603      2.016
REMARK  4 active torsions:
REMARK  status: ('A' for Active; 'I' for Inactive)
REMARK    1  A    between atoms: C2_2  and  C3_3 
REMARK    2  A    between atoms: C3_3  and  C4_4 
REMARK    3  A    between atoms: C7_8  and  C8_9 
REMARK    4  A    between atoms: C8_9  and  N1_10 
ROOT
HETATM    1  C4  UNL     1      -8.637 -32.029  17.188  1.00  0.00     0.015 C 
HETATM    2  C5  UNL     1      -7.733 -32.490  16.112  1.00  0.00     0.016 C 
HETATM    3  C6  UNL     1      -8.066 -31.883  14.991  1.00  0.00     0.096 C 
HETATM    4  F1  UNL     1      -7.438 -32.072  13.790  1.00  0.00    -0.211 F 
HETATM    5  C7  UNL     1      -9.210 -30.953  15.131  1.00  0.00     0.073 C 
HETATM    6  C9  UNL     1      -9.781 -31.412  16.462  1.00  0.00     0.022 C 
ENDROOT
BRANCH   5   7
HETATM    7  C8  UNL     1      -8.812 -29.509  15.137  1.00  0.00     0.241 C 
BRANCH   7   8
HETATM    8  N1  UNL     1      -8.204 -29.084  13.915  1.00  0.00    -0.079 N 
ATOM      9  H13 UNL     1      -7.720 -29.859  13.463  1.00  0.00     0.274 HD
ATOM     10  H12 UNL     1      -8.911 -28.890  13.206  1.00  0.00     0.274 HD
ATOM     11  H11 UNL     1      -7.579 -28.286  14.031  1.00  0.00     0.274 HD
ENDBRANCH   7   8
ENDBRANCH   5   7
BRANCH   1  12
HETATM   12  C3  UNL     1      -9.051 -33.154  18.109  1.00  0.00     0.035 C 
BRANCH  12  13
HETATM   13  C2  UNL     1      -8.638 -32.929  19.502  1.00  0.00    -0.036 C 
HETATM   14  C1  UNL     1      -9.512 -32.949  20.490  1.00  0.00     0.007 C 
ENDBRANCH  12  13
ENDBRANCH   1  12
TORSDOF 4
ENDMDL
MODEL 3
REMARK VINA RESULT: -5.944084354      2.532      4.406
REMARK  4 active torsions:
REMARK  status: ('A' for Active; 'I' for Inactive)
REMARK    1  A    between atoms: C2_2  and  C3_3 
REMARK    2  A    between atoms: C3_3  and  C4_4 
REMARK    3  A    between atoms: C7_8  and  C8_9 
REMARK    4  A    between atoms: C8_9  and  N1_10 
ROOT
HETATM    1  C4  UNL     1      -8.691 -31.413  16.008  1.00  0.00     0.015 C 
HETATM    2  C5  UNL     1     -10.168 -31.491  15.966  1.00  0.00     0.016 C 
HETATM    3  C6  UNL     1     -10.568 -32.399  16.833  1.00  0.00     0.096 C 
HETATM    4  F1  UNL     1     -11.875 -32.732  17.059  1.00  0.00    -0.211 F 
HETATM    5  C7  UNL     1      -9.462 -33.055  17.567  1.00  0.00     0.073 C 
HETATM    6  C9  UNL     1      -8.281 -32.669  16.692  1.00  0.00     0.022 C 
ENDROOT
BRANCH   5   7
HETATM    7  C8  UNL     1      -9.315 -32.581  18.981  1.00  0.00     0.241 C 
BRANCH   7   8
HETATM    8  N1  UNL     1      -8.862 -33.601  19.875  1.00  0.00    -0.079 N 
ATOM      9  H13 UNL     1      -9.557 -33.783  20.599  1.00  0.00     0.274 HD
ATOM     10  H12 UNL     1      -8.856 -34.511  19.414  1.00  0.00     0.274 HD
ATOM     11  H11 UNL     1      -7.953 -33.398  20.290  1.00  0.00     0.274 HD
ENDBRANCH   7   8
ENDBRANCH   5   7
BRANCH   1  12
HETATM   12  C3  UNL     1      -8.086 -31.257  14.632  1.00  0.00     0.035 C 
BRANCH  12  13
HETATM   13  C2  UNL     1      -7.509 -29.923  14.414  1.00  0.00    -0.036 C 
HETATM   14  C1  UNL     1      -8.262 -28.841  14.402  1.00  0.00     0.007 C 
ENDBRANCH  12  13
ENDBRANCH   1  12
TORSDOF 4
ENDMDL
MODEL 4
REMARK VINA RESULT: -5.835450063      2.770      4.498
REMARK  4 active torsions:
REMARK  status: ('A' for Active; 'I' for Inactive)
REMARK    1  A    between atoms: C2_2  and  C3_3 
REMARK    2  A    between atoms: C3_3  and  C4_4 
REMARK    3  A    between atoms: C7_8  and  C8_9 
REMARK    4  A    between atoms: C8_9  and  N1_10 
ROOT
HETATM    1  C4  UNL     1      -8.429 -31.754  16.538  1.00  0.00     0.015 C 
HETATM    2  C5  UNL     1      -9.653 -31.043  16.968  1.00  0.00     0.016 C 
HETATM    3  C6  UNL     1     -10.245 -31.751  17.908  1.00  0.00     0.096 C 
HETATM    4  F1  UNL     1     -11.405 -31.391  18.536  1.00  0.00    -0.211 F 
HETATM    5  C7  UNL     1      -9.539 -33.009  18.244  1.00  0.00     0.073 C 
HETATM    6  C9  UNL     1      -8.619 -33.142  17.042  1.00  0.00     0.022 C 
ENDROOT
BRANCH   5   7
HETATM    7  C8  UNL     1      -8.793 -32.951  19.542  1.00  0.00     0.241 C 
BRANCH   7   8
HETATM    8  N1  UNL     1      -9.642 -33.051  20.688  1.00  0.00    -0.079 N 
ATOM      9  H13 UNL     1     -10.528 -32.573  20.525  1.00  0.00     0.274 HD
ATOM     10  H12 UNL     1      -9.984 -34.005  20.803  1.00  0.00     0.274 HD
ATOM     11  H11 UNL     1      -9.203 -32.717  21.546  1.00  0.00     0.274 HD
ENDBRANCH   7   8
ENDBRANCH   5   7
BRANCH   1  12
HETATM   12  C3  UNL     1      -8.223 -31.685  15.041  1.00  0.00     0.035 C 
BRANCH  12  13
HETATM   13  C2  UNL     1      -8.765 -30.453  14.450  1.00  0.00    -0.036 C 
HETATM   14  C1  UNL     1      -8.062 -29.337  14.422  1.00  0.00     0.007 C 
ENDBRANCH  12  13
ENDBRANCH   1  12
TORSDOF 4
ENDMDL
MODEL 5
REMARK VINA RESULT: -5.829664085      2.970      4.720
REMARK  4 active torsions:
REMARK  status: ('A' for Active; 'I' for Inactive)
REMARK    1  A    between atoms: C2_2  and  C3_3 
REMARK    2  A    between atoms: C3_3  and  C4_4 
REMARK    3  A    between atoms: C7_8  and  C8_9 
REMARK    4  A    between atoms: C8_9  and  N1_10 
ROOT
HETATM    1  C4  UNL     1      -9.721 -31.915  16.929  1.00  0.00     0.015 C 
HETATM    2  C5  UNL     1      -8.269 -32.070  17.161  1.00  0.00     0.016 C 
HETATM    3  C6  UNL     1      -8.014 -31.829  18.430  1.00  0.00     0.096 C 
HETATM    4  F1  UNL     1      -6.770 -31.883  18.996  1.00  0.00    -0.211 F 
HETATM    5  C7  UNL     1      -9.214 -31.480  19.225  1.00  0.00     0.073 C 
HETATM    6  C9  UNL     1     -10.198 -31.152  18.115  1.00  0.00     0.022 C 
ENDROOT
BRANCH   5   7
HETATM    7  C8  UNL     1      -9.690 -32.589  20.113  1.00  0.00     0.241 C 
BRANCH   7   8
HETATM    8  N1  UNL     1      -8.921 -33.787  19.983  1.00  0.00    -0.079 N 
ATOM      9  H13 UNL     1      -7.923 -33.583  20.021  1.00  0.00     0.274 HD
ATOM     10  H12 UNL     1      -9.007 -34.365  20.819  1.00  0.00     0.274 HD
ATOM     11  H11 UNL     1      -9.149 -34.324  19.146  1.00  0.00     0.274 HD
ENDBRANCH   7   8
ENDBRANCH   5   7
BRANCH   1  12
HETATM   12  C3  UNL     1     -10.022 -31.228  15.616  1.00  0.00     0.035 C 
BRANCH  12  13
HETATM   13  C2  UNL     1      -8.806 -30.880  14.867  1.00  0.00    -0.036 C 
HETATM   14  C1  UNL     1      -8.464 -29.623  14.658  1.00  0.00     0.007 C 
ENDBRANCH  12  13
ENDBRANCH   1  12
TORSDOF 4
ENDMDL
