MODEL 1
REMARK VINA RESULT: -5.538831412      0.000      0.000
REMARK  4 active torsions:
REMARK  status: ('A' for Active; 'I' for Inactive)
REMARK    1  A    between atoms: N1_1  and  C1_5 
REMARK    2  A    between atoms: C1_5  and  C2_6 
REMARK    3  A    between atoms: C2_6  and  C3_7 
REMARK    4  A    between atoms: C7_11  and  C8_12 
ROOT
HETATM    1  C3  UNL     1      -9.207 -32.482  17.338  1.00  0.00    -0.007 C 
HETATM    2  C4  UNL     1      -8.787 -33.104  18.662  1.00  0.00     0.005 C 
HETATM    3  C5  UNL     1      -8.500 -31.898  19.534  1.00  0.00     0.001 C 
HETATM    4  C6  UNL     1      -9.626 -30.973  19.174  1.00  0.00     0.007 C 
HETATM    5  C7  UNL     1      -9.958 -31.255  17.717  1.00  0.00     0.018 C 
ENDROOT
BRANCH   1   6
HETATM    6  C2  UNL     1      -7.956 -32.231  16.557  1.00  0.00     0.032 C 
BRANCH   6   7
HETATM    7  C1  UNL     1      -8.139 -31.210  15.462  1.00  0.00     0.230 C 
BRANCH   7   8
HETATM    8  N1  UNL     1      -7.666 -31.786  14.217  1.00  0.00    -0.079 N 
ATOM      9  H13 UNL     1      -6.734 -31.459  13.962  1.00  0.00     0.274 HD
ATOM     10  H12 UNL     1      -7.447 -32.778  14.301  1.00  0.00     0.274 HD
ATOM     11  H11 UNL     1      -8.359 -31.597  13.492  1.00  0.00     0.274 HD
ENDBRANCH   7   8
ENDBRANCH   6   7
ENDBRANCH   1   6
BRANCH   5  12
HETATM   12  C8  UNL     1     -11.457 -31.582  17.661  1.00  0.00     0.227 C 
HETATM   13  F1  UNL     1     -11.681 -32.654  16.812  1.00  0.00    -0.255 F 
ENDBRANCH   5  12
TORSDOF 4
ENDMDL
MODEL 2
REMARK VINA RESULT: -5.384970811      2.767      3.873
REMARK  4 active torsions:
REMARK  status: ('A' for Active; 'I' for Inactive)
REMARK    1  A    between atoms: N1_1  and  C1_5 
REMARK    2  A    between atoms: C1_5  and  C2_6 
REMARK    3  A    between atoms: C2_6  and  C3_7 
REMARK    4  A    between atoms: C7_11  and  C8_12 
ROOT
HETATM    1  C3  UNL     1      -8.568 -32.451  16.809  1.00  0.00    -0.007 C 
HETATM    2  C4  UNL     1      -9.987 -32.970  16.629  1.00  0.00     0.005 C 
HETATM    3  C5  UNL     1     -10.789 -31.705  16.393  1.00  0.00     0.001 C 
HETATM    4  C6  UNL     1      -9.885 -30.925  15.483  1.00  0.00     0.007 C 
HETATM    5  C7  UNL     1      -8.463 -31.300  15.873  1.00  0.00     0.018 C 
ENDROOT
BRANCH   1   6
HETATM    6  C2  UNL     1      -8.411 -32.098  18.253  1.00  0.00     0.032 C 
BRANCH   6   7
HETATM    7  C1  UNL     1      -8.779 -33.229  19.181  1.00  0.00     0.230 C 
BRANCH   7   8
HETATM    8  N1  UNL     1      -9.574 -32.688  20.268  1.00  0.00    -0.079 N 
ATOM      9  H13 UNL     1      -9.930 -33.412  20.892  1.00  0.00     0.274 HD
ATOM     10  H12 UNL     1      -9.012 -32.181  20.951  1.00  0.00     0.274 HD
ATOM     11  H11 UNL     1     -10.317 -32.115  19.868  1.00  0.00     0.274 HD
ENDBRANCH   7   8
ENDBRANCH   6   7
ENDBRANCH   1   6
BRANCH   5  12
HETATM   12  C8  UNL     1      -7.771 -31.790  14.594  1.00  0.00     0.227 C 
HETATM   13  F1  UNL     1      -8.407 -31.273  13.477  1.00  0.00    -0.255 F 
ENDBRANCH   5  12
TORSDOF 4
ENDMDL
MODEL 3
REMARK VINA RESULT: -5.199710339      2.683      3.883
REMARK  4 active torsions:
REMARK  status: ('A' for Active; 'I' for Inactive)
REMARK    1  A    between atoms: N1_1  and  C1_5 
REMARK    2  A    between atoms: C1_5  and  C2_6 
REMARK    3  A    between atoms: C2_6  and  C3_7 
REMARK    4  A    between atoms: C7_11  and  C8_12 
ROOT
HETATM    1  C3  UNL     1      -9.308 -32.410  17.477  1.00  0.00    -0.007 C 
HETATM    2  C4  UNL     1     -10.718 -32.647  16.956  1.00  0.00     0.005 C 
HETATM    3  C5  UNL     1     -11.028 -31.368  16.205  1.00  0.00     0.001 C 
HETATM    4  C6  UNL     1      -9.732 -31.095  15.499  1.00  0.00     0.007 C 
HETATM    5  C7  UNL     1      -8.633 -31.631  16.404  1.00  0.00     0.018 C 
ENDROOT
BRANCH   1   6
HETATM    6  C2  UNL     1      -9.439 -31.692  18.782  1.00  0.00     0.032 C 
BRANCH   6   7
HETATM    7  C1  UNL     1      -8.595 -32.297  19.876  1.00  0.00     0.230 C 
BRANCH   7   8
HETATM    8  N1  UNL     1      -8.896 -33.715  19.954  1.00  0.00    -0.079 N 
ATOM      9  H13 UNL     1      -9.889 -33.897  20.098  1.00  0.00     0.274 HD
ATOM     10  H12 UNL     1      -8.797 -34.187  19.056  1.00  0.00     0.274 HD
ATOM     11  H11 UNL     1      -8.311 -34.127  20.681  1.00  0.00     0.274 HD
ENDBRANCH   7   8
ENDBRANCH   6   7
ENDBRANCH   1   6
BRANCH   5  12
HETATM   12  C8  UNL     1      -7.803 -32.608  15.560  1.00  0.00     0.227 C 
HETATM   13  F1  UNL     1      -7.545 -32.062  14.313  1.00  0.00    -0.255 F 
ENDBRANCH   5  12
TORSDOF 4
ENDMDL
MODEL 4
REMARK VINA RESULT: -5.168866765      3.054      4.219
REMARK  4 active torsions:
REMARK  status: ('A' for Active; 'I' for Inactive)
REMARK    1  A    between atoms: N1_1  and  C1_5 
REMARK    2  A    between atoms: C1_5  and  C2_6 
REMARK    3  A    between atoms: C2_6  and  C3_7 
REMARK    4  A    between atoms: C7_11  and  C8_12 
ROOT
HETATM    1  C3  UNL     1      -9.337 -30.952  16.077  1.00  0.00    -0.007 C 
HETATM    2  C4  UNL     1      -8.262 -31.826  16.708  1.00  0.00     0.005 C 
HETATM    3  C5  UNL     1      -7.867 -32.756  15.578  1.00  0.00     0.001 C 
HETATM    4  C6  UNL     1      -7.839 -31.827  14.400  1.00  0.00     0.007 C 
HETATM    5  C7  UNL     1      -8.897 -30.768  14.668  1.00  0.00     0.018 C 
ENDROOT
BRANCH   1   6
HETATM    6  C2  UNL     1     -10.636 -31.674  16.236  1.00  0.00     0.032 C 
BRANCH   6   7
HETATM    7  C1  UNL     1     -10.871 -32.163  17.644  1.00  0.00     0.230 C 
BRANCH   7   8
HETATM    8  N1  UNL     1     -11.252 -31.028  18.464  1.00  0.00    -0.079 N 
ATOM      9  H13 UNL     1     -10.682 -30.203  18.280  1.00  0.00     0.274 HD
ATOM     10  H12 UNL     1     -12.154 -30.636  18.197  1.00  0.00     0.274 HD
ATOM     11  H11 UNL     1     -11.222 -31.315  19.442  1.00  0.00     0.274 HD
ENDBRANCH   7   8
ENDBRANCH   6   7
ENDBRANCH   1   6
BRANCH   5  12
HETATM   12  C8  UNL     1      -8.194 -29.407  14.565  1.00  0.00     0.227 C 
HETATM   13  F1  UNL     1      -6.842 -29.546  14.833  1.00  0.00    -0.255 F 
ENDBRANCH   5  12
TORSDOF 4
ENDMDL
MODEL 5
REMARK VINA RESULT: -5.118805308      1.695      2.195
REMARK  4 active torsions:
REMARK  status: ('A' for Active; 'I' for Inactive)
REMARK    1  A    between atoms: N1_1  and  C1_5 
REMARK    2  A    between atoms: C1_5  and  C2_6 
REMARK    3  A    between atoms: C2_6  and  C3_7 
REMARK    4  A    between atoms: C7_11  and  C8_12 
ROOT
HETATM    1  C3  UNL     1     -10.267 -31.395  16.667  1.00  0.00    -0.007 C 
HETATM    2  C4  UNL     1     -10.222 -32.913  16.755  1.00  0.00     0.005 C 
HETATM    3  C5  UNL     1      -8.822 -33.187  17.269  1.00  0.00     0.001 C 
HETATM    4  C6  UNL     1      -8.652 -32.118  18.308  1.00  0.00     0.007 C 
HETATM    5  C7  UNL     1      -9.460 -30.923  17.824  1.00  0.00     0.018 C 
ENDROOT
BRANCH   1   6
HETATM    6  C2  UNL     1      -9.717 -31.018  15.328  1.00  0.00     0.032 C 
BRANCH   6   7
HETATM    7  C1  UNL     1      -8.673 -29.931  15.403  1.00  0.00     0.230 C 
BRANCH   7   8
HETATM    8  N1  UNL     1      -8.265 -29.596  14.052  1.00  0.00    -0.079 N 
ATOM      9  H13 UNL     1      -8.182 -28.590  13.905  1.00  0.00     0.274 HD
ATOM     10  H12 UNL     1      -7.295 -29.845  13.861  1.00  0.00     0.274 HD
ATOM     11  H11 UNL     1      -8.917 -30.035  13.401  1.00  0.00     0.274 HD
ENDBRANCH   7   8
ENDBRANCH   6   7
ENDBRANCH   1   6
BRANCH   5  12
HETATM   12  C8  UNL     1     -10.427 -30.557  18.958  1.00  0.00     0.227 C 
HETATM   13  F1  UNL     1     -10.431 -31.552  19.923  1.00  0.00    -0.255 F 
ENDBRANCH   5  12
TORSDOF 4
ENDMDL
