MODEL 1
REMARK VINA RESULT: -7.572362170      0.000      0.000
REMARK  4 active torsions:
REMARK  status: ('A' for Active; 'I' for Inactive)
REMARK    1  A    between atoms: N1_1  and  C1_5 
REMARK    2  A    between atoms: C1_5  and  C2_6 
REMARK    3  A    between atoms: C2_6  and  N2_7 
REMARK    4  A    between atoms: N2_7  and  C3_9 
ROOT
HETATM    1  C3  UNL     1      22.018  10.469  21.647  1.00  0.00     0.077 C 
HETATM    2  C4  UNL     1      23.109   9.555  21.097  1.00  0.00     0.030 C 
HETATM    3  C5  UNL     1      23.618  10.042  19.786  1.00  0.00     0.073 C 
HETATM    4  C6  UNL     1      23.970  11.498  19.770  1.00  0.00     0.201 C 
HETATM    5  C7  UNL     1      22.831  12.320  20.277  1.00  0.00     0.073 C 
HETATM    6  C8  UNL     1      21.600  11.480  20.600  1.00  0.00     0.030 C 
HETATM    7  O1  UNL     1      24.315  11.804  18.438  1.00  0.00    -0.197 OA
HETATM    8  O2  UNL     1      25.423  11.071  18.328  1.00  0.00    -0.197 OA
HETATM    9  C9  UNL     1      26.143  11.551  19.437  1.00  0.00     0.208 C 
HETATM   10  O3  UNL     1      25.182  11.774  20.409  1.00  0.00    -0.313 OA
HETATM   11  C10 UNL     1      27.170  10.562  19.917  1.00  0.00     0.052 C 
HETATM   12  C11 UNL     1      28.127  10.189  18.824  1.00  0.00     0.014 C 
HETATM   13  C12 UNL     1      28.833  11.427  18.285  1.00  0.00    -0.013 C 
HETATM   14  C13 UNL     1      29.657  11.980  19.423  1.00  0.00     0.009 C 
HETATM   15  C14 UNL     1      28.728  12.396  20.528  1.00  0.00    -0.013 C 
HETATM   16  C15 UNL     1      27.939  11.214  21.041  1.00  0.00     0.014 C 
HETATM   17  C16 UNL     1      27.724  13.415  20.033  1.00  0.00     0.014 C 
HETATM   18  C17 UNL     1      26.848  12.795  18.986  1.00  0.00     0.052 C 
HETATM   19  C18 UNL     1      27.758  12.395  17.828  1.00  0.00     0.014 C 
ENDROOT
BRANCH   1  20
HETATM   20  N2  UNL     1      20.942   9.608  22.040  1.00  0.00    -0.415 N 
ATOM     21  H2  UNL     1      20.661   8.801  21.483  1.00  0.00     0.153 HD
BRANCH  20  22
HETATM   22  C2  UNL     1      20.283   9.953  23.273  1.00  0.00     0.141 C 
BRANCH  22  23
HETATM   23  C1  UNL     1      21.425  10.289  24.239  1.00  0.00     0.248 C 
BRANCH  23  24
HETATM   24  N1  UNL     1      21.996   9.090  24.832  1.00  0.00    -0.078 N 
ATOM     25  H13 UNL     1      21.938   8.296  24.195  1.00  0.00     0.274 HD
ATOM     26  H12 UNL     1      23.011   9.159  24.907  1.00  0.00     0.274 HD
ATOM     27  H11 UNL     1      21.570   8.876  25.734  1.00  0.00     0.274 HD
ENDBRANCH  23  24
ENDBRANCH  22  23
ENDBRANCH  20  22
ENDBRANCH   1  20
TORSDOF 4
ENDMDL
MODEL 2
REMARK VINA RESULT: -7.493976667      3.436      5.072
REMARK  4 active torsions:
REMARK  status: ('A' for Active; 'I' for Inactive)
REMARK    1  A    between atoms: N1_1  and  C1_5 
REMARK    2  A    between atoms: C1_5  and  C2_6 
REMARK    3  A    between atoms: C2_6  and  N2_7 
REMARK    4  A    between atoms: N2_7  and  C3_9 
ROOT
HETATM    1  C3  UNL     1      22.243  14.008  25.289  1.00  0.00     0.077 C 
HETATM    2  C4  UNL     1      22.863  12.633  25.060  1.00  0.00     0.030 C 
HETATM    3  C5  UNL     1      21.995  11.778  24.206  1.00  0.00     0.073 C 
HETATM    4  C6  UNL     1      21.515  12.451  22.957  1.00  0.00     0.201 C 
HETATM    5  C7  UNL     1      20.879  13.764  23.277  1.00  0.00     0.073 C 
HETATM    6  C8  UNL     1      20.818  14.036  24.777  1.00  0.00     0.030 C 
HETATM    7  O1  UNL     1      20.624  11.548  22.342  1.00  0.00    -0.197 OA
HETATM    8  O2  UNL     1      21.483  10.577  22.030  1.00  0.00    -0.197 OA
HETATM    9  C9  UNL     1      22.439  11.319  21.314  1.00  0.00     0.208 C 
HETATM   10  O3  UNL     1      22.500  12.538  21.970  1.00  0.00    -0.313 OA
HETATM   11  C10 UNL     1      23.785  10.648  21.304  1.00  0.00     0.052 C 
HETATM   12  C11 UNL     1      23.705   9.262  20.740  1.00  0.00     0.014 C 
HETATM   13  C12 UNL     1      23.147   9.292  19.322  1.00  0.00    -0.013 C 
HETATM   14  C13 UNL     1      24.147  10.053  18.484  1.00  0.00     0.009 C 
HETATM   15  C14 UNL     1      24.233  11.460  19.002  1.00  0.00    -0.013 C 
HETATM   16  C15 UNL     1      24.701  11.478  20.438  1.00  0.00     0.014 C 
HETATM   17  C16 UNL     1      22.875  12.128  18.972  1.00  0.00     0.014 C 
HETATM   18  C17 UNL     1      21.940  11.416  19.903  1.00  0.00     0.052 C 
HETATM   19  C18 UNL     1      21.800   9.987  19.383  1.00  0.00     0.014 C 
ENDROOT
BRANCH   1  20
HETATM   20  N2  UNL     1      22.326  14.250  26.699  1.00  0.00    -0.415 N 
ATOM     21  H2  UNL     1      23.158  14.649  27.133  1.00  0.00     0.153 HD
BRANCH  20  22
HETATM   22  C2  UNL     1      21.159  13.894  27.465  1.00  0.00     0.141 C 
BRANCH  22  23
HETATM   23  C1  UNL     1      21.718  13.293  28.759  1.00  0.00     0.248 C 
BRANCH  23  24
HETATM   24  N1  UNL     1      22.489  12.087  28.502  1.00  0.00    -0.078 N 
ATOM     25  H13 UNL     1      22.829  11.670  29.368  1.00  0.00     0.274 HD
ATOM     26  H12 UNL     1      21.893  11.324  28.181  1.00  0.00     0.274 HD
ATOM     27  H11 UNL     1      23.253  12.262  27.848  1.00  0.00     0.274 HD
ENDBRANCH  23  24
ENDBRANCH  22  23
ENDBRANCH  20  22
ENDBRANCH   1  20
TORSDOF 4
ENDMDL
MODEL 3
REMARK VINA RESULT: -7.465487013      3.552      5.478
REMARK  4 active torsions:
REMARK  status: ('A' for Active; 'I' for Inactive)
REMARK    1  A    between atoms: N1_1  and  C1_5 
REMARK    2  A    between atoms: C1_5  and  C2_6 
REMARK    3  A    between atoms: C2_6  and  N2_7 
REMARK    4  A    between atoms: N2_7  and  C3_9 
ROOT
HETATM    1  C3  UNL     1      18.512  10.841  24.881  1.00  0.00     0.077 C 
HETATM    2  C4  UNL     1      18.621  11.568  23.543  1.00  0.00     0.030 C 
HETATM    3  C5  UNL     1      19.945  12.228  23.388  1.00  0.00     0.073 C 
HETATM    4  C6  UNL     1      21.111  11.342  23.702  1.00  0.00     0.201 C 
HETATM    5  C7  UNL     1      20.945  10.711  25.046  1.00  0.00     0.073 C 
HETATM    6  C8  UNL     1      19.689  11.189  25.767  1.00  0.00     0.030 C 
HETATM    7  O1  UNL     1      22.258  12.156  23.618  1.00  0.00    -0.197 OA
HETATM    8  O2  UNL     1      22.236  12.425  22.313  1.00  0.00    -0.197 OA
HETATM    9  C9  UNL     1      22.183  11.119  21.795  1.00  0.00     0.208 C 
HETATM   10  O3  UNL     1      21.386  10.420  22.688  1.00  0.00    -0.313 OA
HETATM   11  C10 UNL     1      21.596  11.082  20.411  1.00  0.00     0.052 C 
HETATM   12  C11 UNL     1      22.358  11.962  19.467  1.00  0.00     0.014 C 
HETATM   13  C12 UNL     1      23.821  11.540  19.404  1.00  0.00    -0.013 C 
HETATM   14  C13 UNL     1      23.842  10.147  18.824  1.00  0.00     0.009 C 
HETATM   15  C14 UNL     1      23.112   9.227  19.761  1.00  0.00    -0.013 C 
HETATM   16  C15 UNL     1      21.672   9.655  19.923  1.00  0.00     0.014 C 
HETATM   17  C16 UNL     1      23.739   9.254  21.138  1.00  0.00     0.014 C 
HETATM   18  C17 UNL     1      23.597  10.624  21.732  1.00  0.00     0.052 C 
HETATM   19  C18 UNL     1      24.362  11.582  20.821  1.00  0.00     0.014 C 
ENDROOT
BRANCH   1  20
HETATM   20  N2  UNL     1      17.259  11.242  25.448  1.00  0.00    -0.415 N 
ATOM     21  H2  UNL     1      17.203  11.855  26.262  1.00  0.00     0.153 HD
BRANCH  20  22
HETATM   22  C2  UNL     1      16.082  10.727  24.796  1.00  0.00     0.141 C 
BRANCH  22  23
HETATM   23  C1  UNL     1      16.034   9.250  25.203  1.00  0.00     0.248 C 
BRANCH  23  24
HETATM   24  N1  UNL     1      15.292   8.452  24.240  1.00  0.00    -0.078 N 
ATOM     25  H13 UNL     1      15.376   8.833  23.298  1.00  0.00     0.274 HD
ATOM     26  H12 UNL     1      15.736   7.547  24.085  1.00  0.00     0.274 HD
ATOM     27  H11 UNL     1      14.315   8.345  24.513  1.00  0.00     0.274 HD
ENDBRANCH  23  24
ENDBRANCH  22  23
ENDBRANCH  20  22
ENDBRANCH   1  20
TORSDOF 4
ENDMDL
MODEL 4
REMARK VINA RESULT: -7.396313352      2.256      3.592
REMARK  4 active torsions:
REMARK  status: ('A' for Active; 'I' for Inactive)
REMARK    1  A    between atoms: N1_1  and  C1_5 
REMARK    2  A    between atoms: C1_5  and  C2_6 
REMARK    3  A    between atoms: C2_6  and  N2_7 
REMARK    4  A    between atoms: N2_7  and  C3_9 
ROOT
HETATM    1  C3  UNL     1      21.256  10.752  24.572  1.00  0.00     0.077 C 
HETATM    2  C4  UNL     1      22.735  10.575  24.238  1.00  0.00     0.030 C 
HETATM    3  C5  UNL     1      22.920   9.864  22.944  1.00  0.00     0.073 C 
HETATM    4  C6  UNL     1      22.098  10.417  21.820  1.00  0.00     0.201 C 
HETATM    5  C7  UNL     1      20.661  10.510  22.215  1.00  0.00     0.073 C 
HETATM    6  C8  UNL     1      20.400   9.954  23.612  1.00  0.00     0.030 C 
HETATM    7  O1  UNL     1      22.308   9.560  20.721  1.00  0.00    -0.197 OA
HETATM    8  O2  UNL     1      23.600   9.807  20.499  1.00  0.00    -0.197 OA
HETATM    9  C9  UNL     1      23.563  11.208  20.383  1.00  0.00     0.208 C 
HETATM   10  O3  UNL     1      22.610  11.611  21.304  1.00  0.00    -0.313 OA
HETATM   11  C10 UNL     1      24.897  11.836  20.683  1.00  0.00     0.052 C 
HETATM   12  C11 UNL     1      25.974  11.290  19.795  1.00  0.00     0.014 C 
HETATM   13  C12 UNL     1      25.627  11.520  18.329  1.00  0.00    -0.013 C 
HETATM   14  C13 UNL     1      25.602  13.016  18.124  1.00  0.00     0.009 C 
HETATM   15  C14 UNL     1      24.510  13.597  18.977  1.00  0.00    -0.013 C 
HETATM   16  C15 UNL     1      24.766  13.320  20.440  1.00  0.00     0.014 C 
HETATM   17  C16 UNL     1      23.173  12.976  18.637  1.00  0.00     0.014 C 
HETATM   18  C17 UNL     1      23.197  11.512  18.961  1.00  0.00     0.052 C 
HETATM   19  C18 UNL     1      24.273  10.882  18.081  1.00  0.00     0.014 C 
ENDROOT
BRANCH   1  20
HETATM   20  N2  UNL     1      21.104  10.324  25.931  1.00  0.00    -0.415 N 
ATOM     21  H2  UNL     1      21.508   9.453  26.274  1.00  0.00     0.153 HD
BRANCH  20  22
HETATM   22  C2  UNL     1      20.344  11.203  26.783  1.00  0.00     0.141 C 
BRANCH  22  23
HETATM   23  C1  UNL     1      21.326  12.316  27.161  1.00  0.00     0.248 C 
BRANCH  23  24
HETATM   24  N1  UNL     1      22.297  11.865  28.145  1.00  0.00    -0.078 N 
ATOM     25  H13 UNL     1      22.135  12.297  29.054  1.00  0.00     0.274 HD
ATOM     26  H12 UNL     1      22.141  10.890  28.402  1.00  0.00     0.274 HD
ATOM     27  H11 UNL     1      23.254  12.016  27.826  1.00  0.00     0.274 HD
ENDBRANCH  23  24
ENDBRANCH  22  23
ENDBRANCH  20  22
ENDBRANCH   1  20
TORSDOF 4
ENDMDL
MODEL 5
REMARK VINA RESULT: -7.313614963      2.282      3.451
REMARK  4 active torsions:
REMARK  status: ('A' for Active; 'I' for Inactive)
REMARK    1  A    between atoms: N1_1  and  C1_5 
REMARK    2  A    between atoms: C1_5  and  C2_6 
REMARK    3  A    between atoms: C2_6  and  N2_7 
REMARK    4  A    between atoms: N2_7  and  C3_9 
ROOT
HETATM    1  C3  UNL     1      20.440  11.153  24.447  1.00  0.00     0.077 C 
HETATM    2  C4  UNL     1      20.715  10.118  23.360  1.00  0.00     0.030 C 
HETATM    3  C5  UNL     1      20.714  10.736  22.006  1.00  0.00     0.073 C 
HETATM    4  C6  UNL     1      21.548  11.975  21.899  1.00  0.00     0.201 C 
HETATM    5  C7  UNL     1      21.180  12.951  22.968  1.00  0.00     0.073 C 
HETATM    6  C8  UNL     1      20.016  12.468  23.828  1.00  0.00     0.030 C 
HETATM    7  O1  UNL     1      21.335  12.481  20.601  1.00  0.00    -0.197 OA
HETATM    8  O2  UNL     1      21.895  11.500  19.893  1.00  0.00    -0.197 OA
HETATM    9  C9  UNL     1      23.162  11.453  20.500  1.00  0.00     0.208 C 
HETATM   10  O3  UNL     1      22.919  11.709  21.840  1.00  0.00    -0.313 OA
HETATM   11  C10 UNL     1      23.826  10.114  20.323  1.00  0.00     0.052 C 
HETATM   12  C11 UNL     1      23.953   9.752  18.874  1.00  0.00     0.014 C 
HETATM   13  C12 UNL     1      24.750  10.813  18.124  1.00  0.00    -0.013 C 
HETATM   14  C13 UNL     1      26.142  10.795  18.708  1.00  0.00     0.009 C 
HETATM   15  C14 UNL     1      26.059  11.186  20.156  1.00  0.00    -0.013 C 
HETATM   16  C15 UNL     1      25.205  10.207  20.929  1.00  0.00     0.014 C 
HETATM   17  C16 UNL     1      25.419  12.548  20.311  1.00  0.00     0.014 C 
HETATM   18  C17 UNL     1      24.000  12.499  19.827  1.00  0.00     0.052 C 
HETATM   19  C18 UNL     1      24.050  12.140  18.344  1.00  0.00     0.014 C 
ENDROOT
BRANCH   1  20
HETATM   20  N2  UNL     1      19.425  10.586  25.285  1.00  0.00    -0.415 N 
ATOM     21  H2  UNL     1      18.975   9.698  25.066  1.00  0.00     0.153 HD
BRANCH  20  22
HETATM   22  C2  UNL     1      19.081  11.351  26.455  1.00  0.00     0.141 C 
BRANCH  22  23
HETATM   23  C1  UNL     1      20.303  11.224  27.371  1.00  0.00     0.248 C 
BRANCH  23  24
HETATM   24  N1  UNL     1      20.579   9.837  27.709  1.00  0.00    -0.078 N 
ATOM     25  H13 UNL     1      21.491   9.736  28.153  1.00  0.00     0.274 HD
ATOM     26  H12 UNL     1      19.991   9.517  28.478  1.00  0.00     0.274 HD
ATOM     27  H11 UNL     1      20.491   9.227  26.896  1.00  0.00     0.274 HD
ENDBRANCH  23  24
ENDBRANCH  22  23
ENDBRANCH  20  22
ENDBRANCH   1  20
TORSDOF 4
ENDMDL
