MODEL 1
REMARK VINA RESULT: -7.461287237      0.000      0.000
REMARK  5 active torsions:
REMARK  status: ('A' for Active; 'I' for Inactive)
REMARK    1  A    between atoms: C6_7  and  O2_8 
REMARK    2  A    between atoms: C11_14  and  O3_15 
REMARK    3  A    between atoms: C14_19  and  C15_20 
REMARK    4  A    between atoms: C15_20  and  C17_22 
REMARK    5  A    between atoms: C17_22  and  O5_24 
ROOT
HETATM    1  C1  UNL     1      22.456  14.105  20.190  1.00  0.00     0.051 C 
HETATM    2  C2  UNL     1      23.236  13.154  19.759  1.00  0.00     0.064 C 
HETATM    3  O1  UNL     1      24.579  13.378  19.437  1.00  0.00    -0.345 OA
HETATM    4  C3  UNL     1      24.990  12.334  18.571  1.00  0.00     0.144 C 
HETATM    5  C4  UNL     1      26.402  12.222  18.263  1.00  0.00     0.041 C 
HETATM    6  C5  UNL     1      27.138  11.175  18.965  1.00  0.00     0.027 C 
HETATM    7  C6  UNL     1      28.623  11.320  19.120  1.00  0.00     0.123 C 
HETATM    8  C7  UNL     1      28.895  10.383  20.286  1.00  0.00     0.033 C 
HETATM    9  C8  UNL     1      27.529   9.998  20.868  1.00  0.00     0.014 C 
HETATM   10  C9  UNL     1      26.697  11.180  20.412  1.00  0.00    -0.011 C 
HETATM   11  C10 UNL     1      27.240  12.365  21.173  1.00  0.00     0.018 C 
HETATM   12  C11 UNL     1      25.209  10.997  20.564  1.00  0.00     0.142 C 
HETATM   13  C12 UNL     1      24.380  11.149  19.368  1.00  0.00     0.036 C 
HETATM   14  C13 UNL     1      24.353  10.039  18.363  1.00  0.00     0.025 C 
HETATM   15  C14 UNL     1      23.006  11.724  19.499  1.00  0.00    -0.021 C 
ENDROOT
BRANCH  15  16
HETATM   16  C15 UNL     1      21.886  11.062  20.081  1.00  0.00     0.114 C 
HETATM   17  C16 UNL     1      21.529   9.662  19.667  1.00  0.00     0.025 C 
BRANCH  16  18
HETATM   18  C17 UNL     1      21.791  11.070  21.539  1.00  0.00     0.266 C 
HETATM   19  O4  UNL     1      21.097  11.849  22.195  1.00  0.00    -0.265 OA
BRANCH  18  20
HETATM   20  O5  UNL     1      22.518  10.147  22.341  1.00  0.00    -0.326 OA
HETATM   21  C18 UNL     1      22.368  10.102  23.747  1.00  0.00     0.213 C 
ENDBRANCH  18  20
ENDBRANCH  16  18
ENDBRANCH  15  16
BRANCH  12  22
HETATM   22  O3  UNL     1      25.015   9.868  21.323  1.00  0.00    -0.394 OA
ATOM     23  H3  UNL     1      24.257  10.028  21.873  1.00  0.00     0.210 HD
ENDBRANCH  12  22
BRANCH   7  24
HETATM   24  O2  UNL     1      29.096  12.586  19.280  1.00  0.00    -0.395 OA
ATOM     25  H2  UNL     1      30.001  12.734  19.035  1.00  0.00     0.210 HD
ENDBRANCH   7  24
TORSDOF 5
ENDMDL
MODEL 2
REMARK VINA RESULT: -7.177108377      1.846      3.060
REMARK  5 active torsions:
REMARK  status: ('A' for Active; 'I' for Inactive)
REMARK    1  A    between atoms: C6_7  and  O2_8 
REMARK    2  A    between atoms: C11_14  and  O3_15 
REMARK    3  A    between atoms: C14_19  and  C15_20 
REMARK    4  A    between atoms: C15_20  and  C17_22 
REMARK    5  A    between atoms: C17_22  and  O5_24 
ROOT
HETATM    1  C1  UNL     1      21.049  14.356  22.948  1.00  0.00     0.051 C 
HETATM    2  C2  UNL     1      21.407  13.390  22.149  1.00  0.00     0.064 C 
HETATM    3  O1  UNL     1      22.201  13.613  21.018  1.00  0.00    -0.345 OA
HETATM    4  C3  UNL     1      22.001  12.523  20.134  1.00  0.00     0.144 C 
HETATM    5  C4  UNL     1      22.874  12.410  18.984  1.00  0.00     0.041 C 
HETATM    6  C5  UNL     1      23.941  11.419  19.073  1.00  0.00     0.027 C 
HETATM    7  C6  UNL     1      25.159  11.593  18.213  1.00  0.00     0.123 C 
HETATM    8  C7  UNL     1      26.172  10.734  18.953  1.00  0.00     0.033 C 
HETATM    9  C8  UNL     1      25.538  10.368  20.301  1.00  0.00     0.014 C 
HETATM   10  C9  UNL     1      24.551  11.507  20.454  1.00  0.00    -0.011 C 
HETATM   11  C10 UNL     1      25.398  12.744  20.629  1.00  0.00     0.018 C 
HETATM   12  C11 UNL     1      23.533  11.314  21.549  1.00  0.00     0.142 C 
HETATM   13  C12 UNL     1      22.118  11.381  21.181  1.00  0.00     0.036 C 
HETATM   14  C13 UNL     1      21.499  10.210  20.481  1.00  0.00     0.025 C 
HETATM   15  C14 UNL     1      21.136  11.944  22.156  1.00  0.00    -0.021 C 
ENDROOT
BRANCH  15  16
HETATM   16  C15 UNL     1      20.701  11.305  23.354  1.00  0.00     0.114 C 
HETATM   17  C16 UNL     1      19.587  10.297  23.317  1.00  0.00     0.025 C 
BRANCH  16  18
HETATM   18  C17 UNL     1      21.731  10.712  24.204  1.00  0.00     0.266 C 
HETATM   19  O4  UNL     1      21.872   9.504  24.400  1.00  0.00    -0.265 OA
BRANCH  18  20
HETATM   20  O5  UNL     1      22.681  11.513  24.896  1.00  0.00    -0.326 OA
HETATM   21  C18 UNL     1      22.295  12.414  25.917  1.00  0.00     0.213 C 
ENDBRANCH  18  20
ENDBRANCH  16  18
ENDBRANCH  15  16
BRANCH  12  22
HETATM   22  O3  UNL     1      23.938  10.232  22.293  1.00  0.00    -0.394 OA
ATOM     23  H3  UNL     1      23.164   9.873  22.710  1.00  0.00     0.210 HD
ENDBRANCH  12  22
BRANCH   7  24
HETATM   24  O2  UNL     1      25.557  12.873  17.977  1.00  0.00    -0.395 OA
ATOM     25  H2  UNL     1      26.253  13.208  18.530  1.00  0.00     0.210 HD
ENDBRANCH   7  24
TORSDOF 5
ENDMDL
MODEL 3
REMARK VINA RESULT: -7.062832638      2.034      3.305
REMARK  5 active torsions:
REMARK  status: ('A' for Active; 'I' for Inactive)
REMARK    1  A    between atoms: C6_7  and  O2_8 
REMARK    2  A    between atoms: C11_14  and  O3_15 
REMARK    3  A    between atoms: C14_19  and  C15_20 
REMARK    4  A    between atoms: C15_20  and  C17_22 
REMARK    5  A    between atoms: C17_22  and  O5_24 
ROOT
HETATM    1  C1  UNL     1      20.705  13.436  23.118  1.00  0.00     0.051 C 
HETATM    2  C2  UNL     1      21.177  12.637  22.203  1.00  0.00     0.064 C 
HETATM    3  O1  UNL     1      21.970  13.099  21.147  1.00  0.00    -0.345 OA
HETATM    4  C3  UNL     1      21.902  12.136  20.109  1.00  0.00     0.144 C 
HETATM    5  C4  UNL     1      22.809  12.279  18.987  1.00  0.00     0.041 C 
HETATM    6  C5  UNL     1      23.969  11.393  18.974  1.00  0.00     0.027 C 
HETATM    7  C6  UNL     1      25.182  11.809  18.194  1.00  0.00     0.123 C 
HETATM    8  C7  UNL     1      26.259  10.953  18.841  1.00  0.00     0.033 C 
HETATM    9  C8  UNL     1      25.634  10.333  20.097  1.00  0.00     0.014 C 
HETATM   10  C9  UNL     1      24.534  11.337  20.375  1.00  0.00    -0.011 C 
HETATM   11  C10 UNL     1      25.247  12.611  20.758  1.00  0.00     0.018 C 
HETATM   12  C11 UNL     1      23.516  10.887  21.392  1.00  0.00     0.142 C 
HETATM   13  C12 UNL     1      22.110  10.870  20.984  1.00  0.00     0.036 C 
HETATM   14  C13 UNL     1      21.630   9.760  20.100  1.00  0.00     0.025 C 
HETATM   15  C14 UNL     1      21.053  11.187  21.992  1.00  0.00    -0.021 C 
ENDROOT
BRANCH  15  16
HETATM   16  C15 UNL     1      20.658  10.339  23.068  1.00  0.00     0.114 C 
HETATM   17  C16 UNL     1      21.504  10.235  24.306  1.00  0.00     0.025 C 
BRANCH  16  18
HETATM   18  C17 UNL     1      19.284  10.469  23.549  1.00  0.00     0.266 C 
HETATM   19  O4  UNL     1      18.278  10.270  22.866  1.00  0.00    -0.265 OA
BRANCH  18  20
HETATM   20  O5  UNL     1      18.993  10.850  24.888  1.00  0.00    -0.326 OA
HETATM   21  C18 UNL     1      17.689  11.222  25.290  1.00  0.00     0.213 C 
ENDBRANCH  18  20
ENDBRANCH  16  18
ENDBRANCH  15  16
BRANCH  12  22
HETATM   22  O3  UNL     1      24.011   9.752  21.987  1.00  0.00    -0.394 OA
ATOM     23  H3  UNL     1      23.266   9.238  22.274  1.00  0.00     0.210 HD
ENDBRANCH  12  22
BRANCH   7  24
HETATM   24  O2  UNL     1      25.454  13.142  18.160  1.00  0.00    -0.395 OA
ATOM     25  H2  UNL     1      26.332  13.401  18.414  1.00  0.00     0.210 HD
ENDBRANCH   7  24
TORSDOF 5
ENDMDL
MODEL 4
REMARK VINA RESULT: -7.038534706      2.764      4.130
REMARK  5 active torsions:
REMARK  status: ('A' for Active; 'I' for Inactive)
REMARK    1  A    between atoms: C6_7  and  O2_8 
REMARK    2  A    between atoms: C11_14  and  O3_15 
REMARK    3  A    between atoms: C14_19  and  C15_20 
REMARK    4  A    between atoms: C15_20  and  C17_22 
REMARK    5  A    between atoms: C17_22  and  O5_24 
ROOT
HETATM    1  C1  UNL     1      23.055  16.723  22.088  1.00  0.00     0.051 C 
HETATM    2  C2  UNL     1      22.835  15.514  21.654  1.00  0.00     0.064 C 
HETATM    3  O1  UNL     1      23.240  15.092  20.383  1.00  0.00    -0.345 OA
HETATM    4  C3  UNL     1      22.455  13.964  20.036  1.00  0.00     0.144 C 
HETATM    5  C4  UNL     1      22.828  13.211  18.856  1.00  0.00     0.041 C 
HETATM    6  C5  UNL     1      23.531  11.953  19.084  1.00  0.00     0.027 C 
HETATM    7  C6  UNL     1      24.392  11.401  17.986  1.00  0.00     0.123 C 
HETATM    8  C7  UNL     1      25.299  10.460  18.762  1.00  0.00     0.033 C 
HETATM    9  C8  UNL     1      25.067  10.753  20.250  1.00  0.00     0.014 C 
HETATM   10  C9  UNL     1      24.559  12.179  20.169  1.00  0.00    -0.011 C 
HETATM   11  C10 UNL     1      25.735  12.991  19.685  1.00  0.00     0.018 C 
HETATM   12  C11 UNL     1      23.949  12.702  21.444  1.00  0.00     0.142 C 
HETATM   13  C12 UNL     1      22.576  13.203  21.385  1.00  0.00     0.036 C 
HETATM   14  C13 UNL     1      21.451  12.216  21.322  1.00  0.00     0.025 C 
HETATM   15  C14 UNL     1      22.176  14.346  22.261  1.00  0.00    -0.021 C 
ENDROOT
BRANCH  15  16
HETATM   16  C15 UNL     1      21.996  14.281  23.674  1.00  0.00     0.114 C 
HETATM   17  C16 UNL     1      23.182  14.315  24.595  1.00  0.00     0.025 C 
BRANCH  16  18
HETATM   18  C17 UNL     1      21.022  15.197  24.263  1.00  0.00     0.266 C 
HETATM   19  O4  UNL     1      21.183  15.809  25.320  1.00  0.00    -0.265 OA
BRANCH  18  20
HETATM   20  O5  UNL     1      19.770  15.459  23.641  1.00  0.00    -0.326 OA
HETATM   21  C18 UNL     1      18.609  14.715  23.959  1.00  0.00     0.213 C 
ENDBRANCH  18  20
ENDBRANCH  16  18
ENDBRANCH  15  16
BRANCH  12  22
HETATM   22  O3  UNL     1      24.247  11.799  22.436  1.00  0.00    -0.394 OA
ATOM     23  H3  UNL     1      23.477  11.725  22.987  1.00  0.00     0.210 HD
ENDBRANCH  12  22
BRANCH   7  24
HETATM   24  O2  UNL     1      25.041  12.311  17.209  1.00  0.00    -0.395 OA
ATOM     25  H2  UNL     1      24.693  13.194  17.212  1.00  0.00     0.210 HD
ENDBRANCH   7  24
TORSDOF 5
ENDMDL
MODEL 5
REMARK VINA RESULT: -7.037150329      1.779      2.482
REMARK  5 active torsions:
REMARK  status: ('A' for Active; 'I' for Inactive)
REMARK    1  A    between atoms: C6_7  and  O2_8 
REMARK    2  A    between atoms: C11_14  and  O3_15 
REMARK    3  A    between atoms: C14_19  and  C15_20 
REMARK    4  A    between atoms: C15_20  and  C17_22 
REMARK    5  A    between atoms: C17_22  and  O5_24 
ROOT
HETATM    1  C1  UNL     1      22.899  14.079  17.836  1.00  0.00     0.051 C 
HETATM    2  C2  UNL     1      23.456  13.064  18.435  1.00  0.00     0.064 C 
HETATM    3  O1  UNL     1      24.637  12.477  17.966  1.00  0.00    -0.345 OA
HETATM    4  C3  UNL     1      24.703  11.165  18.499  1.00  0.00     0.144 C 
HETATM    5  C4  UNL     1      25.937  10.425  18.334  1.00  0.00     0.041 C 
HETATM    6  C5  UNL     1      26.806  10.342  19.504  1.00  0.00     0.027 C 
HETATM    7  C6  UNL     1      28.269  10.083  19.297  1.00  0.00     0.123 C 
HETATM    8  C7  UNL     1      28.850  10.584  20.609  1.00  0.00     0.033 C 
HETATM    9  C8  UNL     1      27.722  11.328  21.334  1.00  0.00     0.014 C 
HETATM   10  C9  UNL     1      26.846  11.706  20.156  1.00  0.00    -0.011 C 
HETATM   11  C10 UNL     1      27.659  12.698  19.361  1.00  0.00     0.018 C 
HETATM   12  C11 UNL     1      25.475  12.210  20.529  1.00  0.00     0.142 C 
HETATM   13  C12 UNL     1      24.319  11.514  19.963  1.00  0.00     0.036 C 
HETATM   14  C13 UNL     1      23.922  10.190  20.538  1.00  0.00     0.025 C 
HETATM   15  C14 UNL     1      23.087  12.294  19.633  1.00  0.00    -0.021 C 
ENDROOT
BRANCH  15  16
HETATM   16  C15 UNL     1      22.177  12.843  20.584  1.00  0.00     0.114 C 
HETATM   17  C16 UNL     1      21.327  11.941  21.433  1.00  0.00     0.025 C 
BRANCH  16  18
HETATM   18  C17 UNL     1      22.701  13.856  21.498  1.00  0.00     0.266 C 
HETATM   19  O4  UNL     1      23.002  13.652  22.676  1.00  0.00    -0.265 OA
BRANCH  18  20
HETATM   20  O5  UNL     1      22.909  15.200  21.085  1.00  0.00    -0.326 OA
HETATM   21  C18 UNL     1      24.207  15.754  20.977  1.00  0.00     0.213 C 
ENDBRANCH  18  20
ENDBRANCH  16  18
ENDBRANCH  15  16
BRANCH  12  22
HETATM   22  O3  UNL     1      25.477  12.425  21.886  1.00  0.00    -0.394 OA
ATOM     23  H3  UNL     1      24.769  11.910  22.252  1.00  0.00     0.210 HD
ENDBRANCH  12  22
BRANCH   7  24
HETATM   24  O2  UNL     1      28.828  10.623  18.179  1.00  0.00    -0.395 OA
ATOM     25  H2  UNL     1      28.372  11.361  17.792  1.00  0.00     0.210 HD
ENDBRANCH   7  24
TORSDOF 5
ENDMDL
