MODEL 1
REMARK VINA RESULT: -8.162355148      0.000      0.000
REMARK  3 active torsions:
REMARK  status: ('A' for Active; 'I' for Inactive)
REMARK    1  A    between atoms: C2_2  and  O1_3 
REMARK    2  A    between atoms: C11_14  and  O3_15 
REMARK    3  A    between atoms: O3_15  and  S1_16 
ROOT
HETATM    1  C1  UNL     1      25.008  10.412  20.559  1.00  0.00     0.049 C 
HETATM    2  C2  UNL     1      23.769   9.751  21.180  1.00  0.00     0.081 C 
HETATM    3  C3  UNL     1      23.044   9.073  20.076  1.00  0.00     0.040 C 
HETATM    4  C4  UNL     1      21.840   9.816  19.562  1.00  0.00     0.004 C 
HETATM    5  C5  UNL     1      20.986  10.141  20.794  1.00  0.00     0.013 C 
HETATM    6  C6  UNL     1      21.745  11.241  21.551  1.00  0.00    -0.005 C 
HETATM    7  C7  UNL     1      21.867  12.399  20.643  1.00  0.00     0.019 C 
HETATM    8  C8  UNL     1      23.005  10.644  22.046  1.00  0.00     0.165 C 
HETATM    9  O2  UNL     1      22.579  10.052  23.269  1.00  0.00    -0.376 OA
HETATM   10  C9  UNL     1      22.052  11.153  23.850  1.00  0.00     0.133 C 
HETATM   11  C10 UNL     1      21.432  11.084  25.160  1.00  0.00     0.066 C 
HETATM   12  C11 UNL     1      21.071  12.529  25.528  1.00  0.00     0.147 C 
HETATM   13  C12 UNL     1      20.314  13.246  24.469  1.00  0.00     0.034 C 
HETATM   14  C13 UNL     1      20.918  13.088  23.072  1.00  0.00     0.015 C 
HETATM   15  C14 UNL     1      21.044  11.623  22.823  1.00  0.00    -0.008 C 
HETATM   16  C15 UNL     1      19.704  11.001  22.956  1.00  0.00     0.019 C 
ENDROOT
BRANCH  12  17
HETATM   17  O3  UNL     1      22.334  13.160  25.626  1.00  0.00    -0.252 OA
BRANCH  17  18
HETATM   18  S1  UNL     1      22.674  13.664  27.160  1.00  0.00     0.251 S 
HETATM   19  O4  UNL     1      21.719  14.724  27.597  1.00  0.00    -0.572 OA
HETATM   20  O5  UNL     1      22.575  12.520  28.147  1.00  0.00    -0.572 OA
HETATM   21  O6  UNL     1      24.264  14.268  27.156  1.00  0.00    -0.572 OA
ENDBRANCH  17  18
ENDBRANCH  12  17
BRANCH   2  22
HETATM   22  O1  UNL     1      24.310   8.730  22.007  1.00  0.00    -0.388 OA
ATOM     23  H1  UNL     1      24.796   9.208  22.668  1.00  0.00     0.210 HD
ENDBRANCH   2  22
TORSDOF 3
ENDMDL
MODEL 2
REMARK VINA RESULT: -8.014133482      0.252      1.009
REMARK  3 active torsions:
REMARK  status: ('A' for Active; 'I' for Inactive)
REMARK    1  A    between atoms: C2_2  and  O1_3 
REMARK    2  A    between atoms: C11_14  and  O3_15 
REMARK    3  A    between atoms: O3_15  and  S1_16 
ROOT
HETATM    1  C1  UNL     1      24.941  10.483  20.667  1.00  0.00     0.049 C 
HETATM    2  C2  UNL     1      23.719   9.772  21.266  1.00  0.00     0.081 C 
HETATM    3  C3  UNL     1      23.014   9.106  20.142  1.00  0.00     0.040 C 
HETATM    4  C4  UNL     1      21.792   9.829  19.647  1.00  0.00     0.004 C 
HETATM    5  C5  UNL     1      20.927  10.096  20.886  1.00  0.00     0.013 C 
HETATM    6  C6  UNL     1      21.655  11.195  21.674  1.00  0.00    -0.005 C 
HETATM    7  C7  UNL     1      21.747  12.381  20.799  1.00  0.00     0.019 C 
HETATM    8  C8  UNL     1      22.930  10.619  22.155  1.00  0.00     0.165 C 
HETATM    9  O2  UNL     1      22.519   9.982  23.360  1.00  0.00    -0.376 OA
HETATM   10  C9  UNL     1      21.961  11.051  23.971  1.00  0.00     0.133 C 
HETATM   11  C10 UNL     1      21.341  10.928  25.277  1.00  0.00     0.066 C 
HETATM   12  C11 UNL     1      20.941  12.352  25.684  1.00  0.00     0.147 C 
HETATM   13  C12 UNL     1      20.166  13.078  24.644  1.00  0.00     0.034 C 
HETATM   14  C13 UNL     1      20.776  12.976  23.244  1.00  0.00     0.015 C 
HETATM   15  C14 UNL     1      20.942  11.522  22.955  1.00  0.00    -0.008 C 
HETATM   16  C15 UNL     1      19.619  10.861  23.067  1.00  0.00     0.019 C 
ENDROOT
BRANCH  12  17
HETATM   17  O3  UNL     1      22.186  13.014  25.802  1.00  0.00    -0.252 OA
BRANCH  17  18
HETATM   18  S1  UNL     1      22.462  13.578  27.328  1.00  0.00     0.251 S 
HETATM   19  O4  UNL     1      23.886  13.992  27.494  1.00  0.00    -0.572 OA
HETATM   20  O5  UNL     1      21.595  14.782  27.632  1.00  0.00    -0.572 OA
HETATM   21  O6  UNL     1      22.082  12.324  28.412  1.00  0.00    -0.572 OA
ENDBRANCH  17  18
ENDBRANCH  12  17
BRANCH   2  22
HETATM   22  O1  UNL     1      24.287   8.743  22.065  1.00  0.00    -0.388 OA
ATOM     23  H1  UNL     1      24.426   8.032  21.452  1.00  0.00     0.210 HD
ENDBRANCH   2  22
TORSDOF 3
ENDMDL
MODEL 3
REMARK VINA RESULT: -7.762243850      4.374      7.042
REMARK  3 active torsions:
REMARK  status: ('A' for Active; 'I' for Inactive)
REMARK    1  A    between atoms: C2_2  and  O1_3 
REMARK    2  A    between atoms: C11_14  and  O3_15 
REMARK    3  A    between atoms: O3_15  and  S1_16 
ROOT
HETATM    1  C1  UNL     1      22.360  13.003  21.234  1.00  0.00     0.049 C 
HETATM    2  C2  UNL     1      23.457  13.710  20.427  1.00  0.00     0.081 C 
HETATM    3  C3  UNL     1      22.789  14.366  19.274  1.00  0.00     0.040 C 
HETATM    4  C4  UNL     1      22.922  13.632  17.967  1.00  0.00     0.004 C 
HETATM    5  C5  UNL     1      24.422  13.367  17.781  1.00  0.00     0.013 C 
HETATM    6  C6  UNL     1      24.784  12.278  18.801  1.00  0.00    -0.005 C 
HETATM    7  C7  UNL     1      23.970  11.087  18.484  1.00  0.00     0.019 C 
HETATM    8  C8  UNL     1      24.614  12.864  20.149  1.00  0.00     0.165 C 
HETATM    9  O2  UNL     1      25.870  13.507  20.341  1.00  0.00    -0.376 OA
HETATM   10  C9  UNL     1      26.673  12.438  20.140  1.00  0.00     0.133 C 
HETATM   11  C10 UNL     1      28.117  12.565  20.199  1.00  0.00     0.066 C 
HETATM   12  C11 UNL     1      28.668  11.141  20.046  1.00  0.00     0.147 C 
HETATM   13  C12 UNL     1      28.110  10.405  18.881  1.00  0.00     0.034 C 
HETATM   14  C13 UNL     1      26.587  10.502  18.769  1.00  0.00     0.015 C 
HETATM   15  C14 UNL     1      26.250  11.954  18.769  1.00  0.00    -0.008 C 
HETATM   16  C15 UNL     1      26.964  12.609  17.646  1.00  0.00     0.019 C 
ENDROOT
BRANCH  12  17
HETATM   17  O3  UNL     1      28.195  10.487  21.208  1.00  0.00    -0.252 OA
BRANCH  17  18
HETATM   18  S1  UNL     1      29.284  10.528  22.447  1.00  0.00     0.251 S 
HETATM   19  O4  UNL     1      29.290   9.235  23.194  1.00  0.00    -0.572 OA
HETATM   20  O5  UNL     1      30.688  10.769  21.934  1.00  0.00    -0.572 OA
HETATM   21  O6  UNL     1      28.835  11.803  23.478  1.00  0.00    -0.572 OA
ENDBRANCH  17  18
ENDBRANCH  12  17
BRANCH   2  22
HETATM   22  O1  UNL     1      23.897  14.747  21.292  1.00  0.00    -0.388 OA
ATOM     23  H1  UNL     1      24.589  15.173  20.801  1.00  0.00     0.210 HD
ENDBRANCH   2  22
TORSDOF 3
ENDMDL
MODEL 4
REMARK VINA RESULT: -7.633719776      1.348      1.565
REMARK  3 active torsions:
REMARK  status: ('A' for Active; 'I' for Inactive)
REMARK    1  A    between atoms: C2_2  and  O1_3 
REMARK    2  A    between atoms: C11_14  and  O3_15 
REMARK    3  A    between atoms: O3_15  and  S1_16 
ROOT
HETATM    1  C1  UNL     1      25.268  10.542  19.832  1.00  0.00     0.049 C 
HETATM    2  C2  UNL     1      24.105  10.120  20.740  1.00  0.00     0.081 C 
HETATM    3  C3  UNL     1      23.184   9.304  19.909  1.00  0.00     0.040 C 
HETATM    4  C4  UNL     1      21.959  10.030  19.426  1.00  0.00     0.004 C 
HETATM    5  C5  UNL     1      21.320  10.658  20.672  1.00  0.00     0.013 C 
HETATM    6  C6  UNL     1      22.244  11.817  21.075  1.00  0.00    -0.005 C 
HETATM    7  C7  UNL     1      22.288  12.763  19.942  1.00  0.00     0.019 C 
HETATM    8  C8  UNL     1      23.531  11.225  21.502  1.00  0.00     0.165 C 
HETATM    9  O2  UNL     1      23.265  10.919  22.867  1.00  0.00    -0.376 OA
HETATM   10  C9  UNL     1      22.892  12.152  23.279  1.00  0.00     0.133 C 
HETATM   11  C10 UNL     1      22.476  12.390  24.649  1.00  0.00     0.066 C 
HETATM   12  C11 UNL     1      22.254  13.904  24.760  1.00  0.00     0.147 C 
HETATM   13  C12 UNL     1      21.384  14.462  23.692  1.00  0.00     0.034 C 
HETATM   14  C13 UNL     1      21.759  13.986  22.287  1.00  0.00     0.015 C 
HETATM   15  C14 UNL     1      21.766  12.496  22.327  1.00  0.00    -0.008 C 
HETATM   16  C15 UNL     1      20.430  12.025  22.768  1.00  0.00     0.019 C 
ENDROOT
BRANCH  12  17
HETATM   17  O3  UNL     1      23.549  14.434  24.551  1.00  0.00    -0.252 OA
BRANCH  17  18
HETATM   18  S1  UNL     1      24.354  14.716  25.964  1.00  0.00     0.251 S 
HETATM   19  O4  UNL     1      24.478  16.181  26.224  1.00  0.00    -0.572 OA
HETATM   20  O5  UNL     1      23.628  14.100  27.141  1.00  0.00    -0.572 OA
HETATM   21  O6  UNL     1      25.894  14.010  25.821  1.00  0.00    -0.572 OA
ENDBRANCH  17  18
ENDBRANCH  12  17
BRANCH   2  22
HETATM   22  O1  UNL     1      24.709   9.238  21.675  1.00  0.00    -0.388 OA
ATOM     23  H1  UNL     1      24.553   9.655  22.513  1.00  0.00     0.210 HD
ENDBRANCH   2  22
TORSDOF 3
ENDMDL
MODEL 5
REMARK VINA RESULT: -7.493200967      1.369      1.893
REMARK  3 active torsions:
REMARK  status: ('A' for Active; 'I' for Inactive)
REMARK    1  A    between atoms: C2_2  and  O1_3 
REMARK    2  A    between atoms: C11_14  and  O3_15 
REMARK    3  A    between atoms: O3_15  and  S1_16 
ROOT
HETATM    1  C1  UNL     1      25.663  11.941  20.721  1.00  0.00     0.049 C 
HETATM    2  C2  UNL     1      24.688  10.759  20.811  1.00  0.00     0.081 C 
HETATM    3  C3  UNL     1      24.395  10.336  19.418  1.00  0.00     0.040 C 
HETATM    4  C4  UNL     1      23.073  10.810  18.879  1.00  0.00     0.004 C 
HETATM    5  C5  UNL     1      22.020  10.396  19.916  1.00  0.00     0.013 C 
HETATM    6  C6  UNL     1      22.230  11.326  21.119  1.00  0.00    -0.005 C 
HETATM    7  C7  UNL     1      22.026  12.711  20.649  1.00  0.00     0.019 C 
HETATM    8  C8  UNL     1      23.554  11.005  21.697  1.00  0.00     0.165 C 
HETATM    9  O2  UNL     1      23.234   9.915  22.555  1.00  0.00    -0.376 OA
HETATM   10  C9  UNL     1      22.276  10.518  23.295  1.00  0.00     0.133 C 
HETATM   11  C10 UNL     1      21.575   9.799  24.342  1.00  0.00     0.066 C 
HETATM   12  C11 UNL     1      20.671  10.833  25.025  1.00  0.00     0.147 C 
HETATM   13  C12 UNL     1      19.834  11.616  24.078  1.00  0.00     0.034 C 
HETATM   14  C13 UNL     1      20.613  12.161  22.879  1.00  0.00     0.015 C 
HETATM   15  C14 UNL     1      21.294  10.995  22.245  1.00  0.00    -0.008 C 
HETATM   16  C15 UNL     1      20.268   9.991  21.871  1.00  0.00     0.019 C 
ENDROOT
BRANCH  12  17
HETATM   17  O3  UNL     1      21.595  11.739  25.598  1.00  0.00    -0.252 OA
BRANCH  17  18
HETATM   18  S1  UNL     1      21.222  12.122  27.159  1.00  0.00     0.251 S 
HETATM   19  O4  UNL     1      22.453  12.455  27.935  1.00  0.00    -0.572 OA
HETATM   20  O5  UNL     1      20.300  13.322  27.224  1.00  0.00    -0.572 OA
HETATM   21  O6  UNL     1      20.441  10.775  27.842  1.00  0.00    -0.572 OA
ENDBRANCH  17  18
ENDBRANCH  12  17
BRANCH   2  22
HETATM   22  O1  UNL     1      25.463   9.726  21.402  1.00  0.00    -0.388 OA
ATOM     23  H1  UNL     1      25.857   9.286  20.658  1.00  0.00     0.210 HD
ENDBRANCH   2  22
TORSDOF 3
ENDMDL
