MODEL 1
REMARK VINA RESULT: -7.332851795      0.000      0.000
REMARK  9 active torsions:
REMARK  status: ('A' for Active; 'I' for Inactive)
REMARK    1  A    between atoms: C2_2  and  C4_4 
REMARK    2  A    between atoms: C4_4  and  C5_6 
REMARK    3  A    between atoms: C5_6  and  C6_7 
REMARK    4  A    between atoms: C6_7  and  O1_8 
REMARK    5  A    between atoms: C6_7  and  C7_10 
REMARK    6  A    between atoms: C17_20  and  N1_21 
REMARK    7  A    between atoms: N1_21  and  S1_23 
REMARK    8  A    between atoms: S1_23  and  C18_26 
REMARK    9  A    between atoms: C18_26  and  C19_27 
ROOT
HETATM    1  C7  UNL     1      19.595  13.361  15.647  1.00  0.00     0.046 C 
HETATM    2  C8  UNL     1      20.754  14.044  14.995  1.00  0.00     0.018 C 
HETATM    3  C9  UNL     1      20.445  14.122  13.483  1.00  0.00     0.015 C 
HETATM    4  C10 UNL     1      21.817  14.324  12.838  1.00  0.00     0.009 C 
HETATM    5  C11 UNL     1      21.762  14.092  11.364  1.00  0.00     0.001 C 
HETATM    6  C12 UNL     1      20.326  13.923  10.936  1.00  0.00     0.004 C 
HETATM    7  C13 UNL     1      19.809  12.640  11.545  1.00  0.00     0.035 C 
HETATM    8  C14 UNL     1      19.943  12.801  13.070  1.00  0.00    -0.072 C 
HETATM    9  C15 UNL     1      19.599  11.793  13.836  1.00  0.00    -0.057 C 
HETATM   10  C16 UNL     1      19.113  10.539  13.154  1.00  0.00     0.046 C 
HETATM   11  C17 UNL     1      19.655  11.858  15.354  1.00  0.00     0.128 C 
ENDROOT
BRANCH  11  12
HETATM   12  N1  UNL     1      18.512  11.217  15.877  1.00  0.00    -0.310 N 
ATOM     13  H1  UNL     1      17.584  11.567  15.638  1.00  0.00     0.172 HD
BRANCH  12  14
HETATM   14  S1  UNL     1      18.664   9.885  16.888  1.00  0.00     0.227 S 
HETATM   15  O2  UNL     1      20.148   9.455  16.943  1.00  0.00    -0.206 OA
HETATM   16  O3  UNL     1      17.945   8.686  16.416  1.00  0.00    -0.206 OA
BRANCH  14  17
HETATM   17  C18 UNL     1      18.267  10.308  18.558  1.00  0.00     0.171 C 
BRANCH  17  18
HETATM   18  C19 UNL     1      16.879  10.872  18.708  1.00  0.00    -0.037 C 
HETATM   19  C20 UNL     1      16.467  11.786  17.610  1.00  0.00     0.015 C 
HETATM   20  C21 UNL     1      16.827  11.646  20.012  1.00  0.00     0.015 C 
HETATM   21  C22 UNL     1      15.848   9.767  18.819  1.00  0.00     0.015 C 
ENDBRANCH  17  18
ENDBRANCH  14  17
ENDBRANCH  12  14
ENDBRANCH  11  12
BRANCH   1  22
HETATM   22  C6  UNL     1      19.256  13.801  16.984  1.00  0.00     0.149 C 
BRANCH  22  23
HETATM   23  C5  UNL     1      19.148  15.153  17.479  1.00  0.00     0.029 C 
BRANCH  23  24
HETATM   24  C4  UNL     1      18.411  16.276  16.911  1.00  0.00     0.037 C 
HETATM   25 CL1  UNL     1      18.972  16.874  15.332  1.00  0.00    -0.084 Cl
BRANCH  24  26
HETATM   26  C2  UNL     1      16.950  16.324  17.075  1.00  0.00    -0.050 C 
HETATM   27  C1  UNL     1      16.385  17.204  17.878  1.00  0.00     0.020 C 
HETATM   28  C3  UNL     1      16.090  15.337  16.367  1.00  0.00     0.049 C 
ENDBRANCH  24  26
ENDBRANCH  23  24
ENDBRANCH  22  23
BRANCH  22  29
HETATM   29  O1  UNL     1      20.209  13.090  17.859  1.00  0.00    -0.391 OA
ATOM     30  H1  UNL     1      19.905  12.193  17.935  1.00  0.00     0.210 HD
ENDBRANCH  22  29
ENDBRANCH   1  22
TORSDOF 9
ENDMDL
MODEL 2
REMARK VINA RESULT: -7.316484976      2.927      4.516
REMARK  9 active torsions:
REMARK  status: ('A' for Active; 'I' for Inactive)
REMARK    1  A    between atoms: C2_2  and  C4_4 
REMARK    2  A    between atoms: C4_4  and  C5_6 
REMARK    3  A    between atoms: C5_6  and  C6_7 
REMARK    4  A    between atoms: C6_7  and  O1_8 
REMARK    5  A    between atoms: C6_7  and  C7_10 
REMARK    6  A    between atoms: C17_20  and  N1_21 
REMARK    7  A    between atoms: N1_21  and  S1_23 
REMARK    8  A    between atoms: S1_23  and  C18_26 
REMARK    9  A    between atoms: C18_26  and  C19_27 
ROOT
HETATM    1  C7  UNL     1      19.756  13.334  16.009  1.00  0.00     0.046 C 
HETATM    2  C8  UNL     1      19.359  14.774  16.069  1.00  0.00     0.018 C 
HETATM    3  C9  UNL     1      19.455  15.333  14.632  1.00  0.00     0.015 C 
HETATM    4  C10 UNL     1      19.561  16.846  14.833  1.00  0.00     0.009 C 
HETATM    5  C11 UNL     1      19.992  17.530  13.577  1.00  0.00     0.001 C 
HETATM    6  C12 UNL     1      20.000  16.537  12.442  1.00  0.00     0.004 C 
HETATM    7  C13 UNL     1      21.087  15.525  12.720  1.00  0.00     0.035 C 
HETATM    8  C14 UNL     1      20.729  14.864  14.063  1.00  0.00    -0.072 C 
HETATM    9  C15 UNL     1      21.551  13.968  14.555  1.00  0.00    -0.057 C 
HETATM   10  C16 UNL     1      22.802  13.668  13.768  1.00  0.00     0.046 C 
HETATM   11  C17 UNL     1      21.277  13.227  15.855  1.00  0.00     0.128 C 
ENDROOT
BRANCH  11  12
HETATM   12  N1  UNL     1      21.653  11.877  15.693  1.00  0.00    -0.310 N 
ATOM     13  H1  UNL     1      21.261  11.333  14.925  1.00  0.00     0.172 HD
BRANCH  12  14
HETATM   14  S1  UNL     1      22.738  11.158  16.753  1.00  0.00     0.227 S 
HETATM   15  O2  UNL     1      22.823  12.003  18.046  1.00  0.00    -0.206 OA
HETATM   16  O3  UNL     1      24.125  11.104  16.251  1.00  0.00    -0.206 OA
BRANCH  14  17
HETATM   17  C18 UNL     1      22.146   9.582  17.297  1.00  0.00     0.171 C 
BRANCH  17  18
HETATM   18  C19 UNL     1      21.581   8.749  16.178  1.00  0.00    -0.037 C 
HETATM   19  C20 UNL     1      20.250   9.197  15.691  1.00  0.00     0.015 C 
HETATM   20  C21 UNL     1      21.446   7.323  16.678  1.00  0.00     0.015 C 
HETATM   21  C22 UNL     1      22.529   8.705  14.996  1.00  0.00     0.015 C 
ENDBRANCH  17  18
ENDBRANCH  14  17
ENDBRANCH  12  14
ENDBRANCH  11  12
BRANCH   1  22
HETATM   22  C6  UNL     1      19.080  12.441  16.927  1.00  0.00     0.149 C 
BRANCH  22  23
HETATM   23  C5  UNL     1      17.683  12.423  17.291  1.00  0.00     0.029 C 
BRANCH  23  24
HETATM   24  C4  UNL     1      16.976  11.477  18.147  1.00  0.00     0.037 C 
HETATM   25 CL1  UNL     1      17.292   9.752  17.851  1.00  0.00    -0.084 Cl
BRANCH  24  26
HETATM   26  C2  UNL     1      16.789  11.808  19.568  1.00  0.00    -0.050 C 
HETATM   27  C1  UNL     1      16.289  10.924  20.411  1.00  0.00     0.020 C 
HETATM   28  C3  UNL     1      17.117  13.172  20.065  1.00  0.00     0.049 C 
ENDBRANCH  24  26
ENDBRANCH  23  24
ENDBRANCH  22  23
BRANCH  22  29
HETATM   29  O1  UNL     1      19.858  12.540  18.178  1.00  0.00    -0.391 OA
ATOM     30  H1  UNL     1      20.012  11.655  18.484  1.00  0.00     0.210 HD
ENDBRANCH  22  29
ENDBRANCH   1  22
TORSDOF 9
ENDMDL
MODEL 3
REMARK VINA RESULT: -7.138367329      2.993      5.158
REMARK  9 active torsions:
REMARK  status: ('A' for Active; 'I' for Inactive)
REMARK    1  A    between atoms: C2_2  and  C4_4 
REMARK    2  A    between atoms: C4_4  and  C5_6 
REMARK    3  A    between atoms: C5_6  and  C6_7 
REMARK    4  A    between atoms: C6_7  and  O1_8 
REMARK    5  A    between atoms: C6_7  and  C7_10 
REMARK    6  A    between atoms: C17_20  and  N1_21 
REMARK    7  A    between atoms: N1_21  and  S1_23 
REMARK    8  A    between atoms: S1_23  and  C18_26 
REMARK    9  A    between atoms: C18_26  and  C19_27 
ROOT
HETATM    1  C7  UNL     1      20.293  12.667  16.923  1.00  0.00     0.046 C 
HETATM    2  C8  UNL     1      21.159  11.498  16.580  1.00  0.00     0.018 C 
HETATM    3  C9  UNL     1      22.582  12.044  16.327  1.00  0.00     0.015 C 
HETATM    4  C10 UNL     1      23.254  10.946  15.500  1.00  0.00     0.009 C 
HETATM    5  C11 UNL     1      24.523  11.435  14.880  1.00  0.00     0.001 C 
HETATM    6  C12 UNL     1      24.851  12.803  15.424  1.00  0.00     0.004 C 
HETATM    7  C13 UNL     1      23.792  13.763  14.935  1.00  0.00     0.035 C 
HETATM    8  C14 UNL     1      22.449  13.235  15.473  1.00  0.00    -0.072 C 
HETATM    9  C15 UNL     1      21.352  13.875  15.147  1.00  0.00    -0.057 C 
HETATM   10  C16 UNL     1      21.492  15.077  14.247  1.00  0.00     0.046 C 
HETATM   11  C17 UNL     1      19.979  13.463  15.652  1.00  0.00     0.128 C 
ENDROOT
BRANCH  11  12
HETATM   12  N1  UNL     1      19.249  14.625  15.978  1.00  0.00    -0.310 N 
ATOM     13  H1  UNL     1      19.480  15.146  16.824  1.00  0.00     0.172 HD
BRANCH  12  14
HETATM   14  S1  UNL     1      18.004  15.160  14.986  1.00  0.00     0.227 S 
HETATM   15  O2  UNL     1      17.650  14.050  13.970  1.00  0.00    -0.206 OA
HETATM   16  O3  UNL     1      18.355  16.329  14.155  1.00  0.00    -0.206 OA
BRANCH  14  17
HETATM   17  C18 UNL     1      16.515  15.401  15.910  1.00  0.00     0.171 C 
BRANCH  17  18
HETATM   18  C19 UNL     1      16.730  16.182  17.178  1.00  0.00    -0.037 C 
HETATM   19  C20 UNL     1      18.019  16.920  17.233  1.00  0.00     0.015 C 
HETATM   20  C21 UNL     1      16.696  15.206  18.340  1.00  0.00     0.015 C 
HETATM   21  C22 UNL     1      15.605  17.170  17.410  1.00  0.00     0.015 C 
ENDBRANCH  17  18
ENDBRANCH  14  17
ENDBRANCH  12  14
ENDBRANCH  11  12
BRANCH   1  22
HETATM   22  C6  UNL     1      19.233  12.425  17.880  1.00  0.00     0.149 C 
BRANCH  22  23
HETATM   23  C5  UNL     1      17.853  12.090  17.620  1.00  0.00     0.029 C 
BRANCH  23  24
HETATM   24  C4  UNL     1      17.170  10.818  17.822  1.00  0.00     0.037 C 
HETATM   25 CL1  UNL     1      18.025   9.362  17.262  1.00  0.00    -0.084 Cl
BRANCH  24  26
HETATM   26  C2  UNL     1      16.403  10.613  19.061  1.00  0.00    -0.050 C 
HETATM   27  C1  UNL     1      15.508   9.648  19.154  1.00  0.00     0.020 C 
HETATM   28  C3  UNL     1      16.594  11.532  20.215  1.00  0.00     0.049 C 
ENDBRANCH  24  26
ENDBRANCH  23  24
ENDBRANCH  22  23
BRANCH  22  29
HETATM   29  O1  UNL     1      19.238  13.622  18.744  1.00  0.00    -0.391 OA
ATOM     30  H1  UNL     1      20.139  13.786  18.994  1.00  0.00     0.210 HD
ENDBRANCH  22  29
ENDBRANCH   1  22
TORSDOF 9
ENDMDL
MODEL 4
REMARK VINA RESULT: -7.109503599      2.913      4.554
REMARK  9 active torsions:
REMARK  status: ('A' for Active; 'I' for Inactive)
REMARK    1  A    between atoms: C2_2  and  C4_4 
REMARK    2  A    between atoms: C4_4  and  C5_6 
REMARK    3  A    between atoms: C5_6  and  C6_7 
REMARK    4  A    between atoms: C6_7  and  O1_8 
REMARK    5  A    between atoms: C6_7  and  C7_10 
REMARK    6  A    between atoms: C17_20  and  N1_21 
REMARK    7  A    between atoms: N1_21  and  S1_23 
REMARK    8  A    between atoms: S1_23  and  C18_26 
REMARK    9  A    between atoms: C18_26  and  C19_27 
ROOT
HETATM    1  C7  UNL     1      20.080  13.371  15.924  1.00  0.00     0.046 C 
HETATM    2  C8  UNL     1      19.655  14.804  15.955  1.00  0.00     0.018 C 
HETATM    3  C9  UNL     1      19.562  15.284  14.489  1.00  0.00     0.015 C 
HETATM    4  C10 UNL     1      19.650  16.807  14.595  1.00  0.00     0.009 C 
HETATM    5  C11 UNL     1      19.909  17.429  13.261  1.00  0.00     0.001 C 
HETATM    6  C12 UNL     1      19.808  16.374  12.188  1.00  0.00     0.004 C 
HETATM    7  C13 UNL     1      20.947  15.401  12.385  1.00  0.00     0.035 C 
HETATM    8  C14 UNL     1      20.771  14.809  13.796  1.00  0.00    -0.072 C 
HETATM    9  C15 UNL     1      21.670  13.959  14.232  1.00  0.00    -0.057 C 
HETATM   10  C16 UNL     1      22.825  13.641  13.315  1.00  0.00     0.046 C 
HETATM   11  C17 UNL     1      21.573  13.287  15.592  1.00  0.00     0.128 C 
ENDROOT
BRANCH  11  12
HETATM   12  N1  UNL     1      21.963  11.938  15.458  1.00  0.00    -0.310 N 
ATOM     13  H1  UNL     1      21.514  11.350  14.756  1.00  0.00     0.172 HD
BRANCH  12  14
HETATM   14  S1  UNL     1      23.159  11.290  16.444  1.00  0.00     0.227 S 
HETATM   15  O2  UNL     1      23.515  12.311  17.549  1.00  0.00    -0.206 OA
HETATM   16  O3  UNL     1      24.436  11.031  15.750  1.00  0.00    -0.206 OA
BRANCH  14  17
HETATM   17  C18 UNL     1      22.560   9.879  17.325  1.00  0.00     0.171 C 
BRANCH  17  18
HETATM   18  C19 UNL     1      21.912   8.858  16.429  1.00  0.00    -0.037 C 
HETATM   19  C20 UNL     1      20.542   9.220  15.979  1.00  0.00     0.015 C 
HETATM   20  C21 UNL     1      21.827   7.551  17.194  1.00  0.00     0.015 C 
HETATM   21  C22 UNL     1      22.760   8.589  15.203  1.00  0.00     0.015 C 
ENDBRANCH  17  18
ENDBRANCH  14  17
ENDBRANCH  12  14
ENDBRANCH  11  12
BRANCH   1  22
HETATM   22  C6  UNL     1      19.543  12.518  16.963  1.00  0.00     0.149 C 
BRANCH  22  23
HETATM   23  C5  UNL     1      18.201  12.493  17.495  1.00  0.00     0.029 C 
BRANCH  23  24
HETATM   24  C4  UNL     1      17.748  12.038  18.804  1.00  0.00     0.037 C 
HETATM   25 CL1  UNL     1      17.220  13.299  19.943  1.00  0.00    -0.084 Cl
BRANCH  24  26
HETATM   26  C2  UNL     1      16.964  10.796  18.893  1.00  0.00    -0.050 C 
HETATM   27  C1  UNL     1      16.042  10.640  19.824  1.00  0.00     0.020 C 
HETATM   28  C3  UNL     1      17.239   9.674  17.956  1.00  0.00     0.049 C 
ENDBRANCH  24  26
ENDBRANCH  23  24
ENDBRANCH  22  23
BRANCH  22  29
HETATM   29  O1  UNL     1      20.463  12.702  18.103  1.00  0.00    -0.391 OA
ATOM     30  H1  UNL     1      20.774  11.841  18.355  1.00  0.00     0.210 HD
ENDBRANCH  22  29
ENDBRANCH   1  22
TORSDOF 9
ENDMDL
MODEL 5
REMARK VINA RESULT: -7.070662774      3.270      5.059
REMARK  9 active torsions:
REMARK  status: ('A' for Active; 'I' for Inactive)
REMARK    1  A    between atoms: C2_2  and  C4_4 
REMARK    2  A    between atoms: C4_4  and  C5_6 
REMARK    3  A    between atoms: C5_6  and  C6_7 
REMARK    4  A    between atoms: C6_7  and  O1_8 
REMARK    5  A    between atoms: C6_7  and  C7_10 
REMARK    6  A    between atoms: C17_20  and  N1_21 
REMARK    7  A    between atoms: N1_21  and  S1_23 
REMARK    8  A    between atoms: S1_23  and  C18_26 
REMARK    9  A    between atoms: C18_26  and  C19_27 
ROOT
HETATM    1  C7  UNL     1      19.786  13.361  15.987  1.00  0.00     0.046 C 
HETATM    2  C8  UNL     1      19.362  14.794  16.020  1.00  0.00     0.018 C 
HETATM    3  C9  UNL     1      19.446  15.327  14.571  1.00  0.00     0.015 C 
HETATM    4  C10 UNL     1      19.523  16.845  14.743  1.00  0.00     0.009 C 
HETATM    5  C11 UNL     1      19.941  17.513  13.473  1.00  0.00     0.001 C 
HETATM    6  C12 UNL     1      19.966  16.498  12.358  1.00  0.00     0.004 C 
HETATM    7  C13 UNL     1      21.072  15.512  12.653  1.00  0.00     0.035 C 
HETATM    8  C14 UNL     1      20.728  14.870  14.010  1.00  0.00    -0.072 C 
HETATM    9  C15 UNL     1      21.567  14.000  14.519  1.00  0.00    -0.057 C 
HETATM   10  C16 UNL     1      22.822  13.708  13.735  1.00  0.00     0.046 C 
HETATM   11  C17 UNL     1      21.308  13.280  15.832  1.00  0.00     0.128 C 
ENDROOT
BRANCH  11  12
HETATM   12  N1  UNL     1      21.709  11.934  15.697  1.00  0.00    -0.310 N 
ATOM     13  H1  UNL     1      21.226  11.328  15.034  1.00  0.00     0.172 HD
BRANCH  12  14
HETATM   14  S1  UNL     1      22.973  11.320  16.616  1.00  0.00     0.227 S 
HETATM   15  O2  UNL     1      22.787  11.753  18.089  1.00  0.00    -0.206 OA
HETATM   16  O3  UNL     1      24.301  11.842  16.238  1.00  0.00    -0.206 OA
BRANCH  14  17
HETATM   17  C18 UNL     1      22.921   9.553  16.667  1.00  0.00     0.171 C 
BRANCH  17  18
HETATM   18  C19 UNL     1      23.649   8.910  15.517  1.00  0.00    -0.037 C 
HETATM   19  C20 UNL     1      23.448   9.588  14.209  1.00  0.00     0.015 C 
HETATM   20  C21 UNL     1      23.154   7.482  15.390  1.00  0.00     0.015 C 
HETATM   21  C22 UNL     1      25.138   8.830  15.789  1.00  0.00     0.015 C 
ENDBRANCH  17  18
ENDBRANCH  14  17
ENDBRANCH  12  14
ENDBRANCH  11  12
BRANCH   1  22
HETATM   22  C6  UNL     1      19.128  12.473  16.923  1.00  0.00     0.149 C 
BRANCH  22  23
HETATM   23  C5  UNL     1      17.735  12.449  17.304  1.00  0.00     0.029 C 
BRANCH  23  24
HETATM   24  C4  UNL     1      17.036  11.482  18.141  1.00  0.00     0.037 C 
HETATM   25 CL1  UNL     1      17.401   9.766  17.844  1.00  0.00    -0.084 Cl
BRANCH  24  26
HETATM   26  C2  UNL     1      16.813  11.800  19.560  1.00  0.00    -0.050 C 
HETATM   27  C1  UNL     1      16.270  10.918  20.377  1.00  0.00     0.020 C 
HETATM   28  C3  UNL     1      17.153  13.152  20.082  1.00  0.00     0.049 C 
ENDBRANCH  24  26
ENDBRANCH  23  24
ENDBRANCH  22  23
BRANCH  22  29
HETATM   29  O1  UNL     1      19.919  12.593  18.163  1.00  0.00    -0.391 OA
ATOM     30  H1  UNL     1      20.826  12.712  17.908  1.00  0.00     0.210 HD
ENDBRANCH  22  29
ENDBRANCH   1  22
TORSDOF 9
ENDMDL
