MODEL 1
REMARK VINA RESULT: -7.678784926      0.000      0.000
REMARK  9 active torsions:
REMARK  status: ('A' for Active; 'I' for Inactive)
REMARK    1  A    between atoms: S1_2  and  C2_3 
REMARK    2  A    between atoms: C2_3  and  C3_4 
REMARK    3  A    between atoms: C3_4  and  C4_5 
REMARK    4  A    between atoms: C4_5  and  N1_6 
REMARK    5  A    between atoms: C4_5  and  C12_20 
REMARK    6  A    between atoms: N1_6  and  C5_8 
REMARK    7  A    between atoms: C5_8  and  N2_10 
REMARK    8  A    between atoms: N2_10  and  C6_12 
REMARK       I    between atoms: C12_20  and  N3_22 
REMARK    9  A    between atoms: C17_27  and  C18_28 
ROOT
HETATM    1  C4  UNL     1      20.744  12.184  16.976  1.00  0.00     0.177 C 
ENDROOT
BRANCH   1   2
HETATM    2  C3  UNL     1      22.248  12.250  17.220  1.00  0.00     0.045 C 
BRANCH   2   3
HETATM    3  C2  UNL     1      23.041  11.149  16.649  1.00  0.00     0.076 C 
BRANCH   3   4
HETATM    4  S1  UNL     1      24.037  11.752  15.249  1.00  0.00    -0.173 SA
HETATM    5  C1  UNL     1      24.400  13.513  15.500  1.00  0.00     0.089 C 
ENDBRANCH   3   4
ENDBRANCH   2   3
ENDBRANCH   1   2
BRANCH   1   6
HETATM    6  N1  UNL     1      20.481  10.869  16.361  1.00  0.00    -0.354 N 
ATOM      7  H1  UNL     1      20.839  10.697  15.422  1.00  0.00     0.162 HD
BRANCH   6   8
HETATM    8  C5  UNL     1      19.765   9.842  16.996  1.00  0.00     0.172 C 
HETATM    9  S2  UNL     1      20.561   8.567  17.673  1.00  0.00    -0.041 SA
BRANCH   8  10
HETATM   10  N2  UNL     1      18.365   9.862  17.032  1.00  0.00    -0.333 N 
ATOM     11  H2  UNL     1      17.899   9.638  16.153  1.00  0.00     0.168 HD
BRANCH  10  12
HETATM   12  C6  UNL     1      17.517  10.150  18.113  1.00  0.00     0.040 A 
HETATM   13  C7  UNL     1      16.437   9.406  18.501  1.00  0.00     0.072 A 
HETATM   14  C8  UNL     1      15.613   9.779  19.577  1.00  0.00     0.121 A 
HETATM   15  F1  UNL     1      14.557   9.013  19.924  1.00  0.00    -0.206 F 
HETATM   16  C9  UNL     1      15.858  10.920  20.301  1.00  0.00     0.084 A 
HETATM   17  C10 UNL     1      16.942  11.675  19.922  1.00  0.00     0.121 A 
HETATM   18  F2  UNL     1      17.185  12.810  20.642  1.00  0.00    -0.206 F 
HETATM   19  C11 UNL     1      17.744  11.316  18.876  1.00  0.00     0.072 A 
ENDBRANCH  10  12
ENDBRANCH   8  10
ENDBRANCH   6   8
ENDBRANCH   1   6
BRANCH   1  20
HETATM   20  C12 UNL     1      20.319  13.224  16.015  1.00  0.00     0.243 C 
HETATM   21  O1  UNL     1      20.629  12.943  14.821  1.00  0.00    -0.271 OA
HETATM   22  N3  UNL     1      19.657  14.402  16.293  1.00  0.00    -0.345 N 
HETATM   23  C13 UNL     1      19.250  14.631  17.706  1.00  0.00     0.126 C 
HETATM   24  C17 UNL     1      19.298  15.508  15.479  1.00  0.00     0.094 C 
HETATM   25  C14 UNL     1      17.780  14.785  17.750  1.00  0.00     0.020 C 
HETATM   26  C15 UNL     1      17.147  15.697  16.766  1.00  0.00     0.004 C 
HETATM   27  C16 UNL     1      17.788  15.727  15.424  1.00  0.00     0.026 C 
BRANCH  24  28
HETATM   28  C18 UNL     1      19.872  15.702  14.129  1.00  0.00    -0.031 C 
HETATM   29  C19 UNL     1      21.345  15.462  14.038  1.00  0.00     0.016 C 
HETATM   30  C20 UNL     1      19.762  17.264  13.927  1.00  0.00     0.016 C 
HETATM   31  C21 UNL     1      19.123  15.154  12.970  1.00  0.00     0.016 C 
ENDBRANCH  24  28
ENDBRANCH   1  20
TORSDOF 9
ENDMDL
MODEL 2
REMARK VINA RESULT: -7.618310937      2.920      5.682
REMARK  9 active torsions:
REMARK  status: ('A' for Active; 'I' for Inactive)
REMARK    1  A    between atoms: S1_2  and  C2_3 
REMARK    2  A    between atoms: C2_3  and  C3_4 
REMARK    3  A    between atoms: C3_4  and  C4_5 
REMARK    4  A    between atoms: C4_5  and  N1_6 
REMARK    5  A    between atoms: C4_5  and  C12_20 
REMARK    6  A    between atoms: N1_6  and  C5_8 
REMARK    7  A    between atoms: C5_8  and  N2_10 
REMARK    8  A    between atoms: N2_10  and  C6_12 
REMARK       I    between atoms: C12_20  and  N3_22 
REMARK    9  A    between atoms: C17_27  and  C18_28 
ROOT
HETATM    1  C4  UNL     1      18.614  12.674  16.996  1.00  0.00     0.177 C 
ENDROOT
BRANCH   1   2
HETATM    2  C3  UNL     1      18.390  11.800  18.225  1.00  0.00     0.045 C 
BRANCH   2   3
HETATM    3  C2  UNL     1      17.561  12.388  19.291  1.00  0.00     0.076 C 
BRANCH   3   4
HETATM    4  S1  UNL     1      16.466  11.122  20.006  1.00  0.00    -0.173 SA
HETATM    5  C1  UNL     1      16.127   9.857  18.748  1.00  0.00     0.089 C 
ENDBRANCH   3   4
ENDBRANCH   2   3
ENDBRANCH   1   2
BRANCH   1   6
HETATM    6  N1  UNL     1      17.710  12.158  15.950  1.00  0.00    -0.354 N 
ATOM      7  H1  UNL     1      17.599  11.147  15.866  1.00  0.00     0.162 HD
BRANCH   6   8
HETATM    8  C5  UNL     1      16.994  12.978  15.065  1.00  0.00     0.172 C 
HETATM    9  S2  UNL     1      17.346  12.973  13.455  1.00  0.00    -0.041 SA
BRANCH   8  10
HETATM   10  N2  UNL     1      15.998  13.842  15.537  1.00  0.00    -0.333 N 
ATOM     11  H2  UNL     1      15.040  13.569  15.320  1.00  0.00     0.168 HD
BRANCH  10  12
HETATM   12  C6  UNL     1      16.140  15.033  16.267  1.00  0.00     0.040 A 
HETATM   13  C7  UNL     1      17.324  15.631  16.596  1.00  0.00     0.072 A 
HETATM   14  C8  UNL     1      17.386  16.809  17.362  1.00  0.00     0.121 A 
HETATM   15  F1  UNL     1      18.579  17.364  17.663  1.00  0.00    -0.206 F 
HETATM   16  C9  UNL     1      16.246  17.422  17.820  1.00  0.00     0.084 A 
HETATM   17  C10 UNL     1      15.049  16.831  17.494  1.00  0.00     0.121 A 
HETATM   18  F2  UNL     1      13.916  17.442  17.950  1.00  0.00    -0.206 F 
HETATM   19  C11 UNL     1      14.986  15.686  16.751  1.00  0.00     0.072 A 
ENDBRANCH  10  12
ENDBRANCH   8  10
ENDBRANCH   6   8
ENDBRANCH   1   6
BRANCH   1  20
HETATM   20  C12 UNL     1      20.000  12.542  16.499  1.00  0.00     0.243 C 
HETATM   21  O1  UNL     1      20.451  11.365  16.612  1.00  0.00    -0.271 OA
HETATM   22  N3  UNL     1      20.795  13.532  15.960  1.00  0.00    -0.345 N 
HETATM   23  C13 UNL     1      20.174  14.873  15.780  1.00  0.00     0.126 C 
HETATM   24  C17 UNL     1      22.155  13.547  15.554  1.00  0.00     0.094 C 
HETATM   25  C14 UNL     1      20.229  15.225  14.344  1.00  0.00     0.020 C 
HETATM   26  C15 UNL     1      21.517  15.035  13.631  1.00  0.00     0.004 C 
HETATM   27  C16 UNL     1      22.318  13.860  14.069  1.00  0.00     0.026 C 
BRANCH  24  28
HETATM   28  C18 UNL     1      23.094  12.468  15.935  1.00  0.00    -0.031 C 
HETATM   29  C19 UNL     1      23.260  12.277  17.408  1.00  0.00     0.016 C 
HETATM   30  C20 UNL     1      24.493  13.057  15.501  1.00  0.00     0.016 C 
HETATM   31  C21 UNL     1      23.018  11.186  15.189  1.00  0.00     0.016 C 
ENDBRANCH  24  28
ENDBRANCH   1  20
TORSDOF 9
ENDMDL
MODEL 3
REMARK VINA RESULT: -7.615536576      2.157      3.307
REMARK  9 active torsions:
REMARK  status: ('A' for Active; 'I' for Inactive)
REMARK    1  A    between atoms: S1_2  and  C2_3 
REMARK    2  A    between atoms: C2_3  and  C3_4 
REMARK    3  A    between atoms: C3_4  and  C4_5 
REMARK    4  A    between atoms: C4_5  and  N1_6 
REMARK    5  A    between atoms: C4_5  and  C12_20 
REMARK    6  A    between atoms: N1_6  and  C5_8 
REMARK    7  A    between atoms: C5_8  and  N2_10 
REMARK    8  A    between atoms: N2_10  and  C6_12 
REMARK       I    between atoms: C12_20  and  N3_22 
REMARK    9  A    between atoms: C17_27  and  C18_28 
ROOT
HETATM    1  C4  UNL     1      20.819  13.425  16.199  1.00  0.00     0.177 C 
ENDROOT
BRANCH   1   2
HETATM    2  C3  UNL     1      20.884  12.032  16.815  1.00  0.00     0.045 C 
BRANCH   2   3
HETATM    3  C2  UNL     1      22.236  11.500  17.061  1.00  0.00     0.076 C 
BRANCH   3   4
HETATM    4  S1  UNL     1      23.486  12.778  16.715  1.00  0.00    -0.173 SA
HETATM    5  C1  UNL     1      24.257  12.428  15.109  1.00  0.00     0.089 C 
ENDBRANCH   3   4
ENDBRANCH   2   3
ENDBRANCH   1   2
BRANCH   1   6
HETATM    6  N1  UNL     1      20.015  14.249  17.121  1.00  0.00    -0.354 N 
ATOM      7  H1  UNL     1      20.468  14.617  17.957  1.00  0.00     0.162 HD
BRANCH   6   8
HETATM    8  C5  UNL     1      18.661  14.556  16.912  1.00  0.00     0.172 C 
HETATM    9  S2  UNL     1      18.184  16.120  16.703  1.00  0.00    -0.041 SA
BRANCH   8  10
HETATM   10  N2  UNL     1      17.690  13.547  16.916  1.00  0.00    -0.333 N 
ATOM     11  H2  UNL     1      17.209  13.396  16.030  1.00  0.00     0.168 HD
BRANCH  10  12
HETATM   12  C6  UNL     1      17.289  12.717  17.975  1.00  0.00     0.040 A 
HETATM   13  C7  UNL     1      16.961  11.393  17.871  1.00  0.00     0.072 A 
HETATM   14  C8  UNL     1      16.534  10.634  18.975  1.00  0.00     0.121 A 
HETATM   15  F1  UNL     1      16.220   9.330  18.825  1.00  0.00    -0.206 F 
HETATM   16  C9  UNL     1      16.426  11.192  20.225  1.00  0.00     0.084 A 
HETATM   17  C10 UNL     1      16.755  12.522  20.342  1.00  0.00     0.121 A 
HETATM   18  F2  UNL     1      16.648  13.076  21.586  1.00  0.00    -0.206 F 
HETATM   19  C11 UNL     1      17.169  13.262  19.272  1.00  0.00     0.072 A 
ENDBRANCH  10  12
ENDBRANCH   8  10
ENDBRANCH   6   8
ENDBRANCH   1   6
BRANCH   1  20
HETATM   20  C12 UNL     1      20.121  13.394  14.896  1.00  0.00     0.243 C 
HETATM   21  O1  UNL     1      19.271  12.459  14.818  1.00  0.00    -0.271 OA
HETATM   22  N3  UNL     1      20.307  14.243  13.824  1.00  0.00    -0.345 N 
HETATM   23  C13 UNL     1      21.261  15.370  14.014  1.00  0.00     0.126 C 
HETATM   24  C17 UNL     1      19.779  14.245  12.507  1.00  0.00     0.094 C 
HETATM   25  C14 UNL     1      20.532  16.640  13.805  1.00  0.00     0.020 C 
HETATM   26  C15 UNL     1      19.664  16.754  12.606  1.00  0.00     0.004 C 
HETATM   27  C16 UNL     1      18.969  15.502  12.204  1.00  0.00     0.026 C 
BRANCH  24  28
HETATM   28  C18 UNL     1      19.086  13.065  11.943  1.00  0.00    -0.031 C 
HETATM   29  C19 UNL     1      19.920  11.826  11.873  1.00  0.00     0.016 C 
HETATM   30  C20 UNL     1      18.916  13.456  10.423  1.00  0.00     0.016 C 
HETATM   31  C21 UNL     1      17.692  12.801  12.385  1.00  0.00     0.016 C 
ENDBRANCH  24  28
ENDBRANCH   1  20
TORSDOF 9
ENDMDL
MODEL 4
REMARK VINA RESULT: -7.604294133      0.667      1.659
REMARK  9 active torsions:
REMARK  status: ('A' for Active; 'I' for Inactive)
REMARK    1  A    between atoms: S1_2  and  C2_3 
REMARK    2  A    between atoms: C2_3  and  C3_4 
REMARK    3  A    between atoms: C3_4  and  C4_5 
REMARK    4  A    between atoms: C4_5  and  N1_6 
REMARK    5  A    between atoms: C4_5  and  C12_20 
REMARK    6  A    between atoms: N1_6  and  C5_8 
REMARK    7  A    between atoms: C5_8  and  N2_10 
REMARK    8  A    between atoms: N2_10  and  C6_12 
REMARK       I    between atoms: C12_20  and  N3_22 
REMARK    9  A    between atoms: C17_27  and  C18_28 
ROOT
HETATM    1  C4  UNL     1      20.642  11.902  16.389  1.00  0.00     0.177 C 
ENDROOT
BRANCH   1   2
HETATM    2  C3  UNL     1      22.152  11.690  16.362  1.00  0.00     0.045 C 
BRANCH   2   3
HETATM    3  C2  UNL     1      22.971  12.845  16.766  1.00  0.00     0.076 C 
BRANCH   3   4
HETATM    4  S1  UNL     1      24.258  13.169  15.519  1.00  0.00    -0.173 SA
HETATM    5  C1  UNL     1      23.870  12.230  14.014  1.00  0.00     0.089 C 
ENDBRANCH   3   4
ENDBRANCH   2   3
ENDBRANCH   1   2
BRANCH   1   6
HETATM    6  N1  UNL     1      20.040  10.675  15.834  1.00  0.00    -0.354 N 
ATOM      7  H1  UNL     1      19.898  10.623  14.825  1.00  0.00     0.162 HD
BRANCH   6   8
HETATM    8  C5  UNL     1      19.652   9.575  16.614  1.00  0.00     0.172 C 
HETATM    9  S2  UNL     1      20.767   8.460  17.094  1.00  0.00    -0.041 SA
BRANCH   8  10
HETATM   10  N2  UNL     1      18.310   9.386  16.968  1.00  0.00    -0.333 N 
ATOM     11  H2  UNL     1      17.799   8.706  16.406  1.00  0.00     0.168 HD
BRANCH  10  12
HETATM   12  C6  UNL     1      17.574  10.007  17.989  1.00  0.00     0.040 A 
HETATM   13  C7  UNL     1      17.911  11.171  18.621  1.00  0.00     0.072 A 
HETATM   14  C8  UNL     1      17.137  11.714  19.663  1.00  0.00     0.121 A 
HETATM   15  F1  UNL     1      17.509  12.867  20.258  1.00  0.00    -0.206 F 
HETATM   16  C9  UNL     1      15.992  11.094  20.098  1.00  0.00     0.084 A 
HETATM   17  C10 UNL     1      15.642   9.923  19.469  1.00  0.00     0.121 A 
HETATM   18  F2  UNL     1      14.503   9.306  19.903  1.00  0.00    -0.206 F 
HETATM   19  C11 UNL     1      16.392   9.392  18.458  1.00  0.00     0.072 A 
ENDBRANCH  10  12
ENDBRANCH   8  10
ENDBRANCH   6   8
ENDBRANCH   1   6
BRANCH   1  20
HETATM   20  C12 UNL     1      20.252  13.030  15.517  1.00  0.00     0.243 C 
HETATM   21  O1  UNL     1      20.433  12.785  14.289  1.00  0.00    -0.271 OA
HETATM   22  N3  UNL     1      19.740  14.252  15.905  1.00  0.00    -0.345 N 
HETATM   23  C13 UNL     1      19.475  14.442  17.357  1.00  0.00     0.126 C 
HETATM   24  C17 UNL     1      19.434  15.431  15.177  1.00  0.00     0.094 C 
HETATM   25  C14 UNL     1      18.037  14.739  17.534  1.00  0.00     0.020 C 
HETATM   26  C15 UNL     1      17.425  15.763  16.650  1.00  0.00     0.004 C 
HETATM   27  C16 UNL     1      17.956  15.802  15.261  1.00  0.00     0.026 C 
BRANCH  24  28
HETATM   28  C18 UNL     1      19.915  15.640  13.793  1.00  0.00    -0.031 C 
HETATM   29  C19 UNL     1      21.371  15.365  13.590  1.00  0.00     0.016 C 
HETATM   30  C20 UNL     1      19.832  17.208  13.630  1.00  0.00     0.016 C 
HETATM   31  C21 UNL     1      19.070  15.137  12.680  1.00  0.00     0.016 C 
ENDBRANCH  24  28
ENDBRANCH   1  20
TORSDOF 9
ENDMDL
MODEL 5
REMARK VINA RESULT: -7.602213782      2.399      3.968
REMARK  9 active torsions:
REMARK  status: ('A' for Active; 'I' for Inactive)
REMARK    1  A    between atoms: S1_2  and  C2_3 
REMARK    2  A    between atoms: C2_3  and  C3_4 
REMARK    3  A    between atoms: C3_4  and  C4_5 
REMARK    4  A    between atoms: C4_5  and  N1_6 
REMARK    5  A    between atoms: C4_5  and  C12_20 
REMARK    6  A    between atoms: N1_6  and  C5_8 
REMARK    7  A    between atoms: C5_8  and  N2_10 
REMARK    8  A    between atoms: N2_10  and  C6_12 
REMARK       I    between atoms: C12_20  and  N3_22 
REMARK    9  A    between atoms: C17_27  and  C18_28 
ROOT
HETATM    1  C4  UNL     1      18.820  14.559  16.877  1.00  0.00     0.177 C 
ENDROOT
BRANCH   1   2
HETATM    2  C3  UNL     1      18.977  15.931  17.523  1.00  0.00     0.045 C 
BRANCH   2   3
HETATM    3  C2  UNL     1      17.897  16.896  17.256  1.00  0.00     0.076 C 
BRANCH   3   4
HETATM    4  S1  UNL     1      16.291  16.041  17.202  1.00  0.00    -0.173 SA
HETATM    5  C1  UNL     1      14.973  17.241  17.547  1.00  0.00     0.089 C 
ENDBRANCH   3   4
ENDBRANCH   2   3
ENDBRANCH   1   2
BRANCH   1   6
HETATM    6  N1  UNL     1      19.578  13.614  17.719  1.00  0.00    -0.354 N 
ATOM      7  H1  UNL     1      20.008  13.969  18.573  1.00  0.00     0.162 HD
BRANCH   6   8
HETATM    8  C5  UNL     1      19.740  12.254  17.412  1.00  0.00     0.172 C 
HETATM    9  S2  UNL     1      21.237  11.646  17.089  1.00  0.00    -0.041 SA
BRANCH   8  10
HETATM   10  N2  UNL     1      18.632  11.400  17.337  1.00  0.00    -0.333 N 
ATOM     11  H2  UNL     1      18.504  10.922  16.446  1.00  0.00     0.168 HD
BRANCH  10  12
HETATM   12  C6  UNL     1      17.674  11.115  18.322  1.00  0.00     0.040 A 
HETATM   13  C7  UNL     1      16.846  10.026  18.339  1.00  0.00     0.072 A 
HETATM   14  C8  UNL     1      15.885   9.827  19.346  1.00  0.00     0.121 A 
HETATM   15  F1  UNL     1      15.089   8.737  19.321  1.00  0.00    -0.206 F 
HETATM   16  C9  UNL     1      15.731  10.725  20.374  1.00  0.00     0.084 A 
HETATM   17  C10 UNL     1      16.560  11.822  20.368  1.00  0.00     0.121 A 
HETATM   18  F2  UNL     1      16.406  12.714  21.391  1.00  0.00    -0.206 F 
HETATM   19  C11 UNL     1      17.493  12.019  19.391  1.00  0.00     0.072 A 
ENDBRANCH  10  12
ENDBRANCH   8  10
ENDBRANCH   6   8
ENDBRANCH   1   6
BRANCH   1  20
HETATM   20  C12 UNL     1      19.419  14.539  15.525  1.00  0.00     0.243 C 
HETATM   21  O1  UNL     1      20.612  14.963  15.513  1.00  0.00    -0.271 OA
HETATM   22  N3  UNL     1      18.825  14.127  14.350  1.00  0.00    -0.345 N 
HETATM   23  C13 UNL     1      17.451  13.563  14.450  1.00  0.00     0.126 C 
HETATM   24  C17 UNL     1      19.260  14.162  13.000  1.00  0.00     0.094 C 
HETATM   25  C14 UNL     1      17.476  12.179  13.931  1.00  0.00     0.020 C 
HETATM   26  C15 UNL     1      18.156  11.934  12.635  1.00  0.00     0.004 C 
HETATM   27  C16 UNL     1      19.359  12.771  12.382  1.00  0.00     0.026 C 
BRANCH  24  28
HETATM   28  C18 UNL     1      20.423  14.973  12.576  1.00  0.00    -0.031 C 
HETATM   29  C19 UNL     1      20.178  16.448  12.547  1.00  0.00     0.016 C 
HETATM   30  C20 UNL     1      20.557  14.613  11.045  1.00  0.00     0.016 C 
HETATM   31  C21 UNL     1      21.756  14.618  13.127  1.00  0.00     0.016 C 
ENDBRANCH  24  28
ENDBRANCH   1  20
TORSDOF 9
ENDMDL
