MODEL 1
REMARK VINA RESULT: -6.795547739      0.000      0.000
REMARK  9 active torsions:
REMARK  status: ('A' for Active; 'I' for Inactive)
REMARK    1  A    between atoms: C2_2  and  C3_3 
REMARK    2  A    between atoms: C3_3  and  C4_4 
REMARK    3  A    between atoms: C10_12  and  C11_13 
REMARK    4  A    between atoms: C13_16  and  N2_17 
REMARK    5  A    between atoms: N2_17  and  C14_19 
REMARK    6  A    between atoms: C14_19  and  N3_21 
REMARK    7  A    between atoms: N3_21  and  C15_23 
REMARK    8  A    between atoms: C15_23  and  C16_24 
REMARK    9  A    between atoms: C16_24  and  C17_25 
ROOT
HETATM    1  C4  UNL     1      17.721  13.306  17.794  1.00  0.00    -0.060 C 
HETATM    2  C5  UNL     1      17.088  12.778  16.754  1.00  0.00     0.019 C 
HETATM    3  C6  UNL     1      17.459  13.391  15.462  1.00  0.00     0.118 C 
HETATM    4  C7  UNL     1      16.632  12.823  14.325  1.00  0.00     0.055 C 
HETATM    5  O1  UNL     1      17.126  14.763  15.636  1.00  0.00    -0.286 OA
HETATM    6  N1  UNL     1      17.980  15.323  16.498  1.00  0.00    -0.191 NA
HETATM    7  C8  UNL     1      17.495  16.459  17.211  1.00  0.00     0.144 C 
HETATM    8  C9  UNL     1      18.679  14.392  17.349  1.00  0.00     0.124 C 
HETATM    9  C10 UNL     1      19.670  13.642  16.470  1.00  0.00     0.059 C 
HETATM   10  C13 UNL     1      18.923  13.411  15.143  1.00  0.00     0.133 C 
ENDROOT
BRANCH  10  11
HETATM   11  N2  UNL     1      19.376  12.208  14.491  1.00  0.00    -0.359 N 
ATOM     12  H2  UNL     1      19.223  11.295  14.917  1.00  0.00     0.162 HD
BRANCH  11  13
HETATM   13  C14 UNL     1      20.040  12.324  13.240  1.00  0.00     0.168 C 
HETATM   14  S1  UNL     1      19.424  11.674  11.874  1.00  0.00    -0.041 SA
BRANCH  13  15
HETATM   15  N3  UNL     1      21.293  12.980  13.140  1.00  0.00    -0.367 N 
ATOM     16  H3  UNL     1      22.135  12.563  13.537  1.00  0.00     0.161 HD
BRANCH  15  17
HETATM   17  C15 UNL     1      21.349  14.235  12.473  1.00  0.00     0.125 C 
BRANCH  17  18
HETATM   18  C16 UNL     1      21.189  15.470  13.259  1.00  0.00     0.062 C 
BRANCH  18  19
HETATM   19  C17 UNL     1      20.040  16.319  12.874  1.00  0.00     0.098 C 
HETATM   20  C18 UNL     1      19.706  17.164  14.132  1.00  0.00     0.051 C 
HETATM   21  C19 UNL     1      18.825  15.634  12.381  1.00  0.00     0.051 C 
HETATM   22  F1  UNL     1      20.391  17.271  11.908  1.00  0.00    -0.244 F 
ENDBRANCH  18  19
ENDBRANCH  17  18
ENDBRANCH  15  17
ENDBRANCH  13  15
ENDBRANCH  11  13
ENDBRANCH  10  11
BRANCH   9  23
HETATM   23  C11 UNL     1      20.148  12.413  17.087  1.00  0.00    -0.011 C 
HETATM   24  C12 UNL     1      21.388  11.987  17.170  1.00  0.00     0.052 C 
HETATM   25 BR1  UNL     1      22.886  12.929  16.474  1.00  0.00    -0.064 Br
ENDBRANCH   9  23
BRANCH   1  26
HETATM   26  C3  UNL     1      17.586  12.936  19.197  1.00  0.00     0.035 C 
BRANCH  26  27
HETATM   27  C2  UNL     1      17.213  11.488  19.403  1.00  0.00    -0.000 C 
HETATM   28  C1  UNL     1      16.392  11.434  20.692  1.00  0.00     0.005 C 
ENDBRANCH  26  27
ENDBRANCH   1  26
TORSDOF 9
ENDMDL
MODEL 2
REMARK VINA RESULT: -6.781638109      3.042      5.973
REMARK  9 active torsions:
REMARK  status: ('A' for Active; 'I' for Inactive)
REMARK    1  A    between atoms: C2_2  and  C3_3 
REMARK    2  A    between atoms: C3_3  and  C4_4 
REMARK    3  A    between atoms: C10_12  and  C11_13 
REMARK    4  A    between atoms: C13_16  and  N2_17 
REMARK    5  A    between atoms: N2_17  and  C14_19 
REMARK    6  A    between atoms: C14_19  and  N3_21 
REMARK    7  A    between atoms: N3_21  and  C15_23 
REMARK    8  A    between atoms: C15_23  and  C16_24 
REMARK    9  A    between atoms: C16_24  and  C17_25 
ROOT
HETATM    1  C4  UNL     1      18.559  15.380  14.716  1.00  0.00    -0.060 C 
HETATM    2  C5  UNL     1      19.466  14.921  15.570  1.00  0.00     0.019 C 
HETATM    3  C6  UNL     1      19.008  13.748  16.345  1.00  0.00     0.118 C 
HETATM    4  C7  UNL     1      20.040  13.333  17.375  1.00  0.00     0.055 C 
HETATM    5  O1  UNL     1      17.848  14.225  17.017  1.00  0.00    -0.286 OA
HETATM    6  N1  UNL     1      16.865  14.410  16.132  1.00  0.00    -0.191 NA
HETATM    7  C8  UNL     1      15.877  15.375  16.488  1.00  0.00     0.144 C 
HETATM    8  C9  UNL     1      17.299  14.541  14.763  1.00  0.00     0.124 C 
HETATM    9  C10 UNL     1      17.779  13.167  14.315  1.00  0.00     0.059 C 
HETATM   10  C13 UNL     1      18.510  12.586  15.540  1.00  0.00     0.133 C 
ENDROOT
BRANCH  10  11
HETATM   11  N2  UNL     1      19.559  11.682  15.144  1.00  0.00    -0.359 N 
ATOM     12  H2  UNL     1      20.312  11.994  14.530  1.00  0.00     0.162 HD
BRANCH  11  13
HETATM   13  C14 UNL     1      19.522  10.346  15.626  1.00  0.00     0.168 C 
HETATM   14  S1  UNL     1      20.845   9.388  15.615  1.00  0.00    -0.041 SA
BRANCH  13  15
HETATM   15  N3  UNL     1      18.312   9.779  16.103  1.00  0.00    -0.367 N 
ATOM     16  H3  UNL     1      17.513   9.654  15.481  1.00  0.00     0.161 HD
BRANCH  15  17
HETATM   17  C15 UNL     1      18.240   9.388  17.468  1.00  0.00     0.125 C 
BRANCH  17  18
HETATM   18  C16 UNL     1      18.077  10.427  18.501  1.00  0.00     0.062 C 
BRANCH  18  19
HETATM   19  C17 UNL     1      16.680  10.837  18.768  1.00  0.00     0.098 C 
HETATM   20  C18 UNL     1      16.749  11.768  20.007  1.00  0.00     0.051 C 
HETATM   21  C19 UNL     1      15.687   9.764  18.988  1.00  0.00     0.051 C 
HETATM   22  F1  UNL     1      16.172  11.659  17.752  1.00  0.00    -0.244 F 
ENDBRANCH  18  19
ENDBRANCH  17  18
ENDBRANCH  15  17
ENDBRANCH  13  15
ENDBRANCH  11  13
ENDBRANCH  10  11
BRANCH   9  23
HETATM   23  C11 UNL     1      18.609  13.226  13.120  1.00  0.00    -0.011 C 
HETATM   24  C12 UNL     1      18.258  12.948  11.886  1.00  0.00     0.052 C 
HETATM   25 BR1  UNL     1      16.514  12.388  11.376  1.00  0.00    -0.064 Br
ENDBRANCH   9  23
BRANCH   1  26
HETATM   26  C3  UNL     1      18.688  16.514  13.810  1.00  0.00     0.035 C 
BRANCH  26  27
HETATM   27  C2  UNL     1      20.119  16.914  13.548  1.00  0.00    -0.000 C 
HETATM   28  C1  UNL     1      20.563  16.138  12.306  1.00  0.00     0.005 C 
ENDBRANCH  26  27
ENDBRANCH   1  26
TORSDOF 9
ENDMDL
MODEL 3
REMARK VINA RESULT: -6.695106963      0.968      1.047
REMARK  9 active torsions:
REMARK  status: ('A' for Active; 'I' for Inactive)
REMARK    1  A    between atoms: C2_2  and  C3_3 
REMARK    2  A    between atoms: C3_3  and  C4_4 
REMARK    3  A    between atoms: C10_12  and  C11_13 
REMARK    4  A    between atoms: C13_16  and  N2_17 
REMARK    5  A    between atoms: N2_17  and  C14_19 
REMARK    6  A    between atoms: C14_19  and  N3_21 
REMARK    7  A    between atoms: N3_21  and  C15_23 
REMARK    8  A    between atoms: C15_23  and  C16_24 
REMARK    9  A    between atoms: C16_24  and  C17_25 
ROOT
HETATM    1  C4  UNL     1      17.359  12.360  17.542  1.00  0.00    -0.060 C 
HETATM    2  C5  UNL     1      16.857  12.057  16.351  1.00  0.00     0.019 C 
HETATM    3  C6  UNL     1      17.223  13.021  15.292  1.00  0.00     0.118 C 
HETATM    4  C7  UNL     1      16.540  12.684  13.981  1.00  0.00     0.055 C 
HETATM    5  O1  UNL     1      16.713  14.258  15.776  1.00  0.00    -0.286 OA
HETATM    6  N1  UNL     1      17.440  14.661  16.822  1.00  0.00    -0.191 NA
HETATM    7  C8  UNL     1      16.777  15.514  17.752  1.00  0.00     0.144 C 
HETATM    8  C9  UNL     1      18.199  13.619  17.470  1.00  0.00     0.124 C 
HETATM    9  C10 UNL     1      19.325  13.232  16.521  1.00  0.00     0.059 C 
HETATM   10  C13 UNL     1      18.690  13.276  15.118  1.00  0.00     0.133 C 
ENDROOT
BRANCH  10  11
HETATM   11  N2  UNL     1      19.325  12.339  14.227  1.00  0.00    -0.359 N 
ATOM     12  H2  UNL     1      19.266  11.335  14.397  1.00  0.00     0.162 HD
BRANCH  11  13
HETATM   13  C14 UNL     1      20.036  12.845  13.106  1.00  0.00     0.168 C 
HETATM   14  S1  UNL     1      19.452  12.720  11.586  1.00  0.00    -0.041 SA
BRANCH  13  15
HETATM   15  N3  UNL     1      21.311  13.446  13.264  1.00  0.00    -0.367 N 
ATOM     16  H3  UNL     1      22.113  12.898  13.576  1.00  0.00     0.161 HD
BRANCH  15  17
HETATM   17  C15 UNL     1      21.445  14.833  12.979  1.00  0.00     0.125 C 
BRANCH  17  18
HETATM   18  C16 UNL     1      21.136  15.813  14.034  1.00  0.00     0.062 C 
BRANCH  18  19
HETATM   19  C17 UNL     1      20.092  16.804  13.690  1.00  0.00     0.098 C 
HETATM   20  C18 UNL     1      19.071  16.755  14.858  1.00  0.00     0.051 C 
HETATM   21  C19 UNL     1      19.398  16.637  12.396  1.00  0.00     0.051 C 
HETATM   22  F1  UNL     1      20.584  18.116  13.722  1.00  0.00    -0.244 F 
ENDBRANCH  18  19
ENDBRANCH  17  18
ENDBRANCH  15  17
ENDBRANCH  13  15
ENDBRANCH  11  13
ENDBRANCH  10  11
BRANCH   9  23
HETATM   23  C11 UNL     1      19.915  11.942  16.849  1.00  0.00    -0.011 C 
HETATM   24  C12 UNL     1      21.191  11.643  16.934  1.00  0.00     0.052 C 
HETATM   25 BR1  UNL     1      22.598  12.887  16.638  1.00  0.00    -0.064 Br
ENDBRANCH   9  23
BRANCH   1  26
HETATM   26  C3  UNL     1      17.190  11.626  18.789  1.00  0.00     0.035 C 
BRANCH  26  27
HETATM   27  C2  UNL     1      17.121  10.130  18.601  1.00  0.00    -0.000 C 
HETATM   28  C1  UNL     1      15.694   9.716  18.966  1.00  0.00     0.005 C 
ENDBRANCH  26  27
ENDBRANCH   1  26
TORSDOF 9
ENDMDL
MODEL 4
REMARK VINA RESULT: -6.446107208      3.047      6.247
REMARK  9 active torsions:
REMARK  status: ('A' for Active; 'I' for Inactive)
REMARK    1  A    between atoms: C2_2  and  C3_3 
REMARK    2  A    between atoms: C3_3  and  C4_4 
REMARK    3  A    between atoms: C10_12  and  C11_13 
REMARK    4  A    between atoms: C13_16  and  N2_17 
REMARK    5  A    between atoms: N2_17  and  C14_19 
REMARK    6  A    between atoms: C14_19  and  N3_21 
REMARK    7  A    between atoms: N3_21  and  C15_23 
REMARK    8  A    between atoms: C15_23  and  C16_24 
REMARK    9  A    between atoms: C16_24  and  C17_25 
ROOT
HETATM    1  C4  UNL     1      21.415  14.112  13.956  1.00  0.00    -0.060 C 
HETATM    2  C5  UNL     1      21.138  15.369  14.279  1.00  0.00     0.019 C 
HETATM    3  C6  UNL     1      19.700  15.701  14.184  1.00  0.00     0.118 C 
HETATM    4  C7  UNL     1      19.456  17.171  14.462  1.00  0.00     0.055 C 
HETATM    5  O1  UNL     1      19.384  15.428  12.824  1.00  0.00    -0.286 OA
HETATM    6  N1  UNL     1      19.408  14.108  12.618  1.00  0.00    -0.191 NA
HETATM    7  C8  UNL     1      19.681  13.689  11.282  1.00  0.00     0.144 C 
HETATM    8  C9  UNL     1      20.152  13.355  13.598  1.00  0.00     0.124 C 
HETATM    9  C10 UNL     1      19.348  13.389  14.890  1.00  0.00     0.059 C 
HETATM   10  C13 UNL     1      18.771  14.816  14.958  1.00  0.00     0.133 C 
ENDROOT
BRANCH  10  11
HETATM   11  N2  UNL     1      18.590  15.242  16.322  1.00  0.00    -0.359 N 
ATOM     12  H2  UNL     1      19.378  15.585  16.871  1.00  0.00     0.162 HD
BRANCH  11  13
HETATM   13  C14 UNL     1      17.288  15.173  16.887  1.00  0.00     0.168 C 
HETATM   14  S1  UNL     1      15.971  15.715  16.086  1.00  0.00    -0.041 SA
BRANCH  13  15
HETATM   15  N3  UNL     1      17.089  14.662  18.195  1.00  0.00    -0.367 N 
ATOM     16  H3  UNL     1      16.573  15.199  18.893  1.00  0.00     0.161 HD
BRANCH  15  17
HETATM   17  C15 UNL     1      17.625  13.384  18.511  1.00  0.00     0.125 C 
BRANCH  17  18
HETATM   18  C16 UNL     1      16.857  12.178  18.155  1.00  0.00     0.062 C 
BRANCH  18  19
HETATM   19  C17 UNL     1      16.916  11.078  19.142  1.00  0.00     0.098 C 
HETATM   20  C18 UNL     1      16.036   9.943  18.554  1.00  0.00     0.051 C 
HETATM   21  C19 UNL     1      16.497  11.385  20.527  1.00  0.00     0.051 C 
HETATM   22  F1  UNL     1      18.195  10.511  19.221  1.00  0.00    -0.244 F 
ENDBRANCH  18  19
ENDBRANCH  17  18
ENDBRANCH  15  17
ENDBRANCH  13  15
ENDBRANCH  11  13
ENDBRANCH  10  11
BRANCH   9  23
HETATM   23  C11 UNL     1      20.145  13.030  16.055  1.00  0.00    -0.011 C 
HETATM   24  C12 UNL     1      20.270  11.845  16.606  1.00  0.00     0.052 C 
HETATM   25 BR1  UNL     1      19.404  10.277  15.968  1.00  0.00    -0.064 Br
ENDBRANCH   9  23
BRANCH   1  26
HETATM   26  C3  UNL     1      22.721  13.466  13.943  1.00  0.00     0.035 C 
BRANCH  26  27
HETATM   27  C2  UNL     1      23.589  13.843  15.118  1.00  0.00    -0.000 C 
HETATM   28  C1  UNL     1      23.870  12.545  15.879  1.00  0.00     0.005 C 
ENDBRANCH  26  27
ENDBRANCH   1  26
TORSDOF 9
ENDMDL
MODEL 5
REMARK VINA RESULT: -6.432638669      2.753      4.593
REMARK  9 active torsions:
REMARK  status: ('A' for Active; 'I' for Inactive)
REMARK    1  A    between atoms: C2_2  and  C3_3 
REMARK    2  A    between atoms: C3_3  and  C4_4 
REMARK    3  A    between atoms: C10_12  and  C11_13 
REMARK    4  A    between atoms: C13_16  and  N2_17 
REMARK    5  A    between atoms: N2_17  and  C14_19 
REMARK    6  A    between atoms: C14_19  and  N3_21 
REMARK    7  A    between atoms: N3_21  and  C15_23 
REMARK    8  A    between atoms: C15_23  and  C16_24 
REMARK    9  A    between atoms: C16_24  and  C17_25 
ROOT
HETATM    1  C4  UNL     1      18.794  10.484  16.214  1.00  0.00    -0.060 C 
HETATM    2  C5  UNL     1      18.092  10.855  17.278  1.00  0.00     0.019 C 
HETATM    3  C6  UNL     1      18.429  12.210  17.765  1.00  0.00     0.118 C 
HETATM    4  C7  UNL     1      17.676  12.539  19.039  1.00  0.00     0.055 C 
HETATM    5  O1  UNL     1      19.818  12.124  18.057  1.00  0.00    -0.286 OA
HETATM    6  N1  UNL     1      20.508  12.028  16.917  1.00  0.00    -0.191 NA
HETATM    7  C8  UNL     1      21.777  11.382  17.006  1.00  0.00     0.144 C 
HETATM    8  C9  UNL     1      19.740  11.585  15.779  1.00  0.00     0.124 C 
HETATM    9  C10 UNL     1      18.800  12.723  15.405  1.00  0.00     0.059 C 
HETATM   10  C13 UNL     1      18.338  13.310  16.752  1.00  0.00     0.133 C 
ENDROOT
BRANCH  10  11
HETATM   11  N2  UNL     1      17.017  13.877  16.649  1.00  0.00    -0.359 N 
ATOM     12  H2  UNL     1      16.204  13.280  16.493  1.00  0.00     0.162 HD
BRANCH  11  13
HETATM   13  C14 UNL     1      16.871  15.285  16.769  1.00  0.00     0.168 C 
HETATM   14  S1  UNL     1      15.449  16.033  16.475  1.00  0.00    -0.041 SA
BRANCH  13  15
HETATM   15  N3  UNL     1      17.977  16.103  17.114  1.00  0.00    -0.367 N 
ATOM     16  H3  UNL     1      18.284  16.186  18.083  1.00  0.00     0.161 HD
BRANCH  15  17
HETATM   17  C15 UNL     1      18.648  16.807  16.076  1.00  0.00     0.125 C 
BRANCH  17  18
HETATM   18  C16 UNL     1      18.627  16.256  14.710  1.00  0.00     0.062 C 
BRANCH  18  19
HETATM   19  C17 UNL     1      19.809  16.580  13.880  1.00  0.00     0.098 C 
HETATM   20  C18 UNL     1      19.298  16.595  12.415  1.00  0.00     0.051 C 
HETATM   21  C19 UNL     1      20.988  15.696  14.002  1.00  0.00     0.051 C 
HETATM   22  F1  UNL     1      20.258  17.890  14.098  1.00  0.00    -0.244 F 
ENDBRANCH  18  19
ENDBRANCH  17  18
ENDBRANCH  15  17
ENDBRANCH  13  15
ENDBRANCH  11  13
ENDBRANCH  10  11
BRANCH   9  23
HETATM   23  C11 UNL     1      17.702  12.286  14.556  1.00  0.00    -0.011 C 
HETATM   24  C12 UNL     1      17.676  12.230  13.244  1.00  0.00     0.052 C 
HETATM   25 BR1  UNL     1      19.134  12.724  12.128  1.00  0.00    -0.064 Br
ENDBRANCH   9  23
BRANCH   1  26
HETATM   26  C3  UNL     1      18.710   9.221  15.492  1.00  0.00     0.035 C 
BRANCH  26  27
HETATM   27  C2  UNL     1      19.909   8.949  14.617  1.00  0.00    -0.000 C 
HETATM   28  C1  UNL     1      19.389   8.899  13.179  1.00  0.00     0.005 C 
ENDBRANCH  26  27
ENDBRANCH   1  26
TORSDOF 9
ENDMDL
