MODEL 1
REMARK VINA RESULT: -7.455948259      0.000      0.000
REMARK  9 active torsions:
REMARK  status: ('A' for Active; 'I' for Inactive)
REMARK    1  A    between atoms: C4_4  and  C5_5 
REMARK    2  A    between atoms: C5_5  and  O1_6 
REMARK    3  A    between atoms: O1_6  and  C6_7 
REMARK    4  A    between atoms: C8_9  and  N1_10 
REMARK    5  A    between atoms: N1_10  and  C9_12 
REMARK    6  A    between atoms: C9_12  and  N2_14 
REMARK    7  A    between atoms: N2_14  and  C10_16 
REMARK    8  A    between atoms: C10_16  and  C11_17 
REMARK    9  A    between atoms: C11_17  and  N3_19 
ROOT
HETATM    1  C6  UNL     1      18.158  11.958  18.620  1.00  0.00     0.091 A 
HETATM    2  C7  UNL     1      18.547  11.027  17.653  1.00  0.00     0.067 A 
HETATM    3  C8  UNL     1      17.899   9.836  17.497  1.00  0.00     0.040 A 
HETATM    4  C17 UNL     1      16.814   9.491  18.302  1.00  0.00     0.073 A 
HETATM    5  C18 UNL     1      16.406  10.383  19.263  1.00  0.00     0.138 A 
HETATM    6  F1  UNL     1      15.349  10.021  20.030  1.00  0.00    -0.204 F 
HETATM    7  C19 UNL     1      17.063  11.576  19.408  1.00  0.00     0.083 A 
HETATM    8 BR1  UNL     1      16.471  12.793  20.750  1.00  0.00    -0.045 Br
ENDROOT
BRANCH   3   9
HETATM    9  N1  UNL     1      18.295   8.924  16.483  1.00  0.00    -0.333 N 
ATOM     10  H1  UNL     1      17.946   7.967  16.542  1.00  0.00     0.168 HD
BRANCH   9  11
HETATM   11  C9  UNL     1      19.134   9.251  15.406  1.00  0.00     0.172 C 
HETATM   12  S1  UNL     1      20.645   8.548  15.328  1.00  0.00    -0.041 SA
BRANCH  11  13
HETATM   13  N2  UNL     1      18.771  10.181  14.422  1.00  0.00    -0.365 N 
ATOM     14  H2  UNL     1      17.906   9.952  13.932  1.00  0.00     0.161 HD
BRANCH  13  15
HETATM   15  C10 UNL     1      19.391  11.388  13.982  1.00  0.00     0.157 C 
BRANCH  15  16
HETATM   16  C11 UNL     1      18.799  12.663  14.442  1.00  0.00     0.236 C 
HETATM   17  C12 UNL     1      17.318  12.741  14.530  1.00  0.00     0.044 C 
BRANCH  16  18
HETATM   18  N3  UNL     1      19.380  13.828  13.808  1.00  0.00     0.094 N 
HETATM   19  C13 UNL     1      18.724  15.050  14.106  1.00  0.00     0.273 C 
HETATM   20  C14 UNL     1      19.820  16.120  13.935  1.00  0.00     0.032 C 
HETATM   21  C15 UNL     1      21.026  15.358  14.380  1.00  0.00     0.032 C 
HETATM   22  C16 UNL     1      20.780  13.959  13.877  1.00  0.00     0.273 C 
ENDBRANCH  16  18
ENDBRANCH  15  16
ENDBRANCH  13  15
ENDBRANCH  11  13
ENDBRANCH   9  11
ENDBRANCH   3   9
BRANCH   1  23
HETATM   23  O1  UNL     1      18.769  13.146  18.801  1.00  0.00    -0.346 OA
BRANCH  23  24
HETATM   24  C5  UNL     1      18.714  14.285  18.036  1.00  0.00     0.203 C 
BRANCH  24  25
HETATM   25  C4  UNL     1      17.362  14.800  17.699  1.00  0.00     0.001 C 
HETATM   26  C2  UNL     1      17.185  16.090  17.346  1.00  0.00    -0.089 C 
HETATM   27  C1  UNL     1      15.825  16.543  17.023  1.00  0.00     0.042 C 
HETATM   28  C3  UNL     1      18.345  17.020  17.291  1.00  0.00     0.042 C 
ENDBRANCH  24  25
ENDBRANCH  23  24
ENDBRANCH   1  23
TORSDOF 9
ENDMDL
MODEL 2
REMARK VINA RESULT: -7.243688796      3.386      5.501
REMARK  9 active torsions:
REMARK  status: ('A' for Active; 'I' for Inactive)
REMARK    1  A    between atoms: C4_4  and  C5_5 
REMARK    2  A    between atoms: C5_5  and  O1_6 
REMARK    3  A    between atoms: O1_6  and  C6_7 
REMARK    4  A    between atoms: C8_9  and  N1_10 
REMARK    5  A    between atoms: N1_10  and  C9_12 
REMARK    6  A    between atoms: C9_12  and  N2_14 
REMARK    7  A    between atoms: N2_14  and  C10_16 
REMARK    8  A    between atoms: C10_16  and  C11_17 
REMARK    9  A    between atoms: C11_17  and  N3_19 
ROOT
HETATM    1  C6  UNL     1      19.582  15.340  15.909  1.00  0.00     0.091 A 
HETATM    2  C7  UNL     1      20.076  14.284  16.679  1.00  0.00     0.067 A 
HETATM    3  C8  UNL     1      21.128  13.520  16.265  1.00  0.00     0.040 A 
HETATM    4  C17 UNL     1      21.760  13.758  15.045  1.00  0.00     0.073 A 
HETATM    5  C18 UNL     1      21.300  14.790  14.264  1.00  0.00     0.138 A 
HETATM    6  F1  UNL     1      21.934  14.999  13.084  1.00  0.00    -0.204 F 
HETATM    7  C19 UNL     1      20.245  15.550  14.692  1.00  0.00     0.083 A 
HETATM    8 BR1  UNL     1      19.630  16.975  13.584  1.00  0.00    -0.045 Br
ENDROOT
BRANCH   3   9
HETATM    9  N1  UNL     1      21.631  12.474  17.083  1.00  0.00    -0.333 N 
ATOM     10  H1  UNL     1      22.298  12.721  17.814  1.00  0.00     0.168 HD
BRANCH   9  11
HETATM   11  C9  UNL     1      21.271  11.123  16.953  1.00  0.00     0.172 C 
HETATM   12  S1  UNL     1      22.394  10.052  16.341  1.00  0.00    -0.041 SA
BRANCH  11  13
HETATM   13  N2  UNL     1      19.991  10.649  17.273  1.00  0.00    -0.365 N 
ATOM     14  H2  UNL     1      19.918  10.240  18.204  1.00  0.00     0.161 HD
BRANCH  13  15
HETATM   15  C10 UNL     1      18.772  10.636  16.532  1.00  0.00     0.157 C 
BRANCH  15  16
HETATM   16  C11 UNL     1      17.602  11.310  17.137  1.00  0.00     0.236 C 
HETATM   17  C12 UNL     1      16.985  12.428  16.379  1.00  0.00     0.044 C 
BRANCH  16  18
HETATM   18  N3  UNL     1      17.780  11.621  18.540  1.00  0.00     0.094 N 
HETATM   19  C13 UNL     1      17.510  12.971  18.883  1.00  0.00     0.273 C 
HETATM   20  C14 UNL     1      17.102  12.910  20.368  1.00  0.00     0.032 C 
HETATM   21  C15 UNL     1      16.416  11.583  20.416  1.00  0.00     0.032 C 
HETATM   22  C16 UNL     1      17.215  10.725  19.468  1.00  0.00     0.273 C 
ENDBRANCH  16  18
ENDBRANCH  15  16
ENDBRANCH  13  15
ENDBRANCH  11  13
ENDBRANCH   9  11
ENDBRANCH   3   9
BRANCH   1  23
HETATM   23  O1  UNL     1      18.549  16.120  16.286  1.00  0.00    -0.346 OA
BRANCH  23  24
HETATM   24  C5  UNL     1      17.861  16.148  17.475  1.00  0.00     0.203 C 
BRANCH  24  25
HETATM   25  C4  UNL     1      16.811  17.189  17.616  1.00  0.00     0.001 C 
HETATM   26  C2  UNL     1      15.563  16.976  17.152  1.00  0.00    -0.089 C 
HETATM   27  C1  UNL     1      14.565  18.041  17.320  1.00  0.00     0.042 C 
HETATM   28  C3  UNL     1      15.219  15.690  16.486  1.00  0.00     0.042 C 
ENDBRANCH  24  25
ENDBRANCH  23  24
ENDBRANCH   1  23
TORSDOF 9
ENDMDL
MODEL 3
REMARK VINA RESULT: -7.019627755      1.416      2.066
REMARK  9 active torsions:
REMARK  status: ('A' for Active; 'I' for Inactive)
REMARK    1  A    between atoms: C4_4  and  C5_5 
REMARK    2  A    between atoms: C5_5  and  O1_6 
REMARK    3  A    between atoms: O1_6  and  C6_7 
REMARK    4  A    between atoms: C8_9  and  N1_10 
REMARK    5  A    between atoms: N1_10  and  C9_12 
REMARK    6  A    between atoms: C9_12  and  N2_14 
REMARK    7  A    between atoms: N2_14  and  C10_16 
REMARK    8  A    between atoms: C10_16  and  C11_17 
REMARK    9  A    between atoms: C11_17  and  N3_19 
ROOT
HETATM    1  C6  UNL     1      18.141  11.970  18.627  1.00  0.00     0.091 A 
HETATM    2  C7  UNL     1      18.520  11.051  17.645  1.00  0.00     0.067 A 
HETATM    3  C8  UNL     1      17.876   9.859  17.485  1.00  0.00     0.040 A 
HETATM    4  C17 UNL     1      16.804   9.499  18.301  1.00  0.00     0.073 A 
HETATM    5  C18 UNL     1      16.405  10.379  19.277  1.00  0.00     0.138 A 
HETATM    6  F1  UNL     1      15.360  10.004  20.054  1.00  0.00    -0.204 F 
HETATM    7  C19 UNL     1      17.058  11.573  19.426  1.00  0.00     0.083 A 
HETATM    8 BR1  UNL     1      16.479  12.774  20.789  1.00  0.00    -0.045 Br
ENDROOT
BRANCH   3   9
HETATM    9  N1  UNL     1      18.262   8.960  16.456  1.00  0.00    -0.333 N 
ATOM     10  H1  UNL     1      17.906   8.005  16.500  1.00  0.00     0.168 HD
BRANCH   9  11
HETATM   11  C9  UNL     1      19.102   9.297  15.382  1.00  0.00     0.172 C 
HETATM   12  S1  UNL     1      20.626   8.621  15.317  1.00  0.00    -0.041 SA
BRANCH  11  13
HETATM   13  N2  UNL     1      18.727  10.214  14.391  1.00  0.00    -0.365 N 
ATOM     14  H2  UNL     1      17.905   9.937  13.854  1.00  0.00     0.161 HD
BRANCH  13  15
HETATM   15  C10 UNL     1      19.286  11.466  13.996  1.00  0.00     0.157 C 
BRANCH  15  16
HETATM   16  C11 UNL     1      18.357  12.605  13.835  1.00  0.00     0.236 C 
HETATM   17  C12 UNL     1      17.157  12.642  14.709  1.00  0.00     0.044 C 
BRANCH  16  18
HETATM   18  N3  UNL     1      18.047  12.902  12.451  1.00  0.00     0.094 N 
HETATM   19  C13 UNL     1      19.116  12.681  11.547  1.00  0.00     0.273 C 
HETATM   20  C14 UNL     1      18.421  12.395  10.201  1.00  0.00     0.032 C 
HETATM   21  C15 UNL     1      17.185  11.696  10.668  1.00  0.00     0.032 C 
HETATM   22  C16 UNL     1      16.829  12.402  11.951  1.00  0.00     0.273 C 
ENDBRANCH  16  18
ENDBRANCH  15  16
ENDBRANCH  13  15
ENDBRANCH  11  13
ENDBRANCH   9  11
ENDBRANCH   3   9
BRANCH   1  23
HETATM   23  O1  UNL     1      18.748  13.159  18.813  1.00  0.00    -0.346 OA
BRANCH  23  24
HETATM   24  C5  UNL     1      18.660  14.313  18.072  1.00  0.00     0.203 C 
BRANCH  24  25
HETATM   25  C4  UNL     1      17.296  14.845  17.824  1.00  0.00     0.001 C 
HETATM   26  C2  UNL     1      17.117  16.121  17.424  1.00  0.00    -0.089 C 
HETATM   27  C1  UNL     1      15.745  16.593  17.193  1.00  0.00     0.042 C 
HETATM   28  C3  UNL     1      18.288  17.018  17.230  1.00  0.00     0.042 C 
ENDBRANCH  24  25
ENDBRANCH  23  24
ENDBRANCH   1  23
TORSDOF 9
ENDMDL
MODEL 4
REMARK VINA RESULT: -7.018744313      3.131      5.507
REMARK  9 active torsions:
REMARK  status: ('A' for Active; 'I' for Inactive)
REMARK    1  A    between atoms: C4_4  and  C5_5 
REMARK    2  A    between atoms: C5_5  and  O1_6 
REMARK    3  A    between atoms: O1_6  and  C6_7 
REMARK    4  A    between atoms: C8_9  and  N1_10 
REMARK    5  A    between atoms: N1_10  and  C9_12 
REMARK    6  A    between atoms: C9_12  and  N2_14 
REMARK    7  A    between atoms: N2_14  and  C10_16 
REMARK    8  A    between atoms: C10_16  and  C11_17 
REMARK    9  A    between atoms: C11_17  and  N3_19 
ROOT
HETATM    1  C6  UNL     1      19.106  14.388  14.680  1.00  0.00     0.091 A 
HETATM    2  C7  UNL     1      18.969  13.024  14.955  1.00  0.00     0.067 A 
HETATM    3  C8  UNL     1      18.675  12.118  13.978  1.00  0.00     0.040 A 
HETATM    4  C17 UNL     1      18.494  12.513  12.653  1.00  0.00     0.073 A 
HETATM    5  C18 UNL     1      18.622  13.846  12.348  1.00  0.00     0.138 A 
HETATM    6  F1  UNL     1      18.442  14.201  11.052  1.00  0.00    -0.204 F 
HETATM    7  C19 UNL     1      18.919  14.745  13.337  1.00  0.00     0.083 A 
HETATM    8 BR1  UNL     1      19.091  16.588  12.880  1.00  0.00    -0.045 Br
ENDROOT
BRANCH   3   9
HETATM    9  N1  UNL     1      18.575  10.734  14.281  1.00  0.00    -0.333 N 
ATOM     10  H1  UNL     1      17.999  10.154  13.671  1.00  0.00     0.168 HD
BRANCH   9  11
HETATM   11  C9  UNL     1      19.216  10.111  15.364  1.00  0.00     0.172 C 
HETATM   12  S1  UNL     1      20.769   9.539  15.152  1.00  0.00    -0.041 SA
BRANCH  11  13
HETATM   13  N2  UNL     1      18.584   9.910  16.599  1.00  0.00    -0.365 N 
ATOM     14  H2  UNL     1      19.025   9.197  17.182  1.00  0.00     0.161 HD
BRANCH  13  15
HETATM   15  C10 UNL     1      17.437  10.519  17.189  1.00  0.00     0.157 C 
BRANCH  15  16
HETATM   16  C11 UNL     1      17.114  10.151  18.584  1.00  0.00     0.236 C 
HETATM   17  C12 UNL     1      15.786   9.538  18.844  1.00  0.00     0.044 C 
BRANCH  16  18
HETATM   18  N3  UNL     1      17.445  11.186  19.543  1.00  0.00     0.094 N 
HETATM   19  C13 UNL     1      17.690  12.461  18.973  1.00  0.00     0.273 C 
HETATM   20  C14 UNL     1      17.343  13.453  20.100  1.00  0.00     0.032 C 
HETATM   21  C15 UNL     1      16.229  12.725  20.781  1.00  0.00     0.032 C 
HETATM   22  C16 UNL     1      16.632  11.275  20.689  1.00  0.00     0.273 C 
ENDBRANCH  16  18
ENDBRANCH  15  16
ENDBRANCH  13  15
ENDBRANCH  11  13
ENDBRANCH   9  11
ENDBRANCH   3   9
BRANCH   1  23
HETATM   23  O1  UNL     1      19.400  15.313  15.615  1.00  0.00    -0.346 OA
BRANCH  23  24
HETATM   24  C5  UNL     1      19.078  15.341  16.950  1.00  0.00     0.203 C 
BRANCH  24  25
HETATM   25  C4  UNL     1      18.280  16.502  17.421  1.00  0.00     0.001 C 
HETATM   26  C2  UNL     1      16.932  16.454  17.426  1.00  0.00    -0.089 C 
HETATM   27  C1  UNL     1      16.195  17.631  17.904  1.00  0.00     0.042 C 
HETATM   28  C3  UNL     1      16.222  15.233  16.956  1.00  0.00     0.042 C 
ENDBRANCH  24  25
ENDBRANCH  23  24
ENDBRANCH   1  23
TORSDOF 9
ENDMDL
MODEL 5
REMARK VINA RESULT: -7.004527511      1.724      2.287
REMARK  9 active torsions:
REMARK  status: ('A' for Active; 'I' for Inactive)
REMARK    1  A    between atoms: C4_4  and  C5_5 
REMARK    2  A    between atoms: C5_5  and  O1_6 
REMARK    3  A    between atoms: O1_6  and  C6_7 
REMARK    4  A    between atoms: C8_9  and  N1_10 
REMARK    5  A    between atoms: N1_10  and  C9_12 
REMARK    6  A    between atoms: C9_12  and  N2_14 
REMARK    7  A    between atoms: N2_14  and  C10_16 
REMARK    8  A    between atoms: C10_16  and  C11_17 
REMARK    9  A    between atoms: C11_17  and  N3_19 
ROOT
HETATM    1  C6  UNL     1      18.300  13.196  17.576  1.00  0.00     0.091 A 
HETATM    2  C7  UNL     1      18.699  12.637  16.359  1.00  0.00     0.067 A 
HETATM    3  C8  UNL     1      18.469  11.326  16.058  1.00  0.00     0.040 A 
HETATM    4  C17 UNL     1      17.823  10.479  16.957  1.00  0.00     0.073 A 
HETATM    5  C18 UNL     1      17.417  10.997  18.163  1.00  0.00     0.138 A 
HETATM    6  F1  UNL     1      16.791  10.150  19.017  1.00  0.00    -0.204 F 
HETATM    7  C19 UNL     1      17.652  12.314  18.452  1.00  0.00     0.083 A 
HETATM    8 BR1  UNL     1      17.075  13.002  20.134  1.00  0.00    -0.045 Br
ENDROOT
BRANCH   3   9
HETATM    9  N1  UNL     1      18.855  10.794  14.800  1.00  0.00    -0.333 N 
ATOM     10  H1  UNL     1      18.725   9.794  14.646  1.00  0.00     0.168 HD
BRANCH   9  11
HETATM   11  C9  UNL     1      19.405  11.552  13.753  1.00  0.00     0.172 C 
HETATM   12  S1  UNL     1      21.063  11.717  13.671  1.00  0.00    -0.041 SA
BRANCH  11  13
HETATM   13  N2  UNL     1      18.613  12.213  12.805  1.00  0.00    -0.365 N 
ATOM     14  H2  UNL     1      18.267  11.611  12.057  1.00  0.00     0.161 HD
BRANCH  13  15
HETATM   15  C10 UNL     1      18.201  13.575  12.695  1.00  0.00     0.157 C 
BRANCH  15  16
HETATM   16  C11 UNL     1      18.802  14.381  11.611  1.00  0.00     0.236 C 
HETATM   17  C12 UNL     1      19.557  13.660  10.555  1.00  0.00     0.044 C 
BRANCH  16  18
HETATM   18  N3  UNL     1      19.502  15.556  12.090  1.00  0.00     0.094 N 
HETATM   19  C13 UNL     1      18.773  16.337  13.023  1.00  0.00     0.273 C 
HETATM   20  C14 UNL     1      19.860  17.047  13.853  1.00  0.00     0.032 C 
HETATM   21  C15 UNL     1      20.933  16.007  13.858  1.00  0.00     0.032 C 
HETATM   22  C16 UNL     1      20.840  15.381  12.490  1.00  0.00     0.273 C 
ENDBRANCH  16  18
ENDBRANCH  15  16
ENDBRANCH  13  15
ENDBRANCH  11  13
ENDBRANCH   9  11
ENDBRANCH   3   9
BRANCH   1  23
HETATM   23  O1  UNL     1      18.505  14.487  17.908  1.00  0.00    -0.346 OA
BRANCH  23  24
HETATM   24  C5  UNL     1      18.324  15.624  17.158  1.00  0.00     0.203 C 
BRANCH  24  25
HETATM   25  C4  UNL     1      17.296  16.583  17.636  1.00  0.00     0.001 C 
HETATM   26  C2  UNL     1      16.023  16.505  17.197  1.00  0.00    -0.089 C 
HETATM   27  C1  UNL     1      15.050  17.481  17.705  1.00  0.00     0.042 C 
HETATM   28  C3  UNL     1      15.629  15.453  16.221  1.00  0.00     0.042 C 
ENDBRANCH  24  25
ENDBRANCH  23  24
ENDBRANCH   1  23
TORSDOF 9
ENDMDL
