MODEL 1
REMARK VINA RESULT: -9.401938752      0.000      0.000
REMARK  12 active torsions:
REMARK  status: ('A' for Active; 'I' for Inactive)
REMARK    1  A    between atoms: O1_2  and  C2_3 
REMARK    2  A    between atoms: C2_3  and  C3_4 
REMARK    3  A    between atoms: C3_4  and  O2_5 
REMARK    4  A    between atoms: O2_5  and  C4_6 
REMARK    5  A    between atoms: C7_11  and  C8_12 
REMARK    6  A    between atoms: C16_22  and  C17_23 
REMARK       I    between atoms: C17_23  and  N3_25 
REMARK    7  A    between atoms: N3_25  and  C18_27 
REMARK    8  A    between atoms: C18_27  and  C19_28 
REMARK    9  A    between atoms: C19_28  and  C20_29 
REMARK   10  A    between atoms: C20_29  and  C21_30 
REMARK   11  A    between atoms: C21_30  and  N4_31 
REMARK   12  A    between atoms: C24_34  and  N5_35 
ROOT
HETATM    1  C4  UNL     1      22.887  26.283  17.478  1.00  0.00     0.187 A 
HETATM    2  N1  UNL     1      21.753  25.953  16.911  1.00  0.00    -0.330 N 
ATOM      3  H1  UNL     1      21.483  26.373  16.021  1.00  0.00     0.168 HD
HETATM    4  C5  UNL     1      20.968  25.077  17.494  1.00  0.00     0.052 A 
HETATM    5  C6  UNL     1      19.733  24.633  16.992  1.00  0.00     0.044 A 
HETATM    6  C7  UNL     1      18.994  23.696  17.702  1.00  0.00    -0.012 A 
HETATM    7  C16 UNL     1      19.383  23.160  18.879  1.00  0.00     0.044 A 
HETATM    8  C31 UNL     1      20.638  23.621  19.375  1.00  0.00     0.039 A 
HETATM    9  C32 UNL     1      21.384  24.549  18.684  1.00  0.00     0.036 A 
HETATM   10  S1  UNL     1      22.888  25.344  18.902  1.00  0.00    -0.044 SA
ENDROOT
BRANCH   7  11
HETATM   11  C17 UNL     1      18.761  22.169  19.727  1.00  0.00     0.252 C 
HETATM   12  O4  UNL     1      19.453  21.089  19.846  1.00  0.00    -0.268 OA
HETATM   13  N3  UNL     1      17.516  22.277  20.388  1.00  0.00    -0.357 N 
ATOM     14  H3  UNL     1      16.980  23.139  20.296  1.00  0.00     0.162 HD
BRANCH  13  15
HETATM   15  C18 UNL     1      16.986  21.214  21.182  1.00  0.00     0.123 C 
BRANCH  15  16
HETATM   16  C19 UNL     1      15.607  20.742  20.756  1.00  0.00     0.025 C 
BRANCH  16  17
HETATM   17  C20 UNL     1      15.489  20.679  19.280  1.00  0.00     0.046 C 
BRANCH  17  18
HETATM   18  C21 UNL     1      15.153  19.334  18.757  1.00  0.00     0.058 C 
BRANCH  18  19
HETATM   19  N4  UNL     1      13.815  18.989  18.564  1.00  0.00    -0.393 N 
HETATM   20  C22 UNL     1      13.311  17.856  19.259  1.00  0.00     0.124 C 
HETATM   21  C23 UNL     1      12.355  17.105  18.349  1.00  0.00     0.055 C 
HETATM   22  C24 UNL     1      11.289  18.019  17.793  1.00  0.00     0.226 C 
HETATM   23  C29 UNL     1      11.894  19.286  17.218  1.00  0.00     0.055 C 
HETATM   24  C30 UNL     1      12.804  19.929  18.295  1.00  0.00     0.124 C 
BRANCH  22  25
HETATM   25  N5  UNL     1      10.603  17.302  16.726  1.00  0.00     0.096 N 
HETATM   26  C25 UNL     1      10.855  18.016  15.512  1.00  0.00     0.300 C 
HETATM   27  C26 UNL     1      10.511  17.246  14.269  1.00  0.00     0.262 C 
HETATM   28  N6  UNL     1      11.386  16.061  14.287  1.00  0.00    -0.072 N 
HETATM   29  C27 UNL     1      10.900  15.261  15.395  1.00  0.00     0.262 C 
ATOM     30  H62 UNL     1      11.425  15.561  13.399  1.00  0.00     0.277 HD
ATOM     31  H61 UNL     1      12.381  16.281  14.339  1.00  0.00     0.277 HD
HETATM   32  C28 UNL     1      11.026  15.921  16.719  1.00  0.00     0.300 C 
ENDBRANCH  22  25
ENDBRANCH  18  19
ENDBRANCH  17  18
ENDBRANCH  16  17
ENDBRANCH  15  16
ENDBRANCH  13  15
ENDBRANCH   7  11
BRANCH   6  33
HETATM   33  C8  UNL     1      17.615  23.402  17.188  1.00  0.00    -0.040 C 
HETATM   34  C9  UNL     1      17.457  22.338  16.405  1.00  0.00     0.007 C 
HETATM   35  C10 UNL     1      16.241  21.835  15.783  1.00  0.00     0.110 C 
HETATM   36  C11 UNL     1      16.123  22.111  14.298  1.00  0.00     0.031 C 
HETATM   37  N2  UNL     1      15.044  22.495  16.263  1.00  0.00    -0.344 N 
HETATM   38  C12 UNL     1      14.629  21.828  14.074  1.00  0.00     0.022 C 
HETATM   39  C13 UNL     1      13.977  21.966  15.447  1.00  0.00     0.127 C 
HETATM   40  C14 UNL     1      15.156  23.416  17.303  1.00  0.00     0.224 C 
HETATM   41  O3  UNL     1      14.180  23.645  18.049  1.00  0.00    -0.273 OA
HETATM   42  C15 UNL     1      16.430  24.168  17.579  1.00  0.00     0.142 C 
ENDBRANCH   6  33
BRANCH   1  43
HETATM   43  O2  UNL     1      23.848  27.196  17.000  1.00  0.00    -0.328 OA
BRANCH  43  44
HETATM   44  C3  UNL     1      23.747  27.734  15.711  1.00  0.00     0.204 C 
BRANCH  44  45
HETATM   45  C2  UNL     1      22.987  29.023  15.614  1.00  0.00     0.193 C 
BRANCH  45  46
HETATM   46  O1  UNL     1      21.629  28.818  15.504  1.00  0.00    -0.394 OA
HETATM   47  C1  UNL     1      21.207  28.220  14.341  1.00  0.00     0.201 C 
ENDBRANCH  45  46
ENDBRANCH  44  45
ENDBRANCH  43  44
ENDBRANCH   1  43
TORSDOF 12
ENDMDL
MODEL 2
REMARK VINA RESULT: -9.371588684      1.410      1.857
REMARK  12 active torsions:
REMARK  status: ('A' for Active; 'I' for Inactive)
REMARK    1  A    between atoms: O1_2  and  C2_3 
REMARK    2  A    between atoms: C2_3  and  C3_4 
REMARK    3  A    between atoms: C3_4  and  O2_5 
REMARK    4  A    between atoms: O2_5  and  C4_6 
REMARK    5  A    between atoms: C7_11  and  C8_12 
REMARK    6  A    between atoms: C16_22  and  C17_23 
REMARK       I    between atoms: C17_23  and  N3_25 
REMARK    7  A    between atoms: N3_25  and  C18_27 
REMARK    8  A    between atoms: C18_27  and  C19_28 
REMARK    9  A    between atoms: C19_28  and  C20_29 
REMARK   10  A    between atoms: C20_29  and  C21_30 
REMARK   11  A    between atoms: C21_30  and  N4_31 
REMARK   12  A    between atoms: C24_34  and  N5_35 
ROOT
HETATM    1  C4  UNL     1      20.712  27.642  15.940  1.00  0.00     0.187 A 
HETATM    2  N1  UNL     1      19.747  26.942  15.395  1.00  0.00    -0.330 N 
ATOM      3  H1  UNL     1      19.386  27.194  14.475  1.00  0.00     0.168 HD
HETATM    4  C5  UNL     1      19.249  25.914  16.042  1.00  0.00     0.052 A 
HETATM    5  C6  UNL     1      18.220  25.080  15.571  1.00  0.00     0.044 A 
HETATM    6  C7  UNL     1      17.781  24.017  16.350  1.00  0.00    -0.012 A 
HETATM    7  C16 UNL     1      18.282  23.712  17.566  1.00  0.00     0.044 A 
HETATM    8  C31 UNL     1      19.324  24.567  18.029  1.00  0.00     0.039 A 
HETATM    9  C32 UNL     1      19.773  25.626  17.271  1.00  0.00     0.036 A 
HETATM   10  S1  UNL     1      20.958  26.854  17.432  1.00  0.00    -0.044 SA
ENDROOT
BRANCH   7  11
HETATM   11  C17 UNL     1      17.967  22.643  18.487  1.00  0.00     0.252 C 
HETATM   12  O4  UNL     1      18.611  21.554  18.247  1.00  0.00    -0.268 OA
HETATM   13  N3  UNL     1      17.048  22.689  19.560  1.00  0.00    -0.357 N 
ATOM     14  H3  UNL     1      16.551  23.559  19.747  1.00  0.00     0.162 HD
BRANCH  13  15
HETATM   15  C18 UNL     1      16.795  21.555  20.390  1.00  0.00     0.123 C 
BRANCH  15  16
HETATM   16  C19 UNL     1      15.363  21.054  20.348  1.00  0.00     0.025 C 
BRANCH  16  17
HETATM   17  C20 UNL     1      15.107  20.245  19.133  1.00  0.00     0.046 C 
BRANCH  17  18
HETATM   18  C21 UNL     1      14.544  18.903  19.407  1.00  0.00     0.058 C 
BRANCH  18  19
HETATM   19  N4  UNL     1      13.289  18.570  18.896  1.00  0.00    -0.393 N 
HETATM   20  C22 UNL     1      12.777  17.274  19.177  1.00  0.00     0.124 C 
HETATM   21  C23 UNL     1      12.048  16.756  17.949  1.00  0.00     0.055 C 
HETATM   22  C24 UNL     1      11.013  17.743  17.464  1.00  0.00     0.226 C 
HETATM   23  C29 UNL     1      11.593  19.140  17.351  1.00  0.00     0.055 C 
HETATM   24  C30 UNL     1      12.259  19.507  18.700  1.00  0.00     0.124 C 
BRANCH  22  25
HETATM   25  N5  UNL     1      10.572  17.310  16.144  1.00  0.00     0.096 N 
HETATM   26  C25 UNL     1      10.971  18.324  15.217  1.00  0.00     0.300 C 
HETATM   27  C26 UNL     1      10.900  17.896  13.778  1.00  0.00     0.262 C 
HETATM   28  N6  UNL     1      11.846  16.774  13.656  1.00  0.00    -0.072 N 
HETATM   29  C27 UNL     1      11.242  15.698  14.419  1.00  0.00     0.262 C 
ATOM     30  H62 UNL     1      12.072  16.524  12.692  1.00  0.00     0.277 HD
ATOM     31  H61 UNL     1      12.798  17.001  13.942  1.00  0.00     0.277 HD
HETATM   32  C28 UNL     1      11.094  15.992  15.866  1.00  0.00     0.300 C 
ENDBRANCH  22  25
ENDBRANCH  18  19
ENDBRANCH  17  18
ENDBRANCH  16  17
ENDBRANCH  15  16
ENDBRANCH  13  15
ENDBRANCH   7  11
BRANCH   6  33
HETATM   33  C8  UNL     1      16.570  23.281  15.856  1.00  0.00    -0.040 C 
HETATM   34  C9  UNL     1      16.747  22.346  14.925  1.00  0.00     0.007 C 
HETATM   35  C10 UNL     1      15.754  21.497  14.285  1.00  0.00     0.110 C 
HETATM   36  C11 UNL     1      15.396  21.891  12.866  1.00  0.00     0.031 C 
HETATM   37  N2  UNL     1      14.451  21.576  14.911  1.00  0.00    -0.344 N 
HETATM   38  C12 UNL     1      14.104  21.083  12.665  1.00  0.00     0.022 C 
HETATM   39  C13 UNL     1      13.586  20.784  14.069  1.00  0.00     0.127 C 
HETATM   40  C14 UNL     1      14.310  22.330  16.075  1.00  0.00     0.224 C 
HETATM   41  O3  UNL     1      13.398  22.069  16.888  1.00  0.00    -0.273 OA
HETATM   42  C15 UNL     1      15.228  23.474  16.410  1.00  0.00     0.142 C 
ENDBRANCH   6  33
BRANCH   1  43
HETATM   43  O2  UNL     1      21.364  28.766  15.395  1.00  0.00    -0.328 OA
BRANCH  43  44
HETATM   44  C3  UNL     1      22.549  28.624  14.665  1.00  0.00     0.204 C 
BRANCH  44  45
HETATM   45  C2  UNL     1      23.796  28.489  15.488  1.00  0.00     0.193 C 
BRANCH  45  46
HETATM   46  O1  UNL     1      24.453  29.691  15.634  1.00  0.00    -0.394 OA
HETATM   47  C1  UNL     1      25.824  29.634  15.571  1.00  0.00     0.201 C 
ENDBRANCH  45  46
ENDBRANCH  44  45
ENDBRANCH  43  44
ENDBRANCH   1  43
TORSDOF 12
ENDMDL
MODEL 3
REMARK VINA RESULT: -9.123613167      1.622      2.299
REMARK  12 active torsions:
REMARK  status: ('A' for Active; 'I' for Inactive)
REMARK    1  A    between atoms: O1_2  and  C2_3 
REMARK    2  A    between atoms: C2_3  and  C3_4 
REMARK    3  A    between atoms: C3_4  and  O2_5 
REMARK    4  A    between atoms: O2_5  and  C4_6 
REMARK    5  A    between atoms: C7_11  and  C8_12 
REMARK    6  A    between atoms: C16_22  and  C17_23 
REMARK       I    between atoms: C17_23  and  N3_25 
REMARK    7  A    between atoms: N3_25  and  C18_27 
REMARK    8  A    between atoms: C18_27  and  C19_28 
REMARK    9  A    between atoms: C19_28  and  C20_29 
REMARK   10  A    between atoms: C20_29  and  C21_30 
REMARK   11  A    between atoms: C21_30  and  N4_31 
REMARK   12  A    between atoms: C24_34  and  N5_35 
ROOT
HETATM    1  C4  UNL     1      20.809  27.572  16.182  1.00  0.00     0.187 A 
HETATM    2  N1  UNL     1      19.927  26.868  15.518  1.00  0.00    -0.330 N 
ATOM      3  H1  UNL     1      19.689  27.116  14.557  1.00  0.00     0.168 HD
HETATM    4  C5  UNL     1      19.350  25.841  16.097  1.00  0.00     0.052 A 
HETATM    5  C6  UNL     1      18.394  25.002  15.498  1.00  0.00     0.044 A 
HETATM    6  C7  UNL     1      17.858  23.941  16.215  1.00  0.00    -0.012 A 
HETATM    7  C16 UNL     1      18.196  23.640  17.488  1.00  0.00     0.044 A 
HETATM    8  C31 UNL     1      19.166  24.501  18.081  1.00  0.00     0.039 A 
HETATM    9  C32 UNL     1      19.708  25.558  17.385  1.00  0.00     0.036 A 
HETATM   10  S1  UNL     1      20.859  26.789  17.696  1.00  0.00    -0.044 SA
ENDROOT
BRANCH   7  11
HETATM   11  C17 UNL     1      17.765  22.574  18.363  1.00  0.00     0.252 C 
HETATM   12  O4  UNL     1      18.380  21.462  18.157  1.00  0.00    -0.268 OA
HETATM   13  N3  UNL     1      16.766  22.645  19.360  1.00  0.00    -0.357 N 
ATOM     14  H3  UNL     1      16.291  23.532  19.522  1.00  0.00     0.162 HD
BRANCH  13  15
HETATM   15  C18 UNL     1      16.401  21.511  20.149  1.00  0.00     0.123 C 
BRANCH  15  16
HETATM   16  C19 UNL     1      14.960  21.065  19.977  1.00  0.00     0.025 C 
BRANCH  16  17
HETATM   17  C20 UNL     1      14.841  20.003  18.950  1.00  0.00     0.046 C 
BRANCH  17  18
HETATM   18  C21 UNL     1      14.170  18.772  19.428  1.00  0.00     0.058 C 
BRANCH  18  19
HETATM   19  N4  UNL     1      12.971  18.373  18.837  1.00  0.00    -0.393 N 
HETATM   20  C22 UNL     1      12.541  17.033  19.039  1.00  0.00     0.124 C 
HETATM   21  C23 UNL     1      11.916  16.518  17.754  1.00  0.00     0.055 C 
HETATM   22  C24 UNL     1      10.838  17.448  17.252  1.00  0.00     0.226 C 
HETATM   23  C29 UNL     1      11.320  18.887  17.224  1.00  0.00     0.055 C 
HETATM   24  C30 UNL     1      11.886  19.243  18.621  1.00  0.00     0.124 C 
BRANCH  22  25
HETATM   25  N5  UNL     1      10.499  17.041  15.894  1.00  0.00     0.096 N 
HETATM   26  C25 UNL     1      10.959  18.077  15.020  1.00  0.00     0.300 C 
HETATM   27  C26 UNL     1      10.997  17.680  13.571  1.00  0.00     0.262 C 
HETATM   28  N6  UNL     1      11.956  16.565  13.496  1.00  0.00    -0.072 N 
HETATM   29  C27 UNL     1      11.304  15.470  14.190  1.00  0.00     0.262 C 
ATOM     30  H62 UNL     1      12.254  16.336  12.547  1.00  0.00     0.277 HD
ATOM     31  H61 UNL     1      12.884  16.790  13.857  1.00  0.00     0.277 HD
HETATM   32  C28 UNL     1      11.047  15.733  15.628  1.00  0.00     0.300 C 
ENDBRANCH  22  25
ENDBRANCH  18  19
ENDBRANCH  17  18
ENDBRANCH  16  17
ENDBRANCH  15  16
ENDBRANCH  13  15
ENDBRANCH   7  11
BRANCH   6  33
HETATM   33  C8  UNL     1      16.725  23.200  15.568  1.00  0.00    -0.040 C 
HETATM   34  C9  UNL     1      15.485  23.602  15.835  1.00  0.00     0.007 C 
HETATM   35  C10 UNL     1      14.225  23.064  15.344  1.00  0.00     0.110 C 
HETATM   36  C11 UNL     1      13.454  22.230  16.346  1.00  0.00     0.031 C 
HETATM   37  N2  UNL     1      14.398  22.096  14.281  1.00  0.00    -0.344 N 
HETATM   38  C12 UNL     1      12.450  21.527  15.417  1.00  0.00     0.022 C 
HETATM   39  C13 UNL     1      13.072  21.586  14.024  1.00  0.00     0.127 C 
HETATM   40  C14 UNL     1      15.679  21.871  13.779  1.00  0.00     0.224 C 
HETATM   41  O3  UNL     1      15.833  21.445  12.615  1.00  0.00    -0.273 OA
HETATM   42  C15 UNL     1      16.919  22.124  14.593  1.00  0.00     0.142 C 
ENDBRANCH   6  33
BRANCH   1  43
HETATM   43  O2  UNL     1      21.525  28.696  15.724  1.00  0.00    -0.328 OA
BRANCH  43  44
HETATM   44  C3  UNL     1      22.698  28.544  14.976  1.00  0.00     0.204 C 
BRANCH  44  45
HETATM   45  C2  UNL     1      23.916  28.166  15.765  1.00  0.00     0.193 C 
BRANCH  45  46
HETATM   46  O1  UNL     1      24.222  26.829  15.640  1.00  0.00    -0.394 OA
HETATM   47  C1  UNL     1      24.914  26.274  16.689  1.00  0.00     0.201 C 
ENDBRANCH  45  46
ENDBRANCH  44  45
ENDBRANCH  43  44
ENDBRANCH   1  43
TORSDOF 12
ENDMDL
MODEL 4
REMARK VINA RESULT: -9.059958674      1.411      2.114
REMARK  12 active torsions:
REMARK  status: ('A' for Active; 'I' for Inactive)
REMARK    1  A    between atoms: O1_2  and  C2_3 
REMARK    2  A    between atoms: C2_3  and  C3_4 
REMARK    3  A    between atoms: C3_4  and  O2_5 
REMARK    4  A    between atoms: O2_5  and  C4_6 
REMARK    5  A    between atoms: C7_11  and  C8_12 
REMARK    6  A    between atoms: C16_22  and  C17_23 
REMARK       I    between atoms: C17_23  and  N3_25 
REMARK    7  A    between atoms: N3_25  and  C18_27 
REMARK    8  A    between atoms: C18_27  and  C19_28 
REMARK    9  A    between atoms: C19_28  and  C20_29 
REMARK   10  A    between atoms: C20_29  and  C21_30 
REMARK   11  A    between atoms: C21_30  and  N4_31 
REMARK   12  A    between atoms: C24_34  and  N5_35 
ROOT
HETATM    1  C4  UNL     1      22.043  28.110  16.013  1.00  0.00     0.187 A 
HETATM    2  N1  UNL     1      20.986  27.430  15.644  1.00  0.00    -0.330 N 
ATOM      3  H1  UNL     1      20.543  27.617  14.744  1.00  0.00     0.168 HD
HETATM    4  C5  UNL     1      20.500  26.506  16.441  1.00  0.00     0.052 A 
HETATM    5  C6  UNL     1      19.379  25.704  16.165  1.00  0.00     0.044 A 
HETATM    6  C7  UNL     1      18.964  24.755  17.090  1.00  0.00    -0.012 A 
HETATM    7  C16 UNL     1      19.575  24.533  18.273  1.00  0.00     0.044 A 
HETATM    8  C31 UNL     1      20.710  25.355  18.538  1.00  0.00     0.039 A 
HETATM    9  C32 UNL     1      21.135  26.302  17.633  1.00  0.00     0.036 A 
HETATM   10  S1  UNL     1      22.402  27.454  17.545  1.00  0.00    -0.044 SA
ENDROOT
BRANCH   7  11
HETATM   11  C17 UNL     1      19.298  23.583  19.326  1.00  0.00     0.252 C 
HETATM   12  O4  UNL     1      19.098  24.133  20.473  1.00  0.00    -0.268 OA
HETATM   13  N3  UNL     1      19.249  22.175  19.209  1.00  0.00    -0.357 N 
ATOM     14  H3  UNL     1      19.400  21.749  18.295  1.00  0.00     0.162 HD
BRANCH  13  15
HETATM   15  C18 UNL     1      18.995  21.330  20.332  1.00  0.00     0.123 C 
BRANCH  15  16
HETATM   16  C19 UNL     1      17.607  21.481  20.929  1.00  0.00     0.025 C 
BRANCH  16  17
HETATM   17  C20 UNL     1      16.555  21.114  19.952  1.00  0.00     0.046 C 
BRANCH  17  18
HETATM   18  C21 UNL     1      15.238  20.821  20.564  1.00  0.00     0.058 C 
BRANCH  18  19
HETATM   19  N4  UNL     1      14.426  19.836  20.000  1.00  0.00    -0.393 N 
HETATM   20  C22 UNL     1      14.790  19.318  18.727  1.00  0.00     0.124 C 
HETATM   21  C23 UNL     1      13.531  19.083  17.912  1.00  0.00     0.055 C 
HETATM   22  C24 UNL     1      12.536  18.235  18.666  1.00  0.00     0.226 C 
HETATM   23  C29 UNL     1      12.325  18.754  20.076  1.00  0.00     0.055 C 
HETATM   24  C30 UNL     1      13.708  18.895  20.760  1.00  0.00     0.124 C 
BRANCH  22  25
HETATM   25  N5  UNL     1      11.267  18.297  17.950  1.00  0.00     0.096 N 
HETATM   26  C25 UNL     1      11.230  19.559  17.276  1.00  0.00     0.300 C 
HETATM   27  C26 UNL     1      10.159  19.657  16.226  1.00  0.00     0.262 C 
HETATM   28  N6  UNL     1      10.488  18.622  15.232  1.00  0.00    -0.072 N 
HETATM   29  C27 UNL     1      10.256  17.365  15.917  1.00  0.00     0.262 C 
ATOM     30  H62 UNL     1       9.980  18.715  14.352  1.00  0.00     0.277 HD
ATOM     31  H61 UNL     1      11.424  18.711  14.835  1.00  0.00     0.277 HD
HETATM   32  C28 UNL     1      11.138  17.144  17.091  1.00  0.00     0.300 C 
ENDBRANCH  22  25
ENDBRANCH  18  19
ENDBRANCH  17  18
ENDBRANCH  16  17
ENDBRANCH  15  16
ENDBRANCH  13  15
ENDBRANCH   7  11
BRANCH   6  33
HETATM   33  C8  UNL     1      17.666  24.060  16.799  1.00  0.00    -0.040 C 
HETATM   34  C9  UNL     1      17.699  22.974  16.031  1.00  0.00     0.007 C 
HETATM   35  C10 UNL     1      16.597  22.125  15.604  1.00  0.00     0.110 C 
HETATM   36  C11 UNL     1      16.169  22.313  14.162  1.00  0.00     0.031 C 
HETATM   37  N2  UNL     1      15.354  22.424  16.283  1.00  0.00    -0.344 N 
HETATM   38  C12 UNL     1      14.805  21.604  14.177  1.00  0.00     0.022 C 
HETATM   39  C13 UNL     1      14.369  21.586  15.640  1.00  0.00     0.127 C 
HETATM   40  C14 UNL     1      15.359  23.367  17.309  1.00  0.00     0.224 C 
HETATM   41  O3  UNL     1      14.492  23.325  18.207  1.00  0.00    -0.273 OA
HETATM   42  C15 UNL     1      16.388  24.462  17.391  1.00  0.00     0.142 C 
ENDBRANCH   6  33
BRANCH   1  43
HETATM   43  O2  UNL     1      22.697  29.128  15.292  1.00  0.00    -0.328 OA
BRANCH  43  44
HETATM   44  C3  UNL     1      24.048  29.007  14.945  1.00  0.00     0.204 C 
BRANCH  44  45
HETATM   45  C2  UNL     1      25.021  29.436  16.003  1.00  0.00     0.193 C 
BRANCH  45  46
HETATM   46  O1  UNL     1      25.803  28.391  16.444  1.00  0.00    -0.394 OA
HETATM   47  C1  UNL     1      25.781  27.259  15.665  1.00  0.00     0.201 C 
ENDBRANCH  45  46
ENDBRANCH  44  45
ENDBRANCH  43  44
ENDBRANCH   1  43
TORSDOF 12
ENDMDL
MODEL 5
REMARK VINA RESULT: -9.043813076      3.823     10.555
REMARK  12 active torsions:
REMARK  status: ('A' for Active; 'I' for Inactive)
REMARK    1  A    between atoms: O1_2  and  C2_3 
REMARK    2  A    between atoms: C2_3  and  C3_4 
REMARK    3  A    between atoms: C3_4  and  O2_5 
REMARK    4  A    between atoms: O2_5  and  C4_6 
REMARK    5  A    between atoms: C7_11  and  C8_12 
REMARK    6  A    between atoms: C16_22  and  C17_23 
REMARK       I    between atoms: C17_23  and  N3_25 
REMARK    7  A    between atoms: N3_25  and  C18_27 
REMARK    8  A    between atoms: C18_27  and  C19_28 
REMARK    9  A    between atoms: C19_28  and  C20_29 
REMARK   10  A    between atoms: C20_29  and  C21_30 
REMARK   11  A    between atoms: C21_30  and  N4_31 
REMARK   12  A    between atoms: C24_34  and  N5_35 
ROOT
HETATM    1  C4  UNL     1       9.982  20.864  14.232  1.00  0.00     0.187 A 
HETATM    2  N1  UNL     1      11.115  21.512  14.129  1.00  0.00    -0.330 N 
ATOM      3  H1  UNL     1      11.288  22.120  13.327  1.00  0.00     0.168 HD
HETATM    4  C5  UNL     1      12.026  21.376  15.063  1.00  0.00     0.052 A 
HETATM    5  C6  UNL     1      13.278  22.017  15.077  1.00  0.00     0.044 A 
HETATM    6  C7  UNL     1      14.157  21.794  16.128  1.00  0.00    -0.012 A 
HETATM    7  C16 UNL     1      13.896  20.982  17.175  1.00  0.00     0.044 A 
HETATM    8  C31 UNL     1      12.623  20.340  17.146  1.00  0.00     0.039 A 
HETATM    9  C32 UNL     1      11.738  20.548  16.112  1.00  0.00     0.036 A 
HETATM   10  S1  UNL     1      10.165  20.008  15.695  1.00  0.00    -0.044 SA
ENDROOT
BRANCH   7  11
HETATM   11  C17 UNL     1      14.672  20.661  18.351  1.00  0.00     0.252 C 
HETATM   12  O4  UNL     1      15.122  19.454  18.354  1.00  0.00    -0.268 OA
HETATM   13  N3  UNL     1      14.950  21.512  19.445  1.00  0.00    -0.357 N 
ATOM     14  H3  UNL     1      14.597  22.469  19.428  1.00  0.00     0.162 HD
BRANCH  13  15
HETATM   15  C18 UNL     1      15.708  21.073  20.572  1.00  0.00     0.123 C 
BRANCH  15  16
HETATM   16  C19 UNL     1      17.198  21.348  20.471  1.00  0.00     0.025 C 
BRANCH  16  17
HETATM   17  C20 UNL     1      17.494  22.343  19.413  1.00  0.00     0.046 C 
BRANCH  17  18
HETATM   18  C21 UNL     1      17.963  23.651  19.927  1.00  0.00     0.058 C 
BRANCH  18  19
HETATM   19  N4  UNL     1      19.331  23.924  19.956  1.00  0.00    -0.393 N 
HETATM   20  C22 UNL     1      19.836  24.691  21.041  1.00  0.00     0.124 C 
HETATM   21  C23 UNL     1      20.912  25.628  20.522  1.00  0.00     0.055 C 
HETATM   22  C24 UNL     1      21.968  24.880  19.746  1.00  0.00     0.226 C 
HETATM   23  C29 UNL     1      21.345  23.954  18.718  1.00  0.00     0.055 C 
HETATM   24  C30 UNL     1      20.306  23.055  19.433  1.00  0.00     0.124 C 
BRANCH  22  25
HETATM   25  N5  UNL     1      22.789  25.865  19.052  1.00  0.00     0.096 N 
HETATM   26  C25 UNL     1      23.798  25.141  18.340  1.00  0.00     0.300 C 
HETATM   27  C26 UNL     1      24.522  25.960  17.308  1.00  0.00     0.262 C 
HETATM   28  N6  UNL     1      23.491  26.370  16.340  1.00  0.00    -0.072 N 
HETATM   29  C27 UNL     1      22.652  27.303  17.068  1.00  0.00     0.262 C 
ATOM     30  H62 UNL     1      23.866  26.743  15.467  1.00  0.00     0.277 HD
ATOM     31  H61 UNL     1      22.980  25.592  15.923  1.00  0.00     0.277 HD
HETATM   32  C28 UNL     1      21.949  26.705  18.231  1.00  0.00     0.300 C 
ENDBRANCH  22  25
ENDBRANCH  18  19
ENDBRANCH  17  18
ENDBRANCH  16  17
ENDBRANCH  15  16
ENDBRANCH  13  15
ENDBRANCH   7  11
BRANCH   6  33
HETATM   33  C8  UNL     1      15.532  22.377  15.985  1.00  0.00    -0.040 C 
HETATM   34  C9  UNL     1      15.729  23.622  16.413  1.00  0.00     0.007 C 
HETATM   35  C10 UNL     1      16.950  24.412  16.393  1.00  0.00     0.110 C 
HETATM   36  C11 UNL     1      16.998  25.486  15.324  1.00  0.00     0.031 C 
HETATM   37  N2  UNL     1      18.120  23.638  16.033  1.00  0.00    -0.344 N 
HETATM   38  C12 UNL     1      18.498  25.822  15.327  1.00  0.00     0.022 C 
HETATM   39  C13 UNL     1      19.189  24.605  15.936  1.00  0.00     0.127 C 
HETATM   40  C14 UNL     1      17.989  22.262  15.863  1.00  0.00     0.224 C 
HETATM   41  O3  UNL     1      18.974  21.510  16.023  1.00  0.00    -0.273 OA
HETATM   42  C15 UNL     1      16.682  21.617  15.488  1.00  0.00     0.142 C 
ENDBRANCH   6  33
BRANCH   1  43
HETATM   43  O2  UNL     1       8.897  20.891  13.333  1.00  0.00    -0.328 OA
BRANCH  43  44
HETATM   44  C3  UNL     1       8.410  22.104  12.832  1.00  0.00     0.204 C 
BRANCH  44  45
HETATM   45  C2  UNL     1       7.567  21.994  11.597  1.00  0.00     0.193 C 
BRANCH  45  46
HETATM   46  O1  UNL     1       7.565  20.717  11.082  1.00  0.00    -0.394 OA
HETATM   47  C1  UNL     1       7.301  20.615   9.737  1.00  0.00     0.201 C 
ENDBRANCH  45  46
ENDBRANCH  44  45
ENDBRANCH  43  44
ENDBRANCH   1  43
TORSDOF 12
ENDMDL
