MODEL 1
REMARK VINA RESULT: -9.655946198      0.000      0.000
REMARK  13 active torsions:
REMARK  status: ('A' for Active; 'I' for Inactive)
REMARK    1  A    between atoms: C3_3  and  C4_4 
REMARK    2  A    between atoms: N1_7  and  C7_8 
REMARK    3  A    between atoms: C7_8  and  C8_9 
REMARK    4  A    between atoms: C8_9  and  C9_10 
REMARK    5  A    between atoms: C9_10  and  N2_11 
REMARK    6  A    between atoms: C15_20  and  N4_21 
REMARK    7  A    between atoms: N4_21  and  C16_23 
REMARK    8  A    between atoms: C18_25  and  C19_26 
REMARK       I    between atoms: C19_26  and  N5_28 
REMARK    9  A    between atoms: N5_28  and  C20_30 
REMARK   10  A    between atoms: C20_30  and  C21_31 
REMARK   11  A    between atoms: C21_31  and  C22_32 
REMARK   12  A    between atoms: C22_32  and  N6_33 
REMARK   13  A    between atoms: C26_37  and  N7_38 
ROOT
HETATM    1  C1  UNL     1      21.579  28.143  13.785  1.00  0.00     0.051 C 
HETATM    2  C2  UNL     1      21.512  27.664  15.203  1.00  0.00    -0.023 A 
HETATM    3  C3  UNL     1      22.495  27.877  16.219  1.00  0.00     0.028 A 
HETATM    4  N1  UNL     1      22.100  27.303  17.356  1.00  0.00    -0.314 N 
HETATM    5  C14 UNL     1      20.855  26.723  17.087  1.00  0.00     0.139 A 
HETATM    6  N3  UNL     1      19.980  26.037  17.835  1.00  0.00    -0.175 N 
ATOM      7  H3  UNL     1      20.211  25.856  18.811  1.00  0.00     0.186 HD
HETATM    8  C15 UNL     1      18.803  25.575  17.352  1.00  0.00     0.684 A 
HETATM    9  N8  UNL     1      18.480  25.798  16.079  1.00  0.00    -0.201 N 
ATOM     10  H8  UNL     1      17.593  25.447  15.719  1.00  0.00     0.183 HD
HETATM   11  C32 UNL     1      19.317  26.490  15.244  1.00  0.00     0.122 A 
HETATM   12  C33 UNL     1      20.524  26.949  15.794  1.00  0.00     0.033 A 
ENDROOT
BRANCH   8  13
HETATM   13  N4  UNL     1      18.033  24.954  18.140  1.00  0.00    -0.192 N 
ATOM     14  H4  UNL     1      18.105  25.242  19.116  1.00  0.00     0.184 HD
BRANCH  13  15
HETATM   15  C16 UNL     1      17.100  23.940  17.903  1.00  0.00     0.052 A 
HETATM   16  C17 UNL     1      16.815  23.064  18.962  1.00  0.00     0.047 A 
HETATM   17  C18 UNL     1      15.904  22.041  18.835  1.00  0.00     0.036 A 
HETATM   18  C25 UNL     1      15.249  21.878  17.611  1.00  0.00     0.046 A 
HETATM   19  C26 UNL     1      15.488  22.706  16.538  1.00  0.00     0.033 A 
HETATM   20  C31 UNL     1      16.415  23.716  16.726  1.00  0.00     0.059 A 
BRANCH  17  21
HETATM   21  C19 UNL     1      15.607  21.111  19.914  1.00  0.00     0.251 C 
HETATM   22  O2  UNL     1      16.377  21.114  20.930  1.00  0.00    -0.268 OA
HETATM   23  N5  UNL     1      14.493  20.242  19.818  1.00  0.00    -0.357 N 
ATOM     24  H5  UNL     1      13.913  20.283  18.980  1.00  0.00     0.162 HD
BRANCH  23  25
HETATM   25  C20 UNL     1      14.149  19.317  20.837  1.00  0.00     0.124 C 
BRANCH  25  26
HETATM   26  C21 UNL     1      12.943  18.504  20.563  1.00  0.00     0.050 C 
BRANCH  26  27
HETATM   27  C22 UNL     1      12.994  17.512  19.473  1.00  0.00     0.273 C 
BRANCH  27  28
HETATM   28  N6  UNL     1      12.498  17.843  18.181  1.00  0.00     0.080 N 
HETATM   29  C23 UNL     1      11.797  16.602  17.720  1.00  0.00     0.309 C 
HETATM   30  C24 UNL     1      11.430  18.872  18.261  1.00  0.00     0.309 C 
ENDBRANCH  27  28
ENDBRANCH  26  27
ENDBRANCH  25  26
ENDBRANCH  23  25
ENDBRANCH  17  21
BRANCH  19  31
HETATM   31  N7  UNL     1      14.831  22.502  15.297  1.00  0.00    -0.377 N 
HETATM   32  C27 UNL     1      13.489  22.991  15.119  1.00  0.00     0.149 C 
HETATM   33  C28 UNL     1      12.718  21.951  14.297  1.00  0.00     0.187 C 
HETATM   34  O3  UNL     1      13.398  21.745  13.118  1.00  0.00    -0.388 OA
HETATM   35  C29 UNL     1      14.512  20.946  13.405  1.00  0.00     0.187 C 
HETATM   36  C30 UNL     1      15.481  21.849  14.189  1.00  0.00     0.149 C 
ENDBRANCH  19  31
ENDBRANCH  13  15
ENDBRANCH   8  13
BRANCH   4  37
HETATM   37  C7  UNL     1      22.691  27.085  18.621  1.00  0.00     0.073 C 
BRANCH  37  38
HETATM   38  C8  UNL     1      22.053  27.280  19.911  1.00  0.00     0.065 C 
BRANCH  38  39
HETATM   39  C9  UNL     1      22.556  26.516  21.086  1.00  0.00     0.132 C 
BRANCH  39  40
HETATM   40  N2  UNL     1      21.953  25.207  21.129  1.00  0.00    -0.369 N 
HETATM   41  C10 UNL     1      20.546  25.165  21.107  1.00  0.00     0.089 C 
HETATM   42  C11 UNL     1      20.066  23.816  20.610  1.00  0.00     0.212 C 
HETATM   43  O1  UNL     1      20.679  23.463  19.445  1.00  0.00    -0.381 OA
HETATM   44  C12 UNL     1      22.036  23.520  19.403  1.00  0.00     0.212 C 
HETATM   45  C13 UNL     1      22.699  24.152  20.589  1.00  0.00     0.089 C 
ENDBRANCH  39  40
ENDBRANCH  38  39
ENDBRANCH  37  38
ENDBRANCH   4  37
BRANCH   3  46
HETATM   46  C4  UNL     1      23.740  28.533  15.796  1.00  0.00     0.037 A 
HETATM   47  C5  UNL     1      24.910  28.719  16.696  1.00  0.00     0.011 A 
HETATM   48  C6  UNL     1      24.995  27.714  15.641  1.00  0.00     0.011 A 
ENDBRANCH   3  46
TORSDOF 13
ENDMDL
MODEL 2
REMARK VINA RESULT: -9.320455016      1.824     10.966
REMARK  13 active torsions:
REMARK  status: ('A' for Active; 'I' for Inactive)
REMARK    1  A    between atoms: C3_3  and  C4_4 
REMARK    2  A    between atoms: N1_7  and  C7_8 
REMARK    3  A    between atoms: C7_8  and  C8_9 
REMARK    4  A    between atoms: C8_9  and  C9_10 
REMARK    5  A    between atoms: C9_10  and  N2_11 
REMARK    6  A    between atoms: C15_20  and  N4_21 
REMARK    7  A    between atoms: N4_21  and  C16_23 
REMARK    8  A    between atoms: C18_25  and  C19_26 
REMARK       I    between atoms: C19_26  and  N5_28 
REMARK    9  A    between atoms: N5_28  and  C20_30 
REMARK   10  A    between atoms: C20_30  and  C21_31 
REMARK   11  A    between atoms: C21_31  and  C22_32 
REMARK   12  A    between atoms: C22_32  and  N6_33 
REMARK   13  A    between atoms: C26_37  and  N7_38 
ROOT
HETATM    1  C1  UNL     1      13.635  18.071  20.848  1.00  0.00     0.051 C 
HETATM    2  C2  UNL     1      13.444  19.018  19.703  1.00  0.00    -0.023 A 
HETATM    3  C3  UNL     1      12.511  18.877  18.629  1.00  0.00     0.028 A 
HETATM    4  N1  UNL     1      12.627  19.908  17.792  1.00  0.00    -0.314 N 
HETATM    5  C14 UNL     1      13.627  20.730  18.323  1.00  0.00     0.139 A 
HETATM    6  N3  UNL     1      14.159  21.898  17.936  1.00  0.00    -0.175 N 
ATOM      7  H3  UNL     1      13.814  22.329  17.078  1.00  0.00     0.186 HD
HETATM    8  C15 UNL     1      15.132  22.529  18.633  1.00  0.00     0.684 A 
HETATM    9  N8  UNL     1      15.599  21.984  19.755  1.00  0.00    -0.201 N 
ATOM     10  H8  UNL     1      16.333  22.463  20.276  1.00  0.00     0.183 HD
HETATM   11  C32 UNL     1      15.113  20.792  20.221  1.00  0.00     0.122 A 
HETATM   12  C33 UNL     1      14.104  20.178  19.463  1.00  0.00     0.033 A 
ENDROOT
BRANCH   8  13
HETATM   13  N4  UNL     1      15.558  23.638  18.198  1.00  0.00    -0.192 N 
ATOM     14  H4  UNL     1      14.827  24.290  17.913  1.00  0.00     0.184 HD
BRANCH  13  15
HETATM   15  C16 UNL     1      16.859  24.124  18.042  1.00  0.00     0.052 A 
HETATM   16  C17 UNL     1      17.141  24.856  16.877  1.00  0.00     0.047 A 
HETATM   17  C18 UNL     1      18.386  25.387  16.634  1.00  0.00     0.036 A 
HETATM   18  C25 UNL     1      19.395  25.185  17.581  1.00  0.00     0.046 A 
HETATM   19  C26 UNL     1      19.177  24.477  18.740  1.00  0.00     0.033 A 
HETATM   20  C31 UNL     1      17.905  23.967  18.929  1.00  0.00     0.059 A 
BRANCH  17  21
HETATM   21  C19 UNL     1      18.703  26.132  15.426  1.00  0.00     0.251 C 
HETATM   22  O2  UNL     1      17.885  26.060  14.451  1.00  0.00    -0.268 OA
HETATM   23  N5  UNL     1      19.887  26.906  15.357  1.00  0.00    -0.357 N 
ATOM     24  H5  UNL     1      20.506  26.923  16.167  1.00  0.00     0.162 HD
BRANCH  23  25
HETATM   25  C20 UNL     1      20.250  27.657  14.209  1.00  0.00     0.124 C 
BRANCH  25  26
HETATM   26  C21 UNL     1      21.650  28.137  14.192  1.00  0.00     0.050 C 
BRANCH  26  27
HETATM   27  C22 UNL     1      22.416  28.121  15.451  1.00  0.00     0.273 C 
BRANCH  27  28
HETATM   28  N6  UNL     1      23.322  27.058  15.725  1.00  0.00     0.080 N 
HETATM   29  C23 UNL     1      24.673  27.703  15.702  1.00  0.00     0.309 C 
HETATM   30  C24 UNL     1      23.164  26.561  17.115  1.00  0.00     0.309 C 
ENDBRANCH  27  28
ENDBRANCH  26  27
ENDBRANCH  25  26
ENDBRANCH  23  25
ENDBRANCH  17  21
BRANCH  19  31
HETATM   31  N7  UNL     1      20.225  24.263  19.673  1.00  0.00    -0.377 N 
HETATM   32  C27 UNL     1      20.197  24.948  20.938  1.00  0.00     0.149 C 
HETATM   33  C28 UNL     1      21.635  25.357  21.281  1.00  0.00     0.187 C 
HETATM   34  O3  UNL     1      22.416  24.224  21.277  1.00  0.00    -0.388 OA
HETATM   35  C29 UNL     1      22.651  23.875  19.942  1.00  0.00     0.187 C 
HETATM   36  C30 UNL     1      21.307  23.347  19.407  1.00  0.00     0.149 C 
ENDBRANCH  19  31
ENDBRANCH  13  15
ENDBRANCH   8  13
BRANCH   4  37
HETATM   37  C7  UNL     1      12.073  20.239  16.535  1.00  0.00     0.073 C 
BRANCH  37  38
HETATM   38  C8  UNL     1      12.392  19.613  15.264  1.00  0.00     0.065 C 
BRANCH  38  39
HETATM   39  C9  UNL     1      12.104  20.352  14.004  1.00  0.00     0.132 C 
BRANCH  39  40
HETATM   40  N2  UNL     1      13.011  21.462  13.854  1.00  0.00    -0.369 N 
HETATM   41  C10 UNL     1      12.734  22.606  14.627  1.00  0.00     0.089 C 
HETATM   42  C11 UNL     1      13.989  23.436  14.810  1.00  0.00     0.212 C 
HETATM   43  O1  UNL     1      15.035  22.678  15.244  1.00  0.00    -0.381 OA
HETATM   44  C12 UNL     1      15.322  21.544  14.552  1.00  0.00     0.212 C 
HETATM   45  C13 UNL     1      14.330  21.154  13.499  1.00  0.00     0.089 C 
ENDBRANCH  39  40
ENDBRANCH  38  39
ENDBRANCH  37  38
ENDBRANCH   4  37
BRANCH   3  46
HETATM   46  C4  UNL     1      11.745  17.623  18.590  1.00  0.00     0.037 A 
HETATM   47  C5  UNL     1      10.761  17.302  17.521  1.00  0.00     0.011 A 
HETATM   48  C6  UNL     1      12.043  16.606  17.519  1.00  0.00     0.011 A 
ENDBRANCH   3  46
TORSDOF 13
ENDMDL
MODEL 3
REMARK VINA RESULT: -9.254613031      1.099      1.622
REMARK  13 active torsions:
REMARK  status: ('A' for Active; 'I' for Inactive)
REMARK    1  A    between atoms: C3_3  and  C4_4 
REMARK    2  A    between atoms: N1_7  and  C7_8 
REMARK    3  A    between atoms: C7_8  and  C8_9 
REMARK    4  A    between atoms: C8_9  and  C9_10 
REMARK    5  A    between atoms: C9_10  and  N2_11 
REMARK    6  A    between atoms: C15_20  and  N4_21 
REMARK    7  A    between atoms: N4_21  and  C16_23 
REMARK    8  A    between atoms: C18_25  and  C19_26 
REMARK       I    between atoms: C19_26  and  N5_28 
REMARK    9  A    between atoms: N5_28  and  C20_30 
REMARK   10  A    between atoms: C20_30  and  C21_31 
REMARK   11  A    between atoms: C21_31  and  C22_32 
REMARK   12  A    between atoms: C22_32  and  N6_33 
REMARK   13  A    between atoms: C26_37  and  N7_38 
ROOT
HETATM    1  C1  UNL     1      21.698  28.175  13.804  1.00  0.00     0.051 C 
HETATM    2  C2  UNL     1      21.623  27.720  15.230  1.00  0.00    -0.023 A 
HETATM    3  C3  UNL     1      22.595  27.961  16.250  1.00  0.00     0.028 A 
HETATM    4  N1  UNL     1      22.196  27.403  17.393  1.00  0.00    -0.314 N 
HETATM    5  C14 UNL     1      20.959  26.807  17.124  1.00  0.00     0.139 A 
HETATM    6  N3  UNL     1      20.084  26.126  17.878  1.00  0.00    -0.175 N 
ATOM      7  H3  UNL     1      20.309  25.964  18.859  1.00  0.00     0.186 HD
HETATM    8  C15 UNL     1      18.916  25.644  17.393  1.00  0.00     0.684 A 
HETATM    9  N8  UNL     1      18.601  25.842  16.113  1.00  0.00    -0.201 N 
ATOM     10  H8  UNL     1      17.721  25.476  15.753  1.00  0.00     0.183 HD
HETATM   11  C32 UNL     1      19.439  26.526  15.274  1.00  0.00     0.122 A 
HETATM   12  C33 UNL     1      20.637  27.007  15.825  1.00  0.00     0.033 A 
ENDROOT
BRANCH   8  13
HETATM   13  N4  UNL     1      18.145  25.030  18.185  1.00  0.00    -0.192 N 
ATOM     14  H4  UNL     1      18.215  25.328  19.159  1.00  0.00     0.184 HD
BRANCH  13  15
HETATM   15  C16 UNL     1      17.214  24.012  17.957  1.00  0.00     0.052 A 
HETATM   16  C17 UNL     1      16.950  23.127  19.015  1.00  0.00     0.047 A 
HETATM   17  C18 UNL     1      16.043  22.101  18.895  1.00  0.00     0.036 A 
HETATM   18  C25 UNL     1      15.370  21.941  17.680  1.00  0.00     0.046 A 
HETATM   19  C26 UNL     1      15.589  22.776  16.609  1.00  0.00     0.033 A 
HETATM   20  C31 UNL     1      16.512  23.791  16.789  1.00  0.00     0.059 A 
BRANCH  17  21
HETATM   21  C19 UNL     1      15.768  21.163  19.973  1.00  0.00     0.251 C 
HETATM   22  O2  UNL     1      16.566  21.148  20.967  1.00  0.00    -0.268 OA
HETATM   23  N5  UNL     1      14.645  20.303  19.899  1.00  0.00    -0.357 N 
ATOM     24  H5  UNL     1      14.043  20.357  19.078  1.00  0.00     0.162 HD
BRANCH  23  25
HETATM   25  C20 UNL     1      14.321  19.371  20.918  1.00  0.00     0.124 C 
BRANCH  25  26
HETATM   26  C21 UNL     1      13.370  18.310  20.517  1.00  0.00     0.050 C 
BRANCH  26  27
HETATM   27  C22 UNL     1      12.034  18.707  20.036  1.00  0.00     0.273 C 
BRANCH  27  28
HETATM   28  N6  UNL     1      11.576  18.274  18.759  1.00  0.00     0.080 N 
HETATM   29  C23 UNL     1      11.798  19.454  17.863  1.00  0.00     0.309 C 
HETATM   30  C24 UNL     1      12.451  17.210  18.206  1.00  0.00     0.309 C 
ENDBRANCH  27  28
ENDBRANCH  26  27
ENDBRANCH  25  26
ENDBRANCH  23  25
ENDBRANCH  17  21
BRANCH  19  31
HETATM   31  N7  UNL     1      14.914  22.577  15.377  1.00  0.00    -0.377 N 
HETATM   32  C27 UNL     1      13.590  23.112  15.201  1.00  0.00     0.149 C 
HETATM   33  C28 UNL     1      12.773  22.087  14.404  1.00  0.00     0.187 C 
HETATM   34  O3  UNL     1      13.435  21.836  13.223  1.00  0.00    -0.388 OA
HETATM   35  C29 UNL     1      14.520  21.001  13.515  1.00  0.00     0.187 C 
HETATM   36  C30 UNL     1      15.530  21.881  14.275  1.00  0.00     0.149 C 
ENDBRANCH  19  31
ENDBRANCH  13  15
ENDBRANCH   8  13
BRANCH   4  37
HETATM   37  C7  UNL     1      22.778  27.214  18.667  1.00  0.00     0.073 C 
BRANCH  37  38
HETATM   38  C8  UNL     1      23.630  26.107  19.066  1.00  0.00     0.065 C 
BRANCH  38  39
HETATM   39  C9  UNL     1      22.998  24.862  19.583  1.00  0.00     0.132 C 
BRANCH  39  40
HETATM   40  N2  UNL     1      22.874  24.920  21.018  1.00  0.00    -0.369 N 
HETATM   41  C10 UNL     1      24.073  25.039  21.746  1.00  0.00     0.089 C 
HETATM   42  C11 UNL     1      23.803  25.630  23.115  1.00  0.00     0.212 C 
HETATM   43  O1  UNL     1      23.056  26.766  23.034  1.00  0.00    -0.381 OA
HETATM   44  C12 UNL     1      21.905  26.714  22.312  1.00  0.00     0.212 C 
HETATM   45  C13 UNL     1      21.685  25.458  21.525  1.00  0.00     0.089 C 
ENDBRANCH  39  40
ENDBRANCH  38  39
ENDBRANCH  37  38
ENDBRANCH   4  37
BRANCH   3  46
HETATM   46  C4  UNL     1      23.838  28.622  15.826  1.00  0.00     0.037 A 
HETATM   47  C5  UNL     1      25.035  28.743  16.700  1.00  0.00     0.011 A 
HETATM   48  C6  UNL     1      25.075  27.794  15.592  1.00  0.00     0.011 A 
ENDBRANCH   3  46
TORSDOF 13
ENDMDL
MODEL 4
REMARK VINA RESULT: -9.193417956      2.407      4.629
REMARK  13 active torsions:
REMARK  status: ('A' for Active; 'I' for Inactive)
REMARK    1  A    between atoms: C3_3  and  C4_4 
REMARK    2  A    between atoms: N1_7  and  C7_8 
REMARK    3  A    between atoms: C7_8  and  C8_9 
REMARK    4  A    between atoms: C8_9  and  C9_10 
REMARK    5  A    between atoms: C9_10  and  N2_11 
REMARK    6  A    between atoms: C15_20  and  N4_21 
REMARK    7  A    between atoms: N4_21  and  C16_23 
REMARK    8  A    between atoms: C18_25  and  C19_26 
REMARK       I    between atoms: C19_26  and  N5_28 
REMARK    9  A    between atoms: N5_28  and  C20_30 
REMARK   10  A    between atoms: C20_30  and  C21_31 
REMARK   11  A    between atoms: C21_31  and  C22_32 
REMARK   12  A    between atoms: C22_32  and  N6_33 
REMARK   13  A    between atoms: C26_37  and  N7_38 
ROOT
HETATM    1  C1  UNL     1      19.728  27.438  15.079  1.00  0.00     0.051 C 
HETATM    2  C2  UNL     1      19.913  26.242  15.964  1.00  0.00    -0.023 A 
HETATM    3  C3  UNL     1      20.858  26.110  17.028  1.00  0.00     0.028 A 
HETATM    4  N1  UNL     1      20.739  24.908  17.591  1.00  0.00    -0.314 N 
HETATM    5  C14 UNL     1      19.709  24.257  16.903  1.00  0.00     0.139 A 
HETATM    6  N3  UNL     1      19.138  23.051  17.030  1.00  0.00    -0.175 N 
ATOM      7  H3  UNL     1      19.484  22.422  17.754  1.00  0.00     0.186 HD
HETATM    8  C15 UNL     1      18.122  22.632  16.240  1.00  0.00     0.684 A 
HETATM    9  N8  UNL     1      17.654  23.435  15.286  1.00  0.00    -0.201 N 
ATOM     10  H8  UNL     1      16.889  23.115  14.693  1.00  0.00     0.183 HD
HETATM   11  C32 UNL     1      18.181  24.684  15.087  1.00  0.00     0.122 A 
HETATM   12  C33 UNL     1      19.231  25.071  15.933  1.00  0.00     0.033 A 
ENDROOT
BRANCH   8  13
HETATM   13  N4  UNL     1      17.634  21.484  16.448  1.00  0.00    -0.192 N 
ATOM     14  H4  UNL     1      18.323  20.732  16.488  1.00  0.00     0.184 HD
BRANCH  13  15
HETATM   15  C16 UNL     1      16.313  21.067  16.633  1.00  0.00     0.052 A 
HETATM   16  C17 UNL     1      15.349  21.555  15.736  1.00  0.00     0.047 A 
HETATM   17  C18 UNL     1      14.024  21.196  15.825  1.00  0.00     0.036 A 
HETATM   18  C25 UNL     1      13.636  20.320  16.843  1.00  0.00     0.046 A 
HETATM   19  C26 UNL     1      14.536  19.810  17.751  1.00  0.00     0.033 A 
HETATM   20  C31 UNL     1      15.853  20.207  17.611  1.00  0.00     0.059 A 
BRANCH  17  21
HETATM   21  C19 UNL     1      13.007  21.705  14.918  1.00  0.00     0.251 C 
HETATM   22  O2  UNL     1      13.382  22.484  13.981  1.00  0.00    -0.268 OA
HETATM   23  N5  UNL     1      11.652  21.331  15.086  1.00  0.00    -0.357 N 
ATOM     24  H5  UNL     1      11.410  20.707  15.855  1.00  0.00     0.162 HD
BRANCH  23  25
HETATM   25  C20 UNL     1      10.615  21.789  14.233  1.00  0.00     0.124 C 
BRANCH  25  26
HETATM   26  C21 UNL     1       9.641  20.754  13.820  1.00  0.00     0.050 C 
BRANCH  26  27
HETATM   27  C22 UNL     1       9.971  19.338  14.065  1.00  0.00     0.273 C 
BRANCH  27  28
HETATM   28  N6  UNL     1      10.436  18.517  12.999  1.00  0.00     0.080 N 
HETATM   29  C23 UNL     1      11.075  17.347  13.682  1.00  0.00     0.309 C 
HETATM   30  C24 UNL     1       9.305  17.937  12.233  1.00  0.00     0.309 C 
ENDBRANCH  27  28
ENDBRANCH  26  27
ENDBRANCH  25  26
ENDBRANCH  23  25
ENDBRANCH  17  21
BRANCH  19  31
HETATM   31  N7  UNL     1      14.112  18.944  18.791  1.00  0.00    -0.377 N 
HETATM   32  C27 UNL     1      13.973  17.537  18.528  1.00  0.00     0.149 C 
HETATM   33  C28 UNL     1      12.732  17.040  19.280  1.00  0.00     0.187 C 
HETATM   34  O3  UNL     1      12.887  17.346  20.613  1.00  0.00    -0.388 OA
HETATM   35  C29 UNL     1      12.643  18.716  20.765  1.00  0.00     0.187 C 
HETATM   36  C30 UNL     1      13.849  19.427  20.125  1.00  0.00     0.149 C 
ENDBRANCH  19  31
ENDBRANCH  13  15
ENDBRANCH   8  13
BRANCH   4  37
HETATM   37  C7  UNL     1      21.459  24.190  18.572  1.00  0.00     0.073 C 
BRANCH  37  38
HETATM   38  C8  UNL     1      21.310  24.317  20.011  1.00  0.00     0.065 C 
BRANCH  38  39
HETATM   39  C9  UNL     1      20.039  24.866  20.558  1.00  0.00     0.132 C 
BRANCH  39  40
HETATM   40  N2  UNL     1      19.108  23.801  20.832  1.00  0.00    -0.369 N 
HETATM   41  C10 UNL     1      17.866  23.867  20.172  1.00  0.00     0.089 C 
HETATM   42  C11 UNL     1      17.235  22.492  20.094  1.00  0.00     0.212 C 
HETATM   43  O1  UNL     1      18.106  21.566  19.605  1.00  0.00    -0.381 OA
HETATM   44  C12 UNL     1      19.332  21.484  20.185  1.00  0.00     0.212 C 
HETATM   45  C13 UNL     1      19.657  22.560  21.177  1.00  0.00     0.089 C 
ENDBRANCH  39  40
ENDBRANCH  38  39
ENDBRANCH  37  38
ENDBRANCH   4  37
BRANCH   3  46
HETATM   46  C4  UNL     1      21.815  27.214  17.193  1.00  0.00     0.037 A 
HETATM   47  C5  UNL     1      23.054  27.104  18.009  1.00  0.00     0.011 A 
HETATM   48  C6  UNL     1      23.176  27.118  16.555  1.00  0.00     0.011 A 
ENDBRANCH   3  46
TORSDOF 13
ENDMDL
MODEL 5
REMARK VINA RESULT: -9.114560947      2.150     10.662
REMARK  13 active torsions:
REMARK  status: ('A' for Active; 'I' for Inactive)
REMARK    1  A    between atoms: C3_3  and  C4_4 
REMARK    2  A    between atoms: N1_7  and  C7_8 
REMARK    3  A    between atoms: C7_8  and  C8_9 
REMARK    4  A    between atoms: C8_9  and  C9_10 
REMARK    5  A    between atoms: C9_10  and  N2_11 
REMARK    6  A    between atoms: C15_20  and  N4_21 
REMARK    7  A    between atoms: N4_21  and  C16_23 
REMARK    8  A    between atoms: C18_25  and  C19_26 
REMARK       I    between atoms: C19_26  and  N5_28 
REMARK    9  A    between atoms: N5_28  and  C20_30 
REMARK   10  A    between atoms: C20_30  and  C21_31 
REMARK   11  A    between atoms: C21_31  and  C22_32 
REMARK   12  A    between atoms: C22_32  and  N6_33 
REMARK   13  A    between atoms: C26_37  and  N7_38 
ROOT
HETATM    1  C1  UNL     1      12.623  18.116  12.238  1.00  0.00     0.051 C 
HETATM    2  C2  UNL     1      12.406  18.881  13.508  1.00  0.00    -0.023 A 
HETATM    3  C3  UNL     1      11.519  18.527  14.572  1.00  0.00     0.028 A 
HETATM    4  N1  UNL     1      11.585  19.443  15.538  1.00  0.00    -0.314 N 
HETATM    5  C14 UNL     1      12.523  20.391  15.112  1.00  0.00     0.139 A 
HETATM    6  N3  UNL     1      13.012  21.510  15.663  1.00  0.00    -0.175 N 
ATOM      7  H3  UNL     1      12.665  21.795  16.578  1.00  0.00     0.186 HD
HETATM    8  C15 UNL     1      13.947  22.279  15.057  1.00  0.00     0.684 A 
HETATM    9  N8  UNL     1      14.414  21.928  13.859  1.00  0.00    -0.201 N 
ATOM     10  H8  UNL     1      15.117  22.511  13.406  1.00  0.00     0.183 HD
HETATM   11  C32 UNL     1      13.967  20.800  13.225  1.00  0.00     0.122 A 
HETATM   12  C33 UNL     1      12.999  20.036  13.896  1.00  0.00     0.033 A 
ENDROOT
BRANCH   8  13
HETATM   13  N4  UNL     1      14.362  23.308  15.662  1.00  0.00    -0.192 N 
ATOM     14  H4  UNL     1      13.654  24.027  15.810  1.00  0.00     0.184 HD
BRANCH  13  15
HETATM   15  C16 UNL     1      15.627  23.631  16.165  1.00  0.00     0.052 A 
HETATM   16  C17 UNL     1      16.447  24.452  15.374  1.00  0.00     0.047 A 
HETATM   17  C18 UNL     1      17.702  24.836  15.783  1.00  0.00     0.036 A 
HETATM   18  C25 UNL     1      18.167  24.389  17.024  1.00  0.00     0.046 A 
HETATM   19  C26 UNL     1      17.409  23.582  17.840  1.00  0.00     0.033 A 
HETATM   20  C31 UNL     1      16.155  23.229  17.376  1.00  0.00     0.059 A 
BRANCH  17  21
HETATM   21  C19 UNL     1      18.574  25.671  14.972  1.00  0.00     0.251 C 
HETATM   22  O2  UNL     1      18.029  26.491  14.162  1.00  0.00    -0.268 OA
HETATM   23  N5  UNL     1      19.981  25.561  15.094  1.00  0.00    -0.357 N 
ATOM     24  H5  UNL     1      20.361  24.886  15.757  1.00  0.00     0.162 HD
BRANCH  23  25
HETATM   25  C20 UNL     1      20.884  26.350  14.335  1.00  0.00     0.124 C 
BRANCH  25  26
HETATM   26  C21 UNL     1      21.882  27.099  15.131  1.00  0.00     0.050 C 
BRANCH  26  27
HETATM   27  C22 UNL     1      21.429  27.808  16.342  1.00  0.00     0.273 C 
BRANCH  27  28
HETATM   28  N6  UNL     1      21.977  27.475  17.613  1.00  0.00     0.080 N 
HETATM   29  C23 UNL     1      20.894  26.695  18.293  1.00  0.00     0.309 C 
HETATM   30  C24 UNL     1      23.104  26.517  17.479  1.00  0.00     0.309 C 
ENDBRANCH  27  28
ENDBRANCH  26  27
ENDBRANCH  25  26
ENDBRANCH  23  25
ENDBRANCH  17  21
BRANCH  19  31
HETATM   31  N7  UNL     1      17.914  23.120  19.083  1.00  0.00    -0.377 N 
HETATM   32  C27 UNL     1      18.191  24.066  20.131  1.00  0.00     0.149 C 
HETATM   33  C28 UNL     1      19.474  23.615  20.840  1.00  0.00     0.187 C 
HETATM   34  O3  UNL     1      19.287  22.327  21.287  1.00  0.00    -0.388 OA
HETATM   35  C29 UNL     1      19.394  21.474  20.182  1.00  0.00     0.187 C 
HETATM   36  C30 UNL     1      18.126  21.717  19.345  1.00  0.00     0.149 C 
ENDBRANCH  19  31
ENDBRANCH  13  15
ENDBRANCH   8  13
BRANCH   4  37
HETATM   37  C7  UNL     1      10.874  19.682  16.736  1.00  0.00     0.073 C 
BRANCH  37  38
HETATM   38  C8  UNL     1      11.249  19.224  18.063  1.00  0.00     0.065 C 
BRANCH  38  39
HETATM   39  C9  UNL     1      12.027  17.961  18.195  1.00  0.00     0.132 C 
BRANCH  39  40
HETATM   40  N2  UNL     1      13.321  18.227  18.771  1.00  0.00    -0.369 N 
HETATM   41  C10 UNL     1      14.092  19.225  18.145  1.00  0.00     0.089 C 
HETATM   42  C11 UNL     1      15.119  19.782  19.111  1.00  0.00     0.212 C 
HETATM   43  O1  UNL     1      14.551  20.141  20.296  1.00  0.00    -0.381 OA
HETATM   44  C12 UNL     1      13.768  19.224  20.925  1.00  0.00     0.212 C 
HETATM   45  C13 UNL     1      13.462  17.983  20.142  1.00  0.00     0.089 C 
ENDBRANCH  39  40
ENDBRANCH  38  39
ENDBRANCH  37  38
ENDBRANCH   4  37
BRANCH   3  46
HETATM   46  C4  UNL     1      10.656  17.360  14.342  1.00  0.00     0.037 A 
HETATM   47  C5  UNL     1      11.084  15.962  14.619  1.00  0.00     0.011 A 
HETATM   48  C6  UNL     1      10.122  16.588  15.521  1.00  0.00     0.011 A 
ENDBRANCH   3  46
TORSDOF 13
ENDMDL
