MODEL 1
REMARK VINA RESULT: -9.802899364      0.000      0.000
REMARK  12 active torsions:
REMARK  status: ('A' for Active; 'I' for Inactive)
REMARK    1  A    between atoms: C3_4  and  N2_5 
REMARK       I    between atoms: N2_5  and  C4_7 
REMARK    2  A    between atoms: C4_7  and  C5_9 
REMARK    3  A    between atoms: C10_18  and  C11_19 
REMARK       I    between atoms: C11_19  and  N5_21 
REMARK    4  A    between atoms: N5_21  and  C12_23 
REMARK    5  A    between atoms: N6_26  and  C15_27 
REMARK    6  A    between atoms: C15_27  and  C16_28 
REMARK       I    between atoms: C16_28  and  N7_30 
REMARK    7  A    between atoms: N8_33  and  C19_34 
REMARK    8  A    between atoms: C19_34  and  C20_35 
REMARK    9  A    between atoms: C20_35  and  C21_36 
REMARK   10  A    between atoms: C21_36  and  C22_37 
REMARK   11  A    between atoms: C22_37  and  C23_38 
REMARK   12  A    between atoms: C23_38  and  N9_39 
ROOT
HETATM    1  C12 UNL     1      10.630 -20.895 -20.514  1.00  0.00     0.052 A 
HETATM    2  C13 UNL     1       9.829 -21.792 -21.230  1.00  0.00     0.048 A 
HETATM    3  C14 UNL     1       8.637 -21.168 -21.509  1.00  0.00     0.093 A 
HETATM    4  N6  UNL     1       8.652 -19.931 -21.005  1.00  0.00    -0.355 N 
HETATM    5  C31 UNL     1       9.860 -19.767 -20.403  1.00  0.00     0.120 A 
ENDROOT
BRANCH   1   6
HETATM    6  N5  UNL     1      11.920 -21.229 -20.079  1.00  0.00    -0.320 N 
HETATM    7  C11 UNL     1      12.194 -21.878 -18.847  1.00  0.00     0.273 C 
HETATM    8  O2  UNL     1      11.270 -22.195 -18.060  1.00  0.00    -0.266 OA
ATOM      9  H5  UNL     1      12.707 -20.992 -20.683  1.00  0.00     0.169 HD
BRANCH   7  10
HETATM   10  C10 UNL     1      13.584 -22.187 -18.477  1.00  0.00     0.105 A 
HETATM   11  N1  UNL     1      14.556 -21.339 -18.127  1.00  0.00    -0.354 N 
HETATM   12  C1  UNL     1      14.383 -19.889 -18.050  1.00  0.00     0.156 C 
HETATM   13  C2  UNL     1      15.701 -22.045 -17.863  1.00  0.00     0.120 A 
HETATM   14  C3  UNL     1      15.454 -23.364 -18.049  1.00  0.00     0.053 A 
HETATM   15  C9  UNL     1      14.109 -23.447 -18.439  1.00  0.00     0.066 A 
BRANCH  14  16
HETATM   16  N2  UNL     1      16.324 -24.458 -17.891  1.00  0.00    -0.320 N 
HETATM   17  C4  UNL     1      17.333 -24.780 -18.811  1.00  0.00     0.274 C 
HETATM   18  O1  UNL     1      17.525 -24.085 -19.862  1.00  0.00    -0.266 OA
ATOM     19  H2  UNL     1      16.216 -25.047 -17.065  1.00  0.00     0.169 HD
BRANCH  17  20
HETATM   20  C5  UNL     1      18.210 -25.932 -18.602  1.00  0.00     0.116 A 
HETATM   21  C6  UNL     1      19.300 -26.201 -19.364  1.00  0.00     0.122 A 
HETATM   22  N3  UNL     1      20.046 -27.296 -19.092  1.00  0.00    -0.372 N 
HETATM   23  C7  UNL     1      19.722 -28.116 -18.082  1.00  0.00     0.104 A 
ATOM     24  H3  UNL     1      20.867 -27.500 -19.663  1.00  0.00     0.164 HD
HETATM   25  C8  UNL     1      18.630 -27.849 -17.316  1.00  0.00     0.105 A 
HETATM   26  N4  UNL     1      17.883 -26.770 -17.573  1.00  0.00    -0.359 N 
ATOM     27  H4  UNL     1      17.064 -26.571 -16.998  1.00  0.00     0.165 HD
ENDBRANCH  17  20
ENDBRANCH  14  16
ENDBRANCH   7  10
ENDBRANCH   1   6
BRANCH   4  28
HETATM   28  C15 UNL     1       7.647 -18.913 -21.040  1.00  0.00     0.230 C 
BRANCH  28  29
HETATM   29  C16 UNL     1       6.705 -19.131 -19.913  1.00  0.00     0.238 C 
HETATM   30  O3  UNL     1       6.438 -20.318 -19.538  1.00  0.00    -0.272 OA
HETATM   31  N7  UNL     1       6.117 -18.024 -19.272  1.00  0.00    -0.341 N 
HETATM   32  C17 UNL     1       6.414 -16.682 -19.702  1.00  0.00     0.146 C 
HETATM   33  C30 UNL     1       5.212 -18.214 -18.177  1.00  0.00     0.228 C 
HETATM   34  C18 UNL     1       6.868 -15.805 -18.575  1.00  0.00     0.145 C 
HETATM   35  N8  UNL     1       5.994 -15.953 -17.451  1.00  0.00    -0.349 N 
HETATM   36  C29 UNL     1       4.968 -16.916 -17.458  1.00  0.00     0.237 C 
HETATM   37  O4  UNL     1       3.874 -16.707 -16.884  1.00  0.00    -0.272 OA
BRANCH  35  38
HETATM   38  C19 UNL     1       6.126 -15.113 -16.224  1.00  0.00     0.129 C 
BRANCH  38  39
HETATM   39  C20 UNL     1       6.695 -15.964 -15.159  1.00  0.00     0.047 C 
BRANCH  39  40
HETATM   40  C21 UNL     1       7.792 -15.478 -14.346  1.00  0.00    -0.024 C 
BRANCH  40  41
HETATM   41  C22 UNL     1       9.206 -15.447 -14.661  1.00  0.00     0.007 C 
BRANCH  41  42
HETATM   42  C23 UNL     1      10.087 -16.582 -14.871  1.00  0.00     0.059 C 
BRANCH  42  43
HETATM   43  N9  UNL     1      10.428 -17.057 -16.141  1.00  0.00    -0.293 NA
HETATM   44  C24 UNL     1       9.370 -17.771 -16.826  1.00  0.00     0.095 C 
HETATM   45  C25 UNL     1       9.815 -19.172 -17.177  1.00  0.00     0.015 C 
HETATM   46  C26 UNL     1      10.378 -19.801 -15.925  1.00  0.00     0.002 C 
HETATM   47  C27 UNL     1      11.692 -19.101 -15.641  1.00  0.00     0.015 C 
HETATM   48  C28 UNL     1      11.715 -17.707 -16.227  1.00  0.00     0.095 C 
ENDBRANCH  42  43
ENDBRANCH  41  42
ENDBRANCH  40  41
ENDBRANCH  39  40
ENDBRANCH  38  39
ENDBRANCH  35  38
ENDBRANCH  28  29
ENDBRANCH   4  28
TORSDOF 12
ENDMDL
MODEL 2
REMARK VINA RESULT: -9.702749569      2.907     12.425
REMARK  12 active torsions:
REMARK  status: ('A' for Active; 'I' for Inactive)
REMARK    1  A    between atoms: C3_4  and  N2_5 
REMARK       I    between atoms: N2_5  and  C4_7 
REMARK    2  A    between atoms: C4_7  and  C5_9 
REMARK    3  A    between atoms: C10_18  and  C11_19 
REMARK       I    between atoms: C11_19  and  N5_21 
REMARK    4  A    between atoms: N5_21  and  C12_23 
REMARK    5  A    between atoms: N6_26  and  C15_27 
REMARK    6  A    between atoms: C15_27  and  C16_28 
REMARK       I    between atoms: C16_28  and  N7_30 
REMARK    7  A    between atoms: N8_33  and  C19_34 
REMARK    8  A    between atoms: C19_34  and  C20_35 
REMARK    9  A    between atoms: C20_35  and  C21_36 
REMARK   10  A    between atoms: C21_36  and  C22_37 
REMARK   11  A    between atoms: C22_37  and  C23_38 
REMARK   12  A    between atoms: C23_38  and  N9_39 
ROOT
HETATM    1  C12 UNL     1      14.749 -20.330 -15.115  1.00  0.00     0.052 A 
HETATM    2  C13 UNL     1      14.440 -21.406 -14.277  1.00  0.00     0.048 A 
HETATM    3  C14 UNL     1      15.620 -21.979 -13.867  1.00  0.00     0.093 A 
HETATM    4  N6  UNL     1      16.648 -21.316 -14.405  1.00  0.00    -0.355 N 
HETATM    5  C31 UNL     1      16.119 -20.318 -15.161  1.00  0.00     0.120 A 
ENDROOT
BRANCH   1   6
HETATM    6  N5  UNL     1      13.757 -19.531 -15.701  1.00  0.00    -0.320 N 
HETATM    7  C11 UNL     1      12.418 -19.956 -15.902  1.00  0.00     0.273 C 
HETATM    8  O2  UNL     1      12.041 -21.101 -15.555  1.00  0.00    -0.266 OA
ATOM      9  H5  UNL     1      14.013 -18.590 -16.000  1.00  0.00     0.169 HD
BRANCH   7  10
HETATM   10  C10 UNL     1      11.449 -19.043 -16.526  1.00  0.00     0.105 A 
HETATM   11  N1  UNL     1      11.594 -18.313 -17.636  1.00  0.00    -0.354 N 
HETATM   12  C1  UNL     1      12.808 -18.306 -18.453  1.00  0.00     0.156 C 
HETATM   13  C2  UNL     1      10.446 -17.599 -17.865  1.00  0.00     0.120 A 
HETATM   14  C3  UNL     1       9.555 -17.880 -16.883  1.00  0.00     0.053 A 
HETATM   15  C9  UNL     1      10.197 -18.796 -16.037  1.00  0.00     0.066 A 
BRANCH  14  16
HETATM   16  N2  UNL     1       8.248 -17.388 -16.708  1.00  0.00    -0.320 N 
HETATM   17  C4  UNL     1       7.966 -16.121 -16.176  1.00  0.00     0.274 C 
HETATM   18  O1  UNL     1       8.894 -15.326 -15.816  1.00  0.00    -0.266 OA
ATOM     19  H2  UNL     1       7.467 -17.983 -16.982  1.00  0.00     0.169 HD
BRANCH  17  20
HETATM   20  C5  UNL     1       6.588 -15.659 -16.011  1.00  0.00     0.116 A 
HETATM   21  C6  UNL     1       6.222 -14.351 -16.021  1.00  0.00     0.122 A 
HETATM   22  N3  UNL     1       4.920 -14.026 -15.856  1.00  0.00    -0.372 N 
HETATM   23  C7  UNL     1       3.989 -14.975 -15.681  1.00  0.00     0.104 A 
ATOM     24  H3  UNL     1       4.642 -13.044 -15.865  1.00  0.00     0.164 HD
HETATM   25  C8  UNL     1       4.353 -16.286 -15.670  1.00  0.00     0.105 A 
HETATM   26  N4  UNL     1       5.637 -16.624 -15.832  1.00  0.00    -0.359 N 
ATOM     27  H4  UNL     1       5.908 -17.607 -15.824  1.00  0.00     0.165 HD
ENDBRANCH  17  20
ENDBRANCH  14  16
ENDBRANCH   7  10
ENDBRANCH   1   6
BRANCH   4  28
HETATM   28  C15 UNL     1      18.055 -21.540 -14.273  1.00  0.00     0.230 C 
BRANCH  28  29
HETATM   29  C16 UNL     1      18.290 -22.988 -14.039  1.00  0.00     0.238 C 
HETATM   30  O3  UNL     1      17.940 -23.511 -12.933  1.00  0.00    -0.272 OA
HETATM   31  N7  UNL     1      18.897 -23.766 -15.044  1.00  0.00    -0.341 N 
HETATM   32  C17 UNL     1      19.299 -23.172 -16.292  1.00  0.00     0.146 C 
HETATM   33  C30 UNL     1      19.124 -25.166 -14.841  1.00  0.00     0.228 C 
HETATM   34  C18 UNL     1      18.749 -23.901 -17.480  1.00  0.00     0.145 C 
HETATM   35  N8  UNL     1      18.953 -25.310 -17.330  1.00  0.00    -0.349 N 
HETATM   36  C29 UNL     1      19.477 -25.840 -16.138  1.00  0.00     0.237 C 
HETATM   37  O4  UNL     1      20.222 -26.848 -16.144  1.00  0.00    -0.272 OA
BRANCH  35  38
HETATM   38  C19 UNL     1      18.617 -26.282 -18.414  1.00  0.00     0.129 C 
BRANCH  38  39
HETATM   39  C20 UNL     1      18.681 -25.558 -19.700  1.00  0.00     0.047 C 
BRANCH  39  40
HETATM   40  C21 UNL     1      17.628 -25.723 -20.682  1.00  0.00    -0.024 C 
BRANCH  40  41
HETATM   41  C22 UNL     1      16.306 -25.131 -20.698  1.00  0.00     0.007 C 
BRANCH  41  42
HETATM   42  C23 UNL     1      15.924 -23.813 -20.224  1.00  0.00     0.059 C 
BRANCH  42  43
HETATM   43  N9  UNL     1      15.629 -23.541 -18.884  1.00  0.00    -0.293 NA
HETATM   44  C24 UNL     1      14.438 -24.193 -18.381  1.00  0.00     0.095 C 
HETATM   45  C25 UNL     1      13.451 -23.172 -17.862  1.00  0.00     0.015 C 
HETATM   46  C26 UNL     1      13.269 -22.126 -18.936  1.00  0.00     0.002 C 
HETATM   47  C27 UNL     1      14.559 -21.334 -18.996  1.00  0.00     0.015 C 
HETATM   48  C28 UNL     1      15.733 -22.151 -18.505  1.00  0.00     0.095 C 
ENDBRANCH  42  43
ENDBRANCH  41  42
ENDBRANCH  40  41
ENDBRANCH  39  40
ENDBRANCH  38  39
ENDBRANCH  35  38
ENDBRANCH  28  29
ENDBRANCH   4  28
TORSDOF 12
ENDMDL
MODEL 3
REMARK VINA RESULT: -9.484391717      2.751     11.816
REMARK  12 active torsions:
REMARK  status: ('A' for Active; 'I' for Inactive)
REMARK    1  A    between atoms: C3_4  and  N2_5 
REMARK       I    between atoms: N2_5  and  C4_7 
REMARK    2  A    between atoms: C4_7  and  C5_9 
REMARK    3  A    between atoms: C10_18  and  C11_19 
REMARK       I    between atoms: C11_19  and  N5_21 
REMARK    4  A    between atoms: N5_21  and  C12_23 
REMARK    5  A    between atoms: N6_26  and  C15_27 
REMARK    6  A    between atoms: C15_27  and  C16_28 
REMARK       I    between atoms: C16_28  and  N7_30 
REMARK    7  A    between atoms: N8_33  and  C19_34 
REMARK    8  A    between atoms: C19_34  and  C20_35 
REMARK    9  A    between atoms: C20_35  and  C21_36 
REMARK   10  A    between atoms: C21_36  and  C22_37 
REMARK   11  A    between atoms: C22_37  and  C23_38 
REMARK   12  A    between atoms: C23_38  and  N9_39 
ROOT
HETATM    1  C12 UNL     1      14.679 -20.241 -15.373  1.00  0.00     0.052 A 
HETATM    2  C13 UNL     1      14.357 -21.430 -14.709  1.00  0.00     0.048 A 
HETATM    3  C14 UNL     1      15.525 -21.989 -14.247  1.00  0.00     0.093 A 
HETATM    4  N6  UNL     1      16.556 -21.211 -14.587  1.00  0.00    -0.355 N 
HETATM    5  C31 UNL     1      16.042 -20.153 -15.269  1.00  0.00     0.120 A 
ENDROOT
BRANCH   1   6
HETATM    6  N5  UNL     1      13.701 -19.426 -15.960  1.00  0.00    -0.320 N 
HETATM    7  C11 UNL     1      12.312 -19.713 -15.930  1.00  0.00     0.273 C 
HETATM    8  O2  UNL     1      11.873 -20.740 -15.359  1.00  0.00    -0.266 OA
ATOM      9  H5  UNL     1      14.006 -18.577 -16.437  1.00  0.00     0.169 HD
BRANCH   7  10
HETATM   10  C10 UNL     1      11.362 -18.794 -16.577  1.00  0.00     0.105 A 
HETATM   11  N1  UNL     1      10.843 -17.663 -16.092  1.00  0.00    -0.354 N 
HETATM   12  C1  UNL     1      11.153 -17.127 -14.766  1.00  0.00     0.156 C 
HETATM   13  C2  UNL     1       9.999 -17.114 -17.022  1.00  0.00     0.120 A 
HETATM   14  C3  UNL     1       9.980 -17.911 -18.118  1.00  0.00     0.053 A 
HETATM   15  C9  UNL     1      10.847 -18.975 -17.829  1.00  0.00     0.066 A 
BRANCH  14  16
HETATM   16  N2  UNL     1       9.266 -17.747 -19.319  1.00  0.00    -0.320 N 
HETATM   17  C4  UNL     1       7.939 -18.168 -19.491  1.00  0.00     0.274 C 
HETATM   18  O1  UNL     1       7.290 -18.732 -18.550  1.00  0.00    -0.266 OA
ATOM     19  H2  UNL     1       9.737 -17.298 -20.105  1.00  0.00     0.169 HD
BRANCH  17  20
HETATM   20  C5  UNL     1       7.241 -17.977 -20.763  1.00  0.00     0.116 A 
HETATM   21  C6  UNL     1       6.236 -18.776 -21.202  1.00  0.00     0.122 A 
HETATM   22  N3  UNL     1       5.657 -18.518 -22.396  1.00  0.00    -0.372 N 
HETATM   23  C7  UNL     1       6.063 -17.486 -23.150  1.00  0.00     0.104 A 
ATOM     24  H3  UNL     1       4.901 -19.117 -22.729  1.00  0.00     0.164 HD
HETATM   25  C8  UNL     1       7.071 -16.683 -22.712  1.00  0.00     0.105 A 
HETATM   26  N4  UNL     1       7.653 -16.926 -21.533  1.00  0.00    -0.359 N 
ATOM     27  H4  UNL     1       8.408 -16.322 -21.206  1.00  0.00     0.165 HD
ENDBRANCH  17  20
ENDBRANCH  14  16
ENDBRANCH   7  10
ENDBRANCH   1   6
BRANCH   4  28
HETATM   28  C15 UNL     1      17.954 -21.378 -14.333  1.00  0.00     0.230 C 
BRANCH  28  29
HETATM   29  C16 UNL     1      18.229 -22.817 -14.089  1.00  0.00     0.238 C 
HETATM   30  O3  UNL     1      17.922 -23.333 -12.967  1.00  0.00    -0.272 OA
HETATM   31  N7  UNL     1      18.826 -23.593 -15.100  1.00  0.00    -0.341 N 
HETATM   32  C17 UNL     1      19.180 -23.006 -16.366  1.00  0.00     0.146 C 
HETATM   33  C30 UNL     1      19.091 -24.985 -14.887  1.00  0.00     0.228 C 
HETATM   34  C18 UNL     1      18.615 -23.762 -17.529  1.00  0.00     0.145 C 
HETATM   35  N8  UNL     1      18.855 -25.164 -17.369  1.00  0.00    -0.349 N 
HETATM   36  C29 UNL     1      19.424 -25.667 -16.185  1.00  0.00     0.237 C 
HETATM   37  O4  UNL     1      20.192 -26.658 -16.199  1.00  0.00    -0.272 OA
BRANCH  35  38
HETATM   38  C19 UNL     1      18.512 -26.157 -18.431  1.00  0.00     0.129 C 
BRANCH  38  39
HETATM   39  C20 UNL     1      18.589 -25.463 -19.733  1.00  0.00     0.047 C 
BRANCH  39  40
HETATM   40  C21 UNL     1      17.455 -25.478 -20.634  1.00  0.00    -0.024 C 
BRANCH  40  41
HETATM   41  C22 UNL     1      16.112 -24.985 -20.406  1.00  0.00     0.007 C 
BRANCH  41  42
HETATM   42  C23 UNL     1      15.715 -23.624 -20.091  1.00  0.00     0.059 C 
BRANCH  42  43
HETATM   43  N9  UNL     1      15.387 -23.206 -18.797  1.00  0.00    -0.293 NA
HETATM   44  C24 UNL     1      14.253 -23.888 -18.208  1.00  0.00     0.095 C 
HETATM   45  C25 UNL     1      13.178 -22.898 -17.824  1.00  0.00     0.015 C 
HETATM   46  C26 UNL     1      12.913 -22.021 -19.025  1.00  0.00     0.002 C 
HETATM   47  C27 UNL     1      14.131 -21.134 -19.192  1.00  0.00     0.015 C 
HETATM   48  C28 UNL     1      15.367 -21.775 -18.602  1.00  0.00     0.095 C 
ENDBRANCH  42  43
ENDBRANCH  41  42
ENDBRANCH  40  41
ENDBRANCH  39  40
ENDBRANCH  38  39
ENDBRANCH  35  38
ENDBRANCH  28  29
ENDBRANCH   4  28
TORSDOF 12
ENDMDL
MODEL 4
REMARK VINA RESULT: -9.479503222      2.041      4.846
REMARK  12 active torsions:
REMARK  status: ('A' for Active; 'I' for Inactive)
REMARK    1  A    between atoms: C3_4  and  N2_5 
REMARK       I    between atoms: N2_5  and  C4_7 
REMARK    2  A    between atoms: C4_7  and  C5_9 
REMARK    3  A    between atoms: C10_18  and  C11_19 
REMARK       I    between atoms: C11_19  and  N5_21 
REMARK    4  A    between atoms: N5_21  and  C12_23 
REMARK    5  A    between atoms: N6_26  and  C15_27 
REMARK    6  A    between atoms: C15_27  and  C16_28 
REMARK       I    between atoms: C16_28  and  N7_30 
REMARK    7  A    between atoms: N8_33  and  C19_34 
REMARK    8  A    between atoms: C19_34  and  C20_35 
REMARK    9  A    between atoms: C20_35  and  C21_36 
REMARK   10  A    between atoms: C21_36  and  C22_37 
REMARK   11  A    between atoms: C22_37  and  C23_38 
REMARK   12  A    between atoms: C23_38  and  N9_39 
ROOT
HETATM    1  C12 UNL     1      10.949 -17.422 -15.363  1.00  0.00     0.052 A 
HETATM    2  C13 UNL     1      10.967 -16.444 -14.362  1.00  0.00     0.048 A 
HETATM    3  C14 UNL     1       9.808 -15.711 -14.463  1.00  0.00     0.093 A 
HETATM    4  N6  UNL     1       9.070 -16.181 -15.473  1.00  0.00    -0.355 N 
HETATM    5  C31 UNL     1       9.762 -17.217 -16.016  1.00  0.00     0.120 A 
ENDROOT
BRANCH   1   6
HETATM    6  N5  UNL     1      11.995 -18.341 -15.527  1.00  0.00    -0.320 N 
HETATM    7  C11 UNL     1      11.798 -19.731 -15.734  1.00  0.00     0.273 C 
HETATM    8  O2  UNL     1      10.645 -20.224 -15.783  1.00  0.00    -0.266 OA
ATOM      9  H5  UNL     1      12.952 -17.990 -15.496  1.00  0.00     0.169 HD
BRANCH   7  10
HETATM   10  C10 UNL     1      12.961 -20.617 -15.896  1.00  0.00     0.105 A 
HETATM   11  N1  UNL     1      13.734 -21.150 -14.946  1.00  0.00    -0.354 N 
HETATM   12  C1  UNL     1      13.536 -20.927 -13.514  1.00  0.00     0.156 C 
HETATM   13  C2  UNL     1      14.710 -21.916 -15.530  1.00  0.00     0.120 A 
HETATM   14  C3  UNL     1      14.556 -21.868 -16.875  1.00  0.00     0.053 A 
HETATM   15  C9  UNL     1      13.445 -21.042 -17.101  1.00  0.00     0.066 A 
BRANCH  14  16
HETATM   16  N2  UNL     1      15.317 -22.499 -17.876  1.00  0.00    -0.320 N 
HETATM   17  C4  UNL     1      15.001 -23.761 -18.404  1.00  0.00     0.274 C 
HETATM   18  O1  UNL     1      13.987 -24.418 -18.001  1.00  0.00    -0.266 OA
ATOM     19  H2  UNL     1      16.139 -22.016 -18.237  1.00  0.00     0.169 HD
BRANCH  17  20
HETATM   20  C5  UNL     1      15.828 -24.376 -19.442  1.00  0.00     0.116 A 
HETATM   21  C6  UNL     1      15.942 -23.890 -20.705  1.00  0.00     0.122 A 
HETATM   22  N3  UNL     1      16.730 -24.535 -21.594  1.00  0.00    -0.372 N 
HETATM   23  C7  UNL     1      17.397 -25.645 -21.246  1.00  0.00     0.104 A 
ATOM     24  H3  UNL     1      16.819 -24.172 -22.544  1.00  0.00     0.164 HD
HETATM   25  C8  UNL     1      17.285 -26.134 -19.982  1.00  0.00     0.105 A 
HETATM   26  N4  UNL     1      16.509 -25.507 -19.091  1.00  0.00    -0.359 N 
ATOM     27  H4  UNL     1      16.426 -25.875 -18.143  1.00  0.00     0.165 HD
ENDBRANCH  17  20
ENDBRANCH  14  16
ENDBRANCH   7  10
ENDBRANCH   1   6
BRANCH   4  28
HETATM   28  C15 UNL     1       7.797 -15.745 -15.959  1.00  0.00     0.230 C 
BRANCH  28  29
HETATM   29  C16 UNL     1       7.795 -15.832 -17.442  1.00  0.00     0.238 C 
HETATM   30  O3  UNL     1       8.849 -15.534 -18.090  1.00  0.00    -0.272 OA
HETATM   31  N7  UNL     1       6.628 -16.243 -18.115  1.00  0.00    -0.341 N 
HETATM   32  C17 UNL     1       5.434 -16.572 -17.381  1.00  0.00     0.146 C 
HETATM   33  C30 UNL     1       6.610 -16.341 -19.544  1.00  0.00     0.228 C 
HETATM   34  C18 UNL     1       4.893 -17.923 -17.739  1.00  0.00     0.145 C 
HETATM   35  N8  UNL     1       4.850 -18.075 -19.162  1.00  0.00    -0.349 N 
HETATM   36  C29 UNL     1       5.392 -17.091 -20.009  1.00  0.00     0.237 C 
HETATM   37  O4  UNL     1       4.880 -16.836 -21.124  1.00  0.00    -0.272 OA
BRANCH  35  38
HETATM   38  C19 UNL     1       4.242 -19.272 -19.817  1.00  0.00     0.129 C 
BRANCH  38  39
HETATM   39  C20 UNL     1       5.125 -20.425 -19.544  1.00  0.00     0.047 C 
BRANCH  39  40
HETATM   40  C21 UNL     1       6.556 -20.310 -19.744  1.00  0.00    -0.024 C 
BRANCH  40  41
HETATM   41  C22 UNL     1       7.283 -20.123 -20.982  1.00  0.00     0.007 C 
BRANCH  41  42
HETATM   42  C23 UNL     1       8.403 -19.229 -21.220  1.00  0.00     0.059 C 
BRANCH  42  43
HETATM   43  N9  UNL     1       9.689 -19.684 -21.527  1.00  0.00    -0.293 NA
HETATM   44  C24 UNL     1       9.820 -21.124 -21.610  1.00  0.00     0.095 C 
HETATM   45  C25 UNL     1      10.860 -21.621 -20.633  1.00  0.00     0.015 C 
HETATM   46  C26 UNL     1      10.537 -21.030 -19.281  1.00  0.00     0.002 C 
HETATM   47  C27 UNL     1      10.849 -19.549 -19.367  1.00  0.00     0.015 C 
HETATM   48  C28 UNL     1      10.756 -19.047 -20.791  1.00  0.00     0.095 C 
ENDBRANCH  42  43
ENDBRANCH  41  42
ENDBRANCH  40  41
ENDBRANCH  39  40
ENDBRANCH  38  39
ENDBRANCH  35  38
ENDBRANCH  28  29
ENDBRANCH   4  28
TORSDOF 12
ENDMDL
MODEL 5
REMARK VINA RESULT: -9.274338244      2.886      3.293
REMARK  12 active torsions:
REMARK  status: ('A' for Active; 'I' for Inactive)
REMARK    1  A    between atoms: C3_4  and  N2_5 
REMARK       I    between atoms: N2_5  and  C4_7 
REMARK    2  A    between atoms: C4_7  and  C5_9 
REMARK    3  A    between atoms: C10_18  and  C11_19 
REMARK       I    between atoms: C11_19  and  N5_21 
REMARK    4  A    between atoms: N5_21  and  C12_23 
REMARK    5  A    between atoms: N6_26  and  C15_27 
REMARK    6  A    between atoms: C15_27  and  C16_28 
REMARK       I    between atoms: C16_28  and  N7_30 
REMARK    7  A    between atoms: N8_33  and  C19_34 
REMARK    8  A    between atoms: C19_34  and  C20_35 
REMARK    9  A    between atoms: C20_35  and  C21_36 
REMARK   10  A    between atoms: C21_36  and  C22_37 
REMARK   11  A    between atoms: C22_37  and  C23_38 
REMARK   12  A    between atoms: C23_38  and  N9_39 
ROOT
HETATM    1  C12 UNL     1      11.959 -20.507 -20.031  1.00  0.00     0.052 A 
HETATM    2  C13 UNL     1      11.142 -21.403 -20.730  1.00  0.00     0.048 A 
HETATM    3  C14 UNL     1       9.985 -20.744 -21.073  1.00  0.00     0.093 A 
HETATM    4  N6  UNL     1      10.039 -19.486 -20.626  1.00  0.00    -0.355 N 
HETATM    5  C31 UNL     1      11.234 -19.344 -19.995  1.00  0.00     0.120 A 
ENDROOT
BRANCH   1   6
HETATM    6  N5  UNL     1      13.221 -20.873 -19.541  1.00  0.00    -0.320 N 
HETATM    7  C11 UNL     1      13.430 -21.914 -18.599  1.00  0.00     0.273 C 
HETATM    8  O2  UNL     1      12.470 -22.580 -18.142  1.00  0.00    -0.266 OA
ATOM      9  H5  UNL     1      14.035 -20.362 -19.882  1.00  0.00     0.169 HD
BRANCH   7  10
HETATM   10  C10 UNL     1      14.794 -22.223 -18.145  1.00  0.00     0.105 A 
HETATM   11  N1  UNL     1      15.697 -23.022 -18.721  1.00  0.00    -0.354 N 
HETATM   12  C1  UNL     1      15.461 -23.756 -19.964  1.00  0.00     0.156 C 
HETATM   13  C2  UNL     1      16.843 -23.032 -17.967  1.00  0.00     0.120 A 
HETATM   14  C3  UNL     1      16.665 -22.225 -16.893  1.00  0.00     0.053 A 
HETATM   15  C9  UNL     1      15.363 -21.716 -17.012  1.00  0.00     0.066 A 
BRANCH  14  16
HETATM   16  N2  UNL     1      17.565 -21.923 -15.854  1.00  0.00    -0.320 N 
HETATM   17  C4  UNL     1      18.006 -22.870 -14.918  1.00  0.00     0.274 C 
HETATM   18  O1  UNL     1      17.613 -24.082 -14.956  1.00  0.00    -0.266 OA
ATOM     19  H2  UNL     1      17.914 -20.968 -15.779  1.00  0.00     0.169 HD
BRANCH  17  20
HETATM   20  C5  UNL     1      18.941 -22.504 -13.854  1.00  0.00     0.116 A 
HETATM   21  C6  UNL     1      19.771 -21.431 -13.912  1.00  0.00     0.122 A 
HETATM   22  N3  UNL     1      20.603 -21.179 -12.876  1.00  0.00    -0.372 N 
HETATM   23  C7  UNL     1      20.618 -21.974 -11.796  1.00  0.00     0.104 A 
ATOM     24  H3  UNL     1      21.227 -20.373 -12.917  1.00  0.00     0.164 HD
HETATM   25  C8  UNL     1      19.788 -23.050 -11.735  1.00  0.00     0.105 A 
HETATM   26  N4  UNL     1      18.959 -23.312 -12.752  1.00  0.00    -0.359 N 
ATOM     27  H4  UNL     1      18.337 -24.119 -12.704  1.00  0.00     0.165 HD
ENDBRANCH  17  20
ENDBRANCH  14  16
ENDBRANCH   7  10
ENDBRANCH   1   6
BRANCH   4  28
HETATM   28  C15 UNL     1       9.079 -18.431 -20.738  1.00  0.00     0.230 C 
BRANCH  28  29
HETATM   29  C16 UNL     1       7.966 -18.693 -19.790  1.00  0.00     0.238 C 
HETATM   30  O3  UNL     1       7.567 -19.887 -19.604  1.00  0.00    -0.272 OA
HETATM   31  N7  UNL     1       7.364 -17.618 -19.109  1.00  0.00    -0.341 N 
HETATM   32  C17 UNL     1       7.810 -16.267 -19.326  1.00  0.00     0.146 C 
HETATM   33  C30 UNL     1       6.294 -17.852 -18.184  1.00  0.00     0.228 C 
HETATM   34  C18 UNL     1       8.148 -15.561 -18.048  1.00  0.00     0.145 C 
HETATM   35  N8  UNL     1       7.107 -15.759 -17.085  1.00  0.00    -0.349 N 
HETATM   36  C29 UNL     1       6.032 -16.625 -17.354  1.00  0.00     0.237 C 
HETATM   37  O4  UNL     1       4.881 -16.390 -16.919  1.00  0.00    -0.272 OA
BRANCH  35  38
HETATM   38  C19 UNL     1       7.109 -15.073 -15.758  1.00  0.00     0.129 C 
BRANCH  38  39
HETATM   39  C20 UNL     1       7.403 -16.092 -14.730  1.00  0.00     0.047 C 
BRANCH  39  40
HETATM   40  C21 UNL     1       8.712 -16.146 -14.111  1.00  0.00    -0.024 C 
BRANCH  40  41
HETATM   41  C22 UNL     1      10.011 -15.981 -14.730  1.00  0.00     0.007 C 
BRANCH  41  42
HETATM   42  C23 UNL     1      10.994 -17.013 -15.006  1.00  0.00     0.059 C 
BRANCH  42  43
HETATM   43  N9  UNL     1      11.003 -17.759 -16.189  1.00  0.00    -0.293 NA
HETATM   44  C24 UNL     1      10.089 -18.882 -16.205  1.00  0.00     0.095 C 
HETATM   45  C25 UNL     1      10.835 -20.173 -16.454  1.00  0.00     0.015 C 
HETATM   46  C26 UNL     1      11.988 -20.229 -15.480  1.00  0.00     0.002 C 
HETATM   47  C27 UNL     1      12.987 -19.181 -15.926  1.00  0.00     0.015 C 
HETATM   48  C28 UNL     1      12.315 -18.073 -16.706  1.00  0.00     0.095 C 
ENDBRANCH  42  43
ENDBRANCH  41  42
ENDBRANCH  40  41
ENDBRANCH  39  40
ENDBRANCH  38  39
ENDBRANCH  35  38
ENDBRANCH  28  29
ENDBRANCH   4  28
TORSDOF 12
ENDMDL
