MODEL 1
REMARK VINA RESULT: -8.621319193      0.000      0.000
REMARK  13 active torsions:
REMARK  status: ('A' for Active; 'I' for Inactive)
REMARK    1  A    between atoms: C11_20  and  N6_21 
REMARK    2  A    between atoms: N6_21  and  C12_22 
REMARK    3  A    between atoms: C12_22  and  C13_23 
REMARK    4  A    between atoms: C13_23  and  C14_24 
REMARK    5  A    between atoms: C14_24  and  C15_25 
REMARK    6  A    between atoms: C15_25  and  N7_26 
REMARK    7  A    between atoms: N7_26  and  C16_27 
REMARK       I    between atoms: N7_26  and  C21_33 
REMARK    8  A    between atoms: C16_27  and  C17_28 
REMARK    9  A    between atoms: C17_28  and  C18_29 
REMARK   10  A    between atoms: C18_29  and  N8_30 
REMARK       I    between atoms: C21_33  and  N9_35 
REMARK   11  A    between atoms: N9_35  and  C22_37 
REMARK   12  A    between atoms: C22_37  and  C23_38 
REMARK   13  A    between atoms: C23_38  and  N10_39 
ROOT
HETATM    1  C13 UNL     1       8.196 -16.330 -20.523  1.00  0.00     0.061 C 
ENDROOT
BRANCH   1   2
HETATM    2  C12 UNL     1       6.931 -16.425 -19.691  1.00  0.00     0.157 C 
BRANCH   2   3
HETATM    3  N6  UNL     1       6.894 -16.155 -18.399  1.00  0.00    -0.402 NA
BRANCH   3   4
HETATM    4  C11 UNL     1       6.860 -15.916 -17.237  1.00  0.00     0.214 A 
HETATM    5  N5  UNL     1       5.776 -15.356 -16.588  1.00  0.00    -0.100 N 
HETATM    6  C6  UNL     1       5.850 -15.144 -15.266  1.00  0.00     0.694 A 
HETATM    7  C10 UNL     1       4.576 -14.937 -17.011  1.00  0.00     0.173 A 
HETATM    8  N1  UNL     1       6.942 -15.455 -14.546  1.00  0.00    -0.190 N 
HETATM    9  N2  UNL     1       4.663 -14.585 -14.878  1.00  0.00    -0.187 N 
HETATM   10  C5  UNL     1       8.024 -16.001 -15.136  1.00  0.00     0.064 A 
ATOM     11  H1  UNL     1       6.952 -15.274 -13.542  1.00  0.00     0.184 HD
HETATM   12  C4  UNL     1       9.146 -16.314 -14.376  1.00  0.00     0.031 A 
HETATM   13  C31 UNL     1       8.017 -16.242 -16.466  1.00  0.00     0.051 A 
HETATM   14  C3  UNL     1      10.245 -16.871 -14.993  1.00  0.00     0.009 A 
HETATM   15  C2  UNL     1      10.264 -17.128 -16.347  1.00  0.00    -0.061 A 
HETATM   16  C1  UNL     1      11.478 -17.740 -16.955  1.00  0.00     0.048 C 
HETATM   17  C32 UNL     1       9.130 -16.804 -17.075  1.00  0.00     0.025 A 
HETATM   18  C7  UNL     1       3.861 -14.447 -15.939  1.00  0.00     0.097 A 
ATOM     19  H2  UNL     1       4.426 -14.313 -13.923  1.00  0.00     0.184 HD
HETATM   20  C8  UNL     1       2.574 -13.937 -16.105  1.00  0.00     0.052 A 
HETATM   21  C9  UNL     1       2.021 -13.926 -17.357  1.00  0.00     0.109 A 
HETATM   22  N3  UNL     1       2.763 -14.419 -18.382  1.00  0.00    -0.310 N 
HETATM   23  N4  UNL     1       3.976 -14.894 -18.189  1.00  0.00    -0.283 N 
ATOM     24  H3  UNL     1       2.371 -14.422 -19.323  1.00  0.00     0.186 HD
ATOM     25  H4  UNL     1       4.485 -15.252 -18.998  1.00  0.00     0.188 HD
ENDBRANCH   3   4
ENDBRANCH   2   3
ENDBRANCH   1   2
BRANCH   1  26
HETATM   26  C14 UNL     1       8.537 -17.657 -21.125  1.00  0.00     0.026 C 
BRANCH  26  27
HETATM   27  C15 UNL     1       9.256 -18.598 -20.219  1.00  0.00     0.128 C 
BRANCH  27  28
HETATM   28  N7  UNL     1       8.841 -19.962 -20.367  1.00  0.00    -0.334 N 
HETATM   29  C21 UNL     1       9.813 -21.022 -20.196  1.00  0.00     0.322 C 
HETATM   30  O1  UNL     1       9.331 -22.170 -20.333  1.00  0.00    -0.247 OA
HETATM   31  N9  UNL     1      11.148 -20.776 -19.906  1.00  0.00    -0.320 N 
ATOM     32  H9  UNL     1      11.352 -19.780 -19.822  1.00  0.00     0.169 HD
BRANCH  28  33
HETATM   33  C16 UNL     1       7.459 -20.302 -20.705  1.00  0.00     0.129 C 
BRANCH  33  34
HETATM   34  C17 UNL     1       6.617 -20.083 -19.503  1.00  0.00     0.050 C 
BRANCH  34  35
HETATM   35  C18 UNL     1       5.179 -19.800 -19.686  1.00  0.00     0.273 C 
BRANCH  35  36
HETATM   36  N8  UNL     1       4.311 -19.916 -18.568  1.00  0.00     0.080 N 
HETATM   37  C19 UNL     1       4.079 -18.519 -18.105  1.00  0.00     0.309 C 
HETATM   38  C20 UNL     1       3.001 -20.367 -18.979  1.00  0.00     0.309 C 
ENDBRANCH  35  36
ENDBRANCH  34  35
ENDBRANCH  33  34
ENDBRANCH  28  33
BRANCH  31  39
HETATM   39  C22 UNL     1      12.277 -21.570 -19.701  1.00  0.00     0.096 C 
BRANCH  39  40
HETATM   40  C23 UNL     1      12.987 -21.628 -18.384  1.00  0.00     0.062 C 
HETATM   41  C26 UNL     1      12.022 -21.803 -17.264  1.00  0.00     0.066 C 
HETATM   42  C27 UNL     1      12.546 -21.142 -15.994  1.00  0.00     0.274 C 
HETATM   43  N11 UNL     1      14.003 -21.129 -15.999  1.00  0.00     0.084 N 
HETATM   44  C28 UNL     1      14.455 -20.659 -14.723  1.00  0.00     0.309 C 
HETATM   45  C29 UNL     1      14.468 -20.208 -17.026  1.00  0.00     0.274 C 
HETATM   46  C30 UNL     1      13.557 -20.200 -18.212  1.00  0.00     0.066 C 
BRANCH  40  47
HETATM   47  N10 UNL     1      14.082 -22.518 -18.368  1.00  0.00    -0.408 N 
HETATM   48  C24 UNL     1      15.108 -22.304 -19.297  1.00  0.00     0.143 C 
HETATM   49  C25 UNL     1      13.871 -23.880 -18.075  1.00  0.00     0.143 C 
ENDBRANCH  40  47
ENDBRANCH  39  40
ENDBRANCH  31  39
ENDBRANCH  27  28
ENDBRANCH  26  27
ENDBRANCH   1  26
TORSDOF 13
ENDMDL
MODEL 2
REMARK VINA RESULT: -8.510821910      5.309     13.804
REMARK  13 active torsions:
REMARK  status: ('A' for Active; 'I' for Inactive)
REMARK    1  A    between atoms: C11_20  and  N6_21 
REMARK    2  A    between atoms: N6_21  and  C12_22 
REMARK    3  A    between atoms: C12_22  and  C13_23 
REMARK    4  A    between atoms: C13_23  and  C14_24 
REMARK    5  A    between atoms: C14_24  and  C15_25 
REMARK    6  A    between atoms: C15_25  and  N7_26 
REMARK    7  A    between atoms: N7_26  and  C16_27 
REMARK       I    between atoms: N7_26  and  C21_33 
REMARK    8  A    between atoms: C16_27  and  C17_28 
REMARK    9  A    between atoms: C17_28  and  C18_29 
REMARK   10  A    between atoms: C18_29  and  N8_30 
REMARK       I    between atoms: C21_33  and  N9_35 
REMARK   11  A    between atoms: N9_35  and  C22_37 
REMARK   12  A    between atoms: C22_37  and  C23_38 
REMARK   13  A    between atoms: C23_38  and  N10_39 
ROOT
HETATM    1  C13 UNL     1      18.963 -22.841 -15.488  1.00  0.00     0.061 C 
ENDROOT
BRANCH   1   2
HETATM    2  C12 UNL     1      18.566 -24.301 -15.594  1.00  0.00     0.157 C 
BRANCH   2   3
HETATM    3  N6  UNL     1      18.586 -24.975 -16.728  1.00  0.00    -0.402 NA
BRANCH   3   4
HETATM    4  C11 UNL     1      18.605 -25.578 -17.751  1.00  0.00     0.214 A 
HETATM    5  N5  UNL     1      19.400 -26.683 -17.989  1.00  0.00    -0.100 N 
HETATM    6  C6  UNL     1      19.325 -27.292 -19.181  1.00  0.00     0.694 A 
HETATM    7  C10 UNL     1      20.305 -27.333 -17.245  1.00  0.00     0.173 A 
HETATM    8  N1  UNL     1      18.505 -26.866 -20.158  1.00  0.00    -0.190 N 
HETATM    9  N2  UNL     1      20.206 -28.339 -19.159  1.00  0.00    -0.187 N 
HETATM   10  C5  UNL     1      17.712 -25.792 -19.972  1.00  0.00     0.064 A 
ATOM     11  H1  UNL     1      18.483 -27.360 -21.049  1.00  0.00     0.184 HD
HETATM   12  C4  UNL     1      16.872 -25.363 -20.994  1.00  0.00     0.031 A 
HETATM   13  C31 UNL     1      17.737 -25.131 -18.793  1.00  0.00     0.051 A 
HETATM   14  C3  UNL     1      16.067 -24.262 -20.790  1.00  0.00     0.009 A 
HETATM   15  C2  UNL     1      16.073 -23.572 -19.597  1.00  0.00    -0.061 A 
HETATM   16  C1  UNL     1      15.174 -22.395 -19.434  1.00  0.00     0.048 C 
HETATM   17  C32 UNL     1      16.922 -24.025 -18.600  1.00  0.00     0.025 A 
HETATM   18  C7  UNL     1      20.823 -28.384 -17.972  1.00  0.00     0.097 A 
ATOM     19  H2  UNL     1      20.368 -28.987 -19.930  1.00  0.00     0.184 HD
HETATM   20  C8  UNL     1      21.796 -29.223 -17.432  1.00  0.00     0.052 A 
HETATM   21  C9  UNL     1      22.239 -28.991 -16.158  1.00  0.00     0.109 A 
HETATM   22  N3  UNL     1      21.700 -27.945 -15.480  1.00  0.00    -0.310 N 
HETATM   23  N4  UNL     1      20.781 -27.172 -16.021  1.00  0.00    -0.283 N 
ATOM     24  H3  UNL     1      22.015 -27.754 -14.529  1.00  0.00     0.186 HD
ATOM     25  H4  UNL     1      20.414 -26.402 -15.462  1.00  0.00     0.188 HD
ENDBRANCH   3   4
ENDBRANCH   2   3
ENDBRANCH   1   2
BRANCH   1  26
HETATM   26  C14 UNL     1      17.775 -21.988 -15.170  1.00  0.00     0.026 C 
BRANCH  26  27
HETATM   27  C15 UNL     1      16.472 -22.712 -15.118  1.00  0.00     0.128 C 
BRANCH  27  28
HETATM   28  N7  UNL     1      15.822 -22.626 -13.842  1.00  0.00    -0.334 N 
HETATM   29  C21 UNL     1      14.589 -21.877 -13.723  1.00  0.00     0.322 C 
HETATM   30  O1  UNL     1      14.107 -21.886 -12.567  1.00  0.00    -0.247 OA
HETATM   31  N9  UNL     1      14.005 -21.217 -14.796  1.00  0.00    -0.320 N 
ATOM     32  H9  UNL     1      14.537 -21.330 -15.659  1.00  0.00     0.169 HD
BRANCH  28  33
HETATM   33  C16 UNL     1      16.392 -23.266 -12.656  1.00  0.00     0.129 C 
BRANCH  33  34
HETATM   34  C17 UNL     1      16.352 -24.736 -12.855  1.00  0.00     0.050 C 
BRANCH  34  35
HETATM   35  C18 UNL     1      17.459 -25.554 -12.320  1.00  0.00     0.273 C 
BRANCH  35  36
HETATM   36  N8  UNL     1      17.306 -26.966 -12.271  1.00  0.00     0.080 N 
HETATM   37  C19 UNL     1      15.845 -27.196 -12.090  1.00  0.00     0.309 C 
HETATM   38  C20 UNL     1      17.593 -27.558 -13.558  1.00  0.00     0.309 C 
ENDBRANCH  35  36
ENDBRANCH  34  35
ENDBRANCH  33  34
ENDBRANCH  28  33
BRANCH  31  39
HETATM   39  C22 UNL     1      12.863 -20.435 -14.972  1.00  0.00     0.096 C 
BRANCH  39  40
HETATM   40  C23 UNL     1      12.240 -20.219 -16.316  1.00  0.00     0.062 C 
HETATM   41  C26 UNL     1      11.632 -21.476 -16.832  1.00  0.00     0.066 C 
HETATM   42  C27 UNL     1      11.685 -21.513 -18.356  1.00  0.00     0.274 C 
HETATM   43  N11 UNL     1      11.666 -20.159 -18.892  1.00  0.00     0.084 N 
HETATM   44  C28 UNL     1      11.544 -20.240 -20.318  1.00  0.00     0.309 C 
HETATM   45  C29 UNL     1      12.922 -19.499 -18.569  1.00  0.00     0.274 C 
HETATM   46  C30 UNL     1      13.450 -19.941 -17.240  1.00  0.00     0.066 C 
BRANCH  40  47
HETATM   47  N10 UNL     1      11.400 -19.086 -16.377  1.00  0.00    -0.408 N 
HETATM   48  C24 UNL     1      11.899 -17.879 -15.870  1.00  0.00     0.143 C 
HETATM   49  C25 UNL     1      10.011 -19.235 -16.195  1.00  0.00     0.143 C 
ENDBRANCH  40  47
ENDBRANCH  39  40
ENDBRANCH  31  39
ENDBRANCH  27  28
ENDBRANCH  26  27
ENDBRANCH   1  26
TORSDOF 13
ENDMDL
MODEL 3
REMARK VINA RESULT: -8.409766078      1.101      3.937
REMARK  13 active torsions:
REMARK  status: ('A' for Active; 'I' for Inactive)
REMARK    1  A    between atoms: C11_20  and  N6_21 
REMARK    2  A    between atoms: N6_21  and  C12_22 
REMARK    3  A    between atoms: C12_22  and  C13_23 
REMARK    4  A    between atoms: C13_23  and  C14_24 
REMARK    5  A    between atoms: C14_24  and  C15_25 
REMARK    6  A    between atoms: C15_25  and  N7_26 
REMARK    7  A    between atoms: N7_26  and  C16_27 
REMARK       I    between atoms: N7_26  and  C21_33 
REMARK    8  A    between atoms: C16_27  and  C17_28 
REMARK    9  A    between atoms: C17_28  and  C18_29 
REMARK   10  A    between atoms: C18_29  and  N8_30 
REMARK       I    between atoms: C21_33  and  N9_35 
REMARK   11  A    between atoms: N9_35  and  C22_37 
REMARK   12  A    between atoms: C22_37  and  C23_38 
REMARK   13  A    between atoms: C23_38  and  N10_39 
ROOT
HETATM    1  C13 UNL     1       8.250 -16.439 -20.668  1.00  0.00     0.061 C 
ENDROOT
BRANCH   1   2
HETATM    2  C12 UNL     1       6.936 -16.519 -19.914  1.00  0.00     0.157 C 
BRANCH   2   3
HETATM    3  N6  UNL     1       6.838 -16.335 -18.611  1.00  0.00    -0.402 NA
BRANCH   3   4
HETATM    4  C11 UNL     1       6.753 -16.166 -17.439  1.00  0.00     0.214 A 
HETATM    5  N5  UNL     1       7.782 -16.388 -16.543  1.00  0.00    -0.100 N 
HETATM    6  C6  UNL     1       7.571 -16.148 -15.240  1.00  0.00     0.694 A 
HETATM    7  C10 UNL     1       9.039 -16.828 -16.688  1.00  0.00     0.173 A 
HETATM    8  N1  UNL     1       6.393 -15.701 -14.771  1.00  0.00    -0.190 N 
HETATM    9  N2  UNL     1       8.731 -16.449 -14.580  1.00  0.00    -0.187 N 
HETATM   10  C5  UNL     1       5.361 -15.473 -15.607  1.00  0.00     0.064 A 
ATOM     11  H1  UNL     1       6.279 -15.535 -13.772  1.00  0.00     0.184 HD
HETATM   12  C4  UNL     1       4.148 -15.013 -15.104  1.00  0.00     0.031 A 
HETATM   13  C31 UNL     1       5.505 -15.693 -16.933  1.00  0.00     0.051 A 
HETATM   14  C3  UNL     1       3.101 -14.784 -15.971  1.00  0.00     0.009 A 
HETATM   15  C2  UNL     1       3.222 -15.000 -17.327  1.00  0.00    -0.061 A 
HETATM   16  C1  UNL     1       2.056 -14.726 -18.213  1.00  0.00     0.048 C 
HETATM   17  C32 UNL     1       4.443 -15.459 -17.795  1.00  0.00     0.025 A 
HETATM   18  C7  UNL     1       9.651 -16.871 -15.454  1.00  0.00     0.097 A 
ATOM     19  H2  UNL     1       8.872 -16.364 -13.573  1.00  0.00     0.184 HD
HETATM   20  C8  UNL     1      10.970 -17.303 -15.318  1.00  0.00     0.052 A 
HETATM   21  C9  UNL     1      11.659 -17.690 -16.437  1.00  0.00     0.109 A 
HETATM   22  N3  UNL     1      11.015 -17.630 -17.630  1.00  0.00    -0.310 N 
HETATM   23  N4  UNL     1       9.767 -17.216 -17.722  1.00  0.00    -0.283 N 
ATOM     24  H3  UNL     1      11.508 -17.913 -18.477  1.00  0.00     0.186 HD
ATOM     25  H4  UNL     1       9.337 -17.193 -18.646  1.00  0.00     0.188 HD
ENDBRANCH   3   4
ENDBRANCH   2   3
ENDBRANCH   1   2
BRANCH   1  26
HETATM   26  C14 UNL     1       8.499 -17.699 -21.437  1.00  0.00     0.026 C 
BRANCH  26  27
HETATM   27  C15 UNL     1       9.451 -18.653 -20.798  1.00  0.00     0.128 C 
BRANCH  27  28
HETATM   28  N7  UNL     1       8.952 -19.995 -20.725  1.00  0.00    -0.334 N 
HETATM   29  C21 UNL     1       9.861 -21.074 -20.402  1.00  0.00     0.322 C 
HETATM   30  O1  UNL     1       9.309 -22.197 -20.352  1.00  0.00    -0.247 OA
HETATM   31  N9  UNL     1      11.215 -20.870 -20.171  1.00  0.00    -0.320 N 
ATOM     32  H9  UNL     1      11.480 -19.889 -20.247  1.00  0.00     0.169 HD
BRANCH  28  33
HETATM   33  C16 UNL     1       7.544 -20.296 -20.989  1.00  0.00     0.129 C 
BRANCH  33  34
HETATM   34  C17 UNL     1       6.790 -20.149 -19.720  1.00  0.00     0.050 C 
BRANCH  34  35
HETATM   35  C18 UNL     1       5.341 -19.867 -19.784  1.00  0.00     0.273 C 
BRANCH  35  36
HETATM   36  N8  UNL     1       4.542 -20.129 -18.640  1.00  0.00     0.080 N 
HETATM   37  C19 UNL     1       3.577 -18.996 -18.568  1.00  0.00     0.309 C 
HETATM   38  C20 UNL     1       3.702 -21.286 -18.854  1.00  0.00     0.309 C 
ENDBRANCH  35  36
ENDBRANCH  34  35
ENDBRANCH  33  34
ENDBRANCH  28  33
BRANCH  31  39
HETATM   39  C22 UNL     1      12.298 -21.693 -19.858  1.00  0.00     0.096 C 
BRANCH  39  40
HETATM   40  C23 UNL     1      12.917 -21.717 -18.495  1.00  0.00     0.062 C 
HETATM   41  C26 UNL     1      11.887 -21.952 -17.445  1.00  0.00     0.066 C 
HETATM   42  C27 UNL     1      12.284 -21.270 -16.140  1.00  0.00     0.274 C 
HETATM   43  N11 UNL     1      13.734 -21.175 -16.044  1.00  0.00     0.084 N 
HETATM   44  C28 UNL     1      14.069 -20.688 -14.738  1.00  0.00     0.309 C 
HETATM   45  C29 UNL     1      14.218 -20.224 -17.034  1.00  0.00     0.274 C 
HETATM   46  C30 UNL     1      13.393 -20.261 -18.281  1.00  0.00     0.066 C 
BRANCH  40  47
HETATM   47  N10 UNL     1      14.057 -22.545 -18.403  1.00  0.00    -0.408 N 
HETATM   48  C24 UNL     1      15.123 -22.282 -19.272  1.00  0.00     0.143 C 
HETATM   49  C25 UNL     1      13.903 -23.915 -18.107  1.00  0.00     0.143 C 
ENDBRANCH  40  47
ENDBRANCH  39  40
ENDBRANCH  31  39
ENDBRANCH  27  28
ENDBRANCH  26  27
ENDBRANCH   1  26
TORSDOF 13
ENDMDL
MODEL 4
REMARK VINA RESULT: -8.261047219      3.710      8.031
REMARK  13 active torsions:
REMARK  status: ('A' for Active; 'I' for Inactive)
REMARK    1  A    between atoms: C11_20  and  N6_21 
REMARK    2  A    between atoms: N6_21  and  C12_22 
REMARK    3  A    between atoms: C12_22  and  C13_23 
REMARK    4  A    between atoms: C13_23  and  C14_24 
REMARK    5  A    between atoms: C14_24  and  C15_25 
REMARK    6  A    between atoms: C15_25  and  N7_26 
REMARK    7  A    between atoms: N7_26  and  C16_27 
REMARK       I    between atoms: N7_26  and  C21_33 
REMARK    8  A    between atoms: C16_27  and  C17_28 
REMARK    9  A    between atoms: C17_28  and  C18_29 
REMARK   10  A    between atoms: C18_29  and  N8_30 
REMARK       I    between atoms: C21_33  and  N9_35 
REMARK   11  A    between atoms: N9_35  and  C22_37 
REMARK   12  A    between atoms: C22_37  and  C23_38 
REMARK   13  A    between atoms: C23_38  and  N10_39 
ROOT
HETATM    1  C13 UNL     1      13.520 -21.012 -18.999  1.00  0.00     0.061 C 
ENDROOT
BRANCH   1   2
HETATM    2  C12 UNL     1      12.919 -19.964 -18.081  1.00  0.00     0.157 C 
BRANCH   2   3
HETATM    3  N6  UNL     1      11.651 -19.600 -18.132  1.00  0.00    -0.402 NA
BRANCH   3   4
HETATM    4  C11 UNL     1      10.510 -19.275 -18.176  1.00  0.00     0.214 A 
HETATM    5  N5  UNL     1       9.917 -18.391 -17.294  1.00  0.00    -0.100 N 
HETATM    6  C6  UNL     1       8.621 -18.088 -17.452  1.00  0.00     0.694 A 
HETATM    7  C10 UNL     1      10.376 -17.718 -16.230  1.00  0.00     0.173 A 
HETATM    8  N1  UNL     1       7.872 -18.616 -18.436  1.00  0.00    -0.190 N 
HETATM    9  N2  UNL     1       8.285 -17.208 -16.459  1.00  0.00    -0.187 N 
HETATM   10  C5  UNL     1       8.407 -19.484 -19.319  1.00  0.00     0.064 A 
ATOM     11  H1  UNL     1       6.889 -18.357 -18.516  1.00  0.00     0.184 HD
HETATM   12  C4  UNL     1       7.617 -20.022 -20.330  1.00  0.00     0.031 A 
HETATM   13  C31 UNL     1       9.709 -19.832 -19.218  1.00  0.00     0.051 A 
HETATM   14  C3  UNL     1       8.177 -20.909 -21.224  1.00  0.00     0.009 A 
HETATM   15  C2  UNL     1       9.502 -21.279 -21.144  1.00  0.00    -0.061 A 
HETATM   16  C1  UNL     1      10.051 -22.235 -22.145  1.00  0.00     0.048 C 
HETATM   17  C32 UNL     1      10.261 -20.725 -20.125  1.00  0.00     0.025 A 
HETATM   18  C7  UNL     1       9.354 -16.965 -15.692  1.00  0.00     0.097 A 
ATOM     19  H2  UNL     1       7.360 -16.800 -16.324  1.00  0.00     0.184 HD
HETATM   20  C8  UNL     1       9.561 -16.171 -14.565  1.00  0.00     0.052 A 
HETATM   21  C9  UNL     1      10.803 -16.146 -13.990  1.00  0.00     0.109 A 
HETATM   22  N3  UNL     1      11.778 -16.903 -14.555  1.00  0.00    -0.310 N 
HETATM   23  N4  UNL     1      11.548 -17.642 -15.621  1.00  0.00    -0.283 N 
ATOM     24  H3  UNL     1      12.711 -16.900 -14.144  1.00  0.00     0.186 HD
ATOM     25  H4  UNL     1      12.320 -18.190 -16.000  1.00  0.00     0.188 HD
ENDBRANCH   3   4
ENDBRANCH   2   3
ENDBRANCH   1   2
BRANCH   1  26
HETATM   26  C14 UNL     1      12.999 -22.374 -18.663  1.00  0.00     0.026 C 
BRANCH  26  27
HETATM   27  C15 UNL     1      13.966 -23.265 -17.958  1.00  0.00     0.128 C 
BRANCH  27  28
HETATM   28  N7  UNL     1      15.269 -23.279 -18.555  1.00  0.00    -0.334 N 
HETATM   29  C21 UNL     1      16.409 -22.832 -17.782  1.00  0.00     0.322 C 
HETATM   30  O1  UNL     1      17.495 -22.904 -18.402  1.00  0.00    -0.247 OA
HETATM   31  N9  UNL     1      16.296 -22.371 -16.476  1.00  0.00    -0.320 N 
ATOM     32  H9  UNL     1      15.334 -22.393 -16.137  1.00  0.00     0.169 HD
BRANCH  28  33
HETATM   33  C16 UNL     1      15.466 -23.719 -19.936  1.00  0.00     0.129 C 
BRANCH  33  34
HETATM   34  C17 UNL     1      15.735 -25.178 -19.927  1.00  0.00     0.050 C 
BRANCH  34  35
HETATM   35  C18 UNL     1      16.968 -25.677 -20.569  1.00  0.00     0.273 C 
BRANCH  35  36
HETATM   36  N8  UNL     1      17.857 -26.484 -19.810  1.00  0.00     0.080 N 
HETATM   37  C19 UNL     1      19.122 -25.702 -19.724  1.00  0.00     0.309 C 
HETATM   38  C20 UNL     1      17.416 -26.583 -18.437  1.00  0.00     0.309 C 
ENDBRANCH  35  36
ENDBRANCH  34  35
ENDBRANCH  33  34
ENDBRANCH  28  33
BRANCH  31  39
HETATM   39  C22 UNL     1      17.188 -21.884 -15.521  1.00  0.00     0.096 C 
BRANCH  39  40
HETATM   40  C23 UNL     1      17.929 -22.787 -14.585  1.00  0.00     0.062 C 
HETATM   41  C26 UNL     1      16.987 -23.574 -13.743  1.00  0.00     0.066 C 
HETATM   42  C27 UNL     1      17.606 -23.880 -12.384  1.00  0.00     0.274 C 
HETATM   43  N11 UNL     1      19.057 -23.940 -12.495  1.00  0.00     0.084 N 
HETATM   44  C28 UNL     1      19.587 -24.395 -11.244  1.00  0.00     0.309 C 
HETATM   45  C29 UNL     1      19.572 -22.605 -12.761  1.00  0.00     0.274 C 
HETATM   46  C30 UNL     1      18.629 -21.811 -13.610  1.00  0.00     0.066 C 
BRANCH  40  47
HETATM   47  N10 UNL     1      18.941 -23.547 -15.211  1.00  0.00    -0.408 N 
HETATM   48  C24 UNL     1      19.826 -22.874 -16.063  1.00  0.00     0.143 C 
HETATM   49  C25 UNL     1      18.670 -24.868 -15.620  1.00  0.00     0.143 C 
ENDBRANCH  40  47
ENDBRANCH  39  40
ENDBRANCH  31  39
ENDBRANCH  27  28
ENDBRANCH  26  27
ENDBRANCH   1  26
TORSDOF 13
ENDMDL
MODEL 5
REMARK VINA RESULT: -8.227213085      1.615      2.542
REMARK  13 active torsions:
REMARK  status: ('A' for Active; 'I' for Inactive)
REMARK    1  A    between atoms: C11_20  and  N6_21 
REMARK    2  A    between atoms: N6_21  and  C12_22 
REMARK    3  A    between atoms: C12_22  and  C13_23 
REMARK    4  A    between atoms: C13_23  and  C14_24 
REMARK    5  A    between atoms: C14_24  and  C15_25 
REMARK    6  A    between atoms: C15_25  and  N7_26 
REMARK    7  A    between atoms: N7_26  and  C16_27 
REMARK       I    between atoms: N7_26  and  C21_33 
REMARK    8  A    between atoms: C16_27  and  C17_28 
REMARK    9  A    between atoms: C17_28  and  C18_29 
REMARK   10  A    between atoms: C18_29  and  N8_30 
REMARK       I    between atoms: C21_33  and  N9_35 
REMARK   11  A    between atoms: N9_35  and  C22_37 
REMARK   12  A    between atoms: C22_37  and  C23_38 
REMARK   13  A    between atoms: C23_38  and  N10_39 
ROOT
HETATM    1  C13 UNL     1       6.114 -19.219 -18.896  1.00  0.00     0.061 C 
ENDROOT
BRANCH   1   2
HETATM    2  C12 UNL     1       6.306 -17.714 -18.899  1.00  0.00     0.157 C 
BRANCH   2   3
HETATM    3  N6  UNL     1       6.248 -16.976 -17.806  1.00  0.00    -0.402 NA
BRANCH   3   4
HETATM    4  C11 UNL     1       6.192 -16.314 -16.822  1.00  0.00     0.214 A 
HETATM    5  N5  UNL     1       5.058 -15.649 -16.394  1.00  0.00    -0.100 N 
HETATM    6  C6  UNL     1       5.111 -14.941 -15.256  1.00  0.00     0.694 A 
HETATM    7  C10 UNL     1       3.822 -15.535 -16.899  1.00  0.00     0.173 A 
HETATM    8  N1  UNL     1       6.229 -14.852 -14.515  1.00  0.00    -0.190 N 
HETATM    9  N2  UNL     1       3.876 -14.386 -15.066  1.00  0.00    -0.187 N 
HETATM   10  C5  UNL     1       7.359 -15.482 -14.894  1.00  0.00     0.064 A 
ATOM     11  H1  UNL     1       6.223 -14.301 -13.657  1.00  0.00     0.184 HD
HETATM   12  C4  UNL     1       8.508 -15.376 -14.116  1.00  0.00     0.031 A 
HETATM   13  C31 UNL     1       7.375 -16.214 -16.030  1.00  0.00     0.051 A 
HETATM   14  C3  UNL     1       9.656 -16.025 -14.516  1.00  0.00     0.009 A 
HETATM   15  C2  UNL     1       9.699 -16.778 -15.670  1.00  0.00    -0.061 A 
HETATM   16  C1  UNL     1      10.967 -17.463 -16.045  1.00  0.00     0.048 C 
HETATM   17  C32 UNL     1       8.538 -16.862 -16.422  1.00  0.00     0.025 A 
HETATM   18  C7  UNL     1       3.063 -14.739 -16.068  1.00  0.00     0.097 A 
ATOM     19  H2  UNL     1       3.614 -13.793 -14.278  1.00  0.00     0.184 HD
HETATM   20  C8  UNL     1       1.731 -14.451 -16.365  1.00  0.00     0.052 A 
HETATM   21  C9  UNL     1       1.179 -14.971 -17.505  1.00  0.00     0.109 A 
HETATM   22  N3  UNL     1       1.965 -15.749 -18.292  1.00  0.00    -0.310 N 
HETATM   23  N4  UNL     1       3.220 -16.002 -17.980  1.00  0.00    -0.283 N 
ATOM     24  H3  UNL     1       1.575 -16.148 -19.146  1.00  0.00     0.186 HD
ATOM     25  H4  UNL     1       3.760 -16.594 -18.611  1.00  0.00     0.188 HD
ENDBRANCH   3   4
ENDBRANCH   2   3
ENDBRANCH   1   2
BRANCH   1  26
HETATM   26  C14 UNL     1       7.295 -19.906 -19.507  1.00  0.00     0.026 C 
BRANCH  26  27
HETATM   27  C15 UNL     1       8.622 -19.329 -19.144  1.00  0.00     0.128 C 
BRANCH  27  28
HETATM   28  N7  UNL     1       9.423 -18.982 -20.281  1.00  0.00    -0.334 N 
HETATM   29  C21 UNL     1      10.865 -19.093 -20.194  1.00  0.00     0.322 C 
HETATM   30  O1  UNL     1      11.456 -18.779 -21.253  1.00  0.00    -0.247 OA
HETATM   31  N9  UNL     1      11.517 -19.512 -19.042  1.00  0.00    -0.320 N 
ATOM     32  H9  UNL     1      10.869 -19.733 -18.286  1.00  0.00     0.169 HD
BRANCH  28  33
HETATM   33  C16 UNL     1       8.813 -18.501 -21.521  1.00  0.00     0.129 C 
BRANCH  33  34
HETATM   34  C17 UNL     1       8.533 -17.052 -21.371  1.00  0.00     0.050 C 
BRANCH  34  35
HETATM   35  C18 UNL     1       7.511 -16.434 -22.240  1.00  0.00     0.273 C 
BRANCH  35  36
HETATM   36  N8  UNL     1       7.216 -17.042 -23.490  1.00  0.00     0.080 N 
HETATM   37  C19 UNL     1       5.747 -17.286 -23.471  1.00  0.00     0.309 C 
HETATM   38  C20 UNL     1       7.398 -16.102 -24.573  1.00  0.00     0.309 C 
ENDBRANCH  35  36
ENDBRANCH  34  35
ENDBRANCH  33  34
ENDBRANCH  28  33
BRANCH  31  39
HETATM   39  C22 UNL     1      12.849 -19.701 -18.674  1.00  0.00     0.096 C 
BRANCH  39  40
HETATM   40  C23 UNL     1      13.244 -20.536 -17.497  1.00  0.00     0.062 C 
HETATM   41  C26 UNL     1      12.111 -20.682 -16.541  1.00  0.00     0.066 C 
HETATM   42  C27 UNL     1      12.627 -20.828 -15.114  1.00  0.00     0.274 C 
HETATM   43  N11 UNL     1      13.950 -21.437 -15.118  1.00  0.00     0.084 N 
HETATM   44  C28 UNL     1      14.324 -21.713 -13.762  1.00  0.00     0.309 C 
HETATM   45  C29 UNL     1      14.907 -20.498 -15.683  1.00  0.00     0.274 C 
HETATM   46  C30 UNL     1      14.289 -19.664 -16.761  1.00  0.00     0.066 C 
BRANCH  40  47
HETATM   47  N10 UNL     1      13.883 -21.746 -17.847  1.00  0.00    -0.408 N 
HETATM   48  C24 UNL     1      14.976 -21.674 -18.720  1.00  0.00     0.143 C 
HETATM   49  C25 UNL     1      13.119 -22.919 -18.005  1.00  0.00     0.143 C 
ENDBRANCH  40  47
ENDBRANCH  39  40
ENDBRANCH  31  39
ENDBRANCH  27  28
ENDBRANCH  26  27
ENDBRANCH   1  26
TORSDOF 13
ENDMDL
