MODEL 1
REMARK VINA RESULT: -9.313842302      0.000      0.000
REMARK  15 active torsions:
REMARK  status: ('A' for Active; 'I' for Inactive)
REMARK    1  A    between atoms: C3_3  and  C4_4 
REMARK    2  A    between atoms: C4_4  and  O1_5 
REMARK    3  A    between atoms: O1_5  and  C5_6 
REMARK    4  A    between atoms: C6_7  and  C7_8 
REMARK    5  A    between atoms: C8_9  and  C9_10 
REMARK    6  A    between atoms: N2_17  and  C14_18 
REMARK    7  A    between atoms: C16_20  and  N3_21 
REMARK    8  A    between atoms: C17_23  and  C18_24 
REMARK    9  A    between atoms: C18_24  and  O2_25 
REMARK   10  A    between atoms: C21_34  and  C22_35 
REMARK   11  A    between atoms: C27_40  and  C28_41 
REMARK       I    between atoms: C28_41  and  N7_43 
REMARK   12  A    between atoms: N7_43  and  C29_45 
REMARK   13  A    between atoms: C29_45  and  C30_46 
REMARK   14  A    between atoms: C30_46  and  C31_47 
REMARK   15  A    between atoms: C31_47  and  N8_48 
ROOT
HETATM    1  C1  UNL     1      -8.564  20.366 -20.570  1.00  0.00     0.112 C 
HETATM    2  C2  UNL     1      -9.793  20.848 -19.909  1.00  0.00    -0.109 C 
HETATM    3  C3  UNL     1     -10.788  21.263 -19.380  1.00  0.00    -0.080 C 
ENDROOT
BRANCH   3   4
HETATM    4  C4  UNL     1     -12.019  21.790 -18.760  1.00  0.00     0.269 C 
BRANCH   4   5
HETATM    5  O1  UNL     1     -13.048  20.856 -18.792  1.00  0.00    -0.334 OA
BRANCH   5   6
HETATM    6  C5  UNL     1     -13.870  20.607 -17.724  1.00  0.00     0.133 A 
HETATM    7  C6  UNL     1     -13.426  19.607 -16.812  1.00  0.00     0.124 A 
HETATM    8  N5  UNL     1     -14.174  19.324 -15.748  1.00  0.00    -0.343 N 
HETATM    9  C20 UNL     1     -15.331  19.963 -15.528  1.00  0.00     0.182 A 
ATOM     10  H5  UNL     1     -13.861  18.609 -15.090  1.00  0.00     0.167 HD
HETATM   11  N6  UNL     1     -15.742  20.897 -16.384  1.00  0.00    -0.349 N 
HETATM   12  C21 UNL     1     -15.034  21.259 -17.516  1.00  0.00     0.080 A 
ATOM     13  H6  UNL     1     -16.626  21.370 -16.195  1.00  0.00     0.166 HD
BRANCH   7  14
HETATM   14  C7  UNL     1     -12.173  18.916 -17.073  1.00  0.00    -0.039 C 
HETATM   15  C8  UNL     1     -11.153  18.316 -17.306  1.00  0.00    -0.042 C 
BRANCH  15  16
HETATM   16  C9  UNL     1      -9.949  17.574 -17.618  1.00  0.00     0.090 A 
HETATM   17  C10 UNL     1      -9.244  17.078 -16.530  1.00  0.00     0.071 A 
HETATM   18  C11 UNL     1      -8.091  16.372 -16.747  1.00  0.00     0.069 A 
HETATM   19  C12 UNL     1      -7.675  16.181 -18.022  1.00  0.00     0.105 A 
HETATM   20  N2  UNL     1      -7.216  15.781 -15.877  1.00  0.00    -0.341 N 
HETATM   21  N1  UNL     1      -6.527  15.462 -17.952  1.00  0.00    -0.347 N 
HETATM   22  C16 UNL     1      -8.364  16.669 -19.156  1.00  0.00     0.135 A 
HETATM   23  C13 UNL     1      -6.270  15.233 -16.646  1.00  0.00     0.184 A 
ATOM     24  H1  UNL     1      -5.962  15.151 -18.742  1.00  0.00     0.167 HD
HETATM   25  N4  UNL     1      -9.507  17.365 -18.854  1.00  0.00    -0.333 N 
ATOM     26  H4  UNL     1     -10.053  17.745 -19.627  1.00  0.00     0.168 HD
BRANCH  22  27
HETATM   27  N3  UNL     1      -7.950  16.470 -20.284  1.00  0.00    -0.352 N 
HETATM   28  C17 UNL     1      -7.717  15.724 -21.380  1.00  0.00     0.088 C 
ATOM     29  H3  UNL     1      -7.563  17.378 -20.544  1.00  0.00     0.166 HD
BRANCH  28  30
HETATM   30  C18 UNL     1      -7.468  16.524 -22.666  1.00  0.00     0.211 C 
BRANCH  30  31
HETATM   31  O2  UNL     1      -7.000  15.660 -23.646  1.00  0.00    -0.391 OA
HETATM   32  C19 UNL     1      -7.587  15.951 -24.871  1.00  0.00     0.201 C 
ENDBRANCH  30  31
ENDBRANCH  28  30
ENDBRANCH  22  27
BRANCH  20  33
HETATM   33  C14 UNL     1      -7.354  15.786 -14.445  1.00  0.00     0.125 C 
HETATM   34  C15 UNL     1      -8.684  15.174 -14.057  1.00  0.00     0.027 C 
ENDBRANCH  20  33
ENDBRANCH  15  16
ENDBRANCH   7  14
BRANCH  12  35
HETATM   35  C22 UNL     1     -15.527  22.349 -18.318  1.00  0.00    -0.005 A 
HETATM   36  C23 UNL     1     -15.045  22.414 -19.642  1.00  0.00     0.020 A 
HETATM   37  C24 UNL     1     -15.380  23.408 -20.522  1.00  0.00    -0.060 A 
HETATM   38  C25 UNL     1     -14.818  23.405 -21.933  1.00  0.00     0.048 C 
HETATM   39  C26 UNL     1     -16.228  24.410 -20.123  1.00  0.00     0.024 A 
HETATM   40  C27 UNL     1     -16.733  24.404 -18.846  1.00  0.00     0.033 A 
HETATM   41  C34 UNL     1     -16.361  23.364 -17.982  1.00  0.00     0.030 A 
BRANCH  40  42
HETATM   42  C28 UNL     1     -17.653  25.423 -18.374  1.00  0.00     0.251 C 
HETATM   43  O3  UNL     1     -18.606  25.788 -19.124  1.00  0.00    -0.268 OA
HETATM   44  N7  UNL     1     -17.490  26.007 -17.078  1.00  0.00    -0.357 N 
ATOM     45  H7  UNL     1     -16.714  25.698 -16.494  1.00  0.00     0.162 HD
BRANCH  44  46
HETATM   46  C29 UNL     1     -18.382  27.011 -16.574  1.00  0.00     0.124 C 
BRANCH  46  47
HETATM   47  C30 UNL     1     -19.438  26.383 -15.700  1.00  0.00     0.050 C 
BRANCH  47  48
HETATM   48  C31 UNL     1     -18.780  25.742 -14.516  1.00  0.00     0.273 C 
BRANCH  48  49
HETATM   49  N8  UNL     1     -19.102  24.307 -14.455  1.00  0.00     0.080 N 
HETATM   50  C32 UNL     1     -19.747  24.048 -13.162  1.00  0.00     0.309 C 
HETATM   51  C33 UNL     1     -17.839  23.563 -14.424  1.00  0.00     0.309 C 
ENDBRANCH  48  49
ENDBRANCH  47  48
ENDBRANCH  46  47
ENDBRANCH  44  46
ENDBRANCH  40  42
ENDBRANCH  12  35
ENDBRANCH   5   6
ENDBRANCH   4   5
ENDBRANCH   3   4
TORSDOF 15
ENDMDL
MODEL 2
REMARK VINA RESULT: -9.141702212      2.531     12.125
REMARK  15 active torsions:
REMARK  status: ('A' for Active; 'I' for Inactive)
REMARK    1  A    between atoms: C3_3  and  C4_4 
REMARK    2  A    between atoms: C4_4  and  O1_5 
REMARK    3  A    between atoms: O1_5  and  C5_6 
REMARK    4  A    between atoms: C6_7  and  C7_8 
REMARK    5  A    between atoms: C8_9  and  C9_10 
REMARK    6  A    between atoms: N2_17  and  C14_18 
REMARK    7  A    between atoms: C16_20  and  N3_21 
REMARK    8  A    between atoms: C17_23  and  C18_24 
REMARK    9  A    between atoms: C18_24  and  O2_25 
REMARK   10  A    between atoms: C21_34  and  C22_35 
REMARK   11  A    between atoms: C27_40  and  C28_41 
REMARK       I    between atoms: C28_41  and  N7_43 
REMARK   12  A    between atoms: N7_43  and  C29_45 
REMARK   13  A    between atoms: C29_45  and  C30_46 
REMARK   14  A    between atoms: C30_46  and  C31_47 
REMARK   15  A    between atoms: C31_47  and  N8_48 
ROOT
HETATM    1  C1  UNL     1     -15.277  21.303 -13.588  1.00  0.00     0.112 C 
HETATM    2  C2  UNL     1     -14.160  20.912 -14.469  1.00  0.00    -0.109 C 
HETATM    3  C3  UNL     1     -13.246  20.618 -15.192  1.00  0.00    -0.080 C 
ENDROOT
BRANCH   3   4
HETATM    4  C4  UNL     1     -12.107  20.283 -16.068  1.00  0.00     0.269 C 
BRANCH   4   5
HETATM    5  O1  UNL     1     -12.395  19.199 -16.889  1.00  0.00    -0.334 OA
BRANCH   5   6
HETATM    6  C5  UNL     1     -11.841  19.029 -18.131  1.00  0.00     0.133 A 
HETATM    7  C6  UNL     1     -12.456  19.749 -19.195  1.00  0.00     0.124 A 
HETATM    8  N5  UNL     1     -11.960  19.636 -20.426  1.00  0.00    -0.343 N 
HETATM    9  C20 UNL     1     -10.896  18.857 -20.671  1.00  0.00     0.182 A 
ATOM     10  H5  UNL     1     -12.395  20.148 -21.192  1.00  0.00     0.167 HD
HETATM   11  N6  UNL     1     -10.325  18.186 -19.673  1.00  0.00    -0.349 N 
HETATM   12  C21 UNL     1     -10.770  18.241 -18.364  1.00  0.00     0.080 A 
ATOM     13  H6  UNL     1      -9.517  17.601 -19.885  1.00  0.00     0.166 HD
BRANCH   7  14
HETATM   14  C7  UNL     1     -13.616  20.580 -18.912  1.00  0.00    -0.039 C 
HETATM   15  C8  UNL     1     -14.557  21.289 -18.654  1.00  0.00    -0.042 C 
BRANCH  15  16
HETATM   16  C9  UNL     1     -15.659  22.172 -18.332  1.00  0.00     0.090 A 
HETATM   17  C10 UNL     1     -16.036  23.059 -19.332  1.00  0.00     0.071 A 
HETATM   18  C11 UNL     1     -17.067  23.930 -19.099  1.00  0.00     0.069 A 
HETATM   19  C12 UNL     1     -17.686  23.897 -17.894  1.00  0.00     0.105 A 
HETATM   20  N2  UNL     1     -17.634  24.890 -19.889  1.00  0.00    -0.341 N 
HETATM   21  N1  UNL     1     -18.653  24.846 -17.929  1.00  0.00    -0.347 N 
HETATM   22  C16 UNL     1     -17.332  23.009 -16.852  1.00  0.00     0.135 A 
HETATM   23  C13 UNL     1     -18.603  25.434 -19.144  1.00  0.00     0.184 A 
ATOM     24  H1  UNL     1     -19.301  25.075 -17.175  1.00  0.00     0.167 HD
HETATM   25  N4  UNL     1     -16.293  22.171 -17.164  1.00  0.00    -0.333 N 
ATOM     26  H4  UNL     1     -15.987  21.505 -16.455  1.00  0.00     0.168 HD
BRANCH  22  27
HETATM   27  N3  UNL     1     -17.921  23.017 -15.785  1.00  0.00    -0.352 N 
HETATM   28  C17 UNL     1     -18.118  23.393 -14.508  1.00  0.00     0.088 C 
ATOM     29  H3  UNL     1     -18.702  22.383 -15.956  1.00  0.00     0.166 HD
BRANCH  28  30
HETATM   30  C18 UNL     1     -19.548  23.189 -13.988  1.00  0.00     0.211 C 
BRANCH  30  31
HETATM   31  O2  UNL     1     -20.082  22.053 -14.579  1.00  0.00    -0.391 OA
HETATM   32  C19 UNL     1     -20.536  21.168 -13.609  1.00  0.00     0.201 C 
ENDBRANCH  30  31
ENDBRANCH  28  30
ENDBRANCH  22  27
BRANCH  20  33
HETATM   33  C14 UNL     1     -17.224  25.193 -21.235  1.00  0.00     0.125 C 
HETATM   34  C15 UNL     1     -17.603  26.619 -21.576  1.00  0.00     0.027 C 
ENDBRANCH  20  33
ENDBRANCH  15  16
ENDBRANCH   7  14
BRANCH  12  35
HETATM   35  C22 UNL     1     -10.015  17.549 -17.351  1.00  0.00    -0.005 A 
HETATM   36  C23 UNL     1     -10.658  17.375 -16.107  1.00  0.00     0.020 A 
HETATM   37  C24 UNL     1     -10.067  16.779 -15.026  1.00  0.00    -0.060 A 
HETATM   38  C25 UNL     1     -10.829  16.629 -13.721  1.00  0.00     0.048 C 
HETATM   39  C26 UNL     1      -8.780  16.313 -15.126  1.00  0.00     0.024 A 
HETATM   40  C27 UNL     1      -8.099  16.452 -16.311  1.00  0.00     0.033 A 
HETATM   41  C34 UNL     1      -8.747  17.070 -17.390  1.00  0.00     0.030 A 
BRANCH  40  42
HETATM   42  C28 UNL     1      -6.745  15.958 -16.486  1.00  0.00     0.251 C 
HETATM   43  O3  UNL     1      -6.564  14.730 -16.736  1.00  0.00    -0.268 OA
HETATM   44  N7  UNL     1      -5.628  16.846 -16.380  1.00  0.00    -0.357 N 
ATOM     45  H7  UNL     1      -5.799  17.830 -16.175  1.00  0.00     0.162 HD
BRANCH  44  46
HETATM   46  C29 UNL     1      -4.276  16.398 -16.552  1.00  0.00     0.124 C 
BRANCH  46  47
HETATM   47  C30 UNL     1      -3.760  16.801 -17.911  1.00  0.00     0.050 C 
BRANCH  47  48
HETATM   48  C31 UNL     1      -4.028  18.259 -18.127  1.00  0.00     0.273 C 
BRANCH  48  49
HETATM   49  N8  UNL     1      -4.715  18.478 -19.409  1.00  0.00     0.080 N 
HETATM   50  C32 UNL     1      -5.989  19.149 -19.126  1.00  0.00     0.309 C 
HETATM   51  C33 UNL     1      -5.072  17.166 -19.959  1.00  0.00     0.309 C 
ENDBRANCH  48  49
ENDBRANCH  47  48
ENDBRANCH  46  47
ENDBRANCH  44  46
ENDBRANCH  40  42
ENDBRANCH  12  35
ENDBRANCH   5   6
ENDBRANCH   4   5
ENDBRANCH   3   4
TORSDOF 15
ENDMDL
MODEL 3
REMARK VINA RESULT: -9.048467780      2.707      5.509
REMARK  15 active torsions:
REMARK  status: ('A' for Active; 'I' for Inactive)
REMARK    1  A    between atoms: C3_3  and  C4_4 
REMARK    2  A    between atoms: C4_4  and  O1_5 
REMARK    3  A    between atoms: O1_5  and  C5_6 
REMARK    4  A    between atoms: C6_7  and  C7_8 
REMARK    5  A    between atoms: C8_9  and  C9_10 
REMARK    6  A    between atoms: N2_17  and  C14_18 
REMARK    7  A    between atoms: C16_20  and  N3_21 
REMARK    8  A    between atoms: C17_23  and  C18_24 
REMARK    9  A    between atoms: C18_24  and  O2_25 
REMARK   10  A    between atoms: C21_34  and  C22_35 
REMARK   11  A    between atoms: C27_40  and  C28_41 
REMARK       I    between atoms: C28_41  and  N7_43 
REMARK   12  A    between atoms: N7_43  and  C29_45 
REMARK   13  A    between atoms: C29_45  and  C30_46 
REMARK   14  A    between atoms: C30_46  and  C31_47 
REMARK   15  A    between atoms: C31_47  and  N8_48 
ROOT
HETATM    1  C1  UNL     1     -14.490  21.470 -13.213  1.00  0.00     0.112 C 
HETATM    2  C2  UNL     1     -14.906  21.666 -14.616  1.00  0.00    -0.109 C 
HETATM    3  C3  UNL     1     -15.228  21.806 -15.765  1.00  0.00    -0.080 C 
ENDROOT
BRANCH   3   4
HETATM    4  C4  UNL     1     -15.628  21.944 -17.178  1.00  0.00     0.269 C 
BRANCH   4   5
HETATM    5  O1  UNL     1     -15.169  23.136 -17.725  1.00  0.00    -0.334 OA
BRANCH   5   6
HETATM    6  C5  UNL     1     -15.373  23.491 -19.033  1.00  0.00     0.133 A 
HETATM    7  C6  UNL     1     -14.479  22.919 -19.983  1.00  0.00     0.124 A 
HETATM    8  N5  UNL     1     -14.629  23.215 -21.273  1.00  0.00    -0.343 N 
HETATM    9  C20 UNL     1     -15.603  24.040 -21.682  1.00  0.00     0.182 A 
ATOM     10  H5  UNL     1     -13.992  22.809 -21.959  1.00  0.00     0.167 HD
HETATM   11  N6  UNL     1     -16.436  24.572 -20.790  1.00  0.00    -0.349 N 
HETATM   12  C21 UNL     1     -16.358  24.323 -19.431  1.00  0.00     0.080 A 
ATOM     13  H6  UNL     1     -17.170  25.195 -21.126  1.00  0.00     0.166 HD
BRANCH   7  14
HETATM   14  C7  UNL     1     -13.420  22.036 -19.519  1.00  0.00    -0.039 C 
HETATM   15  C8  UNL     1     -12.558  21.304 -19.101  1.00  0.00    -0.042 C 
BRANCH  15  16
HETATM   16  C9  UNL     1     -11.549  20.413 -18.566  1.00  0.00     0.090 A 
HETATM   17  C10 UNL     1     -10.372  20.323 -19.296  1.00  0.00     0.071 A 
HETATM   18  C11 UNL     1      -9.374  19.495 -18.856  1.00  0.00     0.069 A 
HETATM   19  C12 UNL     1      -9.570  18.789 -17.717  1.00  0.00     0.105 A 
HETATM   20  N2  UNL     1      -8.137  19.219 -19.369  1.00  0.00    -0.341 N 
HETATM   21  N1  UNL     1      -8.444  18.062 -17.512  1.00  0.00    -0.347 N 
HETATM   22  C16 UNL     1     -10.753  18.854 -16.945  1.00  0.00     0.135 A 
HETATM   23  C13 UNL     1      -7.592  18.339 -18.522  1.00  0.00     0.184 A 
ATOM     24  H1  UNL     1      -8.272  17.424 -16.735  1.00  0.00     0.167 HD
HETATM   25  N4  UNL     1     -11.702  19.704 -17.452  1.00  0.00    -0.333 N 
ATOM     26  H4  UNL     1     -12.581  19.798 -16.943  1.00  0.00     0.168 HD
BRANCH  22  27
HETATM   27  N3  UNL     1     -10.882  18.199 -15.925  1.00  0.00    -0.352 N 
HETATM   28  C17 UNL     1     -11.548  17.407 -15.065  1.00  0.00     0.088 C 
ATOM     29  H3  UNL     1      -9.978  18.319 -15.466  1.00  0.00     0.166 HD
BRANCH  28  30
HETATM   30  C18 UNL     1     -10.661  16.626 -14.086  1.00  0.00     0.211 C 
BRANCH  30  31
HETATM   31  O2  UNL     1      -9.395  16.491 -14.639  1.00  0.00    -0.391 OA
HETATM   32  C19 UNL     1      -9.104  15.152 -14.867  1.00  0.00     0.201 C 
ENDBRANCH  30  31
ENDBRANCH  28  30
ENDBRANCH  22  27
BRANCH  20  33
HETATM   33  C14 UNL     1      -7.599  19.799 -20.571  1.00  0.00     0.125 C 
HETATM   34  C15 UNL     1      -6.128  19.457 -20.690  1.00  0.00     0.027 C 
ENDBRANCH  20  33
ENDBRANCH  15  16
ENDBRANCH   7  14
BRANCH  12  35
HETATM   35  C22 UNL     1     -17.372  24.877 -18.571  1.00  0.00    -0.005 A 
HETATM   36  C23 UNL     1     -18.041  26.021 -19.056  1.00  0.00     0.020 A 
HETATM   37  C24 UNL     1     -18.998  26.696 -18.347  1.00  0.00    -0.060 A 
HETATM   38  C25 UNL     1     -19.673  27.919 -18.942  1.00  0.00     0.048 C 
HETATM   39  C26 UNL     1     -19.348  26.260 -17.094  1.00  0.00     0.024 A 
HETATM   40  C27 UNL     1     -18.734  25.152 -16.564  1.00  0.00     0.033 A 
HETATM   41  C34 UNL     1     -17.759  24.495 -17.329  1.00  0.00     0.030 A 
BRANCH  40  42
HETATM   42  C28 UNL     1     -19.078  24.630 -15.254  1.00  0.00     0.251 C 
HETATM   43  O3  UNL     1     -19.737  23.550 -15.175  1.00  0.00    -0.268 OA
HETATM   44  N7  UNL     1     -18.678  25.320 -14.067  1.00  0.00    -0.357 N 
ATOM     45  H7  UNL     1     -18.151  26.188 -14.157  1.00  0.00     0.162 HD
BRANCH  44  46
HETATM   46  C29 UNL     1     -18.994  24.833 -12.755  1.00  0.00     0.124 C 
BRANCH  46  47
HETATM   47  C30 UNL     1     -18.012  25.374 -11.746  1.00  0.00     0.050 C 
BRANCH  47  48
HETATM   48  C31 UNL     1     -16.729  25.712 -12.440  1.00  0.00     0.273 C 
BRANCH  48  49
HETATM   49  N8  UNL     1     -16.282  27.067 -12.080  1.00  0.00     0.080 N 
HETATM   50  C32 UNL     1     -14.845  27.003 -11.791  1.00  0.00     0.309 C 
HETATM   51  C33 UNL     1     -16.925  27.430 -10.812  1.00  0.00     0.309 C 
ENDBRANCH  48  49
ENDBRANCH  47  48
ENDBRANCH  46  47
ENDBRANCH  44  46
ENDBRANCH  40  42
ENDBRANCH  12  35
ENDBRANCH   5   6
ENDBRANCH   4   5
ENDBRANCH   3   4
TORSDOF 15
ENDMDL
MODEL 4
REMARK VINA RESULT: -9.046423554      2.521      4.611
REMARK  15 active torsions:
REMARK  status: ('A' for Active; 'I' for Inactive)
REMARK    1  A    between atoms: C3_3  and  C4_4 
REMARK    2  A    between atoms: C4_4  and  O1_5 
REMARK    3  A    between atoms: O1_5  and  C5_6 
REMARK    4  A    between atoms: C6_7  and  C7_8 
REMARK    5  A    between atoms: C8_9  and  C9_10 
REMARK    6  A    between atoms: N2_17  and  C14_18 
REMARK    7  A    between atoms: C16_20  and  N3_21 
REMARK    8  A    between atoms: C17_23  and  C18_24 
REMARK    9  A    between atoms: C18_24  and  O2_25 
REMARK   10  A    between atoms: C21_34  and  C22_35 
REMARK   11  A    between atoms: C27_40  and  C28_41 
REMARK       I    between atoms: C28_41  and  N7_43 
REMARK   12  A    between atoms: N7_43  and  C29_45 
REMARK   13  A    between atoms: C29_45  and  C30_46 
REMARK   14  A    between atoms: C30_46  and  C31_47 
REMARK   15  A    between atoms: C31_47  and  N8_48 
ROOT
HETATM    1  C1  UNL     1     -13.456  24.371 -21.774  1.00  0.00     0.112 C 
HETATM    2  C2  UNL     1     -14.121  23.540 -20.752  1.00  0.00    -0.109 C 
HETATM    3  C3  UNL     1     -14.640  22.854 -19.913  1.00  0.00    -0.080 C 
ENDROOT
BRANCH   3   4
HETATM    4  C4  UNL     1     -15.253  22.019 -18.861  1.00  0.00     0.269 C 
BRANCH   4   5
HETATM    5  O1  UNL     1     -15.411  22.727 -17.676  1.00  0.00    -0.334 OA
BRANCH   5   6
HETATM    6  C5  UNL     1     -16.342  22.400 -16.724  1.00  0.00     0.133 A 
HETATM    7  C6  UNL     1     -16.022  21.291 -15.890  1.00  0.00     0.124 A 
HETATM    8  N5  UNL     1     -16.879  20.927 -14.939  1.00  0.00    -0.343 N 
HETATM    9  C20 UNL     1     -18.032  21.588 -14.760  1.00  0.00     0.182 A 
ATOM     10  H5  UNL     1     -16.655  20.133 -14.338  1.00  0.00     0.167 HD
HETATM   11  N6  UNL     1     -18.326  22.624 -15.542  1.00  0.00    -0.349 N 
HETATM   12  C21 UNL     1     -17.499  23.075 -16.555  1.00  0.00     0.080 A 
ATOM     13  H6  UNL     1     -19.209  23.111 -15.386  1.00  0.00     0.166 HD
BRANCH   7  14
HETATM   14  C7  UNL     1     -14.772  20.578 -16.107  1.00  0.00    -0.039 C 
HETATM   15  C8  UNL     1     -13.734  20.002 -16.320  1.00  0.00    -0.042 C 
BRANCH  15  16
HETATM   16  C9  UNL     1     -12.478  19.340 -16.607  1.00  0.00     0.090 A 
HETATM   17  C10 UNL     1     -11.881  19.672 -17.815  1.00  0.00     0.071 A 
HETATM   18  C11 UNL     1     -10.694  19.081 -18.159  1.00  0.00     0.069 A 
HETATM   19  C12 UNL     1     -10.140  18.189 -17.303  1.00  0.00     0.105 A 
HETATM   20  N2  UNL     1      -9.903  19.220 -19.265  1.00  0.00    -0.341 N 
HETATM   21  N1  UNL     1      -8.989  17.763 -17.878  1.00  0.00    -0.347 N 
HETATM   22  C16 UNL     1     -10.716  17.825 -16.064  1.00  0.00     0.135 A 
HETATM   23  C13 UNL     1      -8.866  18.400 -19.063  1.00  0.00     0.184 A 
ATOM     24  H1  UNL     1      -8.334  17.085 -17.487  1.00  0.00     0.167 HD
HETATM   25  N4  UNL     1     -11.901  18.460 -15.795  1.00  0.00    -0.333 N 
ATOM     26  H4  UNL     1     -12.371  18.243 -14.915  1.00  0.00     0.168 HD
BRANCH  22  27
HETATM   27  N3  UNL     1     -10.179  17.018 -15.327  1.00  0.00    -0.352 N 
HETATM   28  C17 UNL     1     -10.160  16.027 -14.417  1.00  0.00     0.088 C 
ATOM     29  H3  UNL     1      -9.186  17.189 -15.493  1.00  0.00     0.166 HD
BRANCH  28  30
HETATM   30  C18 UNL     1      -8.846  15.236 -14.349  1.00  0.00     0.211 C 
BRANCH  30  31
HETATM   31  O2  UNL     1      -8.708  14.497 -15.515  1.00  0.00    -0.391 OA
HETATM   32  C19 UNL     1      -7.544  14.856 -16.184  1.00  0.00     0.201 C 
ENDBRANCH  30  31
ENDBRANCH  28  30
ENDBRANCH  22  27
BRANCH  20  33
HETATM   33  C14 UNL     1     -10.188  20.091 -20.374  1.00  0.00     0.125 C 
HETATM   34  C15 UNL     1      -9.225  21.259 -20.368  1.00  0.00     0.027 C 
ENDBRANCH  20  33
ENDBRANCH  15  16
ENDBRANCH   7  14
BRANCH  12  35
HETATM   35  C22 UNL     1     -17.876  24.264 -17.275  1.00  0.00    -0.005 A 
HETATM   36  C23 UNL     1     -17.587  24.272 -18.656  1.00  0.00     0.020 A 
HETATM   37  C24 UNL     1     -17.840  25.340 -19.476  1.00  0.00    -0.060 A 
HETATM   38  C25 UNL     1     -17.500  25.268 -20.954  1.00  0.00     0.048 C 
HETATM   39  C26 UNL     1     -18.406  26.476 -18.956  1.00  0.00     0.024 A 
HETATM   40  C27 UNL     1     -18.712  26.531 -17.618  1.00  0.00     0.033 A 
HETATM   41  C34 UNL     1     -18.434  25.413 -16.819  1.00  0.00     0.030 A 
BRANCH  40  42
HETATM   42  C28 UNL     1     -19.333  27.697 -17.015  1.00  0.00     0.251 C 
HETATM   43  O3  UNL     1     -20.569  27.903 -17.203  1.00  0.00    -0.268 OA
HETATM   44  N7  UNL     1     -18.564  28.599 -16.215  1.00  0.00    -0.357 N 
ATOM     45  H7  UNL     1     -17.570  28.413 -16.080  1.00  0.00     0.162 HD
BRANCH  44  46
HETATM   46  C29 UNL     1     -19.142  29.758 -15.597  1.00  0.00     0.124 C 
BRANCH  46  47
HETATM   47  C30 UNL     1     -19.502  29.461 -14.163  1.00  0.00     0.050 C 
BRANCH  47  48
HETATM   48  C31 UNL     1     -18.520  28.479 -13.602  1.00  0.00     0.273 C 
BRANCH  48  49
HETATM   49  N8  UNL     1     -19.214  27.411 -12.866  1.00  0.00     0.080 N 
HETATM   50  C32 UNL     1     -18.541  26.144 -13.175  1.00  0.00     0.309 C 
HETATM   51  C33 UNL     1     -20.566  27.286 -13.421  1.00  0.00     0.309 C 
ENDBRANCH  48  49
ENDBRANCH  47  48
ENDBRANCH  46  47
ENDBRANCH  44  46
ENDBRANCH  40  42
ENDBRANCH  12  35
ENDBRANCH   5   6
ENDBRANCH   4   5
ENDBRANCH   3   4
TORSDOF 15
ENDMDL
MODEL 5
REMARK VINA RESULT: -9.033172374      2.715     11.826
REMARK  15 active torsions:
REMARK  status: ('A' for Active; 'I' for Inactive)
REMARK    1  A    between atoms: C3_3  and  C4_4 
REMARK    2  A    between atoms: C4_4  and  O1_5 
REMARK    3  A    between atoms: O1_5  and  C5_6 
REMARK    4  A    between atoms: C6_7  and  C7_8 
REMARK    5  A    between atoms: C8_9  and  C9_10 
REMARK    6  A    between atoms: N2_17  and  C14_18 
REMARK    7  A    between atoms: C16_20  and  N3_21 
REMARK    8  A    between atoms: C17_23  and  C18_24 
REMARK    9  A    between atoms: C18_24  and  O2_25 
REMARK   10  A    between atoms: C21_34  and  C22_35 
REMARK   11  A    between atoms: C27_40  and  C28_41 
REMARK       I    between atoms: C28_41  and  N7_43 
REMARK   12  A    between atoms: N7_43  and  C29_45 
REMARK   13  A    between atoms: C29_45  and  C30_46 
REMARK   14  A    between atoms: C30_46  and  C31_47 
REMARK   15  A    between atoms: C31_47  and  N8_48 
ROOT
HETATM    1  C1  UNL     1      -8.905  15.656 -15.638  1.00  0.00     0.112 C 
HETATM    2  C2  UNL     1      -9.474  16.910 -16.171  1.00  0.00    -0.109 C 
HETATM    3  C3  UNL     1      -9.930  17.942 -16.583  1.00  0.00    -0.080 C 
ENDROOT
BRANCH   3   4
HETATM    4  C4  UNL     1     -10.463  19.226 -17.078  1.00  0.00     0.269 C 
BRANCH   4   5
HETATM    5  O1  UNL     1     -10.666  19.198 -18.453  1.00  0.00    -0.334 OA
BRANCH   5   6
HETATM    6  C5  UNL     1      -9.994  20.012 -19.328  1.00  0.00     0.133 A 
HETATM    7  C6  UNL     1     -10.604  21.268 -19.608  1.00  0.00     0.124 A 
HETATM    8  N5  UNL     1      -9.998  22.110 -20.443  1.00  0.00    -0.343 N 
HETATM    9  C20 UNL     1      -8.830  21.790 -21.018  1.00  0.00     0.182 A 
ATOM     10  H5  UNL     1     -10.429  23.012 -20.647  1.00  0.00     0.167 HD
HETATM   11  N6  UNL     1      -8.264  20.614 -20.753  1.00  0.00    -0.349 N 
HETATM   12  C21 UNL     1      -8.819  19.675 -19.900  1.00  0.00     0.080 A 
ATOM     13  H6  UNL     1      -7.376  20.393 -21.203  1.00  0.00     0.166 HD
BRANCH   7  14
HETATM   14  C7  UNL     1     -11.876  21.594 -18.983  1.00  0.00    -0.039 C 
HETATM   15  C8  UNL     1     -12.947  21.837 -18.485  1.00  0.00    -0.042 C 
BRANCH  15  16
HETATM   16  C9  UNL     1     -14.247  22.089 -17.897  1.00  0.00     0.090 A 
HETATM   17  C10 UNL     1     -14.485  21.484 -16.671  1.00  0.00     0.071 A 
HETATM   18  C11 UNL     1     -15.695  21.671 -16.057  1.00  0.00     0.069 A 
HETATM   19  C12 UNL     1     -16.623  22.444 -16.670  1.00  0.00     0.105 A 
HETATM   20  N2  UNL     1     -16.188  21.203 -14.870  1.00  0.00    -0.341 N 
HETATM   21  N1  UNL     1     -17.709  22.463 -15.860  1.00  0.00    -0.347 N 
HETATM   22  C16 UNL     1     -16.419  23.078 -17.918  1.00  0.00     0.135 A 
HETATM   23  C13 UNL     1     -17.423  21.706 -14.778  1.00  0.00     0.184 A 
ATOM     24  H1  UNL     1     -18.584  22.959 -16.035  1.00  0.00     0.167 HD
HETATM   25  N4  UNL     1     -15.184  22.842 -18.466  1.00  0.00    -0.333 N 
ATOM     26  H4  UNL     1     -14.971  23.270 -19.367  1.00  0.00     0.168 HD
BRANCH  22  27
HETATM   27  N3  UNL     1     -17.284  23.766 -18.429  1.00  0.00    -0.352 N 
HETATM   28  C17 UNL     1     -18.358  24.578 -18.416  1.00  0.00     0.088 C 
ATOM     29  H3  UNL     1     -17.082  23.677 -19.425  1.00  0.00     0.166 HD
BRANCH  28  30
HETATM   30  C18 UNL     1     -18.557  25.408 -19.691  1.00  0.00     0.211 C 
BRANCH  30  31
HETATM   31  O2  UNL     1     -18.045  24.700 -20.770  1.00  0.00    -0.391 OA
HETATM   32  C19 UNL     1     -17.030  25.420 -21.387  1.00  0.00     0.201 C 
ENDBRANCH  30  31
ENDBRANCH  28  30
ENDBRANCH  22  27
BRANCH  20  33
HETATM   33  C14 UNL     1     -15.466  20.354 -13.960  1.00  0.00     0.125 C 
HETATM   34  C15 UNL     1     -14.647  21.203 -13.009  1.00  0.00     0.027 C 
ENDBRANCH  20  33
ENDBRANCH  15  16
ENDBRANCH   7  14
BRANCH  12  35
HETATM   35  C22 UNL     1      -8.071  18.478 -19.614  1.00  0.00    -0.005 A 
HETATM   36  C23 UNL     1      -8.386  17.347 -20.397  1.00  0.00     0.020 A 
HETATM   37  C24 UNL     1      -7.801  16.121 -20.226  1.00  0.00    -0.060 A 
HETATM   38  C25 UNL     1      -8.194  14.953 -21.112  1.00  0.00     0.048 C 
HETATM   39  C26 UNL     1      -6.852  15.952 -19.248  1.00  0.00     0.024 A 
HETATM   40  C27 UNL     1      -6.501  17.014 -18.453  1.00  0.00     0.033 A 
HETATM   41  C34 UNL     1      -7.128  18.250 -18.666  1.00  0.00     0.030 A 
BRANCH  40  42
HETATM   42  C28 UNL     1      -5.488  16.903 -17.418  1.00  0.00     0.251 C 
HETATM   43  O3  UNL     1      -4.594  17.796 -17.334  1.00  0.00    -0.268 OA
HETATM   44  N7  UNL     1      -5.500  15.804 -16.503  1.00  0.00    -0.357 N 
ATOM     45  H7  UNL     1      -6.229  15.097 -16.593  1.00  0.00     0.162 HD
BRANCH  44  46
HETATM   46  C29 UNL     1      -4.520  15.662 -15.465  1.00  0.00     0.124 C 
BRANCH  46  47
HETATM   47  C30 UNL     1      -3.273  15.010 -16.007  1.00  0.00     0.050 C 
BRANCH  47  48
HETATM   48  C31 UNL     1      -2.087  15.496 -15.231  1.00  0.00     0.273 C 
BRANCH  48  49
HETATM   49  N8  UNL     1      -1.245  16.372 -16.062  1.00  0.00     0.080 N 
HETATM   50  C32 UNL     1      -0.834  15.607 -17.245  1.00  0.00     0.309 C 
HETATM   51  C33 UNL     1      -0.011  16.647 -15.319  1.00  0.00     0.309 C 
ENDBRANCH  48  49
ENDBRANCH  47  48
ENDBRANCH  46  47
ENDBRANCH  44  46
ENDBRANCH  40  42
ENDBRANCH  12  35
ENDBRANCH   5   6
ENDBRANCH   4   5
ENDBRANCH   3   4
TORSDOF 15
ENDMDL
