MODEL 1
REMARK VINA RESULT: -9.089396852      0.000      0.000
REMARK  14 active torsions:
REMARK  status: ('A' for Active; 'I' for Inactive)
REMARK    1  A    between atoms: C2_2  and  O1_3 
REMARK    2  A    between atoms: O1_3  and  C3_4 
REMARK       I    between atoms: C3_4  and  N1_6 
REMARK    3  A    between atoms: N1_6  and  C4_7 
REMARK    4  A    between atoms: N1_6  and  C8_12 
REMARK    5  A    between atoms: C4_7  and  C5_8 
REMARK    6  A    between atoms: C5_8  and  N2_9 
REMARK    7  A    between atoms: C8_12  and  C9_13 
REMARK    8  A    between atoms: C9_13  and  N3_14 
REMARK    9  A    between atoms: N3_14  and  C10_15 
REMARK   10  A    between atoms: N3_14  and  N4_20 
REMARK   11  A    between atoms: C10_15  and  C11_16 
REMARK   12  A    between atoms: C15_22  and  C16_23 
REMARK   13  A    between atoms: C17_24  and  C18_25 
REMARK   14  A    between atoms: C26_38  and  C27_39 
REMARK       I    between atoms: C27_39  and  N7_41 
ROOT
HETATM    1  C16 UNL     1     -15.671  22.740 -18.813  1.00  0.00     0.043 A 
HETATM    2  C17 UNL     1     -16.020  23.745 -19.688  1.00  0.00     0.072 A 
HETATM    3  N5  UNL     1     -15.255  23.543 -20.795  1.00  0.00    -0.298 N 
ATOM      4  H5  UNL     1     -15.287  24.130 -21.629  1.00  0.00     0.187 HD
HETATM    5  N6  UNL     1     -14.488  22.519 -20.659  1.00  0.00    -0.294 N 
ATOM      6  H6  UNL     1     -13.830  22.180 -21.361  1.00  0.00     0.187 HD
HETATM    7  C26 UNL     1     -14.686  21.965 -19.453  1.00  0.00     0.132 A 
ENDROOT
BRANCH   1   8
HETATM    8  C15 UNL     1     -16.269  22.475 -17.506  1.00  0.00     0.123 C 
HETATM    9  N4  UNL     1     -15.902  23.086 -16.433  1.00  0.00    -0.309 N 
ATOM     10  H4  UNL     1     -15.164  23.789 -16.474  1.00  0.00     0.186 HD
BRANCH   9  11
HETATM   11  N3  UNL     1     -16.540  22.774 -15.160  1.00  0.00    -0.305 N 
BRANCH  11  12
HETATM   12  C9  UNL     1     -17.939  22.759 -15.217  1.00  0.00     0.103 C 
BRANCH  12  13
HETATM   13  C8  UNL     1     -18.786  23.917 -14.922  1.00  0.00     0.174 C 
BRANCH  13  14
HETATM   14  N1  UNL     1     -19.085  24.160 -13.560  1.00  0.00    -0.322 N 
HETATM   15  C3  UNL     1     -20.151  23.397 -12.957  1.00  0.00     0.363 C 
HETATM   16  O2  UNL     1     -20.531  23.581 -11.774  1.00  0.00    -0.238 OA
BRANCH  15  17
HETATM   17  O1  UNL     1     -20.814  22.410 -13.670  1.00  0.00    -0.304 OA
BRANCH  17  18
HETATM   18  C2  UNL     1     -20.539  21.040 -13.450  1.00  0.00     0.176 C 
HETATM   19  C1  UNL     1     -21.641  20.314 -12.743  1.00  0.00     0.034 C 
ENDBRANCH  17  18
ENDBRANCH  15  17
BRANCH  14  20
HETATM   20  C4  UNL     1     -18.451  25.175 -12.712  1.00  0.00     0.158 C 
BRANCH  20  21
HETATM   21  C5  UNL     1     -17.837  26.234 -13.603  1.00  0.00     0.291 C 
BRANCH  21  22
HETATM   22  N2  UNL     1     -17.157  27.248 -12.864  1.00  0.00     0.081 N 
HETATM   23  C6  UNL     1     -18.115  27.933 -12.019  1.00  0.00     0.309 C 
HETATM   24  C7  UNL     1     -16.058  26.813 -12.065  1.00  0.00     0.309 C 
ENDBRANCH  21  22
ENDBRANCH  20  21
ENDBRANCH  14  20
ENDBRANCH  13  14
ENDBRANCH  12  13
ENDBRANCH  11  12
BRANCH  11  25
HETATM   25  C10 UNL     1     -15.609  22.541 -14.127  1.00  0.00     0.156 C 
BRANCH  25  26
HETATM   26  C11 UNL     1     -15.023  21.158 -14.027  1.00  0.00    -0.033 C 
HETATM   27  C12 UNL     1     -15.987  20.027 -14.182  1.00  0.00     0.016 C 
HETATM   28  C13 UNL     1     -13.861  20.939 -14.953  1.00  0.00     0.016 C 
HETATM   29  C14 UNL     1     -14.456  21.056 -12.602  1.00  0.00     0.016 C 
ENDBRANCH  25  26
ENDBRANCH  11  25
ENDBRANCH   9  11
ENDBRANCH   1   8
BRANCH   2  30
HETATM   30  C18 UNL     1     -16.985  24.807 -19.573  1.00  0.00    -0.006 A 
HETATM   31  C19 UNL     1     -17.826  25.199 -20.568  1.00  0.00     0.016 A 
HETATM   32  C20 UNL     1     -18.703  26.247 -20.371  1.00  0.00     0.038 A 
HETATM   33  C21 UNL     1     -18.766  26.940 -19.156  1.00  0.00     0.075 A 
HETATM   34  C22 UNL     1     -17.915  26.538 -18.153  1.00  0.00    -0.022 A 
HETATM   35  O3  UNL     1     -19.525  27.998 -18.690  1.00  0.00    -0.350 OA
HETATM   36  C23 UNL     1     -17.036  25.486 -18.359  1.00  0.00     0.023 A 
HETATM   37  C24 UNL     1     -18.151  27.400 -16.965  1.00  0.00     0.068 C 
HETATM   38  C25 UNL     1     -19.449  28.093 -17.296  1.00  0.00     0.180 C 
ENDBRANCH   2  30
BRANCH   7  39
HETATM   39  C27 UNL     1     -13.999  20.812 -18.883  1.00  0.00     0.291 C 
HETATM   40  O4  UNL     1     -14.733  19.841 -18.489  1.00  0.00    -0.264 OA
HETATM   41  N7  UNL     1     -12.629  20.620 -18.708  1.00  0.00    -0.253 N 
HETATM   42  C28 UNL     1     -12.180  19.305 -18.162  1.00  0.00     0.153 C 
HETATM   43  N8  UNL     1     -11.643  21.575 -18.953  1.00  0.00    -0.265 N 
HETATM   44  C29 UNL     1     -10.725  19.084 -18.478  1.00  0.00     0.031 C 
HETATM   45  C30 UNL     1     -10.315  19.670 -19.791  1.00  0.00     0.106 C 
HETATM   46  C31 UNL     1     -10.486  21.160 -19.707  1.00  0.00     0.236 C 
HETATM   47  O5  UNL     1      -9.684  21.926 -20.248  1.00  0.00    -0.272 OA
ATOM     48  H8  UNL     1     -11.737  22.531 -18.611  1.00  0.00     0.190 HD
ENDBRANCH   7  39
TORSDOF 14
ENDMDL
MODEL 2
REMARK VINA RESULT: -8.750186551      2.249      6.639
REMARK  14 active torsions:
REMARK  status: ('A' for Active; 'I' for Inactive)
REMARK    1  A    between atoms: C2_2  and  O1_3 
REMARK    2  A    between atoms: O1_3  and  C3_4 
REMARK       I    between atoms: C3_4  and  N1_6 
REMARK    3  A    between atoms: N1_6  and  C4_7 
REMARK    4  A    between atoms: N1_6  and  C8_12 
REMARK    5  A    between atoms: C4_7  and  C5_8 
REMARK    6  A    between atoms: C5_8  and  N2_9 
REMARK    7  A    between atoms: C8_12  and  C9_13 
REMARK    8  A    between atoms: C9_13  and  N3_14 
REMARK    9  A    between atoms: N3_14  and  C10_15 
REMARK   10  A    between atoms: N3_14  and  N4_20 
REMARK   11  A    between atoms: C10_15  and  C11_16 
REMARK   12  A    between atoms: C15_22  and  C16_23 
REMARK   13  A    between atoms: C17_24  and  C18_25 
REMARK   14  A    between atoms: C26_38  and  C27_39 
REMARK       I    between atoms: C27_39  and  N7_41 
ROOT
HETATM    1  C16 UNL     1     -15.570  23.284 -18.962  1.00  0.00     0.043 A 
HETATM    2  C17 UNL     1     -14.247  22.946 -19.150  1.00  0.00     0.072 A 
HETATM    3  N5  UNL     1     -13.840  23.662 -20.232  1.00  0.00    -0.298 N 
ATOM      4  H5  UNL     1     -12.897  23.628 -20.621  1.00  0.00     0.187 HD
HETATM    5  N6  UNL     1     -14.792  24.388 -20.704  1.00  0.00    -0.294 N 
ATOM      6  H6  UNL     1     -14.714  25.006 -21.511  1.00  0.00     0.187 HD
HETATM    7  C26 UNL     1     -15.901  24.208 -19.970  1.00  0.00     0.132 A 
ENDROOT
BRANCH   1   8
HETATM    8  C15 UNL     1     -16.439  22.836 -17.876  1.00  0.00     0.123 C 
HETATM    9  N4  UNL     1     -16.320  23.261 -16.667  1.00  0.00    -0.309 N 
ATOM     10  H4  UNL     1     -15.596  23.940 -16.433  1.00  0.00     0.186 HD
BRANCH   9  11
HETATM   11  N3  UNL     1     -17.222  22.773 -15.629  1.00  0.00    -0.305 N 
BRANCH  11  12
HETATM   12  C9  UNL     1     -17.917  23.788 -14.961  1.00  0.00     0.103 C 
BRANCH  12  13
HETATM   13  C8  UNL     1     -17.487  24.382 -13.694  1.00  0.00     0.174 C 
BRANCH  13  14
HETATM   14  N1  UNL     1     -18.293  25.421 -13.167  1.00  0.00    -0.322 N 
HETATM   15  C3  UNL     1     -17.629  26.523 -12.513  1.00  0.00     0.363 C 
HETATM   16  O2  UNL     1     -18.256  27.462 -11.963  1.00  0.00    -0.238 OA
BRANCH  15  17
HETATM   17  O1  UNL     1     -16.245  26.594 -12.462  1.00  0.00    -0.304 OA
BRANCH  17  18
HETATM   18  C2  UNL     1     -15.586  27.223 -11.379  1.00  0.00     0.176 C 
HETATM   19  C1  UNL     1     -14.094  27.194 -11.489  1.00  0.00     0.034 C 
ENDBRANCH  17  18
ENDBRANCH  15  17
BRANCH  14  20
HETATM   20  C4  UNL     1     -19.759  25.451 -13.165  1.00  0.00     0.158 C 
BRANCH  20  21
HETATM   21  C5  UNL     1     -20.260  24.399 -12.197  1.00  0.00     0.291 C 
BRANCH  21  22
HETATM   22  N2  UNL     1     -20.935  24.964 -11.073  1.00  0.00     0.081 N 
HETATM   23  C6  UNL     1     -20.009  25.037  -9.960  1.00  0.00     0.309 C 
HETATM   24  C7  UNL     1     -21.525  26.247 -11.273  1.00  0.00     0.309 C 
ENDBRANCH  21  22
ENDBRANCH  20  21
ENDBRANCH  14  20
ENDBRANCH  13  14
ENDBRANCH  12  13
ENDBRANCH  11  12
BRANCH  11  25
HETATM   25  C10 UNL     1     -17.213  21.367 -15.519  1.00  0.00     0.156 C 
BRANCH  25  26
HETATM   26  C11 UNL     1     -15.964  20.727 -14.975  1.00  0.00    -0.033 C 
HETATM   27  C12 UNL     1     -15.176  19.905 -15.943  1.00  0.00     0.016 C 
HETATM   28  C13 UNL     1     -15.044  21.703 -14.301  1.00  0.00     0.016 C 
HETATM   29  C14 UNL     1     -16.443  19.765 -13.876  1.00  0.00     0.016 C 
ENDBRANCH  25  26
ENDBRANCH  11  25
ENDBRANCH   9  11
ENDBRANCH   1   8
BRANCH   2  30
HETATM   30  C18 UNL     1     -13.381  22.065 -18.409  1.00  0.00    -0.006 A 
HETATM   31  C19 UNL     1     -12.696  22.418 -17.289  1.00  0.00     0.016 A 
HETATM   32  C20 UNL     1     -11.868  21.509 -16.659  1.00  0.00     0.038 A 
HETATM   33  C21 UNL     1     -11.704  20.203 -17.138  1.00  0.00     0.075 A 
HETATM   34  C22 UNL     1     -12.402  19.852 -18.269  1.00  0.00    -0.022 A 
HETATM   35  O3  UNL     1     -10.964  19.112 -16.723  1.00  0.00    -0.350 OA
HETATM   36  C23 UNL     1     -13.230  20.771 -18.897  1.00  0.00     0.023 A 
HETATM   37  C24 UNL     1     -12.084  18.437 -18.596  1.00  0.00     0.068 C 
HETATM   38  C25 UNL     1     -11.410  17.939 -17.342  1.00  0.00     0.180 C 
ENDBRANCH   2  30
BRANCH   7  39
HETATM   39  C27 UNL     1     -17.211  24.811 -20.182  1.00  0.00     0.291 C 
HETATM   40  O4  UNL     1     -17.902  24.361 -21.161  1.00  0.00    -0.264 OA
HETATM   41  N7  UNL     1     -17.825  25.828 -19.450  1.00  0.00    -0.253 N 
HETATM   42  C28 UNL     1     -19.214  26.215 -19.836  1.00  0.00     0.153 C 
HETATM   43  N8  UNL     1     -17.229  26.550 -18.417  1.00  0.00    -0.265 N 
HETATM   44  C29 UNL     1     -19.882  26.943 -18.701  1.00  0.00     0.031 C 
HETATM   45  C30 UNL     1     -19.455  26.448 -17.355  1.00  0.00     0.106 C 
HETATM   46  C31 UNL     1     -17.987  26.726 -17.203  1.00  0.00     0.236 C 
HETATM   47  O5  UNL     1     -17.513  27.075 -16.119  1.00  0.00    -0.272 OA
ATOM     48  H8  UNL     1     -16.291  26.940 -18.517  1.00  0.00     0.190 HD
ENDBRANCH   7  39
TORSDOF 14
ENDMDL
MODEL 3
REMARK VINA RESULT: -8.729942529      1.914      6.136
REMARK  14 active torsions:
REMARK  status: ('A' for Active; 'I' for Inactive)
REMARK    1  A    between atoms: C2_2  and  O1_3 
REMARK    2  A    between atoms: O1_3  and  C3_4 
REMARK       I    between atoms: C3_4  and  N1_6 
REMARK    3  A    between atoms: N1_6  and  C4_7 
REMARK    4  A    between atoms: N1_6  and  C8_12 
REMARK    5  A    between atoms: C4_7  and  C5_8 
REMARK    6  A    between atoms: C5_8  and  N2_9 
REMARK    7  A    between atoms: C8_12  and  C9_13 
REMARK    8  A    between atoms: C9_13  and  N3_14 
REMARK    9  A    between atoms: N3_14  and  C10_15 
REMARK   10  A    between atoms: N3_14  and  N4_20 
REMARK   11  A    between atoms: C10_15  and  C11_16 
REMARK   12  A    between atoms: C15_22  and  C16_23 
REMARK   13  A    between atoms: C17_24  and  C18_25 
REMARK   14  A    between atoms: C26_38  and  C27_39 
REMARK       I    between atoms: C27_39  and  N7_41 
ROOT
HETATM    1  C16 UNL     1     -15.578  23.274 -18.948  1.00  0.00     0.043 A 
HETATM    2  C17 UNL     1     -14.258  22.935 -19.150  1.00  0.00     0.072 A 
HETATM    3  N5  UNL     1     -13.861  23.653 -20.236  1.00  0.00    -0.298 N 
ATOM      4  H5  UNL     1     -12.923  23.618 -20.634  1.00  0.00     0.187 HD
HETATM    5  N6  UNL     1     -14.818  24.381 -20.696  1.00  0.00    -0.294 N 
ATOM      6  H6  UNL     1     -14.748  24.999 -21.504  1.00  0.00     0.187 HD
HETATM    7  C26 UNL     1     -15.919  24.201 -19.951  1.00  0.00     0.132 A 
ENDROOT
BRANCH   1   8
HETATM    8  C15 UNL     1     -16.436  22.827 -17.853  1.00  0.00     0.123 C 
HETATM    9  N4  UNL     1     -16.371  23.324 -16.667  1.00  0.00    -0.309 N 
ATOM     10  H4  UNL     1     -15.700  24.063 -16.460  1.00  0.00     0.186 HD
BRANCH   9  11
HETATM   11  N3  UNL     1     -17.258  22.831 -15.619  1.00  0.00    -0.305 N 
BRANCH  11  12
HETATM   12  C9  UNL     1     -17.934  23.843 -14.928  1.00  0.00     0.103 C 
BRANCH  12  13
HETATM   13  C8  UNL     1     -19.260  23.683 -14.326  1.00  0.00     0.174 C 
BRANCH  13  14
HETATM   14  N1  UNL     1     -19.532  24.446 -13.166  1.00  0.00    -0.322 N 
HETATM   15  C3  UNL     1     -20.358  23.848 -12.144  1.00  0.00     0.363 C 
HETATM   16  O2  UNL     1     -20.705  24.464 -11.106  1.00  0.00    -0.238 OA
BRANCH  15  17
HETATM   17  O1  UNL     1     -20.813  22.544 -12.267  1.00  0.00    -0.304 OA
BRANCH  17  18
HETATM   18  C2  UNL     1     -21.526  21.917 -11.217  1.00  0.00     0.176 C 
HETATM   19  C1  UNL     1     -22.168  20.626 -11.617  1.00  0.00     0.034 C 
ENDBRANCH  17  18
ENDBRANCH  15  17
BRANCH  14  20
HETATM   20  C4  UNL     1     -19.106  25.829 -12.930  1.00  0.00     0.158 C 
BRANCH  20  21
HETATM   21  C5  UNL     1     -20.060  26.758 -13.650  1.00  0.00     0.291 C 
BRANCH  21  22
HETATM   22  N2  UNL     1     -19.827  28.132 -13.343  1.00  0.00     0.081 N 
HETATM   23  C6  UNL     1     -18.511  28.263 -12.750  1.00  0.00     0.309 C 
HETATM   24  C7  UNL     1     -19.942  29.048 -14.430  1.00  0.00     0.309 C 
ENDBRANCH  21  22
ENDBRANCH  20  21
ENDBRANCH  14  20
ENDBRANCH  13  14
ENDBRANCH  12  13
ENDBRANCH  11  12
BRANCH  11  25
HETATM   25  C10 UNL     1     -17.257  21.423 -15.525  1.00  0.00     0.156 C 
BRANCH  25  26
HETATM   26  C11 UNL     1     -16.049  20.775 -14.904  1.00  0.00    -0.033 C 
HETATM   27  C12 UNL     1     -15.150  20.034 -15.841  1.00  0.00     0.016 C 
HETATM   28  C13 UNL     1     -15.223  21.725 -14.085  1.00  0.00     0.016 C 
HETATM   29  C14 UNL     1     -16.603  19.734 -13.918  1.00  0.00     0.016 C 
ENDBRANCH  25  26
ENDBRANCH  11  25
ENDBRANCH   9  11
ENDBRANCH   1   8
BRANCH   2  30
HETATM   30  C18 UNL     1     -13.385  22.053 -18.420  1.00  0.00    -0.006 A 
HETATM   31  C19 UNL     1     -12.650  22.417 -17.335  1.00  0.00     0.016 A 
HETATM   32  C20 UNL     1     -11.820  21.504 -16.713  1.00  0.00     0.038 A 
HETATM   33  C21 UNL     1     -11.704  20.184 -17.164  1.00  0.00     0.075 A 
HETATM   34  C22 UNL     1     -12.452  19.821 -18.261  1.00  0.00    -0.022 A 
HETATM   35  O3  UNL     1     -10.974  19.086 -16.750  1.00  0.00    -0.350 OA
HETATM   36  C23 UNL     1     -13.281  20.744 -18.880  1.00  0.00     0.023 A 
HETATM   37  C24 UNL     1     -12.179  18.391 -18.562  1.00  0.00     0.068 C 
HETATM   38  C25 UNL     1     -11.469  17.909 -17.322  1.00  0.00     0.180 C 
ENDBRANCH   2  30
BRANCH   7  39
HETATM   39  C27 UNL     1     -17.231  24.806 -20.148  1.00  0.00     0.291 C 
HETATM   40  O4  UNL     1     -17.932  24.357 -21.120  1.00  0.00    -0.264 OA
HETATM   41  N7  UNL     1     -17.836  25.821 -19.408  1.00  0.00    -0.253 N 
HETATM   42  C28 UNL     1     -19.229  26.210 -19.779  1.00  0.00     0.153 C 
HETATM   43  N8  UNL     1     -17.228  26.542 -18.380  1.00  0.00    -0.265 N 
HETATM   44  C29 UNL     1     -19.884  26.937 -18.635  1.00  0.00     0.031 C 
HETATM   45  C30 UNL     1     -19.443  26.439 -17.295  1.00  0.00     0.106 C 
HETATM   46  C31 UNL     1     -17.974  26.716 -17.158  1.00  0.00     0.236 C 
HETATM   47  O5  UNL     1     -17.487  27.062 -16.078  1.00  0.00    -0.272 OA
ATOM     48  H8  UNL     1     -16.291  26.930 -18.489  1.00  0.00     0.190 HD
ENDBRANCH   7  39
TORSDOF 14
ENDMDL
MODEL 4
REMARK VINA RESULT: -8.639009615      5.861     11.560
REMARK  14 active torsions:
REMARK  status: ('A' for Active; 'I' for Inactive)
REMARK    1  A    between atoms: C2_2  and  O1_3 
REMARK    2  A    between atoms: O1_3  and  C3_4 
REMARK       I    between atoms: C3_4  and  N1_6 
REMARK    3  A    between atoms: N1_6  and  C4_7 
REMARK    4  A    between atoms: N1_6  and  C8_12 
REMARK    5  A    between atoms: C4_7  and  C5_8 
REMARK    6  A    between atoms: C5_8  and  N2_9 
REMARK    7  A    between atoms: C8_12  and  C9_13 
REMARK    8  A    between atoms: C9_13  and  N3_14 
REMARK    9  A    between atoms: N3_14  and  C10_15 
REMARK   10  A    between atoms: N3_14  and  N4_20 
REMARK   11  A    between atoms: C10_15  and  C11_16 
REMARK   12  A    between atoms: C15_22  and  C16_23 
REMARK   13  A    between atoms: C17_24  and  C18_25 
REMARK   14  A    between atoms: C26_38  and  C27_39 
REMARK       I    between atoms: C27_39  and  N7_41 
ROOT
HETATM    1  C16 UNL     1      -9.691  19.736 -19.074  1.00  0.00     0.043 A 
HETATM    2  C17 UNL     1     -10.836  20.501 -19.045  1.00  0.00     0.072 A 
HETATM    3  N5  UNL     1     -10.580  21.568 -19.849  1.00  0.00    -0.298 N 
ATOM      4  H5  UNL     1     -11.244  22.320 -20.033  1.00  0.00     0.187 HD
HETATM    5  N6  UNL     1      -9.396  21.510 -20.348  1.00  0.00    -0.294 N 
ATOM      6  H6  UNL     1      -8.989  22.201 -20.978  1.00  0.00     0.187 HD
HETATM    7  C26 UNL     1      -8.778  20.401 -19.914  1.00  0.00     0.132 A 
ENDROOT
BRANCH   1   8
HETATM    8  C15 UNL     1      -9.491  18.440 -18.429  1.00  0.00     0.123 C 
HETATM    9  N4  UNL     1      -8.585  18.237 -17.536  1.00  0.00    -0.309 N 
ATOM     10  H4  UNL     1      -7.969  18.999 -17.253  1.00  0.00     0.186 HD
BRANCH   9  11
HETATM   11  N3  UNL     1      -8.439  16.919 -16.931  1.00  0.00    -0.305 N 
BRANCH  11  12
HETATM   12  C9  UNL     1      -7.193  16.323 -17.166  1.00  0.00     0.103 C 
BRANCH  12  13
HETATM   13  C8  UNL     1      -6.017  17.045 -17.657  1.00  0.00     0.174 C 
BRANCH  13  14
HETATM   14  N1  UNL     1      -4.825  16.912 -16.904  1.00  0.00    -0.322 N 
HETATM   15  C3  UNL     1      -3.713  17.766 -17.246  1.00  0.00     0.363 C 
HETATM   16  O2  UNL     1      -2.596  17.685 -16.679  1.00  0.00    -0.238 OA
BRANCH  15  17
HETATM   17  O1  UNL     1      -3.833  18.731 -18.235  1.00  0.00    -0.304 OA
BRANCH  17  18
HETATM   18  C2  UNL     1      -2.754  19.592 -18.550  1.00  0.00     0.176 C 
HETATM   19  C1  UNL     1      -3.145  21.033 -18.639  1.00  0.00     0.034 C 
ENDBRANCH  17  18
ENDBRANCH  15  17
BRANCH  14  20
HETATM   20  C4  UNL     1      -4.588  15.930 -15.841  1.00  0.00     0.158 C 
BRANCH  20  21
HETATM   21  C5  UNL     1      -4.119  14.637 -16.475  1.00  0.00     0.291 C 
BRANCH  21  22
HETATM   22  N2  UNL     1      -2.915  14.143 -15.890  1.00  0.00     0.081 N 
HETATM   23  C6  UNL     1      -1.862  14.180 -16.885  1.00  0.00     0.309 C 
HETATM   24  C7  UNL     1      -2.466  14.812 -14.713  1.00  0.00     0.309 C 
ENDBRANCH  21  22
ENDBRANCH  20  21
ENDBRANCH  14  20
ENDBRANCH  13  14
ENDBRANCH  12  13
ENDBRANCH  11  12
BRANCH  11  25
HETATM   25  C10 UNL     1      -9.588  16.516 -16.220  1.00  0.00     0.156 C 
BRANCH  25  26
HETATM   26  C11 UNL     1      -9.475  16.424 -14.722  1.00  0.00    -0.033 C 
HETATM   27  C12 UNL     1      -8.758  15.224 -14.193  1.00  0.00     0.016 C 
HETATM   28  C13 UNL     1      -8.889  17.657 -14.096  1.00  0.00     0.016 C 
HETATM   29  C14 UNL     1     -10.920  16.331 -14.207  1.00  0.00     0.016 C 
ENDBRANCH  25  26
ENDBRANCH  11  25
ENDBRANCH   9  11
ENDBRANCH   1   8
BRANCH   2  30
HETATM   30  C18 UNL     1     -12.093  20.298 -18.372  1.00  0.00    -0.006 A 
HETATM   31  C19 UNL     1     -13.193  19.736 -18.941  1.00  0.00     0.016 A 
HETATM   32  C20 UNL     1     -14.365  19.604 -18.222  1.00  0.00     0.038 A 
HETATM   33  C21 UNL     1     -14.469  20.035 -16.894  1.00  0.00     0.075 A 
HETATM   34  C22 UNL     1     -13.353  20.601 -16.322  1.00  0.00    -0.022 A 
HETATM   35  O3  UNL     1     -15.486  20.030 -15.957  1.00  0.00    -0.350 OA
HETATM   36  C23 UNL     1     -12.181  20.730 -17.052  1.00  0.00     0.023 A 
HETATM   37  C24 UNL     1     -13.683  20.980 -14.924  1.00  0.00     0.068 C 
HETATM   38  C25 UNL     1     -14.984  20.260 -14.672  1.00  0.00     0.180 C 
ENDBRANCH   2  30
BRANCH   7  39
HETATM   39  C27 UNL     1      -7.417  19.970 -20.210  1.00  0.00     0.291 C 
HETATM   40  O4  UNL     1      -6.470  20.713 -19.775  1.00  0.00    -0.264 OA
HETATM   41  N7  UNL     1      -7.000  18.839 -20.912  1.00  0.00    -0.253 N 
HETATM   42  C28 UNL     1      -5.531  18.591 -21.011  1.00  0.00     0.153 C 
HETATM   43  N8  UNL     1      -7.841  17.947 -21.575  1.00  0.00    -0.265 N 
HETATM   44  C29 UNL     1      -5.273  17.149 -21.357  1.00  0.00     0.031 C 
HETATM   45  C30 UNL     1      -6.279  16.215 -20.763  1.00  0.00     0.106 C 
HETATM   46  C31 UNL     1      -7.620  16.538 -21.358  1.00  0.00     0.236 C 
HETATM   47  O5  UNL     1      -8.430  15.647 -21.625  1.00  0.00    -0.272 OA
ATOM     48  H8  UNL     1      -8.584  18.277 -22.190  1.00  0.00     0.190 HD
ENDBRANCH   7  39
TORSDOF 14
ENDMDL
MODEL 5
REMARK VINA RESULT: -8.603429402      5.771     12.938
REMARK  14 active torsions:
REMARK  status: ('A' for Active; 'I' for Inactive)
REMARK    1  A    between atoms: C2_2  and  O1_3 
REMARK    2  A    between atoms: O1_3  and  C3_4 
REMARK       I    between atoms: C3_4  and  N1_6 
REMARK    3  A    between atoms: N1_6  and  C4_7 
REMARK    4  A    between atoms: N1_6  and  C8_12 
REMARK    5  A    between atoms: C4_7  and  C5_8 
REMARK    6  A    between atoms: C5_8  and  N2_9 
REMARK    7  A    between atoms: C8_12  and  C9_13 
REMARK    8  A    between atoms: C9_13  and  N3_14 
REMARK    9  A    between atoms: N3_14  and  C10_15 
REMARK   10  A    between atoms: N3_14  and  N4_20 
REMARK   11  A    between atoms: C10_15  and  C11_16 
REMARK   12  A    between atoms: C15_22  and  C16_23 
REMARK   13  A    between atoms: C17_24  and  C18_25 
REMARK   14  A    between atoms: C26_38  and  C27_39 
REMARK       I    between atoms: C27_39  and  N7_41 
ROOT
HETATM    1  C16 UNL     1      -9.496  19.450 -19.093  1.00  0.00     0.043 A 
HETATM    2  C17 UNL     1      -8.757  19.569 -20.250  1.00  0.00     0.072 A 
HETATM    3  N5  UNL     1      -9.100  20.775 -20.777  1.00  0.00    -0.298 N 
ATOM      4  H5  UNL     1      -8.715  21.153 -21.642  1.00  0.00     0.187 HD
HETATM    5  N6  UNL     1      -9.970  21.380 -20.046  1.00  0.00    -0.294 N 
ATOM      6  H6  UNL     1     -10.371  22.296 -20.247  1.00  0.00     0.187 HD
HETATM    7  C26 UNL     1     -10.270  20.620 -18.981  1.00  0.00     0.132 A 
ENDROOT
BRANCH   1   8
HETATM    8  C15 UNL     1      -9.429  18.359 -18.123  1.00  0.00     0.123 C 
HETATM    9  N4  UNL     1      -8.317  17.837 -17.736  1.00  0.00    -0.309 N 
ATOM     10  H4  UNL     1      -7.433  18.184 -18.109  1.00  0.00     0.186 HD
BRANCH   9  11
HETATM   11  N3  UNL     1      -8.321  16.750 -16.764  1.00  0.00    -0.305 N 
BRANCH  11  12
HETATM   12  C9  UNL     1      -7.091  16.091 -16.647  1.00  0.00     0.103 C 
BRANCH  12  13
HETATM   13  C8  UNL     1      -5.885  16.464 -17.391  1.00  0.00     0.174 C 
BRANCH  13  14
HETATM   14  N1  UNL     1      -4.677  16.536 -16.657  1.00  0.00    -0.322 N 
HETATM   15  C3  UNL     1      -3.717  17.544 -17.036  1.00  0.00     0.363 C 
HETATM   16  O2  UNL     1      -2.592  17.651 -16.486  1.00  0.00    -0.238 OA
BRANCH  15  17
HETATM   17  O1  UNL     1      -3.999  18.455 -18.043  1.00  0.00    -0.304 OA
BRANCH  17  18
HETATM   18  C2  UNL     1      -3.072  19.466 -18.393  1.00  0.00     0.176 C 
HETATM   19  C1  UNL     1      -3.706  20.799 -18.642  1.00  0.00     0.034 C 
ENDBRANCH  17  18
ENDBRANCH  15  17
BRANCH  14  20
HETATM   20  C4  UNL     1      -4.274  15.628 -15.578  1.00  0.00     0.158 C 
BRANCH  20  21
HETATM   21  C5  UNL     1      -3.770  14.340 -16.194  1.00  0.00     0.291 C 
BRANCH  21  22
HETATM   22  N2  UNL     1      -2.423  14.046 -15.825  1.00  0.00     0.081 N 
HETATM   23  C6  UNL     1      -1.564  14.269 -16.972  1.00  0.00     0.309 C 
HETATM   24  C7  UNL     1      -1.904  14.766 -14.708  1.00  0.00     0.309 C 
ENDBRANCH  21  22
ENDBRANCH  20  21
ENDBRANCH  14  20
ENDBRANCH  13  14
ENDBRANCH  12  13
ENDBRANCH  11  12
BRANCH  11  25
HETATM   25  C10 UNL     1      -9.571  16.591 -16.130  1.00  0.00     0.156 C 
BRANCH  25  26
HETATM   26  C11 UNL     1      -9.575  16.514 -14.627  1.00  0.00    -0.033 C 
HETATM   27  C12 UNL     1      -9.079  15.234 -14.036  1.00  0.00     0.016 C 
HETATM   28  C13 UNL     1      -8.862  17.662 -13.973  1.00  0.00     0.016 C 
HETATM   29  C14 UNL     1     -11.051  16.640 -14.215  1.00  0.00     0.016 C 
ENDBRANCH  25  26
ENDBRANCH  11  25
ENDBRANCH   9  11
ENDBRANCH   1   8
BRANCH   2  30
HETATM   30  C18 UNL     1      -7.787  18.689 -20.848  1.00  0.00    -0.006 A 
HETATM   31  C19 UNL     1      -8.067  17.454 -21.346  1.00  0.00     0.016 A 
HETATM   32  C20 UNL     1      -7.062  16.670 -21.880  1.00  0.00     0.038 A 
HETATM   33  C21 UNL     1      -5.733  17.107 -21.933  1.00  0.00     0.075 A 
HETATM   34  C22 UNL     1      -5.457  18.357 -21.430  1.00  0.00    -0.022 A 
HETATM   35  O3  UNL     1      -4.556  16.552 -22.398  1.00  0.00    -0.350 OA
HETATM   36  C23 UNL     1      -6.471  19.137 -20.895  1.00  0.00     0.023 A 
HETATM   37  C24 UNL     1      -4.002  18.616 -21.589  1.00  0.00     0.068 C 
HETATM   38  C25 UNL     1      -3.562  17.527 -22.536  1.00  0.00     0.180 C 
ENDBRANCH   2  30
BRANCH   7  39
HETATM   39  C27 UNL     1     -11.232  20.914 -17.926  1.00  0.00     0.291 C 
HETATM   40  O4  UNL     1     -10.797  20.874 -16.723  1.00  0.00    -0.264 OA
HETATM   41  N7  UNL     1     -12.583  21.238 -18.050  1.00  0.00    -0.253 N 
HETATM   42  C28 UNL     1     -13.332  21.567 -16.802  1.00  0.00     0.153 C 
HETATM   43  N8  UNL     1     -13.306  21.231 -19.242  1.00  0.00    -0.265 N 
HETATM   44  C29 UNL     1     -14.583  22.333 -17.138  1.00  0.00     0.031 C 
HETATM   45  C30 UNL     1     -14.421  23.232 -18.322  1.00  0.00     0.106 C 
HETATM   46  C31 UNL     1     -14.141  22.374 -19.521  1.00  0.00     0.236 C 
HETATM   47  O5  UNL     1     -14.605  22.655 -20.629  1.00  0.00    -0.272 OA
ATOM     48  H8  UNL     1     -13.248  20.447 -19.892  1.00  0.00     0.190 HD
ENDBRANCH   7  39
TORSDOF 14
ENDMDL
