MODEL 1
REMARK VINA RESULT: -8.901490131      0.000      0.000
REMARK  15 active torsions:
REMARK  status: ('A' for Active; 'I' for Inactive)
REMARK    1  A    between atoms: O1_2  and  C2_3 
REMARK    2  A    between atoms: C2_3  and  C3_4 
REMARK    3  A    between atoms: C3_4  and  C4_5 
REMARK    4  A    between atoms: N1_8  and  C7_9 
REMARK    5  A    between atoms: C7_9  and  C8_10 
REMARK    6  A    between atoms: C10_13  and  C11_14 
REMARK    7  A    between atoms: C11_14  and  N2_15 
REMARK    8  A    between atoms: N2_15  and  C12_17 
REMARK    9  A    between atoms: C13_20  and  N4_21 
REMARK   10  A    between atoms: C19_30  and  N7_31 
REMARK   11  A    between atoms: N7_31  and  C20_33 
REMARK   12  A    between atoms: C20_33  and  C21_34 
REMARK   13  A    between atoms: C21_34  and  C22_35 
REMARK   14  A    between atoms: C22_35  and  N8_36 
REMARK       I    between atoms: N8_36  and  C24_38 
REMARK   15  A    between atoms: C24_38  and  C25_40 
ROOT
HETATM    1  C12 UNL     1     -12.398 -18.887  15.941  1.00  0.00     0.707 A 
HETATM    2  N3  UNL     1     -11.220 -18.337  15.630  1.00  0.00    -0.021 N 
ATOM      3  H3  UNL     1     -10.942 -18.308  14.649  1.00  0.00     0.203 HD
HETATM    4  C13 UNL     1     -10.383 -17.820  16.545  1.00  0.00     0.709 A 
HETATM    5  N6  UNL     1     -10.757 -17.863  17.827  1.00  0.00    -0.021 N 
ATOM      6  H6  UNL     1     -10.139 -17.477  18.541  1.00  0.00     0.203 HD
HETATM    7  C19 UNL     1     -11.955 -18.416  18.201  1.00  0.00     0.707 A 
HETATM    8  N9  UNL     1     -12.762 -18.921  17.260  1.00  0.00    -0.022 N 
ATOM      9  H9  UNL     1     -13.655 -19.335  17.527  1.00  0.00     0.203 HD
ENDROOT
BRANCH   1  10
HETATM   10  N2  UNL     1     -13.227 -19.382  15.101  1.00  0.00    -0.219 N 
ATOM     11  H2  UNL     1     -13.887 -18.775  14.614  1.00  0.00     0.178 HD
BRANCH  10  12
HETATM   12  C11 UNL     1     -13.225 -20.790  14.849  1.00  0.00     0.203 C 
BRANCH  12  13
HETATM   13  C10 UNL     1     -13.432 -21.579  16.106  1.00  0.00     0.077 A 
HETATM   14  O2  UNL     1     -12.476 -21.998  16.884  1.00  0.00    -0.324 OA
HETATM   15  C9  UNL     1     -13.002 -22.668  17.913  1.00  0.00     0.151 A 
HETATM   16  C8  UNL     1     -14.370 -22.697  17.817  1.00  0.00     0.001 A 
HETATM   17  C29 UNL     1     -14.631 -21.983  16.632  1.00  0.00    -0.021 A 
HETATM   18  C30 UNL     1     -15.961 -21.724  16.068  1.00  0.00     0.051 C 
BRANCH  16  19
HETATM   19  C7  UNL     1     -15.435 -23.306  18.625  1.00  0.00     0.313 C 
BRANCH  19  20
HETATM   20  N1  UNL     1     -15.066 -24.399  19.461  1.00  0.00     0.092 N 
HETATM   21  C6  UNL     1     -15.195 -25.669  18.745  1.00  0.00     0.273 C 
HETATM   22  C5  UNL     1     -16.649 -26.007  18.479  1.00  0.00     0.035 C 
HETATM   23  C4  UNL     1     -17.465 -25.907  19.715  1.00  0.00    -0.009 C 
HETATM   24  C32 UNL     1     -17.270 -24.578  20.416  1.00  0.00     0.035 C 
HETATM   25  C31 UNL     1     -15.804 -24.468  20.711  1.00  0.00     0.273 C 
BRANCH  23  26
HETATM   26  C3  UNL     1     -18.876 -26.318  19.543  1.00  0.00     0.031 C 
BRANCH  26  27
HETATM   27  C2  UNL     1     -19.236 -27.168  18.382  1.00  0.00     0.167 C 
BRANCH  27  28
HETATM   28  O1  UNL     1     -19.613 -28.461  18.692  1.00  0.00    -0.396 OA
HETATM   29  C1  UNL     1     -19.261 -29.360  17.679  1.00  0.00     0.201 C 
ENDBRANCH  27  28
ENDBRANCH  26  27
ENDBRANCH  23  26
ENDBRANCH  19  20
ENDBRANCH  16  19
ENDBRANCH  12  13
ENDBRANCH  10  12
ENDBRANCH   1  10
BRANCH   4  30
HETATM   30  N4  UNL     1      -9.129 -17.243  16.143  1.00  0.00    -0.213 N 
HETATM   31  C14 UNL     1      -8.336 -17.960  15.195  1.00  0.00     0.171 C 
HETATM   32  C15 UNL     1      -7.189 -17.073  14.761  1.00  0.00     0.292 C 
HETATM   33  N5  UNL     1      -6.521 -16.633  15.983  1.00  0.00     0.087 N 
HETATM   34  C16 UNL     1      -5.265 -16.008  15.573  1.00  0.00     0.310 C 
HETATM   35  C17 UNL     1      -7.335 -15.627  16.603  1.00  0.00     0.292 C 
HETATM   36  C18 UNL     1      -8.772 -15.984  16.732  1.00  0.00     0.171 C 
ENDBRANCH   4  30
BRANCH   7  37
HETATM   37  N7  UNL     1     -12.282 -18.434  19.441  1.00  0.00    -0.225 N 
ATOM     38  H7  UNL     1     -13.172 -18.019  19.720  1.00  0.00     0.177 HD
BRANCH  37  39
HETATM   39  C20 UNL     1     -11.447 -19.015  20.444  1.00  0.00     0.139 C 
BRANCH  39  40
HETATM   40  C21 UNL     1     -11.191 -20.454  20.118  1.00  0.00     0.040 C 
BRANCH  40  41
HETATM   41  C22 UNL     1      -9.778 -20.800  19.785  1.00  0.00     0.127 C 
BRANCH  41  42
HETATM   42  N8  UNL     1      -8.783 -20.185  20.645  1.00  0.00    -0.356 N 
HETATM   43  C23 UNL     1      -8.608 -20.606  21.991  1.00  0.00     0.152 C 
HETATM   44  C24 UNL     1      -8.013 -19.138  20.072  1.00  0.00     0.227 C 
HETATM   45  O3  UNL     1      -8.219 -18.792  18.849  1.00  0.00    -0.273 OA
BRANCH  44  46
HETATM   46  C25 UNL     1      -6.954 -18.374  20.767  1.00  0.00     0.030 C 
HETATM   47  C26 UNL     1      -7.439 -17.584  21.946  1.00  0.00     0.025 C 
HETATM   48  C27 UNL     1      -6.321 -17.372  19.782  1.00  0.00     0.025 C 
HETATM   49  C28 UNL     1      -5.864 -19.355  21.174  1.00  0.00     0.025 C 
ENDBRANCH  44  46
ENDBRANCH  41  42
ENDBRANCH  40  41
ENDBRANCH  39  40
ENDBRANCH  37  39
ENDBRANCH   7  37
TORSDOF 15
ENDMDL
MODEL 2
REMARK VINA RESULT: -8.773686743      2.622      9.460
REMARK  15 active torsions:
REMARK  status: ('A' for Active; 'I' for Inactive)
REMARK    1  A    between atoms: O1_2  and  C2_3 
REMARK    2  A    between atoms: C2_3  and  C3_4 
REMARK    3  A    between atoms: C3_4  and  C4_5 
REMARK    4  A    between atoms: N1_8  and  C7_9 
REMARK    5  A    between atoms: C7_9  and  C8_10 
REMARK    6  A    between atoms: C10_13  and  C11_14 
REMARK    7  A    between atoms: C11_14  and  N2_15 
REMARK    8  A    between atoms: N2_15  and  C12_17 
REMARK    9  A    between atoms: C13_20  and  N4_21 
REMARK   10  A    between atoms: C19_30  and  N7_31 
REMARK   11  A    between atoms: N7_31  and  C20_33 
REMARK   12  A    between atoms: C20_33  and  C21_34 
REMARK   13  A    between atoms: C21_34  and  C22_35 
REMARK   14  A    between atoms: C22_35  and  N8_36 
REMARK       I    between atoms: N8_36  and  C24_38 
REMARK   15  A    between atoms: C24_38  and  C25_40 
ROOT
HETATM    1  C12 UNL     1     -11.292 -21.122  16.853  1.00  0.00     0.707 A 
HETATM    2  N3  UNL     1     -10.407 -20.120  16.832  1.00  0.00    -0.021 N 
ATOM      3  H3  UNL     1      -9.656 -20.122  17.522  1.00  0.00     0.203 HD
HETATM    4  C13 UNL     1     -10.459 -19.110  15.948  1.00  0.00     0.709 A 
HETATM    5  N6  UNL     1     -11.447 -19.118  15.050  1.00  0.00    -0.021 N 
ATOM      6  H6  UNL     1     -11.508 -18.362  14.367  1.00  0.00     0.203 HD
HETATM    7  C19 UNL     1     -12.381 -20.122  15.027  1.00  0.00     0.707 A 
HETATM    8  N9  UNL     1     -12.296 -21.111  15.925  1.00  0.00    -0.022 N 
ATOM      9  H9  UNL     1     -12.986 -21.862  15.917  1.00  0.00     0.203 HD
ENDROOT
BRANCH   1  10
HETATM   10  N2  UNL     1     -11.274 -22.107  17.672  1.00  0.00    -0.219 N 
ATOM     11  H2  UNL     1     -11.033 -23.042  17.344  1.00  0.00     0.178 HD
BRANCH  10  12
HETATM   12  C11 UNL     1     -11.595 -21.889  19.049  1.00  0.00     0.203 C 
BRANCH  12  13
HETATM   13  C10 UNL     1     -10.434 -21.320  19.806  1.00  0.00     0.077 A 
HETATM   14  O2  UNL     1      -9.363 -21.984  20.130  1.00  0.00    -0.324 OA
HETATM   15  C9  UNL     1      -8.528 -21.183  20.798  1.00  0.00     0.151 A 
HETATM   16  C8  UNL     1      -9.068 -19.928  20.926  1.00  0.00     0.001 A 
HETATM   17  C29 UNL     1     -10.310 -20.037  20.273  1.00  0.00    -0.021 A 
HETATM   18  C30 UNL     1     -11.295 -18.959  20.127  1.00  0.00     0.051 C 
BRANCH  16  19
HETATM   19  C7  UNL     1      -8.623 -18.689  21.579  1.00  0.00     0.313 C 
BRANCH  19  20
HETATM   20  N1  UNL     1      -8.194 -17.630  20.728  1.00  0.00     0.092 N 
HETATM   21  C6  UNL     1      -7.011 -18.026  19.961  1.00  0.00     0.273 C 
HETATM   22  C5  UNL     1      -5.795 -18.168  20.858  1.00  0.00     0.035 C 
HETATM   23  C4  UNL     1      -5.607 -16.968  21.712  1.00  0.00    -0.009 C 
HETATM   24  C32 UNL     1      -6.873 -16.603  22.461  1.00  0.00     0.035 C 
HETATM   25  C31 UNL     1      -7.929 -16.380  21.420  1.00  0.00     0.273 C 
BRANCH  23  26
HETATM   26  C3  UNL     1      -4.383 -17.002  22.542  1.00  0.00     0.031 C 
BRANCH  26  27
HETATM   27  C2  UNL     1      -4.198 -15.964  23.585  1.00  0.00     0.167 C 
BRANCH  27  28
HETATM   28  O1  UNL     1      -4.101 -14.667  23.117  1.00  0.00    -0.396 OA
HETATM   29  C1  UNL     1      -3.366 -13.855  23.988  1.00  0.00     0.201 C 
ENDBRANCH  27  28
ENDBRANCH  26  27
ENDBRANCH  23  26
ENDBRANCH  19  20
ENDBRANCH  16  19
ENDBRANCH  12  13
ENDBRANCH  10  12
ENDBRANCH   1  10
BRANCH   4  30
HETATM   30  N4  UNL     1      -9.475 -18.062  15.980  1.00  0.00    -0.213 N 
HETATM   31  C14 UNL     1      -9.612 -17.045  16.975  1.00  0.00     0.171 C 
HETATM   32  C15 UNL     1      -8.364 -16.189  16.960  1.00  0.00     0.292 C 
HETATM   33  N5  UNL     1      -8.183 -15.744  15.581  1.00  0.00     0.087 N 
HETATM   34  C16 UNL     1      -7.152 -14.708  15.606  1.00  0.00     0.310 C 
HETATM   35  C17 UNL     1      -7.682 -16.849  14.814  1.00  0.00     0.292 C 
HETATM   36  C18 UNL     1      -8.426 -18.123  15.002  1.00  0.00     0.171 C 
ENDBRANCH   4  30
BRANCH   7  37
HETATM   37  N7  UNL     1     -13.312 -20.098  14.146  1.00  0.00    -0.225 N 
ATOM     38  H7  UNL     1     -13.575 -19.203  13.733  1.00  0.00     0.177 HD
BRANCH  37  39
HETATM   39  C20 UNL     1     -13.995 -21.279  13.722  1.00  0.00     0.139 C 
BRANCH  39  40
HETATM   40  C21 UNL     1     -15.471 -21.106  13.910  1.00  0.00     0.040 C 
BRANCH  40  41
HETATM   41  C22 UNL     1     -15.914 -20.795  15.300  1.00  0.00     0.127 C 
BRANCH  41  42
HETATM   42  N8  UNL     1     -16.039 -21.950  16.170  1.00  0.00    -0.356 N 
HETATM   43  C23 UNL     1     -16.780 -23.097  15.774  1.00  0.00     0.152 C 
HETATM   44  C24 UNL     1     -15.397 -21.862  17.434  1.00  0.00     0.227 C 
HETATM   45  O3  UNL     1     -14.745 -20.795  17.744  1.00  0.00    -0.273 OA
BRANCH  44  46
HETATM   46  C25 UNL     1     -15.400 -22.916  18.473  1.00  0.00     0.030 C 
HETATM   47  C26 UNL     1     -16.755 -23.492  18.759  1.00  0.00     0.025 C 
HETATM   48  C27 UNL     1     -14.872 -22.326  19.794  1.00  0.00     0.025 C 
HETATM   49  C28 UNL     1     -14.423 -23.998  18.039  1.00  0.00     0.025 C 
ENDBRANCH  44  46
ENDBRANCH  41  42
ENDBRANCH  40  41
ENDBRANCH  39  40
ENDBRANCH  37  39
ENDBRANCH   7  37
TORSDOF 15
ENDMDL
MODEL 3
REMARK VINA RESULT: -8.758200315      2.552      9.860
REMARK  15 active torsions:
REMARK  status: ('A' for Active; 'I' for Inactive)
REMARK    1  A    between atoms: O1_2  and  C2_3 
REMARK    2  A    between atoms: C2_3  and  C3_4 
REMARK    3  A    between atoms: C3_4  and  C4_5 
REMARK    4  A    between atoms: N1_8  and  C7_9 
REMARK    5  A    between atoms: C7_9  and  C8_10 
REMARK    6  A    between atoms: C10_13  and  C11_14 
REMARK    7  A    between atoms: C11_14  and  N2_15 
REMARK    8  A    between atoms: N2_15  and  C12_17 
REMARK    9  A    between atoms: C13_20  and  N4_21 
REMARK   10  A    between atoms: C19_30  and  N7_31 
REMARK   11  A    between atoms: N7_31  and  C20_33 
REMARK   12  A    between atoms: C20_33  and  C21_34 
REMARK   13  A    between atoms: C21_34  and  C22_35 
REMARK   14  A    between atoms: C22_35  and  N8_36 
REMARK       I    between atoms: N8_36  and  C24_38 
REMARK   15  A    between atoms: C24_38  and  C25_40 
ROOT
HETATM    1  C12 UNL     1     -17.255 -22.719  16.193  1.00  0.00     0.707 A 
HETATM    2  N3  UNL     1     -17.769 -23.949  16.092  1.00  0.00    -0.021 N 
ATOM      3  H3  UNL     1     -18.423 -24.139  15.333  1.00  0.00     0.203 HD
HETATM    4  C13 UNL     1     -17.466 -24.945  16.939  1.00  0.00     0.709 A 
HETATM    5  N6  UNL     1     -16.608 -24.684  17.928  1.00  0.00    -0.021 N 
ATOM      6  H6  UNL     1     -16.361 -25.425  18.585  1.00  0.00     0.203 HD
HETATM    7  C19 UNL     1     -16.051 -23.439  18.079  1.00  0.00     0.707 A 
HETATM    8  N9  UNL     1     -16.378 -22.471  17.214  1.00  0.00    -0.022 N 
ATOM      9  H9  UNL     1     -15.971 -21.542  17.316  1.00  0.00     0.203 HD
ENDROOT
BRANCH   1  10
HETATM   10  N2  UNL     1     -17.510 -21.743  15.403  1.00  0.00    -0.219 N 
ATOM     11  H2  UNL     1     -18.411 -21.267  15.452  1.00  0.00     0.178 HD
BRANCH  10  12
HETATM   12  C11 UNL     1     -16.527 -21.325  14.452  1.00  0.00     0.203 C 
BRANCH  12  13
HETATM   13  C10 UNL     1     -15.373 -20.636  15.115  1.00  0.00     0.077 A 
HETATM   14  O2  UNL     1     -15.438 -20.008  16.253  1.00  0.00    -0.324 OA
HETATM   15  C9  UNL     1     -14.236 -19.509  16.555  1.00  0.00     0.151 A 
HETATM   16  C8  UNL     1     -13.329 -19.817  15.573  1.00  0.00     0.001 A 
HETATM   17  C29 UNL     1     -14.089 -20.552  14.643  1.00  0.00    -0.021 A 
HETATM   18  C30 UNL     1     -13.583 -21.121  13.388  1.00  0.00     0.051 C 
BRANCH  16  19
HETATM   19  C7  UNL     1     -11.908 -19.506  15.365  1.00  0.00     0.313 C 
BRANCH  19  20
HETATM   20  N1  UNL     1     -11.129 -19.240  16.528  1.00  0.00     0.092 N 
HETATM   21  C6  UNL     1     -11.195 -17.822  16.884  1.00  0.00     0.273 C 
HETATM   22  C5  UNL     1     -10.470 -16.963  15.866  1.00  0.00     0.035 C 
HETATM   23  C4  UNL     1      -9.100 -17.473  15.602  1.00  0.00    -0.009 C 
HETATM   24  C32 UNL     1      -9.103 -18.949  15.259  1.00  0.00     0.035 C 
HETATM   25  C31 UNL     1      -9.740 -19.651  16.420  1.00  0.00     0.273 C 
BRANCH  23  26
HETATM   26  C3  UNL     1      -8.305 -16.624  14.688  1.00  0.00     0.031 C 
BRANCH  26  27
HETATM   27  C2  UNL     1      -8.604 -15.173  14.618  1.00  0.00     0.167 C 
BRANCH  27  28
HETATM   28  O1  UNL     1      -8.039 -14.405  15.618  1.00  0.00    -0.396 OA
HETATM   29  C1  UNL     1      -6.710 -14.768  15.862  1.00  0.00     0.201 C 
ENDBRANCH  27  28
ENDBRANCH  26  27
ENDBRANCH  23  26
ENDBRANCH  19  20
ENDBRANCH  16  19
ENDBRANCH  12  13
ENDBRANCH  10  12
ENDBRANCH   1  10
BRANCH   4  30
HETATM   30  N4  UNL     1     -18.055 -26.247  16.774  1.00  0.00    -0.213 N 
HETATM   31  C14 UNL     1     -18.027 -27.141  17.888  1.00  0.00     0.171 C 
HETATM   32  C15 UNL     1     -18.884 -28.344  17.559  1.00  0.00     0.292 C 
HETATM   33  N5  UNL     1     -18.398 -28.863  16.284  1.00  0.00     0.087 N 
HETATM   34  C16 UNL     1     -19.029 -30.168  16.094  1.00  0.00     0.310 C 
HETATM   35  C17 UNL     1     -18.858 -27.993  15.239  1.00  0.00     0.292 C 
HETATM   36  C18 UNL     1     -18.627 -26.545  15.492  1.00  0.00     0.171 C 
ENDBRANCH   4  30
BRANCH   7  37
HETATM   37  N7  UNL     1     -15.227 -23.228  19.038  1.00  0.00    -0.225 N 
ATOM     38  H7  UNL     1     -14.924 -24.017  19.609  1.00  0.00     0.177 HD
BRANCH  37  39
HETATM   39  C20 UNL     1     -14.717 -21.926  19.335  1.00  0.00     0.139 C 
BRANCH  39  40
HETATM   40  C21 UNL     1     -13.232 -21.908  19.142  1.00  0.00     0.040 C 
BRANCH  40  41
HETATM   41  C22 UNL     1     -12.552 -20.624  19.477  1.00  0.00     0.127 C 
BRANCH  41  42
HETATM   42  N8  UNL     1     -11.135 -20.744  19.766  1.00  0.00    -0.356 N 
HETATM   43  C23 UNL     1     -10.389 -21.880  19.348  1.00  0.00     0.152 C 
HETATM   44  C24 UNL     1     -10.546 -19.678  20.496  1.00  0.00     0.227 C 
HETATM   45  O3  UNL     1     -11.270 -18.676  20.857  1.00  0.00    -0.273 OA
BRANCH  44  46
HETATM   46  C25 UNL     1      -9.125 -19.599  20.902  1.00  0.00     0.030 C 
HETATM   47  C26 UNL     1      -8.620 -20.817  21.616  1.00  0.00     0.025 C 
HETATM   48  C27 UNL     1      -8.935 -18.405  21.857  1.00  0.00     0.025 C 
HETATM   49  C28 UNL     1      -8.301 -19.313  19.654  1.00  0.00     0.025 C 
ENDBRANCH  44  46
ENDBRANCH  41  42
ENDBRANCH  40  41
ENDBRANCH  39  40
ENDBRANCH  37  39
ENDBRANCH   7  37
TORSDOF 15
ENDMDL
MODEL 4
REMARK VINA RESULT: -8.668186080      3.342     10.118
REMARK  15 active torsions:
REMARK  status: ('A' for Active; 'I' for Inactive)
REMARK    1  A    between atoms: O1_2  and  C2_3 
REMARK    2  A    between atoms: C2_3  and  C3_4 
REMARK    3  A    between atoms: C3_4  and  C4_5 
REMARK    4  A    between atoms: N1_8  and  C7_9 
REMARK    5  A    between atoms: C7_9  and  C8_10 
REMARK    6  A    between atoms: C10_13  and  C11_14 
REMARK    7  A    between atoms: C11_14  and  N2_15 
REMARK    8  A    between atoms: N2_15  and  C12_17 
REMARK    9  A    between atoms: C13_20  and  N4_21 
REMARK   10  A    between atoms: C19_30  and  N7_31 
REMARK   11  A    between atoms: N7_31  and  C20_33 
REMARK   12  A    between atoms: C20_33  and  C21_34 
REMARK   13  A    between atoms: C21_34  and  C22_35 
REMARK   14  A    between atoms: C22_35  and  N8_36 
REMARK       I    between atoms: N8_36  and  C24_38 
REMARK   15  A    between atoms: C24_38  and  C25_40 
ROOT
HETATM    1  C12 UNL     1     -10.635 -18.089  16.516  1.00  0.00     0.707 A 
HETATM    2  N3  UNL     1      -9.670 -18.250  17.427  1.00  0.00    -0.021 N 
ATOM      3  H3  UNL     1      -8.700 -18.224  17.114  1.00  0.00     0.203 HD
HETATM    4  C13 UNL     1      -9.915 -18.445  18.732  1.00  0.00     0.709 A 
HETATM    5  N6  UNL     1     -11.190 -18.477  19.130  1.00  0.00    -0.021 N 
ATOM      6  H6  UNL     1     -11.402 -18.623  20.117  1.00  0.00     0.203 HD
HETATM    7  C19 UNL     1     -12.219 -18.317  18.237  1.00  0.00     0.707 A 
HETATM    8  N9  UNL     1     -11.934 -18.125  16.943  1.00  0.00    -0.022 N 
ATOM      9  H9  UNL     1     -12.691 -18.005  16.270  1.00  0.00     0.203 HD
ENDROOT
BRANCH   1  10
HETATM   10  N2  UNL     1     -10.445 -17.893  15.264  1.00  0.00    -0.219 N 
ATOM     11  H2  UNL     1     -10.454 -18.680  14.615  1.00  0.00     0.178 HD
BRANCH  10  12
HETATM   12  C11 UNL     1     -10.221 -16.566  14.781  1.00  0.00     0.203 C 
BRANCH  12  13
HETATM   13  C10 UNL     1      -8.859 -16.062  15.153  1.00  0.00     0.077 A 
HETATM   14  O2  UNL     1      -8.611 -14.878  15.633  1.00  0.00    -0.324 OA
HETATM   15  C9  UNL     1      -7.300 -14.754  15.856  1.00  0.00     0.151 A 
HETATM   16  C8  UNL     1      -6.643 -15.907  15.508  1.00  0.00     0.001 A 
HETATM   17  C29 UNL     1      -7.676 -16.748  15.052  1.00  0.00    -0.021 A 
HETATM   18  C30 UNL     1      -7.504 -18.118  14.555  1.00  0.00     0.051 C 
BRANCH  16  19
HETATM   19  C7  UNL     1      -5.232 -16.314  15.506  1.00  0.00     0.313 C 
BRANCH  19  20
HETATM   20  N1  UNL     1      -4.333 -15.531  16.286  1.00  0.00     0.092 N 
HETATM   21  C6  UNL     1      -2.949 -15.752  15.863  1.00  0.00     0.273 C 
HETATM   22  C5  UNL     1      -2.479 -17.148  16.223  1.00  0.00     0.035 C 
HETATM   23  C4  UNL     1      -2.749 -17.462  17.649  1.00  0.00    -0.009 C 
HETATM   24  C32 UNL     1      -4.193 -17.192  18.024  1.00  0.00     0.035 C 
HETATM   25  C31 UNL     1      -4.445 -15.747  17.718  1.00  0.00     0.273 C 
BRANCH  23  26
HETATM   26  C3  UNL     1      -2.228 -18.774  18.089  1.00  0.00     0.031 C 
BRANCH  26  27
HETATM   27  C2  UNL     1      -3.156 -19.729  18.744  1.00  0.00     0.167 C 
BRANCH  27  28
HETATM   28  O1  UNL     1      -2.635 -20.985  18.990  1.00  0.00    -0.396 OA
HETATM   29  C1  UNL     1      -3.569 -21.993  18.725  1.00  0.00     0.201 C 
ENDBRANCH  27  28
ENDBRANCH  26  27
ENDBRANCH  23  26
ENDBRANCH  19  20
ENDBRANCH  16  19
ENDBRANCH  12  13
ENDBRANCH  10  12
ENDBRANCH   1  10
BRANCH   4  30
HETATM   30  N4  UNL     1      -8.830 -18.612  19.661  1.00  0.00    -0.213 N 
HETATM   31  C14 UNL     1      -8.341 -17.450  20.335  1.00  0.00     0.171 C 
HETATM   32  C15 UNL     1      -7.367 -17.892  21.407  1.00  0.00     0.292 C 
HETATM   33  N5  UNL     1      -6.378 -18.737  20.744  1.00  0.00     0.087 N 
HETATM   34  C16 UNL     1      -5.293 -18.942  21.701  1.00  0.00     0.310 C 
HETATM   35  C17 UNL     1      -6.980 -20.011  20.477  1.00  0.00     0.292 C 
HETATM   36  C18 UNL     1      -8.320 -19.942  19.835  1.00  0.00     0.171 C 
ENDBRANCH   4  30
BRANCH   7  37
HETATM   37  N7  UNL     1     -13.430 -18.349  18.657  1.00  0.00    -0.225 N 
ATOM     38  H7  UNL     1     -13.746 -17.622  19.299  1.00  0.00     0.177 HD
BRANCH  37  39
HETATM   39  C20 UNL     1     -14.352 -19.365  18.258  1.00  0.00     0.139 C 
BRANCH  39  40
HETATM   40  C21 UNL     1     -13.830 -20.709  18.662  1.00  0.00     0.040 C 
BRANCH  40  41
HETATM   41  C22 UNL     1     -13.283 -21.549  17.557  1.00  0.00     0.127 C 
BRANCH  41  42
HETATM   42  N8  UNL     1     -14.177 -21.724  16.427  1.00  0.00    -0.356 N 
HETATM   43  C23 UNL     1     -15.385 -22.464  16.549  1.00  0.00     0.152 C 
HETATM   44  C24 UNL     1     -13.772 -21.132  15.202  1.00  0.00     0.227 C 
HETATM   45  O3  UNL     1     -12.663 -20.478  15.147  1.00  0.00    -0.273 OA
BRANCH  44  46
HETATM   46  C25 UNL     1     -14.525 -21.191  13.930  1.00  0.00     0.030 C 
HETATM   47  C26 UNL     1     -14.852 -22.581  13.473  1.00  0.00     0.025 C 
HETATM   48  C27 UNL     1     -13.690 -20.534  12.815  1.00  0.00     0.025 C 
HETATM   49  C28 UNL     1     -15.787 -20.357  14.098  1.00  0.00     0.025 C 
ENDBRANCH  44  46
ENDBRANCH  41  42
ENDBRANCH  40  41
ENDBRANCH  39  40
ENDBRANCH  37  39
ENDBRANCH   7  37
TORSDOF 15
ENDMDL
MODEL 5
REMARK VINA RESULT: -8.634855581      2.592      9.127
REMARK  15 active torsions:
REMARK  status: ('A' for Active; 'I' for Inactive)
REMARK    1  A    between atoms: O1_2  and  C2_3 
REMARK    2  A    between atoms: C2_3  and  C3_4 
REMARK    3  A    between atoms: C3_4  and  C4_5 
REMARK    4  A    between atoms: N1_8  and  C7_9 
REMARK    5  A    between atoms: C7_9  and  C8_10 
REMARK    6  A    between atoms: C10_13  and  C11_14 
REMARK    7  A    between atoms: C11_14  and  N2_15 
REMARK    8  A    between atoms: N2_15  and  C12_17 
REMARK    9  A    between atoms: C13_20  and  N4_21 
REMARK   10  A    between atoms: C19_30  and  N7_31 
REMARK   11  A    between atoms: N7_31  and  C20_33 
REMARK   12  A    between atoms: C20_33  and  C21_34 
REMARK   13  A    between atoms: C21_34  and  C22_35 
REMARK   14  A    between atoms: C22_35  and  N8_36 
REMARK       I    between atoms: N8_36  and  C24_38 
REMARK   15  A    between atoms: C24_38  and  C25_40 
ROOT
HETATM    1  C12 UNL     1     -11.340 -21.002  16.718  1.00  0.00     0.707 A 
HETATM    2  N3  UNL     1     -10.627 -19.871  16.696  1.00  0.00    -0.021 N 
ATOM      3  H3  UNL     1      -9.880 -19.756  17.381  1.00  0.00     0.203 HD
HETATM    4  C13 UNL     1     -10.845 -18.880  15.817  1.00  0.00     0.709 A 
HETATM    5  N6  UNL     1     -11.825 -19.042  14.925  1.00  0.00    -0.021 N 
ATOM      6  H6  UNL     1     -12.011 -18.303  14.246  1.00  0.00     0.203 HD
HETATM    7  C19 UNL     1     -12.588 -20.182  14.903  1.00  0.00     0.707 A 
HETATM    8  N9  UNL     1     -12.340 -21.148  15.796  1.00  0.00    -0.022 N 
ATOM      9  H9  UNL     1     -12.900 -22.000  15.789  1.00  0.00     0.203 HD
ENDROOT
BRANCH   1  10
HETATM   10  N2  UNL     1     -11.160 -21.974  17.532  1.00  0.00    -0.219 N 
ATOM     11  H2  UNL     1     -10.757 -22.852  17.201  1.00  0.00     0.178 HD
BRANCH  10  12
HETATM   12  C11 UNL     1     -11.525 -21.825  18.906  1.00  0.00     0.203 C 
BRANCH  12  13
HETATM   13  C10 UNL     1     -10.396 -21.275  19.724  1.00  0.00     0.077 A 
HETATM   14  O2  UNL     1      -9.348 -21.953  20.092  1.00  0.00    -0.324 OA
HETATM   15  C9  UNL     1      -8.539 -21.167  20.808  1.00  0.00     0.151 A 
HETATM   16  C8  UNL     1      -9.072 -19.909  20.923  1.00  0.00     0.001 A 
HETATM   17  C29 UNL     1     -10.283 -19.999  20.211  1.00  0.00    -0.021 A 
HETATM   18  C30 UNL     1     -11.249 -18.909  20.029  1.00  0.00     0.051 C 
BRANCH  16  19
HETATM   19  C7  UNL     1      -8.647 -18.681  21.610  1.00  0.00     0.313 C 
BRANCH  19  20
HETATM   20  N1  UNL     1      -8.207 -17.603  20.789  1.00  0.00     0.092 N 
HETATM   21  C6  UNL     1      -7.061 -18.005  19.971  1.00  0.00     0.273 C 
HETATM   22  C5  UNL     1      -5.825 -18.224  20.823  1.00  0.00     0.035 C 
HETATM   23  C4  UNL     1      -5.572 -17.068  21.719  1.00  0.00    -0.009 C 
HETATM   24  C32 UNL     1      -6.802 -16.692  22.521  1.00  0.00     0.035 C 
HETATM   25  C31 UNL     1      -7.879 -16.392  21.523  1.00  0.00     0.273 C 
BRANCH  23  26
HETATM   26  C3  UNL     1      -4.325 -17.176  22.509  1.00  0.00     0.031 C 
BRANCH  26  27
HETATM   27  C2  UNL     1      -3.287 -18.144  22.075  1.00  0.00     0.167 C 
BRANCH  27  28
HETATM   28  O1  UNL     1      -3.142 -19.256  22.882  1.00  0.00    -0.396 OA
HETATM   29  C1  UNL     1      -2.497 -20.302  22.213  1.00  0.00     0.201 C 
ENDBRANCH  27  28
ENDBRANCH  26  27
ENDBRANCH  23  26
ENDBRANCH  19  20
ENDBRANCH  16  19
ENDBRANCH  12  13
ENDBRANCH  10  12
ENDBRANCH   1  10
BRANCH   4  30
HETATM   30  N4  UNL     1     -10.041 -17.688  15.848  1.00  0.00    -0.213 N 
HETATM   31  C14 UNL     1      -9.717 -17.067  14.603  1.00  0.00     0.171 C 
HETATM   32  C15 UNL     1      -9.064 -15.731  14.889  1.00  0.00     0.292 C 
HETATM   33  N5  UNL     1      -7.956 -15.999  15.803  1.00  0.00     0.087 N 
HETATM   34  C16 UNL     1      -7.161 -14.775  15.868  1.00  0.00     0.310 C 
HETATM   35  C17 UNL     1      -8.498 -16.246  17.108  1.00  0.00     0.292 C 
HETATM   36  C18 UNL     1      -9.625 -17.216  17.138  1.00  0.00     0.171 C 
ENDBRANCH   4  30
BRANCH   7  37
HETATM   37  N7  UNL     1     -13.517 -20.304  14.028  1.00  0.00    -0.225 N 
ATOM     38  H7  UNL     1     -13.810 -19.478  13.504  1.00  0.00     0.177 HD
BRANCH  37  39
HETATM   39  C20 UNL     1     -14.156 -21.553  13.760  1.00  0.00     0.139 C 
BRANCH  39  40
HETATM   40  C21 UNL     1     -15.625 -21.438  14.030  1.00  0.00     0.040 C 
BRANCH  40  41
HETATM   41  C22 UNL     1     -15.999 -21.060  15.423  1.00  0.00     0.127 C 
BRANCH  41  42
HETATM   42  N8  UNL     1     -16.101 -22.174  16.348  1.00  0.00    -0.356 N 
HETATM   43  C23 UNL     1     -16.887 -23.319  16.043  1.00  0.00     0.152 C 
HETATM   44  C24 UNL     1     -15.388 -22.049  17.570  1.00  0.00     0.227 C 
HETATM   45  O3  UNL     1     -14.697 -20.987  17.798  1.00  0.00    -0.273 OA
BRANCH  44  46
HETATM   46  C25 UNL     1     -15.357 -23.058  18.652  1.00  0.00     0.030 C 
HETATM   47  C26 UNL     1     -16.705 -23.601  19.025  1.00  0.00     0.025 C 
HETATM   48  C27 UNL     1     -14.760 -22.422  19.922  1.00  0.00     0.025 C 
HETATM   49  C28 UNL     1     -14.416 -24.173  18.221  1.00  0.00     0.025 C 
ENDBRANCH  44  46
ENDBRANCH  41  42
ENDBRANCH  40  41
ENDBRANCH  39  40
ENDBRANCH  37  39
ENDBRANCH   7  37
TORSDOF 15
ENDMDL
