MODEL 1
REMARK VINA RESULT: -9.199684986      0.000      0.000
REMARK  14 active torsions:
REMARK  status: ('A' for Active; 'I' for Inactive)
REMARK    1  A    between atoms: C2_2  and  C3_3 
REMARK    2  A    between atoms: C6_6  and  C7_7 
REMARK    3  A    between atoms: N1_9  and  C8_10 
REMARK    4  A    between atoms: C8_10  and  N2_11 
REMARK    5  A    between atoms: N3_14  and  C11_15 
REMARK    6  A    between atoms: C11_15  and  C12_16 
REMARK    7  A    between atoms: C12_16  and  O2_17 
REMARK    8  A    between atoms: C19_27  and  N5_28 
REMARK    9  A    between atoms: N5_28  and  C20_30 
REMARK   10  A    between atoms: C23_33  and  O3_34 
REMARK   11  A    between atoms: O3_34  and  C24_35 
REMARK   12  A    between atoms: C24_35  and  C25_36 
REMARK   13  A    between atoms: C25_36  and  C26_37 
REMARK   14  A    between atoms: C26_37  and  N6_38 
ROOT
HETATM    1  C20 UNL     1     -10.442 -19.792  20.235  1.00  0.00     0.050 A 
HETATM    2  C21 UNL     1      -9.602 -20.846  19.986  1.00  0.00     0.033 A 
HETATM    3  C22 UNL     1      -8.252 -20.736  20.277  1.00  0.00     0.040 A 
HETATM    4  C23 UNL     1      -7.685 -19.597  20.818  1.00  0.00     0.089 A 
HETATM    5  C31 UNL     1      -8.566 -18.515  21.071  1.00  0.00     0.080 A 
HETATM    6  C32 UNL     1      -7.984 -17.308  21.627  1.00  0.00     0.102 C 
HETATM    7  N7  UNL     1      -7.529 -16.338  22.060  1.00  0.00    -0.191 NA
HETATM    8  C33 UNL     1      -9.885 -18.641  20.780  1.00  0.00     0.055 A 
ENDROOT
BRANCH   4   9
HETATM    9  O3  UNL     1      -6.428 -19.478  21.090  1.00  0.00    -0.350 OA
BRANCH   9  10
HETATM   10  C24 UNL     1      -5.175 -19.354  21.369  1.00  0.00     0.177 C 
BRANCH  10  11
HETATM   11  C25 UNL     1      -4.104 -19.429  20.293  1.00  0.00     0.057 C 
BRANCH  11  12
HETATM   12  C26 UNL     1      -2.924 -20.251  20.678  1.00  0.00     0.274 C 
BRANCH  12  13
HETATM   13  N6  UNL     1      -2.375 -20.989  19.565  1.00  0.00     0.088 N 
HETATM   14  C27 UNL     1      -1.577 -22.110  19.896  1.00  0.00     0.272 C 
HETATM   15  C28 UNL     1      -2.313 -23.351  19.448  1.00  0.00     0.032 C 
HETATM   16  C29 UNL     1      -3.376 -22.864  18.516  1.00  0.00     0.032 C 
HETATM   17  C30 UNL     1      -3.399 -21.363  18.663  1.00  0.00     0.272 C 
ENDBRANCH  12  13
ENDBRANCH  11  12
ENDBRANCH  10  11
ENDBRANCH   9  10
ENDBRANCH   4   9
BRANCH   1  18
HETATM   18  N5  UNL     1     -11.832 -19.752  19.971  1.00  0.00    -0.192 N 
ATOM     19  H5  UNL     1     -12.480 -19.675  20.753  1.00  0.00     0.184 HD
BRANCH  18  20
HETATM   20  C19 UNL     1     -12.316 -19.810  18.741  1.00  0.00     0.683 A 
HETATM   21  N4  UNL     1     -11.822 -19.019  17.769  1.00  0.00    -0.201 N 
HETATM   22  C18 UNL     1     -12.302 -18.991  16.520  1.00  0.00     0.115 A 
ATOM     23  H4  UNL     1     -11.039 -18.406  17.998  1.00  0.00     0.183 HD
HETATM   24  C17 UNL     1     -13.380 -19.825  16.185  1.00  0.00    -0.014 A 
HETATM   25  C16 UNL     1     -13.890 -19.836  14.805  1.00  0.00     0.047 C 
HETATM   26  C34 UNL     1     -13.860 -20.621  17.207  1.00  0.00     0.069 A 
HETATM   27  C15 UNL     1     -15.202 -20.474  14.647  1.00  0.00     0.047 C 
HETATM   28  C5  UNL     1     -15.649 -21.359  15.728  1.00  0.00    -0.013 A 
HETATM   29  C4  UNL     1     -15.054 -21.425  16.939  1.00  0.00     0.024 A 
HETATM   30  C6  UNL     1     -16.743 -22.239  15.749  1.00  0.00     0.085 A 
HETATM   31  C3  UNL     1     -15.790 -22.346  17.688  1.00  0.00     0.030 A 
HETATM   32  N1  UNL     1     -16.811 -22.827  16.946  1.00  0.00    -0.307 N 
HETATM   33  N8  UNL     1     -13.346 -20.619  18.449  1.00  0.00    -0.190 N 
ATOM     34  H8  UNL     1     -13.736 -21.229  19.166  1.00  0.00     0.184 HD
BRANCH  31  35
HETATM   35  C2  UNL     1     -15.432 -22.720  19.082  1.00  0.00     0.054 C 
HETATM   36  C1  UNL     1     -14.487 -23.918  18.978  1.00  0.00     0.011 C 
ENDBRANCH  31  35
BRANCH  32  37
HETATM   37  C8  UNL     1     -17.779 -23.753  17.400  1.00  0.00     0.186 C 
BRANCH  37  38
HETATM   38  N2  UNL     1     -17.679 -25.111  17.015  1.00  0.00    -0.373 N 
HETATM   39  C9  UNL     1     -17.343 -25.989  18.119  1.00  0.00     0.143 C 
HETATM   40  C10 UNL     1     -18.304 -27.102  18.349  1.00  0.00     0.141 C 
HETATM   41  N3  UNL     1     -18.700 -27.801  17.184  1.00  0.00    -0.388 N 
HETATM   42  C13 UNL     1     -18.348 -27.154  15.955  1.00  0.00     0.141 C 
HETATM   43  C14 UNL     1     -18.610 -25.629  16.087  1.00  0.00     0.143 C 
BRANCH  41  44
HETATM   44  C11 UNL     1     -18.826 -29.184  17.208  1.00  0.00     0.084 C 
BRANCH  44  45
HETATM   45  C12 UNL     1     -18.808 -29.929  15.909  1.00  0.00     0.208 C 
BRANCH  45  46
HETATM   46  O2  UNL     1     -17.560 -30.579  15.816  1.00  0.00    -0.396 OA
ATOM     47  H2  UNL     1     -17.363 -30.680  14.893  1.00  0.00     0.209 HD
ENDBRANCH  45  46
ENDBRANCH  44  45
ENDBRANCH  41  44
ENDBRANCH  37  38
ENDBRANCH  32  37
BRANCH  30  48
HETATM   48  C7  UNL     1     -17.649 -22.411  14.603  1.00  0.00     0.289 C 
HETATM   49  O1  UNL     1     -18.772 -21.902  14.526  1.00  0.00    -0.300 OA
ENDBRANCH  30  48
ENDBRANCH  18  20
ENDBRANCH   1  18
TORSDOF 14
ENDMDL
MODEL 2
REMARK VINA RESULT: -9.199299325      3.582      5.810
REMARK  14 active torsions:
REMARK  status: ('A' for Active; 'I' for Inactive)
REMARK    1  A    between atoms: C2_2  and  C3_3 
REMARK    2  A    between atoms: C6_6  and  C7_7 
REMARK    3  A    between atoms: N1_9  and  C8_10 
REMARK    4  A    between atoms: C8_10  and  N2_11 
REMARK    5  A    between atoms: N3_14  and  C11_15 
REMARK    6  A    between atoms: C11_15  and  C12_16 
REMARK    7  A    between atoms: C12_16  and  O2_17 
REMARK    8  A    between atoms: C19_27  and  N5_28 
REMARK    9  A    between atoms: N5_28  and  C20_30 
REMARK   10  A    between atoms: C23_33  and  O3_34 
REMARK   11  A    between atoms: O3_34  and  C24_35 
REMARK   12  A    between atoms: C24_35  and  C25_36 
REMARK   13  A    between atoms: C25_36  and  C26_37 
REMARK   14  A    between atoms: C26_37  and  N6_38 
ROOT
HETATM    1  C20 UNL     1     -13.443 -20.511  18.005  1.00  0.00     0.050 A 
HETATM    2  C21 UNL     1     -13.288 -19.156  17.873  1.00  0.00     0.033 A 
HETATM    3  C22 UNL     1     -12.133 -18.546  18.334  1.00  0.00     0.040 A 
HETATM    4  C23 UNL     1     -11.098 -19.240  18.935  1.00  0.00     0.089 A 
HETATM    5  C31 UNL     1     -11.273 -20.640  19.064  1.00  0.00     0.080 A 
HETATM    6  C32 UNL     1     -10.202 -21.382  19.703  1.00  0.00     0.102 C 
HETATM    7  N7  UNL     1      -9.360 -21.980  20.221  1.00  0.00    -0.191 NA
HETATM    8  C33 UNL     1     -12.411 -21.221  18.606  1.00  0.00     0.055 A 
ENDROOT
BRANCH   4   9
HETATM    9  O3  UNL     1     -10.018 -18.684  19.374  1.00  0.00    -0.350 OA
BRANCH   9  10
HETATM   10  C24 UNL     1      -8.939 -18.137  19.819  1.00  0.00     0.177 C 
BRANCH  10  11
HETATM   11  C25 UNL     1      -7.970 -17.412  18.899  1.00  0.00     0.057 C 
BRANCH  11  12
HETATM   12  C26 UNL     1      -8.638 -16.600  17.845  1.00  0.00     0.274 C 
BRANCH  12  13
HETATM   13  N6  UNL     1      -8.626 -17.247  16.555  1.00  0.00     0.088 N 
HETATM   14  C27 UNL     1      -9.787 -17.075  15.763  1.00  0.00     0.272 C 
HETATM   15  C28 UNL     1      -9.409 -16.239  14.563  1.00  0.00     0.032 C 
HETATM   16  C29 UNL     1      -7.915 -16.267  14.517  1.00  0.00     0.032 C 
HETATM   17  C30 UNL     1      -7.472 -16.877  15.824  1.00  0.00     0.272 C 
ENDBRANCH  12  13
ENDBRANCH  11  12
ENDBRANCH  10  11
ENDBRANCH   9  10
ENDBRANCH   4   9
BRANCH   1  18
HETATM   18  N5  UNL     1     -14.571 -21.265  17.603  1.00  0.00    -0.192 N 
ATOM     19  H5  UNL     1     -14.964 -21.108  16.676  1.00  0.00     0.184 HD
BRANCH  18  20
HETATM   20  C19 UNL     1     -15.133 -22.166  18.392  1.00  0.00     0.683 A 
HETATM   21  N4  UNL     1     -14.688 -22.352  19.649  1.00  0.00    -0.201 N 
HETATM   22  C18 UNL     1     -15.177 -23.282  20.479  1.00  0.00     0.115 A 
ATOM     23  H4  UNL     1     -13.937 -21.751  19.988  1.00  0.00     0.183 HD
HETATM   24  C17 UNL     1     -16.210 -24.119  20.032  1.00  0.00    -0.014 A 
HETATM   25  C16 UNL     1     -16.786 -25.117  20.947  1.00  0.00     0.047 C 
HETATM   26  C34 UNL     1     -16.640 -23.899  18.737  1.00  0.00     0.069 A 
HETATM   27  C15 UNL     1     -17.606 -26.143  20.291  1.00  0.00     0.047 C 
HETATM   28  C5  UNL     1     -18.092 -25.846  18.939  1.00  0.00    -0.013 A 
HETATM   29  C4  UNL     1     -17.636 -24.820  18.186  1.00  0.00     0.024 A 
HETATM   30  C6  UNL     1     -19.040 -26.541  18.173  1.00  0.00     0.085 A 
HETATM   31  C3  UNL     1     -18.313 -24.898  16.967  1.00  0.00     0.030 A 
HETATM   32  N1  UNL     1     -19.160 -25.951  16.981  1.00  0.00    -0.307 N 
HETATM   33  N8  UNL     1     -16.121 -22.951  17.938  1.00  0.00    -0.190 N 
ATOM     34  H8  UNL     1     -16.477 -22.829  16.990  1.00  0.00     0.184 HD
BRANCH  31  35
HETATM   35  C2  UNL     1     -18.108 -23.919  15.868  1.00  0.00     0.054 C 
HETATM   36  C1  UNL     1     -19.185 -22.847  16.038  1.00  0.00     0.011 C 
ENDBRANCH  31  35
BRANCH  32  37
HETATM   37  C8  UNL     1     -19.979 -26.348  15.898  1.00  0.00     0.186 C 
BRANCH  37  38
HETATM   38  N2  UNL     1     -19.417 -27.101  14.839  1.00  0.00    -0.373 N 
HETATM   39  C9  UNL     1     -19.493 -26.423  13.560  1.00  0.00     0.143 C 
HETATM   40  C10 UNL     1     -18.188 -26.241  12.870  1.00  0.00     0.141 C 
HETATM   41  N3  UNL     1     -17.360 -27.389  12.842  1.00  0.00    -0.388 N 
HETATM   42  C13 UNL     1     -17.775 -28.441  13.721  1.00  0.00     0.141 C 
HETATM   43  C14 UNL     1     -18.229 -27.829  15.074  1.00  0.00     0.143 C 
BRANCH  41  44
HETATM   44  C11 UNL     1     -16.646 -27.708  11.693  1.00  0.00     0.084 C 
BRANCH  44  45
HETATM   45  C12 UNL     1     -15.153 -27.775  11.772  1.00  0.00     0.208 C 
BRANCH  45  46
HETATM   46  O2  UNL     1     -14.710 -26.572  12.359  1.00  0.00    -0.396 OA
ATOM     47  H2  UNL     1     -15.338 -26.339  13.032  1.00  0.00     0.209 HD
ENDBRANCH  45  46
ENDBRANCH  44  45
ENDBRANCH  41  44
ENDBRANCH  37  38
ENDBRANCH  32  37
BRANCH  30  48
HETATM   48  C7  UNL     1     -19.732 -27.743  18.662  1.00  0.00     0.289 C 
HETATM   49  O1  UNL     1     -19.450 -28.894  18.313  1.00  0.00    -0.300 OA
ENDBRANCH  30  48
ENDBRANCH  18  20
ENDBRANCH   1  18
TORSDOF 14
ENDMDL
MODEL 3
REMARK VINA RESULT: -9.140897990      1.598      2.397
REMARK  14 active torsions:
REMARK  status: ('A' for Active; 'I' for Inactive)
REMARK    1  A    between atoms: C2_2  and  C3_3 
REMARK    2  A    between atoms: C6_6  and  C7_7 
REMARK    3  A    between atoms: N1_9  and  C8_10 
REMARK    4  A    between atoms: C8_10  and  N2_11 
REMARK    5  A    between atoms: N3_14  and  C11_15 
REMARK    6  A    between atoms: C11_15  and  C12_16 
REMARK    7  A    between atoms: C12_16  and  O2_17 
REMARK    8  A    between atoms: C19_27  and  N5_28 
REMARK    9  A    between atoms: N5_28  and  C20_30 
REMARK   10  A    between atoms: C23_33  and  O3_34 
REMARK   11  A    between atoms: O3_34  and  C24_35 
REMARK   12  A    between atoms: C24_35  and  C25_36 
REMARK   13  A    between atoms: C25_36  and  C26_37 
REMARK   14  A    between atoms: C26_37  and  N6_38 
ROOT
HETATM    1  C20 UNL     1     -10.437 -19.733  20.215  1.00  0.00     0.050 A 
HETATM    2  C21 UNL     1      -9.572 -20.757  19.931  1.00  0.00     0.033 A 
HETATM    3  C22 UNL     1      -8.226 -20.626  20.229  1.00  0.00     0.040 A 
HETATM    4  C23 UNL     1      -7.688 -19.493  20.812  1.00  0.00     0.089 A 
HETATM    5  C31 UNL     1      -8.594 -18.443  21.101  1.00  0.00     0.080 A 
HETATM    6  C32 UNL     1      -8.043 -17.243  21.702  1.00  0.00     0.102 C 
HETATM    7  N7  UNL     1      -7.612 -16.279  22.170  1.00  0.00    -0.191 NA
HETATM    8  C33 UNL     1      -9.910 -18.590  20.802  1.00  0.00     0.055 A 
ENDROOT
BRANCH   4   9
HETATM    9  O3  UNL     1      -6.434 -19.355  21.091  1.00  0.00    -0.350 OA
BRANCH   9  10
HETATM   10  C24 UNL     1      -5.183 -19.206  21.365  1.00  0.00     0.177 C 
BRANCH  10  11
HETATM   11  C25 UNL     1      -4.243 -18.457  20.435  1.00  0.00     0.057 C 
BRANCH  11  12
HETATM   12  C26 UNL     1      -4.798 -17.172  19.928  1.00  0.00     0.274 C 
BRANCH  12  13
HETATM   13  N6  UNL     1      -5.286 -17.275  18.573  1.00  0.00     0.088 N 
HETATM   14  C27 UNL     1      -6.609 -16.820  18.353  1.00  0.00     0.272 C 
HETATM   15  C28 UNL     1      -6.535 -15.585  17.486  1.00  0.00     0.032 C 
HETATM   16  C29 UNL     1      -5.152 -15.584  16.917  1.00  0.00     0.032 C 
HETATM   17  C30 UNL     1      -4.393 -16.646  17.674  1.00  0.00     0.272 C 
ENDBRANCH  12  13
ENDBRANCH  11  12
ENDBRANCH  10  11
ENDBRANCH   9  10
ENDBRANCH   4   9
BRANCH   1  18
HETATM   18  N5  UNL     1     -11.827 -19.717  19.948  1.00  0.00    -0.192 N 
ATOM     19  H5  UNL     1     -12.479 -19.651  20.730  1.00  0.00     0.184 HD
BRANCH  18  20
HETATM   20  C19 UNL     1     -12.309 -19.784  18.717  1.00  0.00     0.683 A 
HETATM   21  N4  UNL     1     -11.811 -19.002  17.741  1.00  0.00    -0.201 N 
HETATM   22  C18 UNL     1     -12.288 -18.983  16.490  1.00  0.00     0.115 A 
ATOM     23  H4  UNL     1     -11.027 -18.389  17.967  1.00  0.00     0.183 HD
HETATM   24  C17 UNL     1     -13.366 -19.818  16.159  1.00  0.00    -0.014 A 
HETATM   25  C16 UNL     1     -13.873 -19.839  14.778  1.00  0.00     0.047 C 
HETATM   26  C34 UNL     1     -13.850 -20.605  17.187  1.00  0.00     0.069 A 
HETATM   27  C15 UNL     1     -15.186 -20.477  14.622  1.00  0.00     0.047 C 
HETATM   28  C5  UNL     1     -15.637 -21.352  15.708  1.00  0.00    -0.013 A 
HETATM   29  C4  UNL     1     -15.045 -21.409  16.922  1.00  0.00     0.024 A 
HETATM   30  C6  UNL     1     -16.733 -22.230  15.734  1.00  0.00     0.085 A 
HETATM   31  C3  UNL     1     -15.784 -22.323  17.676  1.00  0.00     0.030 A 
HETATM   32  N1  UNL     1     -16.805 -22.808  16.936  1.00  0.00    -0.307 N 
HETATM   33  N8  UNL     1     -13.339 -20.594  18.430  1.00  0.00    -0.190 N 
ATOM     34  H8  UNL     1     -13.732 -21.198  19.151  1.00  0.00     0.184 HD
BRANCH  31  35
HETATM   35  C2  UNL     1     -15.430 -22.686  19.074  1.00  0.00     0.054 C 
HETATM   36  C1  UNL     1     -14.485 -23.884  18.982  1.00  0.00     0.011 C 
ENDBRANCH  31  35
BRANCH  32  37
HETATM   37  C8  UNL     1     -17.775 -23.729  17.395  1.00  0.00     0.186 C 
BRANCH  37  38
HETATM   38  N2  UNL     1     -17.683 -25.088  17.012  1.00  0.00    -0.373 N 
HETATM   39  C9  UNL     1     -17.333 -25.964  18.112  1.00  0.00     0.143 C 
HETATM   40  C10 UNL     1     -18.292 -27.075  18.358  1.00  0.00     0.141 C 
HETATM   41  N3  UNL     1     -18.707 -27.775  17.200  1.00  0.00    -0.388 N 
HETATM   42  C13 UNL     1     -18.371 -27.131  15.965  1.00  0.00     0.141 C 
HETATM   43  C14 UNL     1     -18.629 -25.606  16.098  1.00  0.00     0.143 C 
BRANCH  41  44
HETATM   44  C11 UNL     1     -18.835 -29.158  17.230  1.00  0.00     0.084 C 
BRANCH  44  45
HETATM   45  C12 UNL     1     -18.827 -29.907  15.933  1.00  0.00     0.208 C 
BRANCH  45  46
HETATM   46  O2  UNL     1     -17.598 -30.593  15.852  1.00  0.00    -0.396 OA
ATOM     47  H2  UNL     1     -17.787 -31.476  15.557  1.00  0.00     0.209 HD
ENDBRANCH  45  46
ENDBRANCH  44  45
ENDBRANCH  41  44
ENDBRANCH  37  38
ENDBRANCH  32  37
BRANCH  30  48
HETATM   48  C7  UNL     1     -17.635 -22.409  14.587  1.00  0.00     0.289 C 
HETATM   49  O1  UNL     1     -18.770 -21.925  14.517  1.00  0.00    -0.300 OA
ENDBRANCH  30  48
ENDBRANCH  18  20
ENDBRANCH   1  18
TORSDOF 14
ENDMDL
MODEL 4
REMARK VINA RESULT: -9.133799133      2.479      3.603
REMARK  14 active torsions:
REMARK  status: ('A' for Active; 'I' for Inactive)
REMARK    1  A    between atoms: C2_2  and  C3_3 
REMARK    2  A    between atoms: C6_6  and  C7_7 
REMARK    3  A    between atoms: N1_9  and  C8_10 
REMARK    4  A    between atoms: C8_10  and  N2_11 
REMARK    5  A    between atoms: N3_14  and  C11_15 
REMARK    6  A    between atoms: C11_15  and  C12_16 
REMARK    7  A    between atoms: C12_16  and  O2_17 
REMARK    8  A    between atoms: C19_27  and  N5_28 
REMARK    9  A    between atoms: N5_28  and  C20_30 
REMARK   10  A    between atoms: C23_33  and  O3_34 
REMARK   11  A    between atoms: O3_34  and  C24_35 
REMARK   12  A    between atoms: C24_35  and  C25_36 
REMARK   13  A    between atoms: C25_36  and  C26_37 
REMARK   14  A    between atoms: C26_37  and  N6_38 
ROOT
HETATM    1  C20 UNL     1     -10.669 -20.156  17.093  1.00  0.00     0.050 A 
HETATM    2  C21 UNL     1     -10.777 -19.671  18.370  1.00  0.00     0.033 A 
HETATM    3  C22 UNL     1     -10.047 -18.556  18.749  1.00  0.00     0.040 A 
HETATM    4  C23 UNL     1      -9.193 -17.885  17.893  1.00  0.00     0.089 A 
HETATM    5  C31 UNL     1      -9.093 -18.396  16.576  1.00  0.00     0.080 A 
HETATM    6  C32 UNL     1      -8.193 -17.710  15.668  1.00  0.00     0.102 C 
HETATM    7  N7  UNL     1      -7.469 -17.177  14.942  1.00  0.00    -0.191 NA
HETATM    8  C33 UNL     1      -9.816 -19.489  16.222  1.00  0.00     0.055 A 
ENDROOT
BRANCH   4   9
HETATM    9  O3  UNL     1      -8.503 -16.847  18.234  1.00  0.00    -0.350 OA
BRANCH   9  10
HETATM   10  C24 UNL     1      -7.820 -15.811  18.583  1.00  0.00     0.177 C 
BRANCH  10  11
HETATM   11  C25 UNL     1      -6.795 -15.867  19.703  1.00  0.00     0.057 C 
BRANCH  11  12
HETATM   12  C26 UNL     1      -6.067 -17.163  19.786  1.00  0.00     0.274 C 
BRANCH  12  13
HETATM   13  N6  UNL     1      -6.300 -17.851  21.034  1.00  0.00     0.088 N 
HETATM   14  C27 UNL     1      -7.368 -17.360  21.824  1.00  0.00     0.272 C 
HETATM   15  C28 UNL     1      -8.448 -18.415  21.850  1.00  0.00     0.032 C 
HETATM   16  C29 UNL     1      -7.790 -19.666  21.360  1.00  0.00     0.032 C 
HETATM   17  C30 UNL     1      -6.449 -19.241  20.815  1.00  0.00     0.272 C 
ENDBRANCH  12  13
ENDBRANCH  11  12
ENDBRANCH  10  11
ENDBRANCH   9  10
ENDBRANCH   4   9
BRANCH   1  18
HETATM   18  N5  UNL     1     -11.333 -21.292  16.573  1.00  0.00    -0.192 N 
ATOM     19  H5  UNL     1     -10.910 -22.211  16.698  1.00  0.00     0.184 HD
BRANCH  18  20
HETATM   20  C19 UNL     1     -12.486 -21.201  15.929  1.00  0.00     0.683 A 
HETATM   21  N4  UNL     1     -12.619 -20.377  14.872  1.00  0.00    -0.201 N 
HETATM   22  C18 UNL     1     -13.770 -20.199  14.212  1.00  0.00     0.115 A 
ATOM     23  H4  UNL     1     -11.798 -19.861  14.557  1.00  0.00     0.183 HD
HETATM   24  C17 UNL     1     -14.912 -20.900  14.630  1.00  0.00    -0.014 A 
HETATM   25  C16 UNL     1     -16.173 -20.746  13.887  1.00  0.00     0.047 C 
HETATM   26  C34 UNL     1     -14.736 -21.734  15.718  1.00  0.00     0.069 A 
HETATM   27  C15 UNL     1     -17.359 -21.247  14.593  1.00  0.00     0.047 C 
HETATM   28  C5  UNL     1     -17.132 -22.177  15.704  1.00  0.00    -0.013 A 
HETATM   29  C4  UNL     1     -15.922 -22.400  16.262  1.00  0.00     0.024 A 
HETATM   30  C6  UNL     1     -18.068 -22.951  16.408  1.00  0.00     0.085 A 
HETATM   31  C3  UNL     1     -16.130 -23.311  17.300  1.00  0.00     0.030 A 
HETATM   32  N1  UNL     1     -17.441 -23.632  17.371  1.00  0.00    -0.307 N 
HETATM   33  N8  UNL     1     -13.560 -21.885  16.351  1.00  0.00    -0.190 N 
ATOM     34  H8  UNL     1     -13.485 -22.516  17.148  1.00  0.00     0.184 HD
BRANCH  31  35
HETATM   35  C2  UNL     1     -15.025 -23.833  18.146  1.00  0.00     0.054 C 
HETATM   36  C1  UNL     1     -14.981 -22.948  19.393  1.00  0.00     0.011 C 
ENDBRANCH  31  35
BRANCH  32  37
HETATM   37  C8  UNL     1     -18.013 -24.501  18.329  1.00  0.00     0.186 C 
BRANCH  37  38
HETATM   38  N2  UNL     1     -17.993 -25.898  18.102  1.00  0.00    -0.373 N 
HETATM   39  C9  UNL     1     -18.604 -26.655  19.177  1.00  0.00     0.143 C 
HETATM   40  C10 UNL     1     -19.714 -27.552  18.757  1.00  0.00     0.141 C 
HETATM   41  N3  UNL     1     -19.450 -28.334  17.608  1.00  0.00    -0.388 N 
HETATM   42  C13 UNL     1     -18.289 -27.932  16.871  1.00  0.00     0.141 C 
HETATM   43  C14 UNL     1     -18.241 -26.382  16.798  1.00  0.00     0.143 C 
BRANCH  41  44
HETATM   44  C11 UNL     1     -19.859 -29.661  17.557  1.00  0.00     0.084 C 
BRANCH  44  45
HETATM   45  C12 UNL     1     -19.932 -30.338  16.223  1.00  0.00     0.208 C 
BRANCH  45  46
HETATM   46  O2  UNL     1     -19.190 -31.533  16.319  1.00  0.00    -0.396 OA
ATOM     47  H2  UNL     1     -19.772 -32.200  16.664  1.00  0.00     0.209 HD
ENDBRANCH  45  46
ENDBRANCH  44  45
ENDBRANCH  41  44
ENDBRANCH  37  38
ENDBRANCH  32  37
BRANCH  30  48
HETATM   48  C7  UNL     1     -19.505 -22.942  16.095  1.00  0.00     0.289 C 
HETATM   49  O1  UNL     1     -20.060 -23.769  15.364  1.00  0.00    -0.300 OA
ENDBRANCH  30  48
ENDBRANCH  18  20
ENDBRANCH   1  18
TORSDOF 14
ENDMDL
MODEL 5
REMARK VINA RESULT: -9.108424730      3.732      5.580
REMARK  14 active torsions:
REMARK  status: ('A' for Active; 'I' for Inactive)
REMARK    1  A    between atoms: C2_2  and  C3_3 
REMARK    2  A    between atoms: C6_6  and  C7_7 
REMARK    3  A    between atoms: N1_9  and  C8_10 
REMARK    4  A    between atoms: C8_10  and  N2_11 
REMARK    5  A    between atoms: N3_14  and  C11_15 
REMARK    6  A    between atoms: C11_15  and  C12_16 
REMARK    7  A    between atoms: C12_16  and  O2_17 
REMARK    8  A    between atoms: C19_27  and  N5_28 
REMARK    9  A    between atoms: N5_28  and  C20_30 
REMARK   10  A    between atoms: C23_33  and  O3_34 
REMARK   11  A    between atoms: O3_34  and  C24_35 
REMARK   12  A    between atoms: C24_35  and  C25_36 
REMARK   13  A    between atoms: C25_36  and  C26_37 
REMARK   14  A    between atoms: C26_37  and  N6_38 
ROOT
HETATM    1  C20 UNL     1     -13.202 -19.388  17.432  1.00  0.00     0.050 A 
HETATM    2  C21 UNL     1     -13.052 -19.451  16.072  1.00  0.00     0.033 A 
HETATM    3  C22 UNL     1     -11.811 -19.214  15.503  1.00  0.00     0.040 A 
HETATM    4  C23 UNL     1     -10.685 -18.909  16.245  1.00  0.00     0.089 A 
HETATM    5  C31 UNL     1     -10.855 -18.848  17.650  1.00  0.00     0.080 A 
HETATM    6  C32 UNL     1      -9.685 -18.518  18.442  1.00  0.00     0.102 C 
HETATM    7  N7  UNL     1      -8.762 -18.244  19.080  1.00  0.00    -0.191 NA
HETATM    8  C33 UNL     1     -12.078 -19.084  18.190  1.00  0.00     0.055 A 
ENDROOT
BRANCH   4   9
HETATM    9  O3  UNL     1      -9.523 -18.681  15.727  1.00  0.00    -0.350 OA
BRANCH   9  10
HETATM   10  C24 UNL     1      -8.368 -18.453  15.201  1.00  0.00     0.177 C 
BRANCH  10  11
HETATM   11  C25 UNL     1      -8.055 -17.146  14.492  1.00  0.00     0.057 C 
BRANCH  11  12
HETATM   12  C26 UNL     1      -8.726 -15.961  15.092  1.00  0.00     0.274 C 
BRANCH  12  13
HETATM   13  N6  UNL     1      -7.804 -15.096  15.791  1.00  0.00     0.088 N 
HETATM   14  C27 UNL     1      -7.636 -15.354  17.172  1.00  0.00     0.272 C 
HETATM   15  C28 UNL     1      -6.227 -15.856  17.381  1.00  0.00     0.032 C 
HETATM   16  C29 UNL     1      -5.494 -15.511  16.125  1.00  0.00     0.032 C 
HETATM   17  C30 UNL     1      -6.549 -15.076  15.137  1.00  0.00     0.272 C 
ENDBRANCH  12  13
ENDBRANCH  11  12
ENDBRANCH  10  11
ENDBRANCH   9  10
ENDBRANCH   4   9
BRANCH   1  18
HETATM   18  N5  UNL     1     -14.406 -19.585  18.149  1.00  0.00    -0.192 N 
ATOM     19  H5  UNL     1     -15.045 -18.799  18.264  1.00  0.00     0.184 HD
BRANCH  18  20
HETATM   20  C19 UNL     1     -14.730 -20.755  18.674  1.00  0.00     0.683 A 
HETATM   21  N4  UNL     1     -14.165 -21.173  19.823  1.00  0.00    -0.201 N 
HETATM   22  C18 UNL     1     -14.409 -22.367  20.378  1.00  0.00     0.115 A 
ATOM     23  H4  UNL     1     -13.515 -20.546  20.296  1.00  0.00     0.183 HD
HETATM   24  C17 UNL     1     -15.299 -23.246  19.742  1.00  0.00    -0.014 A 
HETATM   25  C16 UNL     1     -15.609 -24.543  20.362  1.00  0.00     0.047 C 
HETATM   26  C34 UNL     1     -15.858 -22.782  18.566  1.00  0.00     0.069 A 
HETATM   27  C15 UNL     1     -16.272 -25.502  19.469  1.00  0.00     0.047 C 
HETATM   28  C5  UNL     1     -16.904 -24.962  18.261  1.00  0.00    -0.013 A 
HETATM   29  C4  UNL     1     -16.705 -23.704  17.806  1.00  0.00     0.024 A 
HETATM   30  C6  UNL     1     -17.762 -25.605  17.355  1.00  0.00     0.085 A 
HETATM   31  C3  UNL     1     -17.446 -23.592  16.628  1.00  0.00     0.030 A 
HETATM   32  N1  UNL     1     -18.079 -24.758  16.372  1.00  0.00    -0.307 N 
HETATM   33  N8  UNL     1     -15.587 -21.573  18.044  1.00  0.00    -0.190 N 
ATOM     34  H8  UNL     1     -16.030 -21.280  17.174  1.00  0.00     0.184 HD
BRANCH  31  35
HETATM   35  C2  UNL     1     -17.509 -22.337  15.834  1.00  0.00     0.054 C 
HETATM   36  C1  UNL     1     -16.317 -22.372  14.876  1.00  0.00     0.011 C 
ENDBRANCH  31  35
BRANCH  32  37
HETATM   37  C8  UNL     1     -18.889 -25.010  15.240  1.00  0.00     0.186 C 
BRANCH  37  38
HETATM   38  N2  UNL     1     -18.357 -25.742  14.152  1.00  0.00    -0.373 N 
HETATM   39  C9  UNL     1     -19.166 -26.891  13.793  1.00  0.00     0.143 C 
HETATM   40  C10 UNL     1     -19.615 -26.921  12.375  1.00  0.00     0.141 C 
HETATM   41  N3  UNL     1     -18.610 -26.630  11.422  1.00  0.00    -0.388 N 
HETATM   42  C13 UNL     1     -17.411 -26.075  11.976  1.00  0.00     0.141 C 
HETATM   43  C14 UNL     1     -17.785 -25.038  13.069  1.00  0.00     0.143 C 
BRANCH  41  44
HETATM   44  C11 UNL     1     -18.537 -27.356  10.240  1.00  0.00     0.084 C 
BRANCH  44  45
HETATM   45  C12 UNL     1     -17.375 -28.279  10.036  1.00  0.00     0.208 C 
BRANCH  45  46
HETATM   46  O2  UNL     1     -17.614 -29.431  10.812  1.00  0.00    -0.396 OA
ATOM     47  H2  UNL     1     -18.555 -29.516  10.909  1.00  0.00     0.209 HD
ENDBRANCH  45  46
ENDBRANCH  44  45
ENDBRANCH  41  44
ENDBRANCH  37  38
ENDBRANCH  32  37
BRANCH  30  48
HETATM   48  C7  UNL     1     -18.180 -27.006  17.512  1.00  0.00     0.289 C 
HETATM   49  O1  UNL     1     -17.727 -27.943  16.846  1.00  0.00    -0.300 OA
ENDBRANCH  30  48
ENDBRANCH  18  20
ENDBRANCH   1  18
TORSDOF 14
ENDMDL
