MODEL 1
REMARK VINA RESULT: -9.270444759      0.000      0.000
REMARK  15 active torsions:
REMARK  status: ('A' for Active; 'I' for Inactive)
REMARK    1  A    between atoms: C2_2  and  C3_3 
REMARK    2  A    between atoms: C3_3  and  C4_4 
REMARK    3  A    between atoms: C4_4  and  C5_5 
REMARK    4  A    between atoms: C5_5  and  C6_6 
REMARK    5  A    between atoms: C6_6  and  C7_7 
REMARK    6  A    between atoms: C7_7  and  C8_8 
REMARK    7  A    between atoms: C8_8  and  C9_9 
REMARK    8  A    between atoms: C9_9  and  C10_10 
REMARK    9  A    between atoms: C10_10  and  O1_11 
REMARK   10  A    between atoms: C10_10  and  N1_13 
REMARK       I    between atoms: N2_16  and  C13_17 
REMARK   11  A    between atoms: C13_17  and  C14_19 
REMARK   12  A    between atoms: C14_19  and  C15_20 
REMARK   13  A    between atoms: N3_23  and  C18_24 
REMARK   14  A    between atoms: N6_35  and  C23_36 
REMARK   15  A    between atoms: N7_42  and  N8_43 
ROOT
HETATM    1  C15 UNL     1     -12.920 -21.050  15.717  1.00  0.00    -0.003 C 
HETATM    2  C16 UNL     1     -11.688 -21.783  16.224  1.00  0.00     0.025 C 
HETATM    3  C17 UNL     1     -10.927 -20.758  17.045  1.00  0.00     0.141 C 
HETATM    4  N3  UNL     1     -10.903 -19.451  16.448  1.00  0.00    -0.216 N 
HETATM    5  C28 UNL     1     -11.659 -19.016  15.301  1.00  0.00     0.141 C 
HETATM    6  C29 UNL     1     -12.401 -20.141  14.613  1.00  0.00     0.025 C 
ENDROOT
BRANCH   4   7
HETATM    7  C18 UNL     1     -10.040 -18.503  17.058  1.00  0.00     0.703 A 
HETATM    8  N4  UNL     1      -9.569 -18.592  18.292  1.00  0.00    -0.172 N 
HETATM    9  C19 UNL     1      -8.780 -17.512  18.563  1.00  0.00     0.164 A 
ATOM     10  H4  UNL     1      -9.766 -19.353  18.942  1.00  0.00     0.186 HD
HETATM   11  C20 UNL     1      -8.784 -16.736  17.423  1.00  0.00     0.186 A 
HETATM   12  N6  UNL     1      -8.085 -17.146  19.654  1.00  0.00    -0.255 N 
HETATM   13  C21 UNL     1      -8.056 -15.575  17.440  1.00  0.00     0.282 A 
HETATM   14  N7  UNL     1      -9.555 -17.357  16.524  1.00  0.00    -0.084 N 
HETATM   15  O3  UNL     1      -8.053 -14.867  16.421  1.00  0.00    -0.265 OA
HETATM   16  N5  UNL     1      -7.354 -15.214  18.556  1.00  0.00    -0.273 N 
HETATM   17  C22 UNL     1      -7.381 -16.013  19.655  1.00  0.00     0.333 A 
ATOM     18  H5  UNL     1      -6.813 -14.350  18.564  1.00  0.00     0.173 HD
HETATM   19  O4  UNL     1      -6.744 -15.714  20.714  1.00  0.00    -0.246 OA
BRANCH  14  20
HETATM   20  N8  UNL     1      -9.839 -16.933  15.235  1.00  0.00    -0.323 N 
ATOM     21  H82 UNL     1     -10.721 -16.548  14.897  1.00  0.00     0.178 HD
ATOM     22  H81 UNL     1      -9.166 -16.963  14.471  1.00  0.00     0.178 HD
ENDBRANCH  14  20
BRANCH  12  23
HETATM   23  C23 UNL     1      -8.145 -18.067  20.800  1.00  0.00     0.234 C 
HETATM   24  C24 UNL     1      -7.334 -19.285  20.340  1.00  0.00     0.054 C 
HETATM   25  C25 UNL     1      -7.962 -20.586  20.792  1.00  0.00     0.006 C 
HETATM   26  C26 UNL     1      -8.605 -20.300  22.133  1.00  0.00     0.026 C 
HETATM   27  C27 UNL     1      -9.744 -19.365  21.890  1.00  0.00     0.170 C 
HETATM   28  O5  UNL     1      -9.482 -18.372  20.984  1.00  0.00    -0.366 OA
ENDBRANCH  12  23
ENDBRANCH   4   7
BRANCH   1  29
HETATM   29  C14 UNL     1     -14.020 -21.942  15.263  1.00  0.00     0.107 C 
BRANCH  29  30
HETATM   30  C13 UNL     1     -15.314 -21.231  15.285  1.00  0.00     0.220 C 
HETATM   31  N2  UNL     1     -16.499 -21.751  14.736  1.00  0.00    -0.349 N 
HETATM   32  C12 UNL     1     -17.727 -20.934  14.831  1.00  0.00     0.145 C 
HETATM   33  C30 UNL     1     -16.613 -23.011  14.082  1.00  0.00     0.145 C 
HETATM   34  C11 UNL     1     -18.932 -21.887  14.866  1.00  0.00     0.144 C 
HETATM   35  N1  UNL     1     -18.540 -23.061  15.576  1.00  0.00    -0.362 N 
HETATM   36  C31 UNL     1     -17.586 -23.920  14.770  1.00  0.00     0.144 C 
HETATM   37  O2  UNL     1     -15.301 -20.094  15.838  1.00  0.00    -0.273 OA
BRANCH  35  38
HETATM   38  C10 UNL     1     -18.832 -23.564  16.824  1.00  0.00     0.113 C 
BRANCH  38  39
HETATM   39  C9  UNL     1     -18.795 -24.922  17.343  1.00  0.00     0.084 C 
BRANCH  39  40
HETATM   40  C8  UNL     1     -18.551 -25.060  18.788  1.00  0.00     0.008 C 
BRANCH  40  41
HETATM   41  C7  UNL     1     -17.404 -26.029  19.125  1.00  0.00     0.000 C 
BRANCH  41  42
HETATM   42  C6  UNL     1     -16.211 -25.261  19.608  1.00  0.00     0.000 C 
BRANCH  42  43
HETATM   43  C5  UNL     1     -14.979 -25.413  18.760  1.00  0.00     0.000 C 
BRANCH  43  44
HETATM   44  C4  UNL     1     -14.471 -24.063  18.359  1.00  0.00     0.000 C 
BRANCH  44  45
HETATM   45  C3  UNL     1     -15.506 -22.969  18.534  1.00  0.00    -0.000 C 
BRANCH  45  46
HETATM   46  C2  UNL     1     -14.862 -21.670  18.964  1.00  0.00    -0.005 C 
HETATM   47  C1  UNL     1     -13.475 -21.931  19.535  1.00  0.00     0.005 C 
ENDBRANCH  45  46
ENDBRANCH  44  45
ENDBRANCH  43  44
ENDBRANCH  42  43
ENDBRANCH  41  42
ENDBRANCH  40  41
ENDBRANCH  39  40
ENDBRANCH  38  39
BRANCH  38  48
HETATM   48  O1  UNL     1     -19.222 -22.637  17.708  1.00  0.00    -0.349 OA
ATOM     49  H1  UNL     1     -18.537 -22.040  17.985  1.00  0.00     0.219 HD
ENDBRANCH  38  48
ENDBRANCH  35  38
ENDBRANCH  29  30
ENDBRANCH   1  29
TORSDOF 15
ENDMDL
MODEL 2
REMARK VINA RESULT: -9.173246948      2.083      3.845
REMARK  15 active torsions:
REMARK  status: ('A' for Active; 'I' for Inactive)
REMARK    1  A    between atoms: C2_2  and  C3_3 
REMARK    2  A    between atoms: C3_3  and  C4_4 
REMARK    3  A    between atoms: C4_4  and  C5_5 
REMARK    4  A    between atoms: C5_5  and  C6_6 
REMARK    5  A    between atoms: C6_6  and  C7_7 
REMARK    6  A    between atoms: C7_7  and  C8_8 
REMARK    7  A    between atoms: C8_8  and  C9_9 
REMARK    8  A    between atoms: C9_9  and  C10_10 
REMARK    9  A    between atoms: C10_10  and  O1_11 
REMARK   10  A    between atoms: C10_10  and  N1_13 
REMARK       I    between atoms: N2_16  and  C13_17 
REMARK   11  A    between atoms: C13_17  and  C14_19 
REMARK   12  A    between atoms: C14_19  and  C15_20 
REMARK   13  A    between atoms: N3_23  and  C18_24 
REMARK   14  A    between atoms: N6_35  and  C23_36 
REMARK   15  A    between atoms: N7_42  and  N8_43 
ROOT
HETATM    1  C15 UNL     1     -13.552 -20.287  18.376  1.00  0.00    -0.003 C 
HETATM    2  C16 UNL     1     -13.668 -18.783  18.563  1.00  0.00     0.025 C 
HETATM    3  C17 UNL     1     -12.440 -18.203  17.886  1.00  0.00     0.141 C 
HETATM    4  N3  UNL     1     -11.242 -18.958  18.130  1.00  0.00    -0.216 N 
HETATM    5  C28 UNL     1     -11.155 -20.248  18.768  1.00  0.00     0.141 C 
HETATM    6  C29 UNL     1     -12.469 -20.714  19.356  1.00  0.00     0.025 C 
ENDROOT
BRANCH   4   7
HETATM    7  C18 UNL     1     -10.029 -18.361  17.698  1.00  0.00     0.703 A 
HETATM    8  N4  UNL     1      -9.118 -17.833  18.500  1.00  0.00    -0.172 N 
HETATM    9  C19 UNL     1      -8.084 -17.338  17.761  1.00  0.00     0.164 A 
ATOM     10  H4  UNL     1      -9.180 -17.801  19.518  1.00  0.00     0.186 HD
HETATM   11  C20 UNL     1      -8.400 -17.587  16.442  1.00  0.00     0.186 A 
HETATM   12  N6  UNL     1      -6.940 -16.718  18.099  1.00  0.00    -0.255 N 
HETATM   13  C21 UNL     1      -7.508 -17.177  15.485  1.00  0.00     0.282 A 
HETATM   14  N7  UNL     1      -9.585 -18.207  16.429  1.00  0.00    -0.084 N 
HETATM   15  O3  UNL     1      -7.782 -17.393  14.294  1.00  0.00    -0.265 OA
HETATM   16  N5  UNL     1      -6.349 -16.548  15.843  1.00  0.00    -0.273 N 
HETATM   17  C22 UNL     1      -6.082 -16.326  17.157  1.00  0.00     0.333 A 
ATOM     18  H5  UNL     1      -5.688 -16.246  15.128  1.00  0.00     0.173 HD
HETATM   19  O4  UNL     1      -5.016 -15.743  17.532  1.00  0.00    -0.246 OA
BRANCH  14  20
HETATM   20  N8  UNL     1     -10.283 -18.645  15.315  1.00  0.00    -0.323 N 
ATOM     21  H82 UNL     1     -11.248 -18.973  15.286  1.00  0.00     0.178 HD
ATOM     22  H81 UNL     1      -9.884 -18.682  14.377  1.00  0.00     0.178 HD
ENDBRANCH  14  20
BRANCH  12  23
HETATM   23  C23 UNL     1      -6.708 -16.528  19.539  1.00  0.00     0.234 C 
HETATM   24  C24 UNL     1      -6.306 -17.922  20.039  1.00  0.00     0.054 C 
HETATM   25  C25 UNL     1      -6.906 -18.232  21.394  1.00  0.00     0.006 C 
HETATM   26  C26 UNL     1      -6.964 -16.915  22.139  1.00  0.00     0.026 C 
HETATM   27  C27 UNL     1      -7.965 -16.053  21.444  1.00  0.00     0.170 C 
HETATM   28  O5  UNL     1      -7.913 -16.111  20.077  1.00  0.00    -0.366 OA
ENDBRANCH  12  23
ENDBRANCH   4   7
BRANCH   1  29
HETATM   29  C14 UNL     1     -14.827 -21.029  18.565  1.00  0.00     0.107 C 
BRANCH  29  30
HETATM   30  C13 UNL     1     -14.690 -22.429  18.117  1.00  0.00     0.220 C 
HETATM   31  N2  UNL     1     -14.851 -23.539  18.965  1.00  0.00    -0.349 N 
HETATM   32  C12 UNL     1     -14.689 -24.888  18.384  1.00  0.00     0.145 C 
HETATM   33  C30 UNL     1     -15.151 -23.468  20.355  1.00  0.00     0.145 C 
HETATM   34  C11 UNL     1     -15.563 -25.862  19.190  1.00  0.00     0.144 C 
HETATM   35  N1  UNL     1     -16.736 -25.160  19.600  1.00  0.00    -0.362 N 
HETATM   36  C31 UNL     1     -16.443 -24.150  20.691  1.00  0.00     0.144 C 
HETATM   37  O2  UNL     1     -14.410 -22.584  16.893  1.00  0.00    -0.273 OA
BRANCH  35  38
HETATM   38  C10 UNL     1     -18.057 -25.198  19.209  1.00  0.00     0.113 C 
BRANCH  38  39
HETATM   39  C9  UNL     1     -18.707 -24.756  17.986  1.00  0.00     0.084 C 
BRANCH  39  40
HETATM   40  C8  UNL     1     -18.297 -23.441  17.469  1.00  0.00     0.008 C 
BRANCH  40  41
HETATM   41  C7  UNL     1     -18.617 -23.242  15.977  1.00  0.00     0.000 C 
BRANCH  41  42
HETATM   42  C6  UNL     1     -17.390 -22.788  15.247  1.00  0.00     0.000 C 
BRANCH  42  43
HETATM   43  C5  UNL     1     -17.470 -21.396  14.685  1.00  0.00     0.000 C 
BRANCH  43  44
HETATM   44  C4  UNL     1     -16.119 -20.966  14.203  1.00  0.00     0.000 C 
BRANCH  44  45
HETATM   45  C3  UNL     1     -15.514 -19.865  15.052  1.00  0.00    -0.000 C 
BRANCH  45  46
HETATM   46  C2  UNL     1     -14.027 -19.738  14.803  1.00  0.00    -0.005 C 
HETATM   47  C1  UNL     1     -13.569 -20.777  13.789  1.00  0.00     0.005 C 
ENDBRANCH  45  46
ENDBRANCH  44  45
ENDBRANCH  43  44
ENDBRANCH  42  43
ENDBRANCH  41  42
ENDBRANCH  40  41
ENDBRANCH  39  40
ENDBRANCH  38  39
BRANCH  38  48
HETATM   48  O1  UNL     1     -18.879 -25.730  20.121  1.00  0.00    -0.349 OA
ATOM     49  H1  UNL     1     -18.469 -25.943  20.951  1.00  0.00     0.219 HD
ENDBRANCH  38  48
ENDBRANCH  35  38
ENDBRANCH  29  30
ENDBRANCH   1  29
TORSDOF 15
ENDMDL
MODEL 3
REMARK VINA RESULT: -9.029704822      2.163      4.645
REMARK  15 active torsions:
REMARK  status: ('A' for Active; 'I' for Inactive)
REMARK    1  A    between atoms: C2_2  and  C3_3 
REMARK    2  A    between atoms: C3_3  and  C4_4 
REMARK    3  A    between atoms: C4_4  and  C5_5 
REMARK    4  A    between atoms: C5_5  and  C6_6 
REMARK    5  A    between atoms: C6_6  and  C7_7 
REMARK    6  A    between atoms: C7_7  and  C8_8 
REMARK    7  A    between atoms: C8_8  and  C9_9 
REMARK    8  A    between atoms: C9_9  and  C10_10 
REMARK    9  A    between atoms: C10_10  and  O1_11 
REMARK   10  A    between atoms: C10_10  and  N1_13 
REMARK       I    between atoms: N2_16  and  C13_17 
REMARK   11  A    between atoms: C13_17  and  C14_19 
REMARK   12  A    between atoms: C14_19  and  C15_20 
REMARK   13  A    between atoms: N3_23  and  C18_24 
REMARK   14  A    between atoms: N6_35  and  C23_36 
REMARK   15  A    between atoms: N7_42  and  N8_43 
ROOT
HETATM    1  C15 UNL     1     -13.374 -20.401  18.742  1.00  0.00    -0.003 C 
HETATM    2  C16 UNL     1     -12.227 -21.348  18.430  1.00  0.00     0.025 C 
HETATM    3  C17 UNL     1     -10.980 -20.636  18.922  1.00  0.00     0.141 C 
HETATM    4  N3  UNL     1     -10.970 -19.229  18.625  1.00  0.00    -0.216 N 
HETATM    5  C28 UNL     1     -12.068 -18.455  18.103  1.00  0.00     0.141 C 
HETATM    6  C29 UNL     1     -13.256 -19.299  17.699  1.00  0.00     0.025 C 
ENDROOT
BRANCH   4   7
HETATM    7  C18 UNL     1      -9.750 -18.548  18.873  1.00  0.00     0.703 A 
HETATM    8  N4  UNL     1      -9.025 -17.935  17.951  1.00  0.00    -0.172 N 
HETATM    9  C19 UNL     1      -7.912 -17.393  18.524  1.00  0.00     0.164 A 
ATOM     10  H4  UNL     1      -9.262 -17.877  16.960  1.00  0.00     0.186 HD
HETATM   11  C20 UNL     1      -7.981 -17.703  19.866  1.00  0.00     0.186 A 
HETATM   12  N6  UNL     1      -6.885 -16.686  18.023  1.00  0.00    -0.255 N 
HETATM   13  C21 UNL     1      -6.963 -17.266  20.674  1.00  0.00     0.282 A 
HETATM   14  N7  UNL     1      -9.104 -18.404  20.054  1.00  0.00    -0.084 N 
HETATM   15  O3  UNL     1      -7.012 -17.540  21.883  1.00  0.00    -0.265 OA
HETATM   16  N5  UNL     1      -5.924 -16.548  20.151  1.00  0.00    -0.273 N 
HETATM   17  C22 UNL     1      -5.902 -16.267  18.822  1.00  0.00     0.333 A 
ATOM     18  H5  UNL     1      -5.169 -16.224  20.756  1.00  0.00     0.173 HD
HETATM   19  O4  UNL     1      -4.953 -15.604  18.296  1.00  0.00    -0.246 OA
BRANCH  14  20
HETATM   20  N8  UNL     1      -9.574 -18.919  21.252  1.00  0.00    -0.323 N 
ATOM     21  H82 UNL     1     -10.299 -18.521  21.848  1.00  0.00     0.178 HD
ATOM     22  H81 UNL     1      -9.227 -19.783  21.668  1.00  0.00     0.178 HD
ENDBRANCH  14  20
BRANCH  12  23
HETATM   23  C23 UNL     1      -6.935 -16.404  16.580  1.00  0.00     0.234 C 
HETATM   24  C24 UNL     1      -7.886 -15.204  16.469  1.00  0.00     0.054 C 
HETATM   25  C25 UNL     1      -8.796 -15.315  15.264  1.00  0.00     0.006 C 
HETATM   26  C26 UNL     1      -7.989 -16.014  14.191  1.00  0.00     0.026 C 
HETATM   27  C27 UNL     1      -7.758 -17.417  14.650  1.00  0.00     0.170 C 
HETATM   28  O5  UNL     1      -7.454 -17.537  15.979  1.00  0.00    -0.366 OA
ENDBRANCH  12  23
ENDBRANCH   4   7
BRANCH   1  29
HETATM   29  C14 UNL     1     -14.714 -21.044  18.754  1.00  0.00     0.107 C 
BRANCH  29  30
HETATM   30  C13 UNL     1     -14.638 -22.422  18.230  1.00  0.00     0.220 C 
HETATM   31  N2  UNL     1     -14.841 -23.569  19.018  1.00  0.00    -0.349 N 
HETATM   32  C12 UNL     1     -14.739 -24.891  18.364  1.00  0.00     0.145 C 
HETATM   33  C30 UNL     1     -15.131 -23.561  20.413  1.00  0.00     0.145 C 
HETATM   34  C11 UNL     1     -15.649 -25.869  19.123  1.00  0.00     0.144 C 
HETATM   35  N1  UNL     1     -16.790 -25.143  19.578  1.00  0.00    -0.362 N 
HETATM   36  C31 UNL     1     -16.449 -24.207  20.720  1.00  0.00     0.144 C 
HETATM   37  O2  UNL     1     -14.371 -22.522  16.998  1.00  0.00    -0.273 OA
BRANCH  35  38
HETATM   38  C10 UNL     1     -18.113 -25.104  19.195  1.00  0.00     0.113 C 
BRANCH  38  39
HETATM   39  C9  UNL     1     -18.734 -24.760  17.926  1.00  0.00     0.084 C 
BRANCH  39  40
HETATM   40  C8  UNL     1     -18.402 -23.435  17.378  1.00  0.00     0.008 C 
BRANCH  40  41
HETATM   41  C7  UNL     1     -17.595 -23.499  16.069  1.00  0.00     0.000 C 
BRANCH  41  42
HETATM   42  C6  UNL     1     -17.841 -22.263  15.257  1.00  0.00     0.000 C 
BRANCH  42  43
HETATM   43  C5  UNL     1     -16.660 -21.792  14.455  1.00  0.00     0.000 C 
BRANCH  43  44
HETATM   44  C4  UNL     1     -16.263 -20.418  14.898  1.00  0.00     0.000 C 
BRANCH  44  45
HETATM   45  C3  UNL     1     -14.827 -20.078  14.549  1.00  0.00    -0.000 C 
BRANCH  45  46
HETATM   46  C2  UNL     1     -14.139 -21.243  13.874  1.00  0.00    -0.005 C 
HETATM   47  C1  UNL     1     -13.656 -20.841  12.487  1.00  0.00     0.005 C 
ENDBRANCH  45  46
ENDBRANCH  44  45
ENDBRANCH  43  44
ENDBRANCH  42  43
ENDBRANCH  41  42
ENDBRANCH  40  41
ENDBRANCH  39  40
ENDBRANCH  38  39
BRANCH  38  48
HETATM   48  O1  UNL     1     -18.971 -25.437  20.167  1.00  0.00    -0.349 OA
ATOM     49  H1  UNL     1     -18.651 -25.286  21.049  1.00  0.00     0.219 HD
ENDBRANCH  38  48
ENDBRANCH  35  38
ENDBRANCH  29  30
ENDBRANCH   1  29
TORSDOF 15
ENDMDL
MODEL 4
REMARK VINA RESULT: -8.944616538      2.192     10.551
REMARK  15 active torsions:
REMARK  status: ('A' for Active; 'I' for Inactive)
REMARK    1  A    between atoms: C2_2  and  C3_3 
REMARK    2  A    between atoms: C3_3  and  C4_4 
REMARK    3  A    between atoms: C4_4  and  C5_5 
REMARK    4  A    between atoms: C5_5  and  C6_6 
REMARK    5  A    between atoms: C6_6  and  C7_7 
REMARK    6  A    between atoms: C7_7  and  C8_8 
REMARK    7  A    between atoms: C8_8  and  C9_9 
REMARK    8  A    between atoms: C9_9  and  C10_10 
REMARK    9  A    between atoms: C10_10  and  O1_11 
REMARK   10  A    between atoms: C10_10  and  N1_13 
REMARK       I    between atoms: N2_16  and  C13_17 
REMARK   11  A    between atoms: C13_17  and  C14_19 
REMARK   12  A    between atoms: C14_19  and  C15_20 
REMARK   13  A    between atoms: N3_23  and  C18_24 
REMARK   14  A    between atoms: N6_35  and  C23_36 
REMARK   15  A    between atoms: N7_42  and  N8_43 
ROOT
HETATM    1  C15 UNL     1     -10.623 -20.774  19.789  1.00  0.00    -0.003 C 
HETATM    2  C16 UNL     1     -11.452 -19.567  19.379  1.00  0.00     0.025 C 
HETATM    3  C17 UNL     1     -12.848 -20.110  19.132  1.00  0.00     0.141 C 
HETATM    4  N3  UNL     1     -12.857 -21.370  18.442  1.00  0.00    -0.216 N 
HETATM    5  C28 UNL     1     -11.715 -22.201  18.154  1.00  0.00     0.141 C 
HETATM    6  C29 UNL     1     -10.396 -21.542  18.496  1.00  0.00     0.025 C 
ENDROOT
BRANCH   4   7
HETATM    7  C18 UNL     1     -14.126 -21.830  18.000  1.00  0.00     0.703 A 
HETATM    8  N4  UNL     1     -14.616 -21.647  16.784  1.00  0.00    -0.172 N 
HETATM    9  C19 UNL     1     -15.858 -22.206  16.699  1.00  0.00     0.164 A 
ATOM     10  H4  UNL     1     -14.137 -21.162  16.025  1.00  0.00     0.186 HD
HETATM   11  C20 UNL     1     -16.120 -22.752  17.938  1.00  0.00     0.186 A 
HETATM   12  N6  UNL     1     -16.750 -22.287  15.697  1.00  0.00    -0.255 N 
HETATM   13  C21 UNL     1     -17.326 -23.379  18.115  1.00  0.00     0.282 A 
HETATM   14  N7  UNL     1     -15.055 -22.511  18.710  1.00  0.00    -0.084 N 
HETATM   15  O3  UNL     1     -17.575 -23.873  19.226  1.00  0.00    -0.265 OA
HETATM   16  N5  UNL     1     -18.225 -23.455  17.088  1.00  0.00    -0.273 N 
HETATM   17  C22 UNL     1     -17.919 -22.901  15.885  1.00  0.00     0.333 A 
ATOM     18  H5  UNL     1     -19.120 -23.924  17.223  1.00  0.00     0.173 HD
HETATM   19  O4  UNL     1     -18.727 -22.948  14.904  1.00  0.00    -0.246 OA
BRANCH  14  20
HETATM   20  N8  UNL     1     -14.886 -22.884  20.035  1.00  0.00    -0.323 N 
ATOM     21  H82 UNL     1     -14.367 -23.690  20.383  1.00  0.00     0.178 HD
ATOM     22  H81 UNL     1     -15.277 -22.366  20.821  1.00  0.00     0.178 HD
ENDBRANCH  14  20
BRANCH  12  23
HETATM   23  C23 UNL     1     -16.346 -21.682  14.419  1.00  0.00     0.234 C 
HETATM   24  C24 UNL     1     -15.293 -22.652  13.866  1.00  0.00     0.054 C 
HETATM   25  C25 UNL     1     -14.144 -21.921  13.203  1.00  0.00     0.006 C 
HETATM   26  C26 UNL     1     -14.741 -20.679  12.576  1.00  0.00     0.026 C 
HETATM   27  C27 UNL     1     -15.194 -19.792  13.689  1.00  0.00     0.170 C 
HETATM   28  O5  UNL     1     -15.804 -20.446  14.726  1.00  0.00    -0.366 OA
ENDBRANCH  12  23
ENDBRANCH   4   7
BRANCH   1  29
HETATM   29  C14 UNL     1      -9.357 -20.437  20.492  1.00  0.00     0.107 C 
BRANCH  29  30
HETATM   30  C13 UNL     1      -9.375 -19.038  20.961  1.00  0.00     0.220 C 
HETATM   31  N2  UNL     1      -8.234 -18.216  21.009  1.00  0.00    -0.349 N 
HETATM   32  C12 UNL     1      -8.394 -16.830  21.497  1.00  0.00     0.145 C 
HETATM   33  C30 UNL     1      -6.922 -18.618  20.628  1.00  0.00     0.145 C 
HETATM   34  C11 UNL     1      -7.323 -15.961  20.822  1.00  0.00     0.144 C 
HETATM   35  N1  UNL     1      -7.119 -16.463  19.502  1.00  0.00    -0.362 N 
HETATM   36  C31 UNL     1      -6.379 -17.786  19.506  1.00  0.00     0.144 C 
HETATM   37  O2  UNL     1     -10.503 -18.602  21.332  1.00  0.00    -0.273 OA
BRANCH  35  38
HETATM   38  C10 UNL     1      -7.459 -16.013  18.246  1.00  0.00     0.113 C 
BRANCH  38  39
HETATM   39  C9  UNL     1      -6.676 -15.890  17.027  1.00  0.00     0.084 C 
BRANCH  39  40
HETATM   40  C8  UNL     1      -7.140 -14.888  16.054  1.00  0.00     0.008 C 
BRANCH  40  41
HETATM   41  C7  UNL     1      -7.302 -15.448  14.629  1.00  0.00     0.000 C 
BRANCH  41  42
HETATM   42  C6  UNL     1      -8.748 -15.433  14.236  1.00  0.00     0.000 C 
BRANCH  42  43
HETATM   43  C5  UNL     1      -9.581 -16.518  14.861  1.00  0.00     0.000 C 
BRANCH  43  44
HETATM   44  C4  UNL     1      -8.807 -17.800  14.885  1.00  0.00     0.000 C 
BRANCH  44  45
HETATM   45  C3  UNL     1      -9.460 -18.865  15.745  1.00  0.00    -0.000 C 
BRANCH  45  46
HETATM   46  C2  UNL     1     -10.918 -18.550  15.992  1.00  0.00    -0.005 C 
HETATM   47  C1  UNL     1     -11.804 -19.612  15.355  1.00  0.00     0.005 C 
ENDBRANCH  45  46
ENDBRANCH  44  45
ENDBRANCH  43  44
ENDBRANCH  42  43
ENDBRANCH  41  42
ENDBRANCH  40  41
ENDBRANCH  39  40
ENDBRANCH  38  39
BRANCH  38  48
HETATM   48  O1  UNL     1      -8.733 -15.616  18.136  1.00  0.00    -0.349 OA
ATOM     49  H1  UNL     1      -9.020 -15.011  18.810  1.00  0.00     0.219 HD
ENDBRANCH  38  48
ENDBRANCH  35  38
ENDBRANCH  29  30
ENDBRANCH   1  29
TORSDOF 15
ENDMDL
MODEL 5
REMARK VINA RESULT: -8.928986533      1.446      2.029
REMARK  15 active torsions:
REMARK  status: ('A' for Active; 'I' for Inactive)
REMARK    1  A    between atoms: C2_2  and  C3_3 
REMARK    2  A    between atoms: C3_3  and  C4_4 
REMARK    3  A    between atoms: C4_4  and  C5_5 
REMARK    4  A    between atoms: C5_5  and  C6_6 
REMARK    5  A    between atoms: C6_6  and  C7_7 
REMARK    6  A    between atoms: C7_7  and  C8_8 
REMARK    7  A    between atoms: C8_8  and  C9_9 
REMARK    8  A    between atoms: C9_9  and  C10_10 
REMARK    9  A    between atoms: C10_10  and  O1_11 
REMARK   10  A    between atoms: C10_10  and  N1_13 
REMARK       I    between atoms: N2_16  and  C13_17 
REMARK   11  A    between atoms: C13_17  and  C14_19 
REMARK   12  A    between atoms: C14_19  and  C15_20 
REMARK   13  A    between atoms: N3_23  and  C18_24 
REMARK   14  A    between atoms: N6_35  and  C23_36 
REMARK   15  A    between atoms: N7_42  and  N8_43 
ROOT
HETATM    1  C15 UNL     1     -13.086 -20.812  15.666  1.00  0.00    -0.003 C 
HETATM    2  C16 UNL     1     -12.473 -19.937  14.584  1.00  0.00     0.025 C 
HETATM    3  C17 UNL     1     -11.214 -19.361  15.205  1.00  0.00     0.141 C 
HETATM    4  N3  UNL     1     -11.385 -18.955  16.573  1.00  0.00    -0.216 N 
HETATM    5  C28 UNL     1     -12.531 -19.212  17.408  1.00  0.00     0.141 C 
HETATM    6  C29 UNL     1     -13.691 -19.829  16.657  1.00  0.00     0.025 C 
ENDROOT
BRANCH   4   7
HETATM    7  C18 UNL     1     -10.311 -18.224  17.145  1.00  0.00     0.703 A 
HETATM    8  N4  UNL     1      -9.742 -18.501  18.307  1.00  0.00    -0.172 N 
HETATM    9  C19 UNL     1      -8.751 -17.598  18.563  1.00  0.00     0.164 A 
ATOM     10  H4  UNL     1     -10.004 -19.274  18.920  1.00  0.00     0.186 HD
HETATM   11  C20 UNL     1      -8.733 -16.734  17.488  1.00  0.00     0.186 A 
HETATM   12  N6  UNL     1      -7.897 -17.454  19.590  1.00  0.00    -0.255 N 
HETATM   13  C21 UNL     1      -7.813 -15.717  17.504  1.00  0.00     0.282 A 
HETATM   14  N7  UNL     1      -9.688 -17.133  16.642  1.00  0.00    -0.084 N 
HETATM   15  O3  UNL     1      -7.787 -14.931  16.545  1.00  0.00    -0.265 OA
HETATM   16  N5  UNL     1      -6.949 -15.581  18.556  1.00  0.00    -0.273 N 
HETATM   17  C22 UNL     1      -7.007 -16.460  19.591  1.00  0.00     0.333 A 
ATOM     18  H5  UNL     1      -6.266 -14.825  18.563  1.00  0.00     0.173 HD
HETATM   19  O4  UNL     1      -6.223 -16.368  20.588  1.00  0.00    -0.246 OA
BRANCH  14  20
HETATM   20  N8  UNL     1     -10.020 -16.553  15.428  1.00  0.00    -0.323 N 
ATOM     21  H82 UNL     1      -9.771 -16.891  14.499  1.00  0.00     0.178 HD
ATOM     22  H81 UNL     1     -10.571 -15.698  15.343  1.00  0.00     0.178 HD
ENDBRANCH  14  20
BRANCH  12  23
HETATM   23  C23 UNL     1      -8.003 -18.450  20.666  1.00  0.00     0.234 C 
HETATM   24  C24 UNL     1      -7.571 -19.764  20.001  1.00  0.00     0.054 C 
HETATM   25  C25 UNL     1      -8.414 -20.935  20.462  1.00  0.00     0.006 C 
HETATM   26  C26 UNL     1      -8.771 -20.652  21.906  1.00  0.00     0.026 C 
HETATM   27  C27 UNL     1      -9.685 -19.471  21.916  1.00  0.00     0.170 C 
HETATM   28  O5  UNL     1      -9.333 -18.473  21.047  1.00  0.00    -0.366 OA
ENDBRANCH  12  23
ENDBRANCH   4   7
BRANCH   1  29
HETATM   29  C14 UNL     1     -14.070 -21.808  15.165  1.00  0.00     0.107 C 
BRANCH  29  30
HETATM   30  C13 UNL     1     -14.873 -22.355  16.276  1.00  0.00     0.220 C 
HETATM   31  N2  UNL     1     -16.276 -22.278  16.336  1.00  0.00    -0.349 N 
HETATM   32  C12 UNL     1     -16.956 -22.872  17.507  1.00  0.00     0.145 C 
HETATM   33  C30 UNL     1     -17.103 -21.659  15.356  1.00  0.00     0.145 C 
HETATM   34  C11 UNL     1     -18.357 -23.321  17.066  1.00  0.00     0.144 C 
HETATM   35  N1  UNL     1     -18.267 -23.772  15.715  1.00  0.00    -0.362 N 
HETATM   36  C31 UNL     1     -18.073 -22.625  14.744  1.00  0.00     0.144 C 
HETATM   37  O2  UNL     1     -14.215 -22.913  17.200  1.00  0.00    -0.273 OA
BRANCH  35  38
HETATM   38  C10 UNL     1     -18.306 -25.013  15.118  1.00  0.00     0.113 C 
BRANCH  38  39
HETATM   39  C9  UNL     1     -19.032 -26.223  15.468  1.00  0.00     0.084 C 
BRANCH  39  40
HETATM   40  C8  UNL     1     -18.239 -27.306  16.072  1.00  0.00     0.008 C 
BRANCH  40  41
HETATM   41  C7  UNL     1     -18.543 -27.528  17.565  1.00  0.00     0.000 C 
BRANCH  41  42
HETATM   42  C6  UNL     1     -17.692 -26.620  18.400  1.00  0.00     0.000 C 
BRANCH  42  43
HETATM   43  C5  UNL     1     -18.361 -26.095  19.640  1.00  0.00     0.000 C 
BRANCH  43  44
HETATM   44  C4  UNL     1     -17.360 -25.992  20.750  1.00  0.00     0.000 C 
BRANCH  44  45
HETATM   45  C3  UNL     1     -16.821 -24.586  20.928  1.00  0.00    -0.000 C 
BRANCH  45  46
HETATM   46  C2  UNL     1     -15.391 -24.484  20.447  1.00  0.00    -0.005 C 
HETATM   47  C1  UNL     1     -14.852 -23.080  20.684  1.00  0.00     0.005 C 
ENDBRANCH  45  46
ENDBRANCH  44  45
ENDBRANCH  43  44
ENDBRANCH  42  43
ENDBRANCH  41  42
ENDBRANCH  40  41
ENDBRANCH  39  40
ENDBRANCH  38  39
BRANCH  38  48
HETATM   48  O1  UNL     1     -17.535 -25.118  14.029  1.00  0.00    -0.349 OA
ATOM     49  H1  UNL     1     -17.794 -24.561  13.304  1.00  0.00     0.219 HD
ENDBRANCH  38  48
ENDBRANCH  35  38
ENDBRANCH  29  30
ENDBRANCH   1  29
TORSDOF 15
ENDMDL
