MODEL 1
REMARK VINA RESULT: -8.282561583      0.000      0.000
REMARK  9 active torsions:
REMARK  status: ('A' for Active; 'I' for Inactive)
REMARK    1  A    between atoms: O1_2  and  C2_3 
REMARK    2  A    between atoms: C4_5  and  C5_6 
REMARK    3  A    between atoms: C11_13  and  O3_14 
REMARK    4  A    between atoms: C12_16  and  C13_17 
REMARK    5  A    between atoms: C15_19  and  C16_20 
REMARK    6  A    between atoms: C20_24  and  O4_25 
REMARK    7  A    between atoms: C22_29  and  N1_30 
REMARK    8  A    between atoms: N1_30  and  C23_32 
REMARK    9  A    between atoms: C24_34  and  O7_35 
ROOT
HETATM    1  C5  UNL     1      10.541  90.102  36.841  1.00  0.00     0.169 C 
HETATM    2  C6  UNL     1      10.927  91.454  36.369  1.00  0.00     0.121 C 
HETATM    3  C7  UNL     1      10.370  92.540  37.221  1.00  0.00     0.167 C 
HETATM    4  O2  UNL     1      11.027  93.458  37.721  1.00  0.00    -0.292 OA
HETATM    5  C8  UNL     1       8.912  92.478  37.469  1.00  0.00     0.077 A 
HETATM    6  C9  UNL     1       8.401  91.199  37.484  1.00  0.00     0.089 A 
HETATM    7  C10 UNL     1       7.057  91.058  37.711  1.00  0.00     0.075 A 
HETATM    8  C11 UNL     1       6.273  92.205  37.916  1.00  0.00     0.082 A 
HETATM    9  C12 UNL     1       6.757  93.464  37.900  1.00  0.00     0.037 A 
HETATM   10  C20 UNL     1       8.163  93.596  37.663  1.00  0.00     0.095 A 
HETATM   11  O5  UNL     1       9.213  90.122  37.279  1.00  0.00    -0.340 OA
ENDROOT
BRANCH   1  12
HETATM   12  C4  UNL     1      11.362  89.523  37.908  1.00  0.00    -0.024 A 
HETATM   13  C3  UNL     1      12.316  88.583  37.495  1.00  0.00     0.049 A 
HETATM   14  C2  UNL     1      13.142  87.973  38.415  1.00  0.00     0.104 A 
HETATM   15  C24 UNL     1      12.992  88.321  39.740  1.00  0.00     0.128 A 
HETATM   16  C22 UNL     1      12.051  89.247  40.139  1.00  0.00     0.071 A 
HETATM   17  C21 UNL     1      11.212  89.871  39.231  1.00  0.00     0.042 A 
BRANCH  14  18
HETATM   18  O1  UNL     1      14.112  87.035  38.095  1.00  0.00    -0.353 OA
HETATM   19  C1  UNL     1      13.763  86.018  37.153  1.00  0.00     0.210 C 
ENDBRANCH  14  18
BRANCH  15  20
HETATM   20  O7  UNL     1      13.807  87.728  40.696  1.00  0.00    -0.351 OA
HETATM   21  C25 UNL     1      14.872  88.505  41.218  1.00  0.00     0.210 C 
ENDBRANCH  15  20
BRANCH  16  22
HETATM   22  N1  UNL     1      11.890  89.613  41.508  1.00  0.00    -0.332 N 
ATOM     23  H1  UNL     1      12.183  88.994  42.264  1.00  0.00     0.168 HD
BRANCH  22  24
HETATM   24  C23 UNL     1      11.366  90.746  41.742  1.00  0.00     0.353 C 
HETATM   25  O6  UNL     1      10.962  91.858  42.165  1.00  0.00    -0.283 OA
ENDBRANCH  22  24
ENDBRANCH  16  22
ENDBRANCH   1  12
BRANCH  10  26
HETATM   26  O4  UNL     1       8.694  94.839  37.636  1.00  0.00    -0.359 OA
ATOM     27  H4  UNL     1       8.847  95.310  36.826  1.00  0.00     0.217 HD
ENDBRANCH  10  26
BRANCH   8  28
HETATM   28  O3  UNL     1       4.930  91.930  38.157  1.00  0.00    -0.360 OA
ATOM     29  H3  UNL     1       4.405  92.704  38.325  1.00  0.00     0.217 HD
ENDBRANCH   8  28
BRANCH   9  30
HETATM   30  C13 UNL     1       5.987  94.676  37.962  1.00  0.00    -0.046 C 
HETATM   31  C14 UNL     1       5.347  95.094  36.600  1.00  0.00     0.049 C 
HETATM   32  C15 UNL     1       5.733  95.505  38.903  1.00  0.00     0.008 C 
BRANCH  32  33
HETATM   33  C16 UNL     1       6.139  95.488  40.278  1.00  0.00     0.002 C 
HETATM   34  C17 UNL     1       6.689  96.598  40.838  1.00  0.00    -0.088 C 
HETATM   35  C18 UNL     1       7.119  96.608  42.258  1.00  0.00     0.043 C 
HETATM   36  C19 UNL     1       6.830  97.782  39.955  1.00  0.00     0.043 C 
ENDBRANCH  32  33
ENDBRANCH   9  30
TORSDOF 9
ENDMDL
MODEL 2
REMARK VINA RESULT: -8.037756026      1.099      2.790
REMARK  9 active torsions:
REMARK  status: ('A' for Active; 'I' for Inactive)
REMARK    1  A    between atoms: O1_2  and  C2_3 
REMARK    2  A    between atoms: C4_5  and  C5_6 
REMARK    3  A    between atoms: C11_13  and  O3_14 
REMARK    4  A    between atoms: C12_16  and  C13_17 
REMARK    5  A    between atoms: C15_19  and  C16_20 
REMARK    6  A    between atoms: C20_24  and  O4_25 
REMARK    7  A    between atoms: C22_29  and  N1_30 
REMARK    8  A    between atoms: N1_30  and  C23_32 
REMARK    9  A    between atoms: C24_34  and  O7_35 
ROOT
HETATM    1  C5  UNL     1      10.490  90.207  36.666  1.00  0.00     0.169 C 
HETATM    2  C6  UNL     1      10.895  91.585  36.296  1.00  0.00     0.121 C 
HETATM    3  C7  UNL     1      10.361  92.610  37.233  1.00  0.00     0.167 C 
HETATM    4  O2  UNL     1      11.034  93.477  37.798  1.00  0.00    -0.292 OA
HETATM    5  C8  UNL     1       8.903  92.553  37.485  1.00  0.00     0.077 A 
HETATM    6  C9  UNL     1       8.371  91.285  37.404  1.00  0.00     0.089 A 
HETATM    7  C10 UNL     1       7.026  91.148  37.628  1.00  0.00     0.075 A 
HETATM    8  C11 UNL     1       6.262  92.289  37.926  1.00  0.00     0.082 A 
HETATM    9  C12 UNL     1       6.766  93.537  38.003  1.00  0.00     0.037 A 
HETATM   10  C20 UNL     1       8.173  93.665  37.768  1.00  0.00     0.095 A 
HETATM   11  O5  UNL     1       9.164  90.214  37.112  1.00  0.00    -0.340 OA
ENDROOT
BRANCH   1  12
HETATM   12  C4  UNL     1      11.306  89.534  37.680  1.00  0.00    -0.024 A 
HETATM   13  C3  UNL     1      11.187  90.035  38.983  1.00  0.00     0.049 A 
HETATM   14  C2  UNL     1      11.911  89.478  40.016  1.00  0.00     0.104 A 
HETATM   15  C24 UNL     1      12.745  88.422  39.718  1.00  0.00     0.128 A 
HETATM   16  C22 UNL     1      12.857  87.934  38.433  1.00  0.00     0.071 A 
HETATM   17  C21 UNL     1      12.139  88.480  37.381  1.00  0.00     0.042 A 
BRANCH  14  18
HETATM   18  O1  UNL     1      11.854  89.909  41.333  1.00  0.00    -0.353 OA
HETATM   19  C1  UNL     1      11.030  91.041  41.624  1.00  0.00     0.210 C 
ENDBRANCH  14  18
BRANCH  15  20
HETATM   20  O7  UNL     1      13.489  87.835  40.733  1.00  0.00    -0.351 OA
HETATM   21  C25 UNL     1      14.680  88.494  41.133  1.00  0.00     0.210 C 
ENDBRANCH  15  20
BRANCH  16  22
HETATM   22  N1  UNL     1      13.717  86.842  38.116  1.00  0.00    -0.332 N 
ATOM     23  H1  UNL     1      14.503  86.591  38.715  1.00  0.00     0.168 HD
BRANCH  22  24
HETATM   24  C23 UNL     1      13.458  86.197  37.053  1.00  0.00     0.353 C 
HETATM   25  O6  UNL     1      13.349  85.697  35.905  1.00  0.00    -0.283 OA
ENDBRANCH  22  24
ENDBRANCH  16  22
ENDBRANCH   1  12
BRANCH  10  26
HETATM   26  O4  UNL     1       8.724  94.897  37.834  1.00  0.00    -0.359 OA
ATOM     27  H4  UNL     1       8.344  95.598  38.350  1.00  0.00     0.217 HD
ENDBRANCH  10  26
BRANCH   8  28
HETATM   28  O3  UNL     1       4.916  92.017  38.153  1.00  0.00    -0.360 OA
ATOM     29  H3  UNL     1       4.339  92.742  37.943  1.00  0.00     0.217 HD
ENDBRANCH   8  28
BRANCH   9  30
HETATM   30  C13 UNL     1       6.016  94.753  38.163  1.00  0.00    -0.046 C 
HETATM   31  C14 UNL     1       5.637  95.448  36.816  1.00  0.00     0.049 C 
HETATM   32  C15 UNL     1       5.611  95.404  39.187  1.00  0.00     0.008 C 
BRANCH  32  33
HETATM   33  C16 UNL     1       5.764  95.111  40.582  1.00  0.00     0.002 C 
HETATM   34  C17 UNL     1       6.341  96.023  41.408  1.00  0.00    -0.088 C 
HETATM   35  C18 UNL     1       6.513  95.746  42.856  1.00  0.00     0.043 C 
HETATM   36  C19 UNL     1       6.782  97.294  40.784  1.00  0.00     0.043 C 
ENDBRANCH  32  33
ENDBRANCH   9  30
TORSDOF 9
ENDMDL
MODEL 3
REMARK VINA RESULT: -7.880125555      2.982      8.307
REMARK  9 active torsions:
REMARK  status: ('A' for Active; 'I' for Inactive)
REMARK    1  A    between atoms: O1_2  and  C2_3 
REMARK    2  A    between atoms: C4_5  and  C5_6 
REMARK    3  A    between atoms: C11_13  and  O3_14 
REMARK    4  A    between atoms: C12_16  and  C13_17 
REMARK    5  A    between atoms: C15_19  and  C16_20 
REMARK    6  A    between atoms: C20_24  and  O4_25 
REMARK    7  A    between atoms: C22_29  and  N1_30 
REMARK    8  A    between atoms: N1_30  and  C23_32 
REMARK    9  A    between atoms: C24_34  and  O7_35 
ROOT
HETATM    1  C5  UNL     1       9.919  94.895  40.787  1.00  0.00     0.169 C 
HETATM    2  C6  UNL     1      10.275  95.360  39.424  1.00  0.00     0.121 C 
HETATM    3  C7  UNL     1       9.537  94.628  38.359  1.00  0.00     0.167 C 
HETATM    4  O2  UNL     1       8.893  95.158  37.448  1.00  0.00    -0.292 OA
HETATM    5  C8  UNL     1       9.601  93.151  38.431  1.00  0.00     0.077 A 
HETATM    6  C9  UNL     1       9.718  92.658  39.713  1.00  0.00     0.089 A 
HETATM    7  C10 UNL     1       9.780  91.298  39.863  1.00  0.00     0.075 A 
HETATM    8  C11 UNL     1       9.722  90.479  38.723  1.00  0.00     0.082 A 
HETATM    9  C12 UNL     1       9.612  90.946  37.462  1.00  0.00     0.037 A 
HETATM   10  C20 UNL     1       9.547  92.369  37.320  1.00  0.00     0.095 A 
HETATM   11  O5  UNL     1       9.769  93.504  40.782  1.00  0.00    -0.340 OA
ENDROOT
BRANCH   1  12
HETATM   12  C4  UNL     1       8.716  95.478  41.385  1.00  0.00    -0.024 A 
HETATM   13  C3  UNL     1       8.117  96.513  40.655  1.00  0.00     0.049 A 
HETATM   14  C2  UNL     1       6.980  97.135  41.124  1.00  0.00     0.104 A 
HETATM   15  C24 UNL     1       6.464  96.704  42.326  1.00  0.00     0.128 A 
HETATM   16  C22 UNL     1       7.058  95.685  43.041  1.00  0.00     0.071 A 
HETATM   17  C21 UNL     1       8.201  95.047  42.586  1.00  0.00     0.042 A 
BRANCH  14  18
HETATM   18  O1  UNL     1       6.323  98.165  40.467  1.00  0.00    -0.353 OA
HETATM   19  C1  UNL     1       6.694  98.428  39.112  1.00  0.00     0.210 C 
ENDBRANCH  14  18
BRANCH  15  20
HETATM   20  O7  UNL     1       5.319  97.307  42.832  1.00  0.00    -0.351 OA
HETATM   21  C25 UNL     1       5.392  97.851  44.140  1.00  0.00     0.210 C 
ENDBRANCH  15  20
BRANCH  16  22
HETATM   22  N1  UNL     1       6.530  95.231  44.285  1.00  0.00    -0.332 N 
ATOM     23  H1  UNL     1       6.426  95.861  45.082  1.00  0.00     0.168 HD
BRANCH  22  24
HETATM   24  C23 UNL     1       6.196  94.009  44.357  1.00  0.00     0.353 C 
HETATM   25  O6  UNL     1       5.769  92.834  44.229  1.00  0.00    -0.283 OA
ENDBRANCH  22  24
ENDBRANCH  16  22
ENDBRANCH   1  12
BRANCH  10  26
HETATM   26  O4  UNL     1       9.438  92.883  36.076  1.00  0.00    -0.359 OA
ATOM     27  H4  UNL     1       9.190  92.355  35.325  1.00  0.00     0.217 HD
ENDBRANCH  10  26
BRANCH   8  28
HETATM   28  O3  UNL     1       9.773  89.117  39.009  1.00  0.00    -0.360 OA
ATOM     29  H3  UNL     1       9.008  88.637  38.715  1.00  0.00     0.217 HD
ENDBRANCH   8  28
BRANCH   9  30
HETATM   30  C13 UNL     1       9.690  90.170  36.255  1.00  0.00    -0.046 C 
HETATM   31  C14 UNL     1       8.517  90.427  35.257  1.00  0.00     0.049 C 
HETATM   32  C15 UNL     1      10.515  89.287  35.833  1.00  0.00     0.008 C 
BRANCH  32  33
HETATM   33  C16 UNL     1      11.700  88.768  36.449  1.00  0.00     0.002 C 
HETATM   34  C17 UNL     1      11.817  87.433  36.681  1.00  0.00    -0.088 C 
HETATM   35  C18 UNL     1      13.033  86.869  37.317  1.00  0.00     0.043 C 
HETATM   36  C19 UNL     1      10.672  86.588  36.264  1.00  0.00     0.043 C 
ENDBRANCH  32  33
ENDBRANCH   9  30
TORSDOF 9
ENDMDL
MODEL 4
REMARK VINA RESULT: -7.829700089      2.235      3.872
REMARK  9 active torsions:
REMARK  status: ('A' for Active; 'I' for Inactive)
REMARK    1  A    between atoms: O1_2  and  C2_3 
REMARK    2  A    between atoms: C4_5  and  C5_6 
REMARK    3  A    between atoms: C11_13  and  O3_14 
REMARK    4  A    between atoms: C12_16  and  C13_17 
REMARK    5  A    between atoms: C15_19  and  C16_20 
REMARK    6  A    between atoms: C20_24  and  O4_25 
REMARK    7  A    between atoms: C22_29  and  N1_30 
REMARK    8  A    between atoms: N1_30  and  C23_32 
REMARK    9  A    between atoms: C24_34  and  O7_35 
ROOT
HETATM    1  C5  UNL     1       9.630  90.004  39.459  1.00  0.00     0.169 C 
HETATM    2  C6  UNL     1       8.590  90.415  38.484  1.00  0.00     0.121 C 
HETATM    3  C7  UNL     1       8.960  91.648  37.738  1.00  0.00     0.167 C 
HETATM    4  O2  UNL     1       8.948  91.765  36.509  1.00  0.00    -0.292 OA
HETATM    5  C8  UNL     1       9.371  92.802  38.567  1.00  0.00     0.077 A 
HETATM    6  C9  UNL     1       9.982  92.451  39.751  1.00  0.00     0.089 A 
HETATM    7  C10 UNL     1      10.395  93.466  40.574  1.00  0.00     0.075 A 
HETATM    8  C11 UNL     1      10.182  94.797  40.181  1.00  0.00     0.082 A 
HETATM    9  C12 UNL     1       9.581  95.158  39.028  1.00  0.00     0.037 A 
HETATM   10  C20 UNL     1       9.156  94.087  38.178  1.00  0.00     0.095 A 
HETATM   11  O5  UNL     1      10.163  91.139  40.080  1.00  0.00    -0.340 OA
ENDROOT
BRANCH   1  12
HETATM   12  C4  UNL     1      10.743  89.209  38.934  1.00  0.00    -0.024 A 
HETATM   13  C3  UNL     1      11.837  89.055  39.796  1.00  0.00     0.049 A 
HETATM   14  C2  UNL     1      12.940  88.328  39.404  1.00  0.00     0.104 A 
HETATM   15  C24 UNL     1      12.923  87.765  38.147  1.00  0.00     0.128 A 
HETATM   16  C22 UNL     1      11.843  87.921  37.303  1.00  0.00     0.071 A 
HETATM   17  C21 UNL     1      10.725  88.648  37.678  1.00  0.00     0.042 A 
BRANCH  14  18
HETATM   18  O1  UNL     1      14.064  88.124  40.192  1.00  0.00    -0.353 OA
HETATM   19  C1  UNL     1      13.871  88.019  41.605  1.00  0.00     0.210 C 
ENDBRANCH  14  18
BRANCH  15  20
HETATM   20  O7  UNL     1      14.017  87.024  37.717  1.00  0.00    -0.351 OA
HETATM   21  C25 UNL     1      13.776  85.692  37.294  1.00  0.00     0.210 C 
ENDBRANCH  15  20
BRANCH  16  22
HETATM   22  N1  UNL     1      11.817  87.342  36.000  1.00  0.00    -0.332 N 
ATOM     23  H1  UNL     1      12.566  86.732  35.672  1.00  0.00     0.168 HD
BRANCH  22  24
HETATM   24  C23 UNL     1      10.818  87.621  35.267  1.00  0.00     0.353 C 
HETATM   25  O6  UNL     1       9.983  87.967  34.394  1.00  0.00    -0.283 OA
ENDBRANCH  22  24
ENDBRANCH  16  22
ENDBRANCH   1  12
BRANCH  10  26
HETATM   26  O4  UNL     1       8.547  94.399  37.012  1.00  0.00    -0.359 OA
ATOM     27  H4  UNL     1       7.919  95.108  36.939  1.00  0.00     0.217 HD
ENDBRANCH  10  26
BRANCH   8  28
HETATM   28  O3  UNL     1      10.664  95.734  41.091  1.00  0.00    -0.360 OA
ATOM     29  H3  UNL     1      11.609  95.833  41.073  1.00  0.00     0.217 HD
ENDBRANCH   8  28
BRANCH   9  30
HETATM   30  C13 UNL     1       9.209  96.490  38.639  1.00  0.00    -0.046 C 
HETATM   31  C14 UNL     1      10.407  97.370  38.161  1.00  0.00     0.049 C 
HETATM   32  C15 UNL     1       8.096  97.120  38.625  1.00  0.00     0.008 C 
BRANCH  32  33
HETATM   33  C16 UNL     1       6.784  96.676  38.995  1.00  0.00     0.002 C 
HETATM   34  C17 UNL     1       6.406  96.687  40.301  1.00  0.00    -0.088 C 
HETATM   35  C18 UNL     1       5.055  96.232  40.712  1.00  0.00     0.043 C 
HETATM   36  C19 UNL     1       7.412  97.174  41.276  1.00  0.00     0.043 C 
ENDBRANCH  32  33
ENDBRANCH   9  30
TORSDOF 9
ENDMDL
MODEL 5
REMARK VINA RESULT: -7.813597522      4.669      8.980
REMARK  9 active torsions:
REMARK  status: ('A' for Active; 'I' for Inactive)
REMARK    1  A    between atoms: O1_2  and  C2_3 
REMARK    2  A    between atoms: C4_5  and  C5_6 
REMARK    3  A    between atoms: C11_13  and  O3_14 
REMARK    4  A    between atoms: C12_16  and  C13_17 
REMARK    5  A    between atoms: C15_19  and  C16_20 
REMARK    6  A    between atoms: C20_24  and  O4_25 
REMARK    7  A    between atoms: C22_29  and  N1_30 
REMARK    8  A    between atoms: N1_30  and  C23_32 
REMARK    9  A    between atoms: C24_34  and  O7_35 
ROOT
HETATM    1  C5  UNL     1      13.554  89.410  40.432  1.00  0.00     0.169 C 
HETATM    2  C6  UNL     1      14.760  88.891  41.123  1.00  0.00     0.121 C 
HETATM    3  C7  UNL     1      14.446  87.789  42.073  1.00  0.00     0.167 C 
HETATM    4  O2  UNL     1      15.003  86.688  42.094  1.00  0.00    -0.292 OA
HETATM    5  C8  UNL     1      13.373  88.073  43.053  1.00  0.00     0.077 A 
HETATM    6  C9  UNL     1      12.408  88.940  42.591  1.00  0.00     0.089 A 
HETATM    7  C10 UNL     1      11.378  89.250  43.441  1.00  0.00     0.075 A 
HETATM    8  C11 UNL     1      11.352  88.678  44.723  1.00  0.00     0.082 A 
HETATM    9  C12 UNL     1      12.292  87.832  45.193  1.00  0.00     0.037 A 
HETATM   10  C20 UNL     1      13.361  87.516  44.294  1.00  0.00     0.095 A 
HETATM   11  O5  UNL     1      12.486  89.464  41.334  1.00  0.00    -0.340 OA
ENDROOT
BRANCH   1  12
HETATM   12  C4  UNL     1      13.111  88.674  39.246  1.00  0.00    -0.024 A 
HETATM   13  C3  UNL     1      12.147  89.318  38.459  1.00  0.00     0.049 A 
HETATM   14  C2  UNL     1      11.657  88.716  37.320  1.00  0.00     0.104 A 
HETATM   15  C24 UNL     1      12.148  87.471  36.991  1.00  0.00     0.128 A 
HETATM   16  C22 UNL     1      13.097  86.843  37.771  1.00  0.00     0.071 A 
HETATM   17  C21 UNL     1      13.602  87.430  38.919  1.00  0.00     0.042 A 
BRANCH  14  18
HETATM   18  O1  UNL     1      10.705  89.280  36.483  1.00  0.00    -0.353 OA
HETATM   19  C1  UNL     1      10.800  90.683  36.225  1.00  0.00     0.210 C 
ENDBRANCH  14  18
BRANCH  15  20
HETATM   20  O7  UNL     1      11.678  86.832  35.850  1.00  0.00    -0.351 OA
HETATM   21  C25 UNL     1      10.384  86.256  35.912  1.00  0.00     0.210 C 
ENDBRANCH  15  20
BRANCH  16  22
HETATM   22  N1  UNL     1      13.610  85.555  37.438  1.00  0.00    -0.332 N 
ATOM     23  H1  UNL     1      13.350  84.723  37.970  1.00  0.00     0.168 HD
BRANCH  22  24
HETATM   24  C23 UNL     1      14.405  85.490  36.451  1.00  0.00     0.353 C 
HETATM   25  O6  UNL     1      15.193  85.206  35.514  1.00  0.00    -0.283 OA
ENDBRANCH  22  24
ENDBRANCH  16  22
ENDBRANCH   1  12
BRANCH  10  26
HETATM   26  O4  UNL     1      14.327  86.673  44.720  1.00  0.00    -0.359 OA
ATOM     27  H4  UNL     1      14.423  86.427  45.633  1.00  0.00     0.217 HD
ENDBRANCH  10  26
BRANCH   8  28
HETATM   28  O3  UNL     1      10.247  89.054  45.482  1.00  0.00    -0.360 OA
ATOM     29  H3  UNL     1       9.983  88.403  46.121  1.00  0.00     0.217 HD
ENDBRANCH   8  28
BRANCH   9  30
HETATM   30  C13 UNL     1      12.395  87.330  46.535  1.00  0.00    -0.046 C 
HETATM   31  C14 UNL     1      11.679  85.960  46.759  1.00  0.00     0.049 C 
HETATM   32  C15 UNL     1      12.936  87.785  47.601  1.00  0.00     0.008 C 
BRANCH  32  33
HETATM   33  C16 UNL     1      13.668  88.999  47.815  1.00  0.00     0.002 C 
HETATM   34  C17 UNL     1      14.994  88.950  48.111  1.00  0.00    -0.088 C 
HETATM   35  C18 UNL     1      15.775  90.191  48.337  1.00  0.00     0.043 C 
HETATM   36  C19 UNL     1      15.603  87.601  48.193  1.00  0.00     0.043 C 
ENDBRANCH  32  33
ENDBRANCH   9  30
TORSDOF 9
ENDMDL
