MODEL 1
REMARK VINA RESULT: -7.714952164      0.000      0.000
REMARK  11 active torsions:
REMARK  status: ('A' for Active; 'I' for Inactive)
REMARK    1  A    between atoms: C2_2  and  O1_3 
REMARK    2  A    between atoms: O1_3  and  C3_4 
REMARK    3  A    between atoms: C3_4  and  C4_6 
REMARK    4  A    between atoms: C5_8  and  C6_9 
REMARK    5  A    between atoms: C10_13  and  O3_14 
REMARK    6  A    between atoms: C11_16  and  C12_17 
REMARK    7  A    between atoms: C12_17  and  C13_19 
REMARK    8  A    between atoms: C16_23  and  C17_24 
REMARK    9  A    between atoms: C17_24  and  C18_26 
REMARK   10  A    between atoms: C18_26  and  C19_27 
REMARK   11  A    between atoms: C22_30  and  O6_31 
ROOT
HETATM    1  C4  UNL     1       7.741  96.020  38.982  1.00  0.00     0.097 A 
HETATM    2  S1  UNL     1       7.760  97.009  40.411  1.00  0.00    -0.084 SA
HETATM    3  C5  UNL     1       7.235  95.859  41.547  1.00  0.00     0.025 A 
HETATM    4  C10 UNL     1       7.054  94.744  40.794  1.00  0.00     0.095 A 
HETATM    5  C11 UNL     1       7.313  94.826  39.457  1.00  0.00     0.073 A 
ENDROOT
BRANCH   5   6
HETATM    6  C12 UNL     1       7.201  93.629  38.597  1.00  0.00     0.206 C 
HETATM    7  O4  UNL     1       6.052  93.180  38.390  1.00  0.00    -0.286 OA
BRANCH   6   8
HETATM    8  C13 UNL     1       8.378  92.994  37.988  1.00  0.00     0.090 A 
HETATM    9  S2  UNL     1       9.986  93.540  37.998  1.00  0.00    -0.087 SA
HETATM   10  C14 UNL     1      10.683  92.365  36.968  1.00  0.00    -0.004 A 
HETATM   11  C15 UNL     1      12.140  92.292  36.564  1.00  0.00     0.057 C 
HETATM   12  C16 UNL     1       9.618  91.571  36.643  1.00  0.00     0.057 A 
HETATM   13  C22 UNL     1       8.410  91.889  37.169  1.00  0.00     0.101 A 
BRANCH  12  14
HETATM   14  C17 UNL     1       9.773  90.394  35.753  1.00  0.00     0.163 C 
HETATM   15  O5  UNL     1       8.911  90.094  34.896  1.00  0.00    -0.292 OA
BRANCH  14  16
HETATM   16  C18 UNL     1      10.941  89.490  35.801  1.00  0.00     0.088 C 
BRANCH  16  17
HETATM   17  C19 UNL     1      10.760  88.477  36.945  1.00  0.00    -0.015 C 
HETATM   18  C20 UNL     1      10.806  87.068  36.453  1.00  0.00     0.010 C 
HETATM   19  C21 UNL     1      11.823  88.655  38.002  1.00  0.00     0.010 C 
ENDBRANCH  16  17
ENDBRANCH  14  16
ENDBRANCH  12  14
BRANCH  13  20
HETATM   20  O6  UNL     1       7.174  91.224  36.981  1.00  0.00    -0.358 OA
ATOM     21  H6  UNL     1       7.224  90.282  36.870  1.00  0.00     0.217 HD
ENDBRANCH  13  20
ENDBRANCH   6   8
ENDBRANCH   5   6
BRANCH   1  22
HETATM   22  C3  UNL     1       8.204  96.573  37.737  1.00  0.00     0.301 C 
HETATM   23  O2  UNL     1       7.614  96.406  36.661  1.00  0.00    -0.259 OA
BRANCH  22  24
HETATM   24  O1  UNL     1       9.366  97.349  37.637  1.00  0.00    -0.317 OA
BRANCH  24  25
HETATM   25  C2  UNL     1      10.552  97.020  38.330  1.00  0.00     0.174 C 
HETATM   26  C1  UNL     1      11.751  97.648  37.659  1.00  0.00     0.034 C 
ENDBRANCH  24  25
ENDBRANCH  22  24
ENDBRANCH   1  22
BRANCH   4  27
HETATM   27  O3  UNL     1       6.606  93.562  41.435  1.00  0.00    -0.359 OA
ATOM     28  H3  UNL     1       6.827  92.725  41.044  1.00  0.00     0.217 HD
ENDBRANCH   4  27
BRANCH   3  29
HETATM   29  C6  UNL     1       7.016  96.025  43.041  1.00  0.00    -0.015 C 
HETATM   30  C7  UNL     1       7.311  97.467  43.352  1.00  0.00     0.020 C 
HETATM   31  C8  UNL     1       5.637  95.603  43.424  1.00  0.00     0.020 C 
HETATM   32  C9  UNL     1       8.071  95.192  43.753  1.00  0.00     0.020 C 
ENDBRANCH   3  29
TORSDOF 11
ENDMDL
MODEL 2
REMARK VINA RESULT: -7.593373306     11.651     14.166
REMARK  11 active torsions:
REMARK  status: ('A' for Active; 'I' for Inactive)
REMARK    1  A    between atoms: C2_2  and  O1_3 
REMARK    2  A    between atoms: O1_3  and  C3_4 
REMARK    3  A    between atoms: C3_4  and  C4_6 
REMARK    4  A    between atoms: C5_8  and  C6_9 
REMARK    5  A    between atoms: C10_13  and  O3_14 
REMARK    6  A    between atoms: C11_16  and  C12_17 
REMARK    7  A    between atoms: C12_17  and  C13_19 
REMARK    8  A    between atoms: C16_23  and  C17_24 
REMARK    9  A    between atoms: C17_24  and  C18_26 
REMARK   10  A    between atoms: C18_26  and  C19_27 
REMARK   11  A    between atoms: C22_30  and  O6_31 
ROOT
HETATM    1  C4  UNL     1      17.717  88.490  49.270  1.00  0.00     0.097 A 
HETATM    2  S1  UNL     1      18.192  87.516  50.629  1.00  0.00    -0.084 SA
HETATM    3  C5  UNL     1      19.088  86.324  49.812  1.00  0.00     0.025 A 
HETATM    4  C10 UNL     1      18.992  86.706  48.513  1.00  0.00     0.095 A 
HETATM    5  C11 UNL     1      18.277  87.830  48.227  1.00  0.00     0.073 A 
ENDROOT
BRANCH   5   6
HETATM    6  C12 UNL     1      18.193  88.335  46.840  1.00  0.00     0.206 C 
HETATM    7  O4  UNL     1      19.214  88.882  46.369  1.00  0.00    -0.286 OA
BRANCH   6   8
HETATM    8  C13 UNL     1      16.975  88.191  46.030  1.00  0.00     0.090 A 
HETATM    9  S2  UNL     1      15.372  88.033  46.568  1.00  0.00    -0.087 SA
HETATM   10  C14 UNL     1      14.602  87.757  45.066  1.00  0.00    -0.004 A 
HETATM   11  C15 UNL     1      13.120  87.533  44.856  1.00  0.00     0.057 C 
HETATM   12  C16 UNL     1      15.641  87.798  44.177  1.00  0.00     0.057 A 
HETATM   13  C22 UNL     1      16.883  88.023  44.669  1.00  0.00     0.101 A 
BRANCH  12  14
HETATM   14  C17 UNL     1      15.422  87.611  42.721  1.00  0.00     0.163 C 
HETATM   15  O5  UNL     1      15.620  86.511  42.158  1.00  0.00    -0.292 OA
BRANCH  14  16
HETATM   16  C18 UNL     1      14.957  88.692  41.826  1.00  0.00     0.088 C 
BRANCH  16  17
HETATM   17  C19 UNL     1      13.640  88.269  41.154  1.00  0.00    -0.015 C 
HETATM   18  C20 UNL     1      12.507  89.165  41.537  1.00  0.00     0.010 C 
HETATM   19  C21 UNL     1      13.771  88.275  39.649  1.00  0.00     0.010 C 
ENDBRANCH  16  17
ENDBRANCH  14  16
ENDBRANCH  12  14
BRANCH  13  20
HETATM   20  O6  UNL     1      18.103  88.109  43.953  1.00  0.00    -0.358 OA
ATOM     21  H6  UNL     1      18.425  87.295  43.585  1.00  0.00     0.217 HD
ENDBRANCH  13  20
ENDBRANCH   6   8
ENDBRANCH   5   6
BRANCH   1  22
HETATM   22  C3  UNL     1      16.979  89.703  49.498  1.00  0.00     0.301 C 
HETATM   23  O2  UNL     1      16.952  90.641  48.690  1.00  0.00    -0.259 OA
BRANCH  22  24
HETATM   24  O1  UNL     1      16.227  89.927  50.659  1.00  0.00    -0.317 OA
BRANCH  24  25
HETATM   25  C2  UNL     1      15.370  91.040  50.797  1.00  0.00     0.174 C 
HETATM   26  C1  UNL     1      15.697  91.810  52.055  1.00  0.00     0.034 C 
ENDBRANCH  24  25
ENDBRANCH  22  24
ENDBRANCH   1  22
BRANCH   4  27
HETATM   27  O3  UNL     1      19.638  85.916  47.529  1.00  0.00    -0.359 OA
ATOM     28  H3  UNL     1      19.800  86.302  46.676  1.00  0.00     0.217 HD
ENDBRANCH   4  27
BRANCH   3  29
HETATM   29  C6  UNL     1      19.818  85.120  50.383  1.00  0.00    -0.015 C 
HETATM   30  C7  UNL     1      18.934  83.931  50.129  1.00  0.00     0.020 C 
HETATM   31  C8  UNL     1      21.178  84.992  49.782  1.00  0.00     0.020 C 
HETATM   32  C9  UNL     1      19.893  85.305  51.891  1.00  0.00     0.020 C 
ENDBRANCH   3  29
TORSDOF 11
ENDMDL
MODEL 3
REMARK VINA RESULT: -7.588760612      1.852      2.903
REMARK  11 active torsions:
REMARK  status: ('A' for Active; 'I' for Inactive)
REMARK    1  A    between atoms: C2_2  and  O1_3 
REMARK    2  A    between atoms: O1_3  and  C3_4 
REMARK    3  A    between atoms: C3_4  and  C4_6 
REMARK    4  A    between atoms: C5_8  and  C6_9 
REMARK    5  A    between atoms: C10_13  and  O3_14 
REMARK    6  A    between atoms: C11_16  and  C12_17 
REMARK    7  A    between atoms: C12_17  and  C13_19 
REMARK    8  A    between atoms: C16_23  and  C17_24 
REMARK    9  A    between atoms: C17_24  and  C18_26 
REMARK   10  A    between atoms: C18_26  and  C19_27 
REMARK   11  A    between atoms: C22_30  and  O6_31 
ROOT
HETATM    1  C4  UNL     1       7.397  96.159  39.415  1.00  0.00     0.097 A 
HETATM    2  S1  UNL     1       6.274  96.808  40.572  1.00  0.00    -0.084 SA
HETATM    3  C5  UNL     1       7.121  96.454  42.003  1.00  0.00     0.025 A 
HETATM    4  C10 UNL     1       8.244  95.841  41.551  1.00  0.00     0.095 A 
HETATM    5  C11 UNL     1       8.389  95.682  40.204  1.00  0.00     0.073 A 
ENDROOT
BRANCH   5   6
HETATM    6  C12 UNL     1       9.621  95.083  39.647  1.00  0.00     0.206 C 
HETATM    7  O4  UNL     1      10.546  95.864  39.337  1.00  0.00    -0.286 OA
BRANCH   6   8
HETATM    8  C13 UNL     1       9.772  93.630  39.477  1.00  0.00     0.090 A 
HETATM    9  S2  UNL     1      10.076  92.461  40.671  1.00  0.00    -0.087 SA
HETATM   10  C14 UNL     1      10.274  91.089  39.669  1.00  0.00    -0.004 A 
HETATM   11  C15 UNL     1      10.573  89.682  40.141  1.00  0.00     0.057 C 
HETATM   12  C16 UNL     1      10.093  91.598  38.412  1.00  0.00     0.057 A 
HETATM   13  C22 UNL     1       9.831  92.922  38.300  1.00  0.00     0.101 A 
BRANCH  12  14
HETATM   14  C17 UNL     1      10.170  90.733  37.209  1.00  0.00     0.163 C 
HETATM   15  O5  UNL     1       9.173  90.517  36.483  1.00  0.00    -0.292 OA
BRANCH  14  16
HETATM   16  C18 UNL     1      11.413  90.064  36.769  1.00  0.00     0.088 C 
BRANCH  16  17
HETATM   17  C19 UNL     1      11.214  88.539  36.805  1.00  0.00    -0.015 C 
HETATM   18  C20 UNL     1      11.116  87.958  35.433  1.00  0.00     0.010 C 
HETATM   19  C21 UNL     1      12.348  87.860  37.536  1.00  0.00     0.010 C 
ENDBRANCH  16  17
ENDBRANCH  14  16
ENDBRANCH  12  14
BRANCH  13  20
HETATM   20  O6  UNL     1       9.609  93.670  37.117  1.00  0.00    -0.358 OA
ATOM     21  H6  UNL     1       9.854  94.587  37.155  1.00  0.00     0.217 HD
ENDBRANCH  13  20
ENDBRANCH   6   8
ENDBRANCH   5   6
BRANCH   1  22
HETATM   22  C3  UNL     1       7.124  96.307  38.010  1.00  0.00     0.301 C 
HETATM   23  O2  UNL     1       6.919  97.403  37.473  1.00  0.00    -0.259 OA
BRANCH  22  24
HETATM   24  O1  UNL     1       7.067  95.219  37.129  1.00  0.00    -0.317 OA
BRANCH  24  25
HETATM   25  C2  UNL     1       5.955  94.352  37.077  1.00  0.00     0.174 C 
HETATM   26  C1  UNL     1       6.236  93.079  37.841  1.00  0.00     0.034 C 
ENDBRANCH  24  25
ENDBRANCH  22  24
ENDBRANCH   1  22
BRANCH   4  27
HETATM   27  O3  UNL     1       9.200  95.399  42.499  1.00  0.00    -0.359 OA
ATOM     28  H3  UNL     1      10.109  95.642  42.372  1.00  0.00     0.217 HD
ENDBRANCH   4  27
BRANCH   3  29
HETATM   29  C6  UNL     1       6.728  96.747  43.441  1.00  0.00    -0.015 C 
HETATM   30  C7  UNL     1       6.701  95.420  44.148  1.00  0.00     0.020 C 
HETATM   31  C8  UNL     1       7.664  97.732  44.056  1.00  0.00     0.020 C 
HETATM   32  C9  UNL     1       5.300  97.271  43.426  1.00  0.00     0.020 C 
ENDBRANCH   3  29
TORSDOF 11
ENDMDL
MODEL 4
REMARK VINA RESULT: -7.482785227      2.065      2.563
REMARK  11 active torsions:
REMARK  status: ('A' for Active; 'I' for Inactive)
REMARK    1  A    between atoms: C2_2  and  O1_3 
REMARK    2  A    between atoms: O1_3  and  C3_4 
REMARK    3  A    between atoms: C3_4  and  C4_6 
REMARK    4  A    between atoms: C5_8  and  C6_9 
REMARK    5  A    between atoms: C10_13  and  O3_14 
REMARK    6  A    between atoms: C11_16  and  C12_17 
REMARK    7  A    between atoms: C12_17  and  C13_19 
REMARK    8  A    between atoms: C16_23  and  C17_24 
REMARK    9  A    between atoms: C17_24  and  C18_26 
REMARK   10  A    between atoms: C18_26  and  C19_27 
REMARK   11  A    between atoms: C22_30  and  O6_31 
ROOT
HETATM    1  C4  UNL     1       6.856  95.277  39.050  1.00  0.00     0.097 A 
HETATM    2  S1  UNL     1       5.891  95.457  40.484  1.00  0.00    -0.084 SA
HETATM    3  C5  UNL     1       6.964  94.787  41.621  1.00  0.00     0.025 A 
HETATM    4  C10 UNL     1       8.035  94.439  40.863  1.00  0.00     0.095 A 
HETATM    5  C11 UNL     1       7.981  94.689  39.524  1.00  0.00     0.073 A 
ENDROOT
BRANCH   5   6
HETATM    6  C12 UNL     1       9.142  94.394  38.658  1.00  0.00     0.206 C 
HETATM    7  O4  UNL     1      10.054  95.248  38.615  1.00  0.00    -0.286 OA
BRANCH   6   8
HETATM    8  C13 UNL     1       9.242  93.147  37.886  1.00  0.00     0.090 A 
HETATM    9  S2  UNL     1       8.439  92.737  36.447  1.00  0.00    -0.087 SA
HETATM   10  C14 UNL     1       8.953  91.112  36.297  1.00  0.00    -0.004 A 
HETATM   11  C15 UNL     1       8.573  90.161  35.183  1.00  0.00     0.057 C 
HETATM   12  C16 UNL     1       9.749  90.939  37.397  1.00  0.00     0.057 A 
HETATM   13  C22 UNL     1       9.906  91.994  38.233  1.00  0.00     0.101 A 
BRANCH  12  14
HETATM   14  C17 UNL     1      10.426  89.647  37.666  1.00  0.00     0.163 C 
HETATM   15  O5  UNL     1      10.265  89.026  38.741  1.00  0.00    -0.292 OA
BRANCH  14  16
HETATM   16  C18 UNL     1      11.335  88.992  36.702  1.00  0.00     0.088 C 
BRANCH  16  17
HETATM   17  C19 UNL     1      11.173  87.465  36.801  1.00  0.00    -0.015 C 
HETATM   18  C20 UNL     1      10.501  86.897  35.594  1.00  0.00     0.010 C 
HETATM   19  C21 UNL     1      12.512  86.787  36.972  1.00  0.00     0.010 C 
ENDBRANCH  16  17
ENDBRANCH  14  16
ENDBRANCH  12  14
BRANCH  13  20
HETATM   20  O6  UNL     1      10.674  92.057  39.422  1.00  0.00    -0.358 OA
ATOM     21  H6  UNL     1      11.530  92.461  39.342  1.00  0.00     0.217 HD
ENDBRANCH  13  20
ENDBRANCH   6   8
ENDBRANCH   5   6
BRANCH   1  22
HETATM   22  C3  UNL     1       6.365  95.797  37.802  1.00  0.00     0.301 C 
HETATM   23  O2  UNL     1       5.526  95.209  37.106  1.00  0.00    -0.259 OA
BRANCH  22  24
HETATM   24  O1  UNL     1       6.797  97.018  37.267  1.00  0.00    -0.317 OA
BRANCH  24  25
HETATM   25  C2  UNL     1       7.590  97.924  38.003  1.00  0.00     0.174 C 
HETATM   26  C1  UNL     1       6.720  98.880  38.784  1.00  0.00     0.034 C 
ENDBRANCH  24  25
ENDBRANCH  22  24
ENDBRANCH   1  22
BRANCH   4  27
HETATM   27  O3  UNL     1       9.146  93.835  41.503  1.00  0.00    -0.359 OA
ATOM     28  H3  UNL     1       9.535  94.279  42.247  1.00  0.00     0.217 HD
ENDBRANCH   4  27
BRANCH   3  29
HETATM   29  C6  UNL     1       6.780  94.615  43.119  1.00  0.00    -0.015 C 
HETATM   30  C7  UNL     1       5.531  95.371  43.480  1.00  0.00     0.020 C 
HETATM   31  C8  UNL     1       6.728  93.169  43.483  1.00  0.00     0.020 C 
HETATM   32  C9  UNL     1       7.940  95.319  43.806  1.00  0.00     0.020 C 
ENDBRANCH   3  29
TORSDOF 11
ENDMDL
MODEL 5
REMARK VINA RESULT: -7.464421586      2.325      3.539
REMARK  11 active torsions:
REMARK  status: ('A' for Active; 'I' for Inactive)
REMARK    1  A    between atoms: C2_2  and  O1_3 
REMARK    2  A    between atoms: O1_3  and  C3_4 
REMARK    3  A    between atoms: C3_4  and  C4_6 
REMARK    4  A    between atoms: C5_8  and  C6_9 
REMARK    5  A    between atoms: C10_13  and  O3_14 
REMARK    6  A    between atoms: C11_16  and  C12_17 
REMARK    7  A    between atoms: C12_17  and  C13_19 
REMARK    8  A    between atoms: C16_23  and  C17_24 
REMARK    9  A    between atoms: C17_24  and  C18_26 
REMARK   10  A    between atoms: C18_26  and  C19_27 
REMARK   11  A    between atoms: C22_30  and  O6_31 
ROOT
HETATM    1  C4  UNL     1       7.569  96.630  41.543  1.00  0.00     0.097 A 
HETATM    2  S1  UNL     1       7.453  96.789  43.269  1.00  0.00    -0.084 SA
HETATM    3  C5  UNL     1       8.794  95.846  43.721  1.00  0.00     0.025 A 
HETATM    4  C10 UNL     1       9.292  95.431  42.529  1.00  0.00     0.095 A 
HETATM    5  C11 UNL     1       8.655  95.834  41.393  1.00  0.00     0.073 A 
ENDROOT
BRANCH   5   6
HETATM    6  C12 UNL     1       9.189  95.471  40.063  1.00  0.00     0.206 C 
HETATM    7  O4  UNL     1      10.197  96.092  39.664  1.00  0.00    -0.286 OA
BRANCH   6   8
HETATM    8  C13 UNL     1       8.582  94.413  39.242  1.00  0.00     0.090 A 
HETATM    9  S2  UNL     1       7.141  93.561  39.529  1.00  0.00    -0.087 SA
HETATM   10  C14 UNL     1       7.227  92.433  38.245  1.00  0.00    -0.004 A 
HETATM   11  C15 UNL     1       6.206  91.359  37.939  1.00  0.00     0.057 C 
HETATM   12  C16 UNL     1       8.400  92.765  37.624  1.00  0.00     0.057 A 
HETATM   13  C22 UNL     1       9.115  93.796  38.135  1.00  0.00     0.101 A 
BRANCH  12  14
HETATM   14  C17 UNL     1       8.875  92.031  36.425  1.00  0.00     0.163 C 
HETATM   15  O5  UNL     1       8.897  92.560  35.291  1.00  0.00    -0.292 OA
BRANCH  14  16
HETATM   16  C18 UNL     1       9.355  90.634  36.467  1.00  0.00     0.088 C 
BRANCH  16  17
HETATM   17  C19 UNL     1      10.889  90.622  36.581  1.00  0.00    -0.015 C 
HETATM   18  C20 UNL     1      11.341  90.528  38.002  1.00  0.00     0.010 C 
HETATM   19  C21 UNL     1      11.483  89.469  35.809  1.00  0.00     0.010 C 
ENDBRANCH  16  17
ENDBRANCH  14  16
ENDBRANCH  12  14
BRANCH  13  20
HETATM   20  O6  UNL     1      10.347  94.319  37.670  1.00  0.00    -0.358 OA
ATOM     21  H6  UNL     1      10.793  93.802  37.010  1.00  0.00     0.217 HD
ENDBRANCH  13  20
ENDBRANCH   6   8
ENDBRANCH   5   6
BRANCH   1  22
HETATM   22  C3  UNL     1       6.648  97.353  40.706  1.00  0.00     0.301 C 
HETATM   23  O2  UNL     1       5.439  97.094  40.649  1.00  0.00    -0.259 OA
BRANCH  22  24
HETATM   24  O1  UNL     1       7.045  98.415  39.883  1.00  0.00    -0.317 OA
BRANCH  24  25
HETATM   25  C2  UNL     1       6.607  98.535  38.546  1.00  0.00     0.174 C 
HETATM   26  C1  UNL     1       6.950  97.292  37.760  1.00  0.00     0.034 C 
ENDBRANCH  24  25
ENDBRANCH  22  24
ENDBRANCH   1  22
BRANCH   4  27
HETATM   27  O3  UNL     1      10.442  94.603  42.531  1.00  0.00    -0.359 OA
ATOM     28  H3  UNL     1      10.320  93.661  42.519  1.00  0.00     0.217 HD
ENDBRANCH   4  27
BRANCH   3  29
HETATM   29  C6  UNL     1       9.316  95.537  45.114  1.00  0.00    -0.015 C 
HETATM   30  C7  UNL     1       9.103  94.063  45.326  1.00  0.00     0.020 C 
HETATM   31  C8  UNL     1      10.740  95.959  45.251  1.00  0.00     0.020 C 
HETATM   32  C9  UNL     1       8.423  96.262  46.109  1.00  0.00     0.020 C 
ENDBRANCH   3  29
TORSDOF 11
ENDMDL
