MODEL 1
REMARK VINA RESULT: -8.211915650      0.000      0.000
REMARK  11 active torsions:
REMARK  status: ('A' for Active; 'I' for Inactive)
REMARK    1  A    between atoms: C2_2  and  C4_4 
REMARK    2  A    between atoms: C4_4  and  C5_5 
REMARK    3  A    between atoms: C7_10  and  C8_11 
REMARK    4  A    between atoms: C8_11  and  C9_12 
REMARK    5  A    between atoms: C12_17  and  O2_18 
REMARK    6  A    between atoms: C13_20  and  C14_21 
REMARK    7  A    between atoms: C17_26  and  O3_27 
REMARK    8  A    between atoms: C19_31  and  C20_32 
REMARK    9  A    between atoms: C20_32  and  C21_33 
REMARK   10  A    between atoms: C21_33  and  C22_34 
REMARK   11  A    between atoms: C22_34  and  N4_35 
ROOT
HETATM    1  C5  UNL     1       3.511  13.880  -1.889  1.00  0.00     0.177 C 
HETATM    2  N1  UNL     1       3.011  15.232  -1.786  1.00  0.00    -0.346 N 
ATOM      3  H1  UNL     1       1.999  15.330  -1.867  1.00  0.00     0.163 HD
HETATM    4  C6  UNL     1       3.717  16.432  -1.589  1.00  0.00     0.241 C 
HETATM    5  O1  UNL     1       3.258  17.225  -0.669  1.00  0.00    -0.271 OA
HETATM    6  C7  UNL     1       4.910  17.020  -2.214  1.00  0.00     0.175 C 
HETATM    7  N2  UNL     1       5.654  17.867  -1.296  1.00  0.00    -0.359 N 
ATOM      8  H2  UNL     1       5.313  18.828  -1.254  1.00  0.00     0.162 HD
HETATM    9  C12 UNL     1       6.731  17.622  -0.471  1.00  0.00     0.135 C 
HETATM   10  C13 UNL     1       8.055  17.015  -0.681  1.00  0.00     0.161 C 
HETATM   11  N3  UNL     1       8.075  15.643  -1.080  1.00  0.00    -0.356 N 
ATOM     12  H3  UNL     1       7.749  15.530  -2.040  1.00  0.00     0.162 HD
HETATM   13  C17 UNL     1       8.418  14.428  -0.515  1.00  0.00     0.185 C 
HETATM   14  C18 UNL     1       7.875  13.600   0.532  1.00  0.00     0.222 C 
HETATM   15  O4  UNL     1       8.557  13.264   1.511  1.00  0.00    -0.286 OA
HETATM   16  C19 UNL     1       6.428  13.067   0.530  1.00  0.00     0.163 C 
HETATM   17  N7  UNL     1       5.697  13.889  -0.414  1.00  0.00    -0.347 N 
ATOM     18  H7  UNL     1       5.733  14.860  -0.107  1.00  0.00     0.163 HD
HETATM   19  C24 UNL     1       4.985  13.817  -1.558  1.00  0.00     0.241 C 
HETATM   20  O5  UNL     1       5.609  13.662  -2.683  1.00  0.00    -0.271 OA
ENDROOT
BRANCH  16  21
HETATM   21  C20 UNL     1       5.905  13.379   1.915  1.00  0.00     0.035 C 
BRANCH  21  22
HETATM   22  C21 UNL     1       4.449  12.993   2.064  1.00  0.00     0.022 C 
BRANCH  22  23
HETATM   23  C22 UNL     1       3.620  14.129   2.617  1.00  0.00     0.122 C 
BRANCH  23  24
HETATM   24  N4  UNL     1       2.829  14.777   1.605  1.00  0.00    -0.367 N 
HETATM   25  C23 UNL     1       1.555  14.535   1.569  1.00  0.00     0.196 C 
HETATM   26  N5  UNL     1       0.903  13.664   2.477  1.00  0.00    -0.067 NA
HETATM   27  N6  UNL     1       0.819  15.209   0.539  1.00  0.00    -0.067 NA
ATOM     28  H4  UNL     1       3.259  15.411   0.932  1.00  0.00     0.161 HD
ENDBRANCH  23  24
ENDBRANCH  22  23
ENDBRANCH  21  22
ENDBRANCH  16  21
BRANCH  13  29
HETATM   29  O3  UNL     1       9.488  13.876  -1.043  1.00  0.00    -0.344 OA
ATOM     30  H3  UNL     1       9.451  12.928  -1.088  1.00  0.00     0.219 HD
ENDBRANCH  13  29
BRANCH   1  31
HETATM   31  C4  UNL     1       3.301  13.279  -3.240  1.00  0.00     0.038 C 
BRANCH  31  32
HETATM   32  C2  UNL     1       2.551  13.997  -4.273  1.00  0.00    -0.020 C 
HETATM   33  C1  UNL     1       1.459  13.273  -5.001  1.00  0.00     0.009 C 
HETATM   34  C3  UNL     1       3.459  14.738  -5.259  1.00  0.00     0.009 C 
ENDBRANCH  31  32
ENDBRANCH   1  31
BRANCH  10  35
HETATM   35  C14 UNL     1       8.977  17.322   0.506  1.00  0.00     0.008 C 
HETATM   36  C15 UNL     1      10.153  16.411   0.433  1.00  0.00     0.012 C 
HETATM   37  C16 UNL     1       9.456  18.734   0.378  1.00  0.00     0.012 C 
ENDBRANCH  10  35
BRANCH   9  38
HETATM   38  O2  UNL     1       6.547  18.009   0.762  1.00  0.00    -0.348 OA
ATOM     39  H2  UNL     1       7.144  17.607   1.382  1.00  0.00     0.219 HD
ENDBRANCH   9  38
BRANCH   6  40
HETATM   40  C8  UNL     1       4.392  17.985  -3.321  1.00  0.00     0.038 C 
BRANCH  40  41
HETATM   41  C9  UNL     1       5.643  18.552  -3.985  1.00  0.00    -0.020 C 
HETATM   42  C10 UNL     1       5.708  20.055  -3.816  1.00  0.00     0.009 C 
HETATM   43  C11 UNL     1       5.598  18.303  -5.492  1.00  0.00     0.009 C 
ENDBRANCH  40  41
ENDBRANCH   6  40
TORSDOF 11
ENDMDL
MODEL 2
REMARK VINA RESULT: -8.115736812      0.744      1.098
REMARK  11 active torsions:
REMARK  status: ('A' for Active; 'I' for Inactive)
REMARK    1  A    between atoms: C2_2  and  C4_4 
REMARK    2  A    between atoms: C4_4  and  C5_5 
REMARK    3  A    between atoms: C7_10  and  C8_11 
REMARK    4  A    between atoms: C8_11  and  C9_12 
REMARK    5  A    between atoms: C12_17  and  O2_18 
REMARK    6  A    between atoms: C13_20  and  C14_21 
REMARK    7  A    between atoms: C17_26  and  O3_27 
REMARK    8  A    between atoms: C19_31  and  C20_32 
REMARK    9  A    between atoms: C20_32  and  C21_33 
REMARK   10  A    between atoms: C21_33  and  C22_34 
REMARK   11  A    between atoms: C22_34  and  N4_35 
ROOT
HETATM    1  C5  UNL     1       3.820  14.148  -2.124  1.00  0.00     0.177 C 
HETATM    2  N1  UNL     1       3.258  15.462  -1.908  1.00  0.00    -0.346 N 
ATOM      3  H1  UNL     1       2.242  15.518  -1.976  1.00  0.00     0.163 HD
HETATM    4  C6  UNL     1       3.908  16.674  -1.619  1.00  0.00     0.241 C 
HETATM    5  O1  UNL     1       3.420  17.367  -0.635  1.00  0.00    -0.271 OA
HETATM    6  C7  UNL     1       5.067  17.367  -2.200  1.00  0.00     0.175 C 
HETATM    7  N2  UNL     1       5.778  18.172  -1.220  1.00  0.00    -0.359 N 
ATOM      8  H2  UNL     1       5.392  19.109  -1.099  1.00  0.00     0.162 HD
HETATM    9  C12 UNL     1       6.872  17.913  -0.424  1.00  0.00     0.135 C 
HETATM   10  C13 UNL     1       8.222  17.388  -0.688  1.00  0.00     0.161 C 
HETATM   11  N3  UNL     1       8.303  16.056  -1.197  1.00  0.00    -0.356 N 
ATOM     12  H3  UNL     1       7.974  16.005  -2.162  1.00  0.00     0.162 HD
HETATM   13  C17 UNL     1       8.708  14.817  -0.734  1.00  0.00     0.185 C 
HETATM   14  C18 UNL     1       8.214  13.882   0.245  1.00  0.00     0.222 C 
HETATM   15  O4  UNL     1       8.920  13.501   1.190  1.00  0.00    -0.286 OA
HETATM   16  C19 UNL     1       6.794  13.283   0.208  1.00  0.00     0.163 C 
HETATM   17  N7  UNL     1       6.016  14.142  -0.664  1.00  0.00    -0.347 N 
ATOM     18  H7  UNL     1       6.009  15.086  -0.279  1.00  0.00     0.163 HD
HETATM   19  C24 UNL     1       5.298  14.129  -1.806  1.00  0.00     0.241 C 
HETATM   20  O5  UNL     1       5.919  14.095  -2.943  1.00  0.00    -0.271 OA
ENDROOT
BRANCH  16  21
HETATM   21  C20 UNL     1       6.269  13.457   1.616  1.00  0.00     0.035 C 
BRANCH  21  22
HETATM   22  C21 UNL     1       4.835  12.986   1.742  1.00  0.00     0.022 C 
BRANCH  22  23
HETATM   23  C22 UNL     1       3.957  14.027   2.394  1.00  0.00     0.122 C 
BRANCH  23  24
HETATM   24  N4  UNL     1       3.133  14.727   1.445  1.00  0.00    -0.367 N 
HETATM   25  C23 UNL     1       1.883  14.394   1.350  1.00  0.00     0.196 C 
HETATM   26  N5  UNL     1       1.288  13.375   2.135  1.00  0.00    -0.067 NA
HETATM   27  N6  UNL     1       1.113  15.126   0.386  1.00  0.00    -0.067 NA
ATOM     28  H4  UNL     1       3.523  15.466   0.861  1.00  0.00     0.161 HD
ENDBRANCH  23  24
ENDBRANCH  22  23
ENDBRANCH  21  22
ENDBRANCH  16  21
BRANCH  13  29
HETATM   29  O3  UNL     1       9.798  14.361  -1.310  1.00  0.00    -0.344 OA
ATOM     30  H3  UNL     1      10.442  14.019  -0.702  1.00  0.00     0.219 HD
ENDBRANCH  13  29
BRANCH   1  31
HETATM   31  C4  UNL     1       3.626  13.649  -3.517  1.00  0.00     0.038 C 
BRANCH  31  32
HETATM   32  C2  UNL     1       2.514  12.756  -3.848  1.00  0.00    -0.020 C 
HETATM   33  C1  UNL     1       1.473  13.234  -4.814  1.00  0.00     0.009 C 
HETATM   34  C3  UNL     1       1.859  12.139  -2.608  1.00  0.00     0.009 C 
ENDBRANCH  31  32
ENDBRANCH   1  31
BRANCH  10  35
HETATM   35  C14 UNL     1       9.139  17.643   0.514  1.00  0.00     0.008 C 
HETATM   36  C15 UNL     1      10.311  16.731   0.410  1.00  0.00     0.012 C 
HETATM   37  C16 UNL     1       9.624  19.057   0.448  1.00  0.00     0.012 C 
ENDBRANCH  10  35
BRANCH   9  38
HETATM   38  O2  UNL     1       6.681  18.190   0.838  1.00  0.00    -0.348 OA
ATOM     39  H2  UNL     1       7.284  18.839   1.182  1.00  0.00     0.219 HD
ENDBRANCH   9  38
BRANCH   6  40
HETATM   40  C8  UNL     1       4.494  18.392  -3.222  1.00  0.00     0.038 C 
BRANCH  40  41
HETATM   41  C9  UNL     1       4.911  17.875  -4.596  1.00  0.00    -0.020 C 
HETATM   42  C10 UNL     1       3.880  16.909  -5.143  1.00  0.00     0.009 C 
HETATM   43  C11 UNL     1       6.211  17.080  -4.487  1.00  0.00     0.009 C 
ENDBRANCH  40  41
ENDBRANCH   6  40
TORSDOF 11
ENDMDL
MODEL 3
REMARK VINA RESULT: -7.920499276      2.459      6.452
REMARK  11 active torsions:
REMARK  status: ('A' for Active; 'I' for Inactive)
REMARK    1  A    between atoms: C2_2  and  C4_4 
REMARK    2  A    between atoms: C4_4  and  C5_5 
REMARK    3  A    between atoms: C7_10  and  C8_11 
REMARK    4  A    between atoms: C8_11  and  C9_12 
REMARK    5  A    between atoms: C12_17  and  O2_18 
REMARK    6  A    between atoms: C13_20  and  C14_21 
REMARK    7  A    between atoms: C17_26  and  O3_27 
REMARK    8  A    between atoms: C19_31  and  C20_32 
REMARK    9  A    between atoms: C20_32  and  C21_33 
REMARK   10  A    between atoms: C21_33  and  C22_34 
REMARK   11  A    between atoms: C22_34  and  N4_35 
ROOT
HETATM    1  C5  UNL     1       7.640  16.719  -0.977  1.00  0.00     0.177 C 
HETATM    2  N1  UNL     1       7.589  16.521  -2.408  1.00  0.00    -0.346 N 
ATOM      3  H1  UNL     1       8.420  16.818  -2.919  1.00  0.00     0.163 HD
HETATM    4  C6  UNL     1       6.561  15.977  -3.197  1.00  0.00     0.241 C 
HETATM    5  O1  UNL     1       6.915  15.075  -4.061  1.00  0.00    -0.271 OA
HETATM    6  C7  UNL     1       5.110  16.206  -3.271  1.00  0.00     0.175 C 
HETATM    7  N2  UNL     1       4.384  15.017  -3.687  1.00  0.00    -0.359 N 
ATOM      8  H2  UNL     1       4.327  14.903  -4.699  1.00  0.00     0.162 HD
HETATM    9  C12 UNL     1       3.759  14.014  -2.978  1.00  0.00     0.135 C 
HETATM   10  C13 UNL     1       2.769  14.004  -1.889  1.00  0.00     0.161 C 
HETATM   11  N3  UNL     1       3.168  14.600  -0.654  1.00  0.00    -0.356 N 
ATOM     12  H3  UNL     1       3.233  15.615  -0.734  1.00  0.00     0.162 HD
HETATM   13  C17 UNL     1       3.490  14.172   0.621  1.00  0.00     0.185 C 
HETATM   14  C18 UNL     1       4.577  13.425   1.203  1.00  0.00     0.222 C 
HETATM   15  O4  UNL     1       4.377  12.381   1.840  1.00  0.00    -0.286 OA
HETATM   16  C19 UNL     1       6.055  13.848   1.090  1.00  0.00     0.163 C 
HETATM   17  N7  UNL     1       6.121  14.794  -0.008  1.00  0.00    -0.347 N 
ATOM     18  H7  UNL     1       5.801  14.336  -0.860  1.00  0.00     0.163 HD
HETATM   19  C24 UNL     1       6.459  16.068  -0.294  1.00  0.00     0.241 C 
HETATM   20  O5  UNL     1       5.656  17.027   0.048  1.00  0.00    -0.271 OA
ENDROOT
BRANCH  16  21
HETATM   21  C20 UNL     1       6.780  12.592   0.660  1.00  0.00     0.035 C 
BRANCH  21  22
HETATM   22  C21 UNL     1       8.179  12.892   0.166  1.00  0.00     0.022 C 
BRANCH  22  23
HETATM   23  C22 UNL     1       9.225  12.132   0.946  1.00  0.00     0.122 C 
BRANCH  23  24
HETATM   24  N4  UNL     1      10.291  11.646   0.111  1.00  0.00    -0.367 N 
HETATM   25  C23 UNL     1      10.338  10.377  -0.153  1.00  0.00     0.196 C 
HETATM   26  N5  UNL     1       9.391   9.444   0.340  1.00  0.00    -0.067 NA
HETATM   27  N6  UNL     1      11.422   9.951  -0.990  1.00  0.00    -0.067 NA
ATOM     28  H4  UNL     1      10.993  12.284  -0.265  1.00  0.00     0.161 HD
ENDBRANCH  23  24
ENDBRANCH  22  23
ENDBRANCH  21  22
ENDBRANCH  16  21
BRANCH  13  29
HETATM   29  O3  UNL     1       2.614  14.517   1.539  1.00  0.00    -0.344 OA
ATOM     30  H3  UNL     1       2.952  14.487   2.426  1.00  0.00     0.219 HD
ENDBRANCH  13  29
BRANCH   1  31
HETATM   31  C4  UNL     1       7.682  18.160  -0.586  1.00  0.00     0.038 C 
BRANCH  31  32
HETATM   32  C2  UNL     1       8.830  18.709   0.137  1.00  0.00    -0.020 C 
HETATM   33  C1  UNL     1       9.636  19.793  -0.512  1.00  0.00     0.009 C 
HETATM   34  C3  UNL     1       9.746  17.622   0.709  1.00  0.00     0.009 C 
ENDBRANCH  31  32
ENDBRANCH   1  31
BRANCH  10  35
HETATM   35  C14 UNL     1       2.167  12.602  -1.727  1.00  0.00     0.008 C 
HETATM   36  C15 UNL     1       1.089  12.671  -0.703  1.00  0.00     0.012 C 
HETATM   37  C16 UNL     1       1.563  12.194  -3.034  1.00  0.00     0.012 C 
ENDBRANCH  10  35
BRANCH   9  38
HETATM   38  O2  UNL     1       4.114  12.812  -3.344  1.00  0.00    -0.348 OA
ATOM     39  H2  UNL     1       3.418  12.319  -3.761  1.00  0.00     0.219 HD
ENDBRANCH   9  38
BRANCH   6  40
HETATM   40  C8  UNL     1       4.889  17.234  -4.418  1.00  0.00     0.038 C 
BRANCH  40  41
HETATM   41  C9  UNL     1       4.267  18.459  -3.753  1.00  0.00    -0.020 C 
HETATM   42  C10 UNL     1       5.341  19.414  -3.274  1.00  0.00     0.009 C 
HETATM   43  C11 UNL     1       3.491  18.044  -2.504  1.00  0.00     0.009 C 
ENDBRANCH  40  41
ENDBRANCH   6  40
TORSDOF 11
ENDMDL
MODEL 4
REMARK VINA RESULT: -7.433627550      2.772      6.348
REMARK  11 active torsions:
REMARK  status: ('A' for Active; 'I' for Inactive)
REMARK    1  A    between atoms: C2_2  and  C4_4 
REMARK    2  A    between atoms: C4_4  and  C5_5 
REMARK    3  A    between atoms: C7_10  and  C8_11 
REMARK    4  A    between atoms: C8_11  and  C9_12 
REMARK    5  A    between atoms: C12_17  and  O2_18 
REMARK    6  A    between atoms: C13_20  and  C14_21 
REMARK    7  A    between atoms: C17_26  and  O3_27 
REMARK    8  A    between atoms: C19_31  and  C20_32 
REMARK    9  A    between atoms: C20_32  and  C21_33 
REMARK   10  A    between atoms: C21_33  and  C22_34 
REMARK   11  A    between atoms: C22_34  and  N4_35 
ROOT
HETATM    1  C5  UNL     1       6.015  16.403  -2.295  1.00  0.00     0.177 C 
HETATM    2  N1  UNL     1       5.256  15.853  -3.395  1.00  0.00    -0.346 N 
ATOM      3  H1  UNL     1       5.643  16.026  -4.322  1.00  0.00     0.163 HD
HETATM    4  C6  UNL     1       4.060  15.114  -3.372  1.00  0.00     0.241 C 
HETATM    5  O1  UNL     1       4.041  14.030  -4.087  1.00  0.00    -0.271 OA
HETATM    6  C7  UNL     1       2.769  15.294  -2.692  1.00  0.00     0.175 C 
HETATM    7  N2  UNL     1       2.118  14.028  -2.399  1.00  0.00    -0.359 N 
ATOM      8  H2  UNL     1       1.559  13.664  -3.171  1.00  0.00     0.162 HD
HETATM    9  C12 UNL     1       2.110  13.224  -1.280  1.00  0.00     0.135 C 
HETATM   10  C13 UNL     1       1.847  13.470   0.147  1.00  0.00     0.161 C 
HETATM   11  N3  UNL     1       2.738  14.362   0.819  1.00  0.00    -0.356 N 
ATOM     12  H3  UNL     1       2.601  15.325   0.514  1.00  0.00     0.162 HD
HETATM   13  C17 UNL     1       3.737  14.270   1.771  1.00  0.00     0.185 C 
HETATM   14  C18 UNL     1       5.064  13.709   1.808  1.00  0.00     0.222 C 
HETATM   15  O4  UNL     1       5.383  12.853   2.646  1.00  0.00    -0.286 OA
HETATM   16  C19 UNL     1       6.185  14.113   0.829  1.00  0.00     0.163 C 
HETATM   17  N7  UNL     1       5.529  14.757  -0.293  1.00  0.00    -0.347 N 
ATOM     18  H7  UNL     1       4.883  14.095  -0.722  1.00  0.00     0.163 HD
HETATM   19  C24 UNL     1       5.475  15.924  -0.966  1.00  0.00     0.241 C 
HETATM   20  O5  UNL     1       4.837  16.925  -0.445  1.00  0.00    -0.271 OA
ENDROOT
BRANCH  16  21
HETATM   21  C20 UNL     1       6.756  12.800   0.339  1.00  0.00     0.035 C 
BRANCH  21  22
HETATM   22  C21 UNL     1       8.172  12.961  -0.173  1.00  0.00     0.022 C 
BRANCH  22  23
HETATM   23  C22 UNL     1       9.167  12.219   0.687  1.00  0.00     0.122 C 
BRANCH  23  24
HETATM   24  N4  UNL     1      10.250  11.662  -0.079  1.00  0.00    -0.367 N 
HETATM   25  C23 UNL     1      10.322  10.373  -0.199  1.00  0.00     0.196 C 
HETATM   26  N5  UNL     1       9.386   9.484   0.387  1.00  0.00    -0.067 NA
HETATM   27  N6  UNL     1      11.423   9.877  -0.973  1.00  0.00    -0.067 NA
ATOM     28  H4  UNL     1      10.945  12.267  -0.516  1.00  0.00     0.161 HD
ENDBRANCH  23  24
ENDBRANCH  22  23
ENDBRANCH  21  22
ENDBRANCH  16  21
BRANCH  13  29
HETATM   29  O3  UNL     1       3.428  14.819   2.925  1.00  0.00    -0.344 OA
ATOM     30  H3  UNL     1       4.175  15.164   3.401  1.00  0.00     0.219 HD
ENDBRANCH  13  29
BRANCH   1  31
HETATM   31  C4  UNL     1       6.041  17.895  -2.288  1.00  0.00     0.038 C 
BRANCH  31  32
HETATM   32  C2  UNL     1       5.370  18.663  -3.338  1.00  0.00    -0.020 C 
HETATM   33  C1  UNL     1       5.971  19.965  -3.772  1.00  0.00     0.009 C 
HETATM   34  C3  UNL     1       3.866  18.817  -3.091  1.00  0.00     0.009 C 
ENDBRANCH  31  32
ENDBRANCH   1  31
BRANCH  10  35
HETATM   35  C14 UNL     1       1.633  12.143   0.887  1.00  0.00     0.008 C 
HETATM   36  C15 UNL     1       1.253  12.448   2.294  1.00  0.00     0.012 C 
HETATM   37  C16 UNL     1       0.503  11.414   0.232  1.00  0.00     0.012 C 
ENDBRANCH  10  35
BRANCH   9  38
HETATM   38  O2  UNL     1       2.396  11.974  -1.529  1.00  0.00    -0.348 OA
ATOM     39  H2  UNL     1       2.957  11.854  -2.286  1.00  0.00     0.219 HD
ENDBRANCH   9  38
BRANCH   6  40
HETATM   40  C8  UNL     1       1.833  16.000  -3.716  1.00  0.00     0.038 C 
BRANCH  40  41
HETATM   41  C9  UNL     1       0.517  16.225  -2.977  1.00  0.00    -0.020 C 
HETATM   42  C10 UNL     1      -0.553  16.727  -3.923  1.00  0.00     0.009 C 
HETATM   43  C11 UNL     1       0.685  17.315  -1.920  1.00  0.00     0.009 C 
ENDBRANCH  40  41
ENDBRANCH   6  40
TORSDOF 11
ENDMDL
MODEL 5
REMARK VINA RESULT: -7.369457066      2.173      6.021
REMARK  11 active torsions:
REMARK  status: ('A' for Active; 'I' for Inactive)
REMARK    1  A    between atoms: C2_2  and  C4_4 
REMARK    2  A    between atoms: C4_4  and  C5_5 
REMARK    3  A    between atoms: C7_10  and  C8_11 
REMARK    4  A    between atoms: C8_11  and  C9_12 
REMARK    5  A    between atoms: C12_17  and  O2_18 
REMARK    6  A    between atoms: C13_20  and  C14_21 
REMARK    7  A    between atoms: C17_26  and  O3_27 
REMARK    8  A    between atoms: C19_31  and  C20_32 
REMARK    9  A    between atoms: C20_32  and  C21_33 
REMARK   10  A    between atoms: C21_33  and  C22_34 
REMARK   11  A    between atoms: C22_34  and  N4_35 
ROOT
HETATM    1  C5  UNL     1       5.820  16.242  -2.375  1.00  0.00     0.177 C 
HETATM    2  N1  UNL     1       5.001  15.657  -3.412  1.00  0.00    -0.346 N 
ATOM      3  H1  UNL     1       5.339  15.796  -4.364  1.00  0.00     0.163 HD
HETATM    4  C6  UNL     1       3.808  14.924  -3.299  1.00  0.00     0.241 C 
HETATM    5  O1  UNL     1       3.747  13.816  -3.974  1.00  0.00    -0.271 OA
HETATM    6  C7  UNL     1       2.555  15.133  -2.558  1.00  0.00     0.175 C 
HETATM    7  N2  UNL     1       1.918  13.881  -2.186  1.00  0.00    -0.359 N 
ATOM      8  H2  UNL     1       1.317  13.492  -2.914  1.00  0.00     0.162 HD
HETATM    9  C12 UNL     1       1.969  13.116  -1.040  1.00  0.00     0.135 C 
HETATM   10  C13 UNL     1       1.783  13.414   0.389  1.00  0.00     0.161 C 
HETATM   11  N3  UNL     1       2.711  14.325   0.980  1.00  0.00    -0.356 N 
ATOM     12  H3  UNL     1       2.559  15.278   0.649  1.00  0.00     0.162 HD
HETATM   13  C17 UNL     1       3.760  14.263   1.880  1.00  0.00     0.185 C 
HETATM   14  C18 UNL     1       5.085  13.698   1.865  1.00  0.00     0.222 C 
HETATM   15  O4  UNL     1       5.447  12.871   2.715  1.00  0.00    -0.286 OA
HETATM   16  C19 UNL     1       6.153  14.063   0.814  1.00  0.00     0.163 C 
HETATM   17  N7  UNL     1       5.439  14.669  -0.293  1.00  0.00    -0.347 N 
ATOM     18  H7  UNL     1       4.769  13.996  -0.664  1.00  0.00     0.163 HD
HETATM   19  C24 UNL     1       5.351  15.813  -1.003  1.00  0.00     0.241 C 
HETATM   20  O5  UNL     1       4.744  16.834  -0.485  1.00  0.00    -0.271 OA
ENDROOT
BRANCH  16  21
HETATM   21  C20 UNL     1       6.693  12.732   0.341  1.00  0.00     0.035 C 
BRANCH  21  22
HETATM   22  C21 UNL     1       8.187  12.622   0.564  1.00  0.00     0.022 C 
BRANCH  22  23
HETATM   23  C22 UNL     1       8.954  13.630  -0.257  1.00  0.00     0.122 C 
BRANCH  23  24
HETATM   24  N4  UNL     1       9.566  14.650   0.552  1.00  0.00    -0.367 N 
HETATM   25  C23 UNL     1       9.578  15.867   0.105  1.00  0.00     0.196 C 
HETATM   26  N5  UNL     1       9.018  16.244  -1.142  1.00  0.00    -0.067 NA
HETATM   27  N6  UNL     1      10.202  16.840   0.955  1.00  0.00    -0.067 NA
ATOM     28  H4  UNL     1       9.980  14.421   1.455  1.00  0.00     0.161 HD
ENDBRANCH  23  24
ENDBRANCH  22  23
ENDBRANCH  21  22
ENDBRANCH  16  21
BRANCH  13  29
HETATM   29  O3  UNL     1       3.514  14.853   3.029  1.00  0.00    -0.344 OA
ATOM     30  H3  UNL     1       2.711  15.362   3.038  1.00  0.00     0.219 HD
ENDBRANCH  13  29
BRANCH   1  31
HETATM   31  C4  UNL     1       5.850  17.734  -2.422  1.00  0.00     0.038 C 
BRANCH  31  32
HETATM   32  C2  UNL     1       5.238  18.462  -3.535  1.00  0.00    -0.020 C 
HETATM   33  C1  UNL     1       5.627  18.093  -4.935  1.00  0.00     0.009 C 
HETATM   34  C3  UNL     1       5.280  19.982  -3.346  1.00  0.00     0.009 C 
ENDBRANCH  31  32
ENDBRANCH   1  31
BRANCH  10  35
HETATM   35  C14 UNL     1       1.606  12.115   1.186  1.00  0.00     0.008 C 
HETATM   36  C15 UNL     1       1.289  12.471   2.596  1.00  0.00     0.012 C 
HETATM   37  C16 UNL     1       0.450  11.361   0.609  1.00  0.00     0.012 C 
ENDBRANCH  10  35
BRANCH   9  38
HETATM   38  O2  UNL     1       2.238  11.858  -1.260  1.00  0.00    -0.348 OA
ATOM     39  H2  UNL     1       1.469  11.300  -1.273  1.00  0.00     0.219 HD
ENDBRANCH   9  38
BRANCH   6  40
HETATM   40  C8  UNL     1       1.567  15.807  -3.555  1.00  0.00     0.038 C 
BRANCH  40  41
HETATM   41  C9  UNL     1       1.189  17.140  -2.915  1.00  0.00    -0.020 C 
HETATM   42  C10 UNL     1       1.505  17.135  -1.434  1.00  0.00     0.009 C 
HETATM   43  C11 UNL     1      -0.318  17.367  -3.021  1.00  0.00     0.009 C 
ENDBRANCH  40  41
ENDBRANCH   6  40
TORSDOF 11
ENDMDL
