MODEL 1
REMARK VINA RESULT: -9.574777128      0.000      0.000
REMARK  14 active torsions:
REMARK  status: ('A' for Active; 'I' for Inactive)
REMARK    1  A    between atoms: C3_3  and  N1_4 
REMARK    2  A    between atoms: C6_7  and  C7_8 
REMARK       I    between atoms: C7_8  and  N2_10 
REMARK    3  A    between atoms: N2_10  and  C8_12 
REMARK    4  A    between atoms: C8_12  and  C9_13 
REMARK    5  A    between atoms: C9_13  and  C10_14 
REMARK    6  A    between atoms: C13_21  and  N5_22 
REMARK    7  A    between atoms: N5_22  and  C14_24 
REMARK    8  A    between atoms: C14_24  and  C15_25 
REMARK    9  A    between atoms: C15_25  and  N6_26 
REMARK   10  A    between atoms: C18_35  and  C19_36 
REMARK   11  A    between atoms: C20_37  and  C21_38 
REMARK   12  A    between atoms: N8_42  and  C25_43 
REMARK   13  A    between atoms: C25_43  and  C26_44 
REMARK   14  A    between atoms: C26_44  and  O3_45 
ROOT
HETATM    1  C1  UNL     1       3.424  11.975  -7.385  1.00  0.00     0.014 C 
HETATM    2  C2  UNL     1       2.685  12.624  -6.687  1.00  0.00    -0.097 C 
HETATM    3  C3  UNL     1       1.766  13.401  -5.822  1.00  0.00     0.220 C 
ENDROOT
BRANCH   3   4
HETATM    4  N1  UNL     1       2.548  14.330  -5.033  1.00  0.00    -0.354 N 
HETATM    5  C4  UNL     1       3.131  15.417  -5.564  1.00  0.00     0.092 A 
HETATM    6  C5  UNL     1       3.869  16.281  -4.788  1.00  0.00     0.036 A 
HETATM    7  C6  UNL     1       3.998  16.004  -3.439  1.00  0.00     0.053 A 
HETATM    8  C18 UNL     1       3.411  14.898  -2.875  1.00  0.00     0.049 A 
HETATM    9  C28 UNL     1       2.686  14.080  -3.721  1.00  0.00     0.113 A 
BRANCH   7  10
HETATM   10  C7  UNL     1       4.772  16.889  -2.554  1.00  0.00     0.253 C 
HETATM   11  O1  UNL     1       4.231  17.807  -1.892  1.00  0.00    -0.268 OA
HETATM   12  N2  UNL     1       6.171  16.702  -2.444  1.00  0.00    -0.357 N 
ATOM     13  H2  UNL     1       6.584  15.948  -2.992  1.00  0.00     0.162 HD
BRANCH  12  14
HETATM   14  C8  UNL     1       7.056  17.478  -1.632  1.00  0.00     0.127 C 
BRANCH  14  15
HETATM   15  C9  UNL     1       7.145  16.991  -0.198  1.00  0.00     0.061 C 
BRANCH  15  16
HETATM   16  C10 UNL     1       8.458  16.416   0.141  1.00  0.00    -0.022 A 
HETATM   17  C11 UNL     1       9.527  17.133   0.697  1.00  0.00     0.098 A 
HETATM   18  N3  UNL     1      10.553  16.295   0.897  1.00  0.00    -0.350 N 
HETATM   19  C12 UNL     1      10.223  15.063   0.506  1.00  0.00     0.137 A 
ATOM     20  H3  UNL     1      11.455  16.560   1.292  1.00  0.00     0.166 HD
HETATM   21  N4  UNL     1      10.939  13.928   0.521  1.00  0.00    -0.176 N 
HETATM   22  C17 UNL     1       8.926  15.123   0.035  1.00  0.00     0.085 A 
HETATM   23  C13 UNL     1      10.363  12.805   0.056  1.00  0.00     0.682 A 
ATOM     24  H4  UNL     1      11.895  13.917   0.875  1.00  0.00     0.186 HD
HETATM   25  N7  UNL     1       9.083  12.842  -0.415  1.00  0.00    -0.155 N 
HETATM   26  C16 UNL     1       8.348  13.973  -0.439  1.00  0.00     0.274 A 
ATOM     27  H7  UNL     1       8.666  11.980  -0.765  1.00  0.00     0.187 HD
HETATM   28  O2  UNL     1       7.163  13.984  -0.882  1.00  0.00    -0.267 OA
BRANCH  23  29
HETATM   29  N5  UNL     1      10.980  11.690   0.039  1.00  0.00    -0.224 N 
ATOM     30  H5  UNL     1      11.886  11.657   0.507  1.00  0.00     0.177 HD
BRANCH  29  31
HETATM   31  C14 UNL     1      10.527  10.482  -0.573  1.00  0.00     0.165 C 
BRANCH  31  32
HETATM   32  C15 UNL     1      11.723   9.713  -1.132  1.00  0.00     0.249 C 
BRANCH  32  33
HETATM   33  N6  UNL     1      11.896  10.044  -2.533  1.00  0.00    -0.078 N 
ATOM     34  H63 UNL     1      11.012  10.281  -2.986  1.00  0.00     0.274 HD
ATOM     35  H62 UNL     1      12.370  10.938  -2.663  1.00  0.00     0.274 HD
ATOM     36  H61 UNL     1      12.378   9.279  -3.004  1.00  0.00     0.274 HD
ENDBRANCH  32  33
ENDBRANCH  31  32
ENDBRANCH  29  31
ENDBRANCH  23  29
ENDBRANCH  15  16
ENDBRANCH  14  15
ENDBRANCH  12  14
ENDBRANCH   7  10
BRANCH   8  37
HETATM   37  C19 UNL     1       3.552  14.620  -1.475  1.00  0.00    -0.059 C 
HETATM   38  C20 UNL     1       3.648  14.382  -0.278  1.00  0.00    -0.060 C 
BRANCH  38  39
HETATM   39  C21 UNL     1       3.739  14.116   1.131  1.00  0.00     0.033 A 
HETATM   40  C22 UNL     1       4.804  13.421   1.685  1.00  0.00     0.023 A 
HETATM   41  C23 UNL     1       4.892  13.169   3.034  1.00  0.00     0.019 A 
HETATM   42  C24 UNL     1       3.901  13.612   3.878  1.00  0.00     0.090 A 
HETATM   43  N8  UNL     1       2.868  14.285   3.351  1.00  0.00    -0.363 N 
HETATM   44  C27 UNL     1       2.784  14.530   2.036  1.00  0.00     0.111 A 
BRANCH  43  45
HETATM   45  C25 UNL     1       1.801  14.774   4.200  1.00  0.00     0.153 C 
BRANCH  45  46
HETATM   46  C26 UNL     1       0.895  13.663   4.684  1.00  0.00     0.184 C 
BRANCH  46  47
HETATM   47  O3  UNL     1       1.077  13.485   6.051  1.00  0.00    -0.399 OA
ATOM     48  H3  UNL     1       0.229  13.412   6.473  1.00  0.00     0.209 HD
ENDBRANCH  46  47
ENDBRANCH  45  46
ENDBRANCH  43  45
ENDBRANCH  38  39
ENDBRANCH   8  37
ENDBRANCH   3   4
TORSDOF 14
ENDMDL
MODEL 2
REMARK VINA RESULT: -9.226089422      2.582      5.333
REMARK  14 active torsions:
REMARK  status: ('A' for Active; 'I' for Inactive)
REMARK    1  A    between atoms: C3_3  and  N1_4 
REMARK    2  A    between atoms: C6_7  and  C7_8 
REMARK       I    between atoms: C7_8  and  N2_10 
REMARK    3  A    between atoms: N2_10  and  C8_12 
REMARK    4  A    between atoms: C8_12  and  C9_13 
REMARK    5  A    between atoms: C9_13  and  C10_14 
REMARK    6  A    between atoms: C13_21  and  N5_22 
REMARK    7  A    between atoms: N5_22  and  C14_24 
REMARK    8  A    between atoms: C14_24  and  C15_25 
REMARK    9  A    between atoms: C15_25  and  N6_26 
REMARK   10  A    between atoms: C18_35  and  C19_36 
REMARK   11  A    between atoms: C20_37  and  C21_38 
REMARK   12  A    between atoms: N8_42  and  C25_43 
REMARK   13  A    between atoms: C25_43  and  C26_44 
REMARK   14  A    between atoms: C26_44  and  O3_45 
ROOT
HETATM    1  C1  UNL     1      -1.793  17.807  -6.842  1.00  0.00     0.014 C 
HETATM    2  C2  UNL     1      -1.109  16.909  -7.266  1.00  0.00    -0.097 C 
HETATM    3  C3  UNL     1      -0.260  15.820  -7.806  1.00  0.00     0.220 C 
ENDROOT
BRANCH   3   4
HETATM    4  N1  UNL     1       0.485  15.231  -6.712  1.00  0.00    -0.354 N 
HETATM    5  C4  UNL     1       0.301  13.963  -6.311  1.00  0.00     0.092 A 
HETATM    6  C5  UNL     1       1.026  13.432  -5.269  1.00  0.00     0.036 A 
HETATM    7  C6  UNL     1       1.954  14.240  -4.638  1.00  0.00     0.053 A 
HETATM    8  C18 UNL     1       2.159  15.540  -5.031  1.00  0.00     0.049 A 
HETATM    9  C28 UNL     1       1.392  15.998  -6.086  1.00  0.00     0.113 A 
BRANCH   7  10
HETATM   10  C7  UNL     1       2.763  13.733  -3.517  1.00  0.00     0.253 C 
HETATM   11  O1  UNL     1       3.834  13.105  -3.700  1.00  0.00    -0.268 OA
HETATM   12  N2  UNL     1       2.321  13.958  -2.191  1.00  0.00    -0.357 N 
ATOM     13  H2  UNL     1       1.449  14.472  -2.073  1.00  0.00     0.162 HD
BRANCH  12  14
HETATM   14  C8  UNL     1       2.992  13.528  -1.003  1.00  0.00     0.127 C 
BRANCH  14  15
HETATM   15  C9  UNL     1       3.831  14.613  -0.355  1.00  0.00     0.061 C 
BRANCH  15  16
HETATM   16  C10 UNL     1       4.818  14.091   0.605  1.00  0.00    -0.022 A 
HETATM   17  C11 UNL     1       4.525  13.690   1.916  1.00  0.00     0.098 A 
HETATM   18  N3  UNL     1       5.649  13.247   2.496  1.00  0.00    -0.350 N 
HETATM   19  C12 UNL     1       6.670  13.331   1.641  1.00  0.00     0.137 A 
ATOM     20  H3  UNL     1       5.714  12.897   3.451  1.00  0.00     0.166 HD
HETATM   21  N4  UNL     1       7.962  13.006   1.800  1.00  0.00    -0.176 N 
HETATM   22  C17 UNL     1       6.169  13.853   0.464  1.00  0.00     0.085 A 
HETATM   23  C13 UNL     1       8.799  13.199   0.766  1.00  0.00     0.682 A 
ATOM     24  H4  UNL     1       8.300  12.624   2.683  1.00  0.00     0.186 HD
HETATM   25  N7  UNL     1       8.326  13.714  -0.405  1.00  0.00    -0.155 N 
HETATM   26  C16 UNL     1       7.032  14.047  -0.584  1.00  0.00     0.274 A 
ATOM     27  H7  UNL     1       8.978  13.853  -1.177  1.00  0.00     0.187 HD
HETATM   28  O2  UNL     1       6.615  14.525  -1.679  1.00  0.00    -0.267 OA
BRANCH  23  29
HETATM   29  N5  UNL     1      10.040  12.913   0.842  1.00  0.00    -0.224 N 
ATOM     30  H5  UNL     1      10.608  13.489   1.463  1.00  0.00     0.177 HD
BRANCH  29  31
HETATM   31  C14 UNL     1      10.710  11.865   0.141  1.00  0.00     0.165 C 
BRANCH  31  32
HETATM   32  C15 UNL     1       9.804  10.637   0.072  1.00  0.00     0.249 C 
BRANCH  32  33
HETATM   33  N6  UNL     1      10.565   9.457   0.437  1.00  0.00    -0.078 N 
ATOM     34  H63 UNL     1      11.302   9.667   1.110  1.00  0.00     0.274 HD
ATOM     35  H62 UNL     1      10.023   8.810   1.011  1.00  0.00     0.274 HD
ATOM     36  H61 UNL     1      10.927   9.015  -0.408  1.00  0.00     0.274 HD
ENDBRANCH  32  33
ENDBRANCH  31  32
ENDBRANCH  29  31
ENDBRANCH  23  29
ENDBRANCH  15  16
ENDBRANCH  14  15
ENDBRANCH  12  14
ENDBRANCH   7  10
BRANCH   8  37
HETATM   37  C19 UNL     1       3.125  16.368  -4.369  1.00  0.00    -0.059 C 
HETATM   38  C20 UNL     1       3.933  17.093  -3.804  1.00  0.00    -0.060 C 
BRANCH  38  39
HETATM   39  C21 UNL     1       4.872  17.965  -3.154  1.00  0.00     0.033 A 
HETATM   40  C22 UNL     1       5.114  19.256  -3.601  1.00  0.00     0.023 A 
HETATM   41  C23 UNL     1       6.011  20.092  -2.978  1.00  0.00     0.019 A 
HETATM   42  C24 UNL     1       6.701  19.650  -1.873  1.00  0.00     0.090 A 
HETATM   43  N8  UNL     1       6.474  18.404  -1.434  1.00  0.00    -0.363 N 
HETATM   44  C27 UNL     1       5.599  17.591  -2.043  1.00  0.00     0.111 A 
BRANCH  43  45
HETATM   45  C25 UNL     1       7.175  17.896  -0.272  1.00  0.00     0.153 C 
BRANCH  45  46
HETATM   46  C26 UNL     1       8.660  17.747  -0.516  1.00  0.00     0.184 C 
BRANCH  46  47
HETATM   47  O3  UNL     1       8.876  16.696  -1.402  1.00  0.00    -0.399 OA
ATOM     48  H3  UNL     1       9.755  16.357  -1.278  1.00  0.00     0.209 HD
ENDBRANCH  46  47
ENDBRANCH  45  46
ENDBRANCH  43  45
ENDBRANCH  38  39
ENDBRANCH   8  37
ENDBRANCH   3   4
TORSDOF 14
ENDMDL
MODEL 3
REMARK VINA RESULT: -9.121764160      0.754      1.109
REMARK  14 active torsions:
REMARK  status: ('A' for Active; 'I' for Inactive)
REMARK    1  A    between atoms: C3_3  and  N1_4 
REMARK    2  A    between atoms: C6_7  and  C7_8 
REMARK       I    between atoms: C7_8  and  N2_10 
REMARK    3  A    between atoms: N2_10  and  C8_12 
REMARK    4  A    between atoms: C8_12  and  C9_13 
REMARK    5  A    between atoms: C9_13  and  C10_14 
REMARK    6  A    between atoms: C13_21  and  N5_22 
REMARK    7  A    between atoms: N5_22  and  C14_24 
REMARK    8  A    between atoms: C14_24  and  C15_25 
REMARK    9  A    between atoms: C15_25  and  N6_26 
REMARK   10  A    between atoms: C18_35  and  C19_36 
REMARK   11  A    between atoms: C20_37  and  C21_38 
REMARK   12  A    between atoms: N8_42  and  C25_43 
REMARK   13  A    between atoms: C25_43  and  C26_44 
REMARK   14  A    between atoms: C26_44  and  O3_45 
ROOT
HETATM    1  C1  UNL     1      -0.955  12.860  -4.328  1.00  0.00     0.014 C 
HETATM    2  C2  UNL     1      -0.033  13.137  -5.054  1.00  0.00    -0.097 C 
HETATM    3  C3  UNL     1       1.084  13.483  -5.965  1.00  0.00     0.220 C 
ENDROOT
BRANCH   3   4
HETATM    4  N1  UNL     1       2.019  14.325  -5.248  1.00  0.00    -0.354 N 
HETATM    5  C4  UNL     1       2.695  15.322  -5.841  1.00  0.00     0.092 A 
HETATM    6  C5  UNL     1       3.577  16.106  -5.133  1.00  0.00     0.036 A 
HETATM    7  C6  UNL     1       3.753  15.842  -3.787  1.00  0.00     0.053 A 
HETATM    8  C18 UNL     1       3.072  14.828  -3.159  1.00  0.00     0.049 A 
HETATM    9  C28 UNL     1       2.205  14.087  -3.940  1.00  0.00     0.113 A 
BRANCH   7  10
HETATM   10  C7  UNL     1       4.680  16.644  -2.971  1.00  0.00     0.253 C 
HETATM   11  O1  UNL     1       4.319  17.699  -2.395  1.00  0.00    -0.268 OA
HETATM   12  N2  UNL     1       6.022  16.216  -2.831  1.00  0.00    -0.357 N 
ATOM     13  H2  UNL     1       6.288  15.355  -3.309  1.00  0.00     0.162 HD
BRANCH  12  14
HETATM   14  C8  UNL     1       7.038  16.885  -2.079  1.00  0.00     0.127 C 
BRANCH  14  15
HETATM   15  C9  UNL     1       7.000  16.568  -0.595  1.00  0.00     0.061 C 
BRANCH  15  16
HETATM   16  C10 UNL     1       8.260  16.000  -0.089  1.00  0.00    -0.022 A 
HETATM   17  C11 UNL     1       9.287  16.739   0.514  1.00  0.00     0.098 A 
HETATM   18  N3  UNL     1      10.270  15.902   0.874  1.00  0.00    -0.350 N 
HETATM   19  C12 UNL     1       9.950  14.650   0.545  1.00  0.00     0.137 A 
ATOM     20  H3  UNL     1      11.136  16.183   1.334  1.00  0.00     0.166 HD
HETATM   21  N4  UNL     1      10.635  13.508   0.713  1.00  0.00    -0.176 N 
HETATM   22  C17 UNL     1       8.706  14.694  -0.053  1.00  0.00     0.085 A 
HETATM   23  C13 UNL     1      10.080  12.363   0.278  1.00  0.00     0.682 A 
ATOM     24  H4  UNL     1      11.553  13.509   1.158  1.00  0.00     0.186 HD
HETATM   25  N7  UNL     1       8.853  12.384  -0.317  1.00  0.00    -0.155 N 
HETATM   26  C16 UNL     1       8.150  13.521  -0.495  1.00  0.00     0.274 A 
ATOM     27  H7  UNL     1       8.451  11.505  -0.640  1.00  0.00     0.187 HD
HETATM   28  O2  UNL     1       7.013  13.518  -1.051  1.00  0.00    -0.267 OA
BRANCH  23  29
HETATM   29  N5  UNL     1      10.671  11.239   0.404  1.00  0.00    -0.224 N 
ATOM     30  H5  UNL     1      11.366  11.164   1.146  1.00  0.00     0.177 HD
BRANCH  29  31
HETATM   31  C14 UNL     1      10.453  10.076  -0.395  1.00  0.00     0.165 C 
BRANCH  31  32
HETATM   32  C15 UNL     1      11.750   9.695  -1.106  1.00  0.00     0.249 C 
BRANCH  32  33
HETATM   33  N6  UNL     1      11.716  10.193  -2.468  1.00  0.00    -0.078 N 
ATOM     34  H63 UNL     1      10.811  10.598  -2.708  1.00  0.00     0.274 HD
ATOM     35  H62 UNL     1      12.286  11.030  -2.588  1.00  0.00     0.274 HD
ATOM     36  H61 UNL     1      11.987   9.446  -3.108  1.00  0.00     0.274 HD
ENDBRANCH  32  33
ENDBRANCH  31  32
ENDBRANCH  29  31
ENDBRANCH  23  29
ENDBRANCH  15  16
ENDBRANCH  14  15
ENDBRANCH  12  14
ENDBRANCH   7  10
BRANCH   8  37
HETATM   37  C19 UNL     1       3.263  14.563  -1.762  1.00  0.00    -0.059 C 
HETATM   38  C20 UNL     1       3.402  14.334  -0.568  1.00  0.00    -0.060 C 
BRANCH  38  39
HETATM   39  C21 UNL     1       3.541  14.075   0.838  1.00  0.00     0.033 A 
HETATM   40  C22 UNL     1       4.648  13.426   1.364  1.00  0.00     0.023 A 
HETATM   41  C23 UNL     1       4.784  13.180   2.711  1.00  0.00     0.019 A 
HETATM   42  C24 UNL     1       3.798  13.585   3.580  1.00  0.00     0.090 A 
HETATM   43  N8  UNL     1       2.724  14.214   3.081  1.00  0.00    -0.363 N 
HETATM   44  C27 UNL     1       2.595  14.452   1.768  1.00  0.00     0.111 A 
BRANCH  43  45
HETATM   45  C25 UNL     1       1.661  14.661   3.958  1.00  0.00     0.153 C 
BRANCH  45  46
HETATM   46  C26 UNL     1       0.933  13.508   4.614  1.00  0.00     0.184 C 
BRANCH  46  47
HETATM   47  O3  UNL     1       1.117  13.574   5.991  1.00  0.00    -0.399 OA
ATOM     48  H3  UNL     1       0.525  14.221   6.355  1.00  0.00     0.209 HD
ENDBRANCH  46  47
ENDBRANCH  45  46
ENDBRANCH  43  45
ENDBRANCH  38  39
ENDBRANCH   8  37
ENDBRANCH   3   4
TORSDOF 14
ENDMDL
MODEL 4
REMARK VINA RESULT: -9.048764765      1.790      2.311
REMARK  14 active torsions:
REMARK  status: ('A' for Active; 'I' for Inactive)
REMARK    1  A    between atoms: C3_3  and  N1_4 
REMARK    2  A    between atoms: C6_7  and  C7_8 
REMARK       I    between atoms: C7_8  and  N2_10 
REMARK    3  A    between atoms: N2_10  and  C8_12 
REMARK    4  A    between atoms: C8_12  and  C9_13 
REMARK    5  A    between atoms: C9_13  and  C10_14 
REMARK    6  A    between atoms: C13_21  and  N5_22 
REMARK    7  A    between atoms: N5_22  and  C14_24 
REMARK    8  A    between atoms: C14_24  and  C15_25 
REMARK    9  A    between atoms: C15_25  and  N6_26 
REMARK   10  A    between atoms: C18_35  and  C19_36 
REMARK   11  A    between atoms: C20_37  and  C21_38 
REMARK   12  A    between atoms: N8_42  and  C25_43 
REMARK   13  A    between atoms: C25_43  and  C26_44 
REMARK   14  A    between atoms: C26_44  and  O3_45 
ROOT
HETATM    1  C1  UNL     1       3.431  11.772  -7.419  1.00  0.00     0.014 C 
HETATM    2  C2  UNL     1       2.585  12.452  -6.894  1.00  0.00    -0.097 C 
HETATM    3  C3  UNL     1       1.533  13.266  -6.240  1.00  0.00     0.220 C 
ENDROOT
BRANCH   3   4
HETATM    4  N1  UNL     1       2.171  14.324  -5.484  1.00  0.00    -0.354 N 
HETATM    5  C4  UNL     1       2.595  15.464  -6.051  1.00  0.00     0.092 A 
HETATM    6  C5  UNL     1       3.198  16.451  -5.305  1.00  0.00     0.036 A 
HETATM    7  C6  UNL     1       3.360  16.240  -3.948  1.00  0.00     0.053 A 
HETATM    8  C18 UNL     1       2.935  15.081  -3.347  1.00  0.00     0.049 A 
HETATM    9  C28 UNL     1       2.339  14.140  -4.165  1.00  0.00     0.113 A 
BRANCH   7  10
HETATM   10  C7  UNL     1       3.996  17.256  -3.093  1.00  0.00     0.253 C 
HETATM   11  O1  UNL     1       3.327  18.116  -2.471  1.00  0.00    -0.268 OA
HETATM   12  N2  UNL     1       5.406  17.267  -2.968  1.00  0.00    -0.357 N 
ATOM     13  H2  UNL     1       5.924  16.556  -3.484  1.00  0.00     0.162 HD
BRANCH  12  14
HETATM   14  C8  UNL     1       6.168  18.187  -2.182  1.00  0.00     0.127 C 
BRANCH  14  15
HETATM   15  C9  UNL     1       6.234  17.816  -0.712  1.00  0.00     0.061 C 
BRANCH  15  16
HETATM   16  C10 UNL     1       7.565  17.348  -0.289  1.00  0.00    -0.022 A 
HETATM   17  C11 UNL     1       8.494  18.114   0.427  1.00  0.00     0.098 A 
HETATM   18  N3  UNL     1       9.582  17.369   0.662  1.00  0.00    -0.350 N 
HETATM   19  C12 UNL     1       9.425  16.151   0.142  1.00  0.00     0.137 A 
ATOM     20  H3  UNL     1      10.410  17.687   1.166  1.00  0.00     0.166 HD
HETATM   21  N4  UNL     1      10.256  15.097   0.137  1.00  0.00    -0.176 N 
HETATM   22  C17 UNL     1       8.179  16.123  -0.452  1.00  0.00     0.085 A 
HETATM   23  C13 UNL     1       9.850  13.969  -0.473  1.00  0.00     0.682 A 
ATOM     24  H4  UNL     1      11.171  15.150   0.584  1.00  0.00     0.186 HD
HETATM   25  N7  UNL     1       8.623  13.920  -1.066  1.00  0.00    -0.155 N 
HETATM   26  C16 UNL     1       7.775  14.968  -1.073  1.00  0.00     0.274 A 
ATOM     27  H7  UNL     1       8.336  13.055  -1.525  1.00  0.00     0.187 HD
HETATM   28  O2  UNL     1       6.642  14.901  -1.632  1.00  0.00    -0.267 OA
BRANCH  23  29
HETATM   29  N5  UNL     1      10.585  12.927  -0.517  1.00  0.00    -0.224 N 
ATOM     30  H5  UNL     1      11.243  12.859  -1.294  1.00  0.00     0.177 HD
BRANCH  29  31
HETATM   31  C14 UNL     1      10.573  11.845   0.415  1.00  0.00     0.165 C 
BRANCH  31  32
HETATM   32  C15 UNL     1      10.265  10.542  -0.321  1.00  0.00     0.249 C 
BRANCH  32  33
HETATM   33  N6  UNL     1       9.942   9.510   0.647  1.00  0.00    -0.078 N 
ATOM     34  H63 UNL     1       9.655   9.899   1.545  1.00  0.00     0.274 HD
ATOM     35  H62 UNL     1       9.075   9.023   0.416  1.00  0.00     0.274 HD
ATOM     36  H61 UNL     1      10.732   8.872   0.736  1.00  0.00     0.274 HD
ENDBRANCH  32  33
ENDBRANCH  31  32
ENDBRANCH  29  31
ENDBRANCH  23  29
ENDBRANCH  15  16
ENDBRANCH  14  15
ENDBRANCH  12  14
ENDBRANCH   7  10
BRANCH   8  37
HETATM   37  C19 UNL     1       3.109  14.873  -1.938  1.00  0.00    -0.059 C 
HETATM   38  C20 UNL     1       3.259  14.671  -0.741  1.00  0.00    -0.060 C 
BRANCH  38  39
HETATM   39  C21 UNL     1       3.424  14.412   0.663  1.00  0.00     0.033 A 
HETATM   40  C22 UNL     1       2.439  14.715   1.591  1.00  0.00     0.023 A 
HETATM   41  C23 UNL     1       2.595  14.464   2.935  1.00  0.00     0.019 A 
HETATM   42  C24 UNL     1       3.760  13.895   3.392  1.00  0.00     0.090 A 
HETATM   43  N8  UNL     1       4.718  13.598   2.501  1.00  0.00    -0.363 N 
HETATM   44  C27 UNL     1       4.563  13.843   1.192  1.00  0.00     0.111 A 
BRANCH  43  45
HETATM   45  C25 UNL     1       5.961  12.994   2.935  1.00  0.00     0.153 C 
BRANCH  45  46
HETATM   46  C26 UNL     1       7.017  13.010   1.852  1.00  0.00     0.184 C 
BRANCH  46  47
HETATM   47  O3  UNL     1       8.110  13.753   2.288  1.00  0.00    -0.399 OA
ATOM     48  H3  UNL     1       8.521  14.172   1.542  1.00  0.00     0.209 HD
ENDBRANCH  46  47
ENDBRANCH  45  46
ENDBRANCH  43  45
ENDBRANCH  38  39
ENDBRANCH   8  37
ENDBRANCH   3   4
TORSDOF 14
ENDMDL
MODEL 5
REMARK VINA RESULT: -9.029001990      1.235      1.439
REMARK  14 active torsions:
REMARK  status: ('A' for Active; 'I' for Inactive)
REMARK    1  A    between atoms: C3_3  and  N1_4 
REMARK    2  A    between atoms: C6_7  and  C7_8 
REMARK       I    between atoms: C7_8  and  N2_10 
REMARK    3  A    between atoms: N2_10  and  C8_12 
REMARK    4  A    between atoms: C8_12  and  C9_13 
REMARK    5  A    between atoms: C9_13  and  C10_14 
REMARK    6  A    between atoms: C13_21  and  N5_22 
REMARK    7  A    between atoms: N5_22  and  C14_24 
REMARK    8  A    between atoms: C14_24  and  C15_25 
REMARK    9  A    between atoms: C15_25  and  N6_26 
REMARK   10  A    between atoms: C18_35  and  C19_36 
REMARK   11  A    between atoms: C20_37  and  C21_38 
REMARK   12  A    between atoms: N8_42  and  C25_43 
REMARK   13  A    between atoms: C25_43  and  C26_44 
REMARK   14  A    between atoms: C26_44  and  O3_45 
ROOT
HETATM    1  C1  UNL     1       3.449  12.198  -7.129  1.00  0.00     0.014 C 
HETATM    2  C2  UNL     1       2.562  12.696  -6.482  1.00  0.00    -0.097 C 
HETATM    3  C3  UNL     1       1.462  13.287  -5.683  1.00  0.00     0.220 C 
ENDROOT
BRANCH   3   4
HETATM    4  N1  UNL     1       2.029  14.245  -4.756  1.00  0.00    -0.354 N 
HETATM    5  C4  UNL     1       2.384  15.486  -5.125  1.00  0.00     0.092 A 
HETATM    6  C5  UNL     1       2.919  16.374  -4.220  1.00  0.00     0.036 A 
HETATM    7  C6  UNL     1       3.086  15.956  -2.913  1.00  0.00     0.053 A 
HETATM    8  C18 UNL     1       2.730  14.692  -2.512  1.00  0.00     0.049 A 
HETATM    9  C28 UNL     1       2.199  13.861  -3.480  1.00  0.00     0.113 A 
BRANCH   7  10
HETATM   10  C7  UNL     1       3.652  16.857  -1.895  1.00  0.00     0.253 C 
HETATM   11  O1  UNL     1       2.938  17.406  -1.021  1.00  0.00    -0.268 OA
HETATM   12  N2  UNL     1       5.044  17.116  -1.901  1.00  0.00    -0.357 N 
ATOM     13  H2  UNL     1       5.599  16.656  -2.622  1.00  0.00     0.162 HD
BRANCH  12  14
HETATM   14  C8  UNL     1       5.739  17.966  -0.984  1.00  0.00     0.127 C 
BRANCH  14  15
HETATM   15  C9  UNL     1       7.123  18.364  -1.459  1.00  0.00     0.061 C 
BRANCH  15  16
HETATM   16  C10 UNL     1       8.204  17.841  -0.606  1.00  0.00    -0.022 A 
HETATM   17  C11 UNL     1       8.920  18.596   0.332  1.00  0.00     0.098 A 
HETATM   18  N3  UNL     1       9.807  17.800   0.944  1.00  0.00    -0.350 N 
HETATM   19  C12 UNL     1       9.719  16.559   0.462  1.00  0.00     0.137 A 
ATOM     20  H3  UNL     1      10.456  18.099   1.672  1.00  0.00     0.166 HD
HETATM   21  N4  UNL     1      10.412  15.455   0.779  1.00  0.00    -0.176 N 
HETATM   22  C17 UNL     1       8.728  16.569  -0.500  1.00  0.00     0.085 A 
HETATM   23  C13 UNL     1      10.125  14.314   0.128  1.00  0.00     0.682 A 
ATOM     24  H4  UNL     1      11.138  15.481   1.495  1.00  0.00     0.186 HD
HETATM   25  N7  UNL     1       9.152  14.302  -0.827  1.00  0.00    -0.155 N 
HETATM   26  C16 UNL     1       8.445  15.401  -1.159  1.00  0.00     0.274 A 
ATOM     27  H7  UNL     1       8.951  13.426  -1.309  1.00  0.00     0.187 HD
HETATM   28  O2  UNL     1       7.546  15.367  -2.050  1.00  0.00    -0.267 OA
BRANCH  23  29
HETATM   29  N5  UNL     1      10.742  13.225   0.376  1.00  0.00    -0.224 N 
ATOM     30  H5  UNL     1      11.761  13.264   0.386  1.00  0.00     0.177 HD
BRANCH  29  31
HETATM   31  C14 UNL     1      10.142  11.956   0.640  1.00  0.00     0.165 C 
BRANCH  31  32
HETATM   32  C15 UNL     1      10.646  10.932  -0.376  1.00  0.00     0.249 C 
BRANCH  32  33
HETATM   33  N6  UNL     1      10.712   9.626   0.251  1.00  0.00    -0.078 N 
ATOM     34  H63 UNL     1      10.319   9.629   1.192  1.00  0.00     0.274 HD
ATOM     35  H62 UNL     1      10.065   8.961  -0.174  1.00  0.00     0.274 HD
ATOM     36  H61 UNL     1      11.675   9.292   0.235  1.00  0.00     0.274 HD
ENDBRANCH  32  33
ENDBRANCH  31  32
ENDBRANCH  29  31
ENDBRANCH  23  29
ENDBRANCH  15  16
ENDBRANCH  14  15
ENDBRANCH  12  14
ENDBRANCH   7  10
BRANCH   8  37
HETATM   37  C19 UNL     1       2.908  14.270  -1.153  1.00  0.00    -0.059 C 
HETATM   38  C20 UNL     1       3.041  13.924   0.013  1.00  0.00    -0.060 C 
BRANCH  38  39
HETATM   39  C21 UNL     1       3.192  13.543   1.390  1.00  0.00     0.033 A 
HETATM   40  C22 UNL     1       4.406  13.632   2.054  1.00  0.00     0.023 A 
HETATM   41  C23 UNL     1       4.550  13.270   3.373  1.00  0.00     0.019 A 
HETATM   42  C24 UNL     1       3.464  12.801   4.074  1.00  0.00     0.090 A 
HETATM   43  N8  UNL     1       2.286  12.712   3.441  1.00  0.00    -0.363 N 
HETATM   44  C27 UNL     1       2.148  13.066   2.155  1.00  0.00     0.111 A 
BRANCH  43  45
HETATM   45  C25 UNL     1       1.113  12.226   4.139  1.00  0.00     0.153 C 
BRANCH  45  46
HETATM   46  C26 UNL     1       0.847  12.988   5.418  1.00  0.00     0.184 C 
BRANCH  46  47
HETATM   47  O3  UNL     1       0.859  12.102   6.491  1.00  0.00    -0.399 OA
ATOM     48  H3  UNL     1       1.212  12.541   7.256  1.00  0.00     0.209 HD
ENDBRANCH  46  47
ENDBRANCH  45  46
ENDBRANCH  43  45
ENDBRANCH  38  39
ENDBRANCH   8  37
ENDBRANCH   3   4
TORSDOF 14
ENDMDL
