MODEL 1
REMARK VINA RESULT: -10.753398016      0.000      0.000
REMARK  10 active torsions:
REMARK  status: ('A' for Active; 'I' for Inactive)
REMARK    1  A    between atoms: C5_7  and  C6_8 
REMARK    2  A    between atoms: C6_8  and  C7_9 
REMARK    3  A    between atoms: C7_9  and  C8_10 
REMARK       I    between atoms: N2_13  and  C11_15 
REMARK    4  A    between atoms: N4_17  and  C12_19 
REMARK    5  A    between atoms: C12_19  and  C13_20 
REMARK    6  A    between atoms: C13_20  and  C14_21 
REMARK    7  A    between atoms: C14_21  and  C15_22 
REMARK    8  A    between atoms: C17_26  and  C18_27 
REMARK    9  A    between atoms: C19_32  and  C20_33 
REMARK   10  A    between atoms: N8_34  and  N9_36 
ROOT
HETATM    1  C8  UNL     1       5.089  14.304  -0.967  1.00  0.00     0.015 A 
HETATM    2  C9  UNL     1       5.896  13.868  -0.011  1.00  0.00     0.055 A 
HETATM    3  C10 UNL     1       5.504  13.641   1.342  1.00  0.00     0.052 A 
HETATM    4  N2  UNL     1       6.301  13.210   2.266  1.00  0.00    -0.330 N 
ATOM      5  H2  UNL     1       5.949  13.071   3.213  1.00  0.00     0.168 HD
HETATM    6  C11 UNL     1       7.681  12.927   1.967  1.00  0.00     0.188 C 
HETATM    7  N3  UNL     1       8.604  13.982   2.133  1.00  0.00    -0.064 NA
HETATM    8  N4  UNL     1       8.016  11.779   1.572  1.00  0.00    -0.364 N 
ATOM      9  H4  UNL     1       7.261  11.098   1.486  1.00  0.00     0.162 HD
HETATM   10  C16 UNL     1       4.097  13.901   1.751  1.00  0.00     0.062 A 
HETATM   11  C17 UNL     1       3.750  13.716   2.983  1.00  0.00     0.069 C 
HETATM   12  C21 UNL     1       3.206  14.382   0.704  1.00  0.00     0.258 A 
HETATM   13  O2  UNL     1       1.994  14.641   0.922  1.00  0.00    -0.267 OA
HETATM   14  N12 UNL     1       3.741  14.562  -0.610  1.00  0.00    -0.326 N 
ATOM     15  H12 UNL     1       3.111  14.898  -1.339  1.00  0.00     0.169 HD
ENDROOT
BRANCH  11  16
HETATM   16  C18 UNL     1       2.470  13.885   3.635  1.00  0.00     0.122 A 
HETATM   17  N6  UNL     1       1.772  14.972   4.000  1.00  0.00    -0.284 N 
HETATM   18  N7  UNL     1       0.632  14.660   4.584  1.00  0.00    -0.283 N 
ATOM     19  H6  UNL     1       2.087  15.930   3.843  1.00  0.00     0.188 HD
HETATM   20  C19 UNL     1       0.543  13.314   4.621  1.00  0.00     0.138 A 
ATOM     21  H7  UNL     1      -0.060  15.318   4.943  1.00  0.00     0.188 HD
HETATM   22  N11 UNL     1       1.656  12.852   4.047  1.00  0.00    -0.325 N 
ATOM     23  H11 UNL     1       1.874  11.863   3.928  1.00  0.00     0.169 HD
BRANCH  20  24
HETATM   24  C20 UNL     1      -0.549  12.510   5.176  1.00  0.00     0.158 C 
HETATM   25  N8  UNL     1      -0.571  12.313   6.441  1.00  0.00    -0.294 N 
ATOM     26  H8  UNL     1      -1.338  11.750   6.808  1.00  0.00     0.187 HD
BRANCH  25  27
HETATM   27  N9  UNL     1       0.347  12.792   7.354  1.00  0.00    -0.250 N 
HETATM   28  N10 UNL     1       0.738  12.063   8.320  1.00  0.00    -0.331 N 
ATOM     29 2H10 UNL     1       0.359  11.120   8.407  1.00  0.00     0.178 HD
ATOM     30 1H10 UNL     1       1.416  12.417   8.994  1.00  0.00     0.178 HD
ATOM     31  H9  UNL     1       0.716  13.737   7.252  1.00  0.00     0.207 HD
ENDBRANCH  25  27
ENDBRANCH  20  24
ENDBRANCH  11  16
BRANCH   1  32
HETATM   32  C7  UNL     1       5.585  14.515  -2.362  1.00  0.00     0.062 C 
BRANCH  32  33
HETATM   33  C6  UNL     1       7.006  15.032  -2.295  1.00  0.00     0.047 C 
BRANCH  33  34
HETATM   34  C5  UNL     1       7.083  16.454  -1.955  1.00  0.00    -0.027 A 
HETATM   35  C2  UNL     1       7.918  17.023  -1.019  1.00  0.00     0.012 A 
HETATM   36  C1  UNL     1       8.933  16.344  -0.137  1.00  0.00     0.068 C 
HETATM   37  N1  UNL     1       7.677  18.352  -1.011  1.00  0.00    -0.362 N 
HETATM   38  C3  UNL     1       6.728  18.685  -1.891  1.00  0.00     0.020 A 
ATOM     39  H1  UNL     1       8.159  19.019  -0.407  1.00  0.00     0.165 HD
HETATM   40  C4  UNL     1       6.352  17.496  -2.487  1.00  0.00    -0.024 A 
HETATM   41  C25 UNL     1       6.103  19.975  -2.264  1.00  0.00     0.084 C 
HETATM   42  C22 UNL     1       5.279  17.579  -3.544  1.00  0.00     0.068 C 
HETATM   43  C23 UNL     1       5.428  18.855  -4.302  1.00  0.00    -0.026 C 
HETATM   44  C24 UNL     1       5.812  19.971  -3.707  1.00  0.00    -0.024 C 
ENDBRANCH  33  34
ENDBRANCH  32  33
ENDBRANCH   1  32
BRANCH   8  45
HETATM   45  C12 UNL     1       9.315  11.313   1.232  1.00  0.00     0.122 C 
BRANCH  45  46
HETATM   46  C13 UNL     1       9.391  10.269   0.168  1.00  0.00     0.028 C 
BRANCH  46  47
HETATM   47  C14 UNL     1      10.819   9.841  -0.134  1.00  0.00     0.101 C 
BRANCH  47  48
HETATM   48  C15 UNL     1      11.257  10.476  -1.396  1.00  0.00     0.231 C 
HETATM   49  N5  UNL     1      12.036   9.743  -2.330  1.00  0.00    -0.062 NA
HETATM   50  O1  UNL     1      10.936  11.658  -1.631  1.00  0.00    -0.277 OA
ENDBRANCH  47  48
ENDBRANCH  46  47
ENDBRANCH  45  46
ENDBRANCH   8  45
TORSDOF 10
ENDMDL
MODEL 2
REMARK VINA RESULT: -10.622135299      2.072      3.122
REMARK  10 active torsions:
REMARK  status: ('A' for Active; 'I' for Inactive)
REMARK    1  A    between atoms: C5_7  and  C6_8 
REMARK    2  A    between atoms: C6_8  and  C7_9 
REMARK    3  A    between atoms: C7_9  and  C8_10 
REMARK       I    between atoms: N2_13  and  C11_15 
REMARK    4  A    between atoms: N4_17  and  C12_19 
REMARK    5  A    between atoms: C12_19  and  C13_20 
REMARK    6  A    between atoms: C13_20  and  C14_21 
REMARK    7  A    between atoms: C14_21  and  C15_22 
REMARK    8  A    between atoms: C17_26  and  C18_27 
REMARK    9  A    between atoms: C19_32  and  C20_33 
REMARK   10  A    between atoms: N8_34  and  N9_36 
ROOT
HETATM    1  C8  UNL     1       5.056  13.870  -0.928  1.00  0.00     0.015 A 
HETATM    2  C9  UNL     1       5.999  13.566  -0.048  1.00  0.00     0.055 A 
HETATM    3  C10 UNL     1       5.787  13.433   1.356  1.00  0.00     0.052 A 
HETATM    4  N2  UNL     1       6.716  13.132   2.205  1.00  0.00    -0.330 N 
ATOM      5  H2  UNL     1       6.490  13.053   3.196  1.00  0.00     0.168 HD
HETATM    6  C11 UNL     1       8.067  12.907   1.760  1.00  0.00     0.188 C 
HETATM    7  N3  UNL     1       8.927  14.026   1.727  1.00  0.00    -0.064 NA
HETATM    8  N4  UNL     1       8.433  11.751   1.417  1.00  0.00    -0.364 N 
ATOM      9  H4  UNL     1       7.722  11.022   1.479  1.00  0.00     0.162 HD
HETATM   10  C16 UNL     1       4.424  13.642   1.915  1.00  0.00     0.062 A 
HETATM   11  C17 UNL     1       4.240  13.543   3.191  1.00  0.00     0.069 C 
HETATM   12  C21 UNL     1       3.383  13.978   0.953  1.00  0.00     0.258 A 
HETATM   13  O2  UNL     1       2.191  14.181   1.298  1.00  0.00    -0.267 OA
HETATM   14  N12 UNL     1       3.745  14.076  -0.428  1.00  0.00    -0.326 N 
ATOM     15  H12 UNL     1       3.011  14.311  -1.097  1.00  0.00     0.169 HD
ENDROOT
BRANCH  11  16
HETATM   16  C18 UNL     1       3.037  13.691   3.982  1.00  0.00     0.122 A 
HETATM   17  N6  UNL     1       2.616  14.645   4.827  1.00  0.00    -0.284 N 
HETATM   18  N7  UNL     1       1.436  14.367   5.345  1.00  0.00    -0.283 N 
ATOM     19  H6  UNL     1       3.148  15.488   5.044  1.00  0.00     0.188 HD
HETATM   20  C19 UNL     1       1.032  13.183   4.838  1.00  0.00     0.138 A 
ATOM     21  H7  UNL     1       0.921  14.944   6.010  1.00  0.00     0.188 HD
HETATM   22  N11 UNL     1       2.003  12.781   4.016  1.00  0.00    -0.325 N 
ATOM     23  H11 UNL     1       1.982  11.912   3.482  1.00  0.00     0.169 HD
BRANCH  20  24
HETATM   24  C20 UNL     1      -0.217  12.475   5.124  1.00  0.00     0.158 C 
HETATM   25  N8  UNL     1      -0.554  12.313   6.350  1.00  0.00    -0.294 N 
ATOM     26  H8  UNL     1      -1.426  11.816   6.528  1.00  0.00     0.187 HD
BRANCH  25  27
HETATM   27  N9  UNL     1       0.155  12.751   7.450  1.00  0.00    -0.250 N 
HETATM   28  N10 UNL     1       0.575  11.922   8.319  1.00  0.00    -0.331 N 
ATOM     29 2H10 UNL     1       0.378  10.930   8.186  1.00  0.00     0.178 HD
ATOM     30 1H10 UNL     1       1.099  12.245   9.132  1.00  0.00     0.178 HD
ATOM     31  H9  UNL     1       0.344  13.746   7.568  1.00  0.00     0.207 HD
ENDBRANCH  25  27
ENDBRANCH  20  24
ENDBRANCH  11  16
BRANCH   1  32
HETATM   32  C7  UNL     1       5.366  13.990  -2.386  1.00  0.00     0.062 C 
BRANCH  32  33
HETATM   33  C6  UNL     1       5.317  15.453  -2.770  1.00  0.00     0.047 C 
BRANCH  33  34
HETATM   34  C5  UNL     1       4.334  15.738  -3.817  1.00  0.00    -0.027 A 
HETATM   35  C2  UNL     1       3.822  16.975  -4.138  1.00  0.00     0.012 A 
HETATM   36  C1  UNL     1       4.137  18.308  -3.510  1.00  0.00     0.068 C 
HETATM   37  N1  UNL     1       2.948  16.805  -5.153  1.00  0.00    -0.362 N 
HETATM   38  C3  UNL     1       2.860  15.522  -5.516  1.00  0.00     0.020 A 
ATOM     39  H1  UNL     1       2.420  17.562  -5.589  1.00  0.00     0.165 HD
HETATM   40  C4  UNL     1       3.729  14.848  -4.680  1.00  0.00    -0.024 A 
HETATM   41  C25 UNL     1       2.065  14.815  -6.546  1.00  0.00     0.084 C 
HETATM   42  C22 UNL     1       3.835  13.355  -4.875  1.00  0.00     0.068 C 
HETATM   43  C23 UNL     1       3.690  13.034  -6.324  1.00  0.00    -0.026 C 
HETATM   44  C24 UNL     1       2.866  13.713  -7.103  1.00  0.00    -0.024 C 
ENDBRANCH  33  34
ENDBRANCH  32  33
ENDBRANCH   1  32
BRANCH   8  45
HETATM   45  C12 UNL     1       9.711  11.337   0.956  1.00  0.00     0.122 C 
BRANCH  45  46
HETATM   46  C13 UNL     1       9.743  10.138   0.067  1.00  0.00     0.028 C 
BRANCH  46  47
HETATM   47  C14 UNL     1      11.156   9.722  -0.308  1.00  0.00     0.101 C 
BRANCH  47  48
HETATM   48  C15 UNL     1      11.504  10.317  -1.617  1.00  0.00     0.231 C 
HETATM   49  N5  UNL     1      11.256  11.693  -1.865  1.00  0.00    -0.062 NA
HETATM   50  O1  UNL     1      12.016   9.599  -2.500  1.00  0.00    -0.277 OA
ENDBRANCH  47  48
ENDBRANCH  46  47
ENDBRANCH  45  46
ENDBRANCH   8  45
TORSDOF 10
ENDMDL
MODEL 3
REMARK VINA RESULT: -10.614597702      2.567      5.190
REMARK  10 active torsions:
REMARK  status: ('A' for Active; 'I' for Inactive)
REMARK    1  A    between atoms: C5_7  and  C6_8 
REMARK    2  A    between atoms: C6_8  and  C7_9 
REMARK    3  A    between atoms: C7_9  and  C8_10 
REMARK       I    between atoms: N2_13  and  C11_15 
REMARK    4  A    between atoms: N4_17  and  C12_19 
REMARK    5  A    between atoms: C12_19  and  C13_20 
REMARK    6  A    between atoms: C13_20  and  C14_21 
REMARK    7  A    between atoms: C14_21  and  C15_22 
REMARK    8  A    between atoms: C17_26  and  C18_27 
REMARK    9  A    between atoms: C19_32  and  C20_33 
REMARK   10  A    between atoms: N8_34  and  N9_36 
ROOT
HETATM    1  C8  UNL     1       5.885  13.044   1.110  1.00  0.00     0.015 A 
HETATM    2  C9  UNL     1       5.176  13.552   0.111  1.00  0.00     0.055 A 
HETATM    3  C10 UNL     1       3.844  14.049   0.232  1.00  0.00     0.052 A 
HETATM    4  N2  UNL     1       3.164  14.546  -0.750  1.00  0.00    -0.330 N 
ATOM      5  H2  UNL     1       2.214  14.884  -0.588  1.00  0.00     0.168 HD
HETATM    6  C11 UNL     1       3.735  14.626  -2.069  1.00  0.00     0.188 C 
HETATM    7  N3  UNL     1       3.529  13.524  -2.926  1.00  0.00    -0.064 NA
HETATM    8  N4  UNL     1       4.390  15.647  -2.410  1.00  0.00    -0.364 N 
ATOM      9  H4  UNL     1       4.476  16.378  -1.704  1.00  0.00     0.162 HD
HETATM   10  C16 UNL     1       3.165  14.014   1.556  1.00  0.00     0.062 A 
HETATM   11  C17 UNL     1       1.950  14.445   1.657  1.00  0.00     0.069 C 
HETATM   12  C21 UNL     1       3.939  13.457   2.657  1.00  0.00     0.258 A 
HETATM   13  O2  UNL     1       3.478  13.369   3.824  1.00  0.00    -0.267 OA
HETATM   14  N12 UNL     1       5.266  12.997   2.385  1.00  0.00    -0.326 N 
ATOM     15  H12 UNL     1       5.804  12.608   3.160  1.00  0.00     0.169 HD
ENDROOT
BRANCH  11  16
HETATM   16  C18 UNL     1       1.074  14.527   2.805  1.00  0.00     0.122 A 
HETATM   17  N6  UNL     1       0.767  15.528   3.646  1.00  0.00    -0.284 N 
HETATM   18  N7  UNL     1      -0.090  15.154   4.575  1.00  0.00    -0.283 N 
ATOM     19  H6  UNL     1       1.154  16.469   3.575  1.00  0.00     0.188 HD
HETATM   20  C19 UNL     1      -0.384  13.853   4.365  1.00  0.00     0.138 A 
ATOM     21  H7  UNL     1      -0.464  15.742   5.319  1.00  0.00     0.188 HD
HETATM   22  N11 UNL     1       0.322  13.481   3.296  1.00  0.00    -0.325 N 
ATOM     23  H11 UNL     1       0.307  12.544   2.893  1.00  0.00     0.169 HD
BRANCH  20  24
HETATM   24  C20 UNL     1      -1.292  13.010   5.147  1.00  0.00     0.158 C 
HETATM   25  N8  UNL     1      -0.884  12.569   6.277  1.00  0.00    -0.294 N 
ATOM     26  H8  UNL     1      -1.530  11.982   6.805  1.00  0.00     0.187 HD
BRANCH  25  27
HETATM   27  N9  UNL     1       0.350  12.813   6.847  1.00  0.00    -0.250 N 
HETATM   28  N10 UNL     1       0.682  12.245   7.935  1.00  0.00    -0.331 N 
ATOM     29 2H10 UNL     1       0.021  11.607   8.377  1.00  0.00     0.178 HD
ATOM     30 1H10 UNL     1       1.593  12.426   8.357  1.00  0.00     0.178 HD
ATOM     31  H9  UNL     1       0.999  13.454   6.392  1.00  0.00     0.207 HD
ENDBRANCH  25  27
ENDBRANCH  20  24
ENDBRANCH  11  16
BRANCH   1  32
HETATM   32  C7  UNL     1       7.277  12.544   0.894  1.00  0.00     0.062 C 
BRANCH  32  33
HETATM   33  C6  UNL     1       7.862  13.252  -0.309  1.00  0.00     0.047 C 
BRANCH  33  34
HETATM   34  C5  UNL     1       8.786  14.328   0.053  1.00  0.00    -0.027 A 
HETATM   35  C2  UNL     1      10.105  14.179   0.422  1.00  0.00     0.012 A 
HETATM   36  C1  UNL     1      10.904  12.907   0.541  1.00  0.00     0.068 C 
HETATM   37  N1  UNL     1      10.600  15.411   0.675  1.00  0.00    -0.362 N 
HETATM   38  C3  UNL     1       9.676  16.358   0.491  1.00  0.00     0.020 A 
ATOM     39  H1  UNL     1      11.560  15.594   0.970  1.00  0.00     0.165 HD
HETATM   40  C4  UNL     1       8.536  15.684   0.100  1.00  0.00    -0.024 A 
HETATM   41  C25 UNL     1       9.698  17.832   0.633  1.00  0.00     0.084 C 
HETATM   42  C22 UNL     1       7.315  16.525  -0.184  1.00  0.00     0.068 C 
HETATM   43  C23 UNL     1       7.738  17.822  -0.787  1.00  0.00    -0.026 C 
HETATM   44  C24 UNL     1       8.848  18.431  -0.407  1.00  0.00    -0.024 C 
ENDBRANCH  33  34
ENDBRANCH  32  33
ENDBRANCH   1  32
BRANCH   8  45
HETATM   45  C12 UNL     1       5.023  15.907  -3.655  1.00  0.00     0.122 C 
BRANCH  45  46
HETATM   46  C13 UNL     1       4.494  17.057  -4.446  1.00  0.00     0.028 C 
BRANCH  46  47
HETATM   47  C14 UNL     1       5.512  18.173  -4.613  1.00  0.00     0.101 C 
BRANCH  47  48
HETATM   48  C15 UNL     1       5.323  19.167  -3.534  1.00  0.00     0.231 C 
HETATM   49  N5  UNL     1       5.966  20.430  -3.606  1.00  0.00    -0.062 NA
HETATM   50  O1  UNL     1       4.594  18.884  -2.562  1.00  0.00    -0.277 OA
ENDBRANCH  47  48
ENDBRANCH  46  47
ENDBRANCH  45  46
ENDBRANCH   8  45
TORSDOF 10
ENDMDL
MODEL 4
REMARK VINA RESULT: -10.577678004      3.617      8.255
REMARK  10 active torsions:
REMARK  status: ('A' for Active; 'I' for Inactive)
REMARK    1  A    between atoms: C5_7  and  C6_8 
REMARK    2  A    between atoms: C6_8  and  C7_9 
REMARK    3  A    between atoms: C7_9  and  C8_10 
REMARK       I    between atoms: N2_13  and  C11_15 
REMARK    4  A    between atoms: N4_17  and  C12_19 
REMARK    5  A    between atoms: C12_19  and  C13_20 
REMARK    6  A    between atoms: C13_20  and  C14_21 
REMARK    7  A    between atoms: C14_21  and  C15_22 
REMARK    8  A    between atoms: C17_26  and  C18_27 
REMARK    9  A    between atoms: C19_32  and  C20_33 
REMARK   10  A    between atoms: N8_34  and  N9_36 
ROOT
HETATM    1  C8  UNL     1       4.321  14.536   0.070  1.00  0.00     0.015 A 
HETATM    2  C9  UNL     1       5.006  15.523  -0.490  1.00  0.00     0.055 A 
HETATM    3  C10 UNL     1       6.421  15.528  -0.674  1.00  0.00     0.052 A 
HETATM    4  N2  UNL     1       7.077  16.497  -1.227  1.00  0.00    -0.330 N 
ATOM      5  H2  UNL     1       8.090  16.430  -1.325  1.00  0.00     0.168 HD
HETATM    6  C11 UNL     1       6.388  17.667  -1.704  1.00  0.00     0.188 C 
HETATM    7  N3  UNL     1       6.235  18.737  -0.796  1.00  0.00    -0.064 NA
HETATM    8  N4  UNL     1       5.948  17.702  -2.884  1.00  0.00    -0.364 N 
ATOM      9  H4  UNL     1       6.114  16.867  -3.446  1.00  0.00     0.162 HD
HETATM   10  C16 UNL     1       7.223  14.361  -0.217  1.00  0.00     0.062 A 
HETATM   11  C17 UNL     1       8.508  14.379  -0.364  1.00  0.00     0.069 C 
HETATM   12  C21 UNL     1       6.476  13.274   0.401  1.00  0.00     0.258 A 
HETATM   13  O2  UNL     1       7.038  12.233   0.830  1.00  0.00    -0.267 OA
HETATM   14  N12 UNL     1       5.057  13.409   0.517  1.00  0.00    -0.326 N 
ATOM     15  H12 UNL     1       4.539  12.644   0.950  1.00  0.00     0.169 HD
ENDROOT
BRANCH  11  16
HETATM   16  C18 UNL     1       9.507  13.392  -0.018  1.00  0.00     0.122 A 
HETATM   17  N6  UNL     1      10.661  13.466   0.665  1.00  0.00    -0.284 N 
HETATM   18  N7  UNL     1      11.273  12.300   0.738  1.00  0.00    -0.283 N 
ATOM     19  H6  UNL     1      11.021  14.325   1.080  1.00  0.00     0.188 HD
HETATM   20  C19 UNL     1      10.515  11.395   0.084  1.00  0.00     0.138 A 
ATOM     21  H7  UNL     1      12.160  12.116   1.205  1.00  0.00     0.188 HD
HETATM   22  N11 UNL     1       9.451  12.060  -0.370  1.00  0.00    -0.325 N 
ATOM     23  H11 UNL     1       8.694  11.637  -0.907  1.00  0.00     0.169 HD
BRANCH  20  24
HETATM   24  C20 UNL     1      10.793   9.968  -0.097  1.00  0.00     0.158 C 
HETATM   25  N8  UNL     1      10.036   9.125   0.498  1.00  0.00    -0.294 N 
ATOM     26  H8  UNL     1      10.247   8.136   0.361  1.00  0.00     0.187 HD
BRANCH  25  27
HETATM   27  N9  UNL     1       8.960   9.430   1.307  1.00  0.00    -0.250 N 
HETATM   28  N10 UNL     1       7.915   8.705   1.293  1.00  0.00    -0.331 N 
ATOM     29 2H10 UNL     1       7.888   7.896   0.672  1.00  0.00     0.178 HD
ATOM     30 1H10 UNL     1       7.120   8.930   1.891  1.00  0.00     0.178 HD
ATOM     31  H9  UNL     1       9.003  10.242   1.922  1.00  0.00     0.207 HD
ENDBRANCH  25  27
ENDBRANCH  20  24
ENDBRANCH  11  16
BRANCH   1  32
HETATM   32  C7  UNL     1       2.836  14.614   0.224  1.00  0.00     0.062 C 
BRANCH  32  33
HETATM   33  C6  UNL     1       2.219  13.406  -0.448  1.00  0.00     0.047 C 
BRANCH  33  34
HETATM   34  C5  UNL     1       1.651  13.710  -1.763  1.00  0.00    -0.027 A 
HETATM   35  C2  UNL     1       0.373  14.158  -2.014  1.00  0.00     0.012 A 
HETATM   36  C1  UNL     1      -0.730  14.438  -1.026  1.00  0.00     0.068 C 
HETATM   37  N1  UNL     1       0.249  14.314  -3.350  1.00  0.00    -0.362 N 
HETATM   38  C3  UNL     1       1.379  13.994  -3.988  1.00  0.00     0.020 A 
ATOM     39  H1  UNL     1      -0.600  14.637  -3.814  1.00  0.00     0.165 HD
HETATM   40  C4  UNL     1       2.262  13.614  -2.996  1.00  0.00    -0.024 A 
HETATM   41  C25 UNL     1       1.764  13.985  -5.418  1.00  0.00     0.084 C 
HETATM   42  C22 UNL     1       3.643  13.199  -3.441  1.00  0.00     0.068 C 
HETATM   43  C23 UNL     1       4.050  14.017  -4.620  1.00  0.00    -0.026 C 
HETATM   44  C24 UNL     1       3.175  14.383  -5.541  1.00  0.00    -0.024 C 
ENDBRANCH  33  34
ENDBRANCH  32  33
ENDBRANCH   1  32
BRANCH   8  45
HETATM   45  C12 UNL     1       5.250  18.758  -3.529  1.00  0.00     0.122 C 
BRANCH  45  46
HETATM   46  C13 UNL     1       3.771  18.796  -3.335  1.00  0.00     0.028 C 
BRANCH  46  47
HETATM   47  C14 UNL     1       3.138  17.414  -3.371  1.00  0.00     0.101 C 
BRANCH  47  48
HETATM   48  C15 UNL     1       1.890  17.432  -2.576  1.00  0.00     0.231 C 
HETATM   49  N5  UNL     1       0.632  17.538  -3.224  1.00  0.00    -0.062 NA
HETATM   50  O1  UNL     1       1.956  17.355  -1.332  1.00  0.00    -0.277 OA
ENDBRANCH  47  48
ENDBRANCH  46  47
ENDBRANCH  45  46
ENDBRANCH   8  45
TORSDOF 10
ENDMDL
MODEL 5
REMARK VINA RESULT: -10.519461750      2.225      3.501
REMARK  10 active torsions:
REMARK  status: ('A' for Active; 'I' for Inactive)
REMARK    1  A    between atoms: C5_7  and  C6_8 
REMARK    2  A    between atoms: C6_8  and  C7_9 
REMARK    3  A    between atoms: C7_9  and  C8_10 
REMARK       I    between atoms: N2_13  and  C11_15 
REMARK    4  A    between atoms: N4_17  and  C12_19 
REMARK    5  A    between atoms: C12_19  and  C13_20 
REMARK    6  A    between atoms: C13_20  and  C14_21 
REMARK    7  A    between atoms: C14_21  and  C15_22 
REMARK    8  A    between atoms: C17_26  and  C18_27 
REMARK    9  A    between atoms: C19_32  and  C20_33 
REMARK   10  A    between atoms: N8_34  and  N9_36 
ROOT
HETATM    1  C8  UNL     1       5.340  15.622  -0.666  1.00  0.00     0.015 A 
HETATM    2  C9  UNL     1       6.012  14.708   0.019  1.00  0.00     0.055 A 
HETATM    3  C10 UNL     1       5.425  13.788   0.939  1.00  0.00     0.052 A 
HETATM    4  N2  UNL     1       6.091  12.897   1.599  1.00  0.00    -0.330 N 
ATOM      5  H2  UNL     1       5.603  12.272   2.240  1.00  0.00     0.168 HD
HETATM    6  C11 UNL     1       7.517  12.782   1.436  1.00  0.00     0.188 C 
HETATM    7  N3  UNL     1       8.327  13.545   2.306  1.00  0.00    -0.064 NA
HETATM    8  N4  UNL     1       7.990  12.029   0.544  1.00  0.00    -0.364 N 
ATOM      9  H4  UNL     1       7.307  11.531  -0.027  1.00  0.00     0.162 HD
HETATM   10  C16 UNL     1       3.956  13.824   1.175  1.00  0.00     0.062 A 
HETATM   11  C17 UNL     1       3.430  13.004   2.026  1.00  0.00     0.069 C 
HETATM   12  C21 UNL     1       3.212  14.827   0.425  1.00  0.00     0.258 A 
HETATM   13  O2  UNL     1       1.966  14.961   0.537  1.00  0.00    -0.267 OA
HETATM   14  N12 UNL     1       3.938  15.682  -0.464  1.00  0.00    -0.326 N 
ATOM     15  H12 UNL     1       3.411  16.382  -0.987  1.00  0.00     0.169 HD
ENDROOT
BRANCH  11  16
HETATM   16  C18 UNL     1       2.053  12.827   2.434  1.00  0.00     0.122 A 
HETATM   17  N6  UNL     1       1.079  12.004   2.016  1.00  0.00    -0.284 N 
HETATM   18  N7  UNL     1      -0.048  12.190   2.675  1.00  0.00    -0.283 N 
ATOM     19  H6  UNL     1       1.197  11.315   1.273  1.00  0.00     0.188 HD
HETATM   20  C19 UNL     1       0.159  13.172   3.577  1.00  0.00     0.138 A 
ATOM     21  H7  UNL     1      -0.920  11.681   2.529  1.00  0.00     0.188 HD
HETATM   22  N11 UNL     1       1.429  13.553   3.426  1.00  0.00    -0.325 N 
ATOM     23  H11 UNL     1       1.880  14.285   3.975  1.00  0.00     0.169 HD
BRANCH  20  24
HETATM   24  C20 UNL     1      -0.807  13.718   4.533  1.00  0.00     0.158 C 
HETATM   25  N8  UNL     1      -0.583  13.547   5.782  1.00  0.00    -0.294 N 
ATOM     26  H8  UNL     1      -1.268  13.933   6.432  1.00  0.00     0.187 HD
BRANCH  25  27
HETATM   27  N9  UNL     1       0.499  12.888   6.330  1.00  0.00    -0.250 N 
HETATM   28  N10 UNL     1       0.488  12.534   7.552  1.00  0.00    -0.331 N 
ATOM     29 2H10 UNL     1      -0.334  12.746   8.116  1.00  0.00     0.178 HD
ATOM     30 1H10 UNL     1       1.288  12.047   7.957  1.00  0.00     0.178 HD
ATOM     31  H9  UNL     1       1.313  12.684   5.751  1.00  0.00     0.207 HD
ENDBRANCH  25  27
ENDBRANCH  20  24
ENDBRANCH  11  16
BRANCH   1  32
HETATM   32  C7  UNL     1       6.036  16.548  -1.611  1.00  0.00     0.062 C 
BRANCH  32  33
HETATM   33  C6  UNL     1       6.210  15.841  -2.938  1.00  0.00     0.047 C 
BRANCH  33  34
HETATM   34  C5  UNL     1       5.079  16.042  -3.846  1.00  0.00    -0.027 A 
HETATM   35  C2  UNL     1       4.714  17.229  -4.440  1.00  0.00     0.012 A 
HETATM   36  C1  UNL     1       5.367  18.581  -4.307  1.00  0.00     0.068 C 
HETATM   37  N1  UNL     1       3.622  16.988  -5.198  1.00  0.00    -0.362 N 
HETATM   38  C3  UNL     1       3.254  15.705  -5.134  1.00  0.00     0.020 A 
ATOM     39  H1  UNL     1       3.139  17.696  -5.751  1.00  0.00     0.165 HD
HETATM   40  C4  UNL     1       4.166  15.107  -4.286  1.00  0.00    -0.024 A 
HETATM   41  C25 UNL     1       2.150  14.938  -5.756  1.00  0.00     0.084 C 
HETATM   42  C22 UNL     1       3.988  13.630  -4.033  1.00  0.00     0.068 C 
HETATM   43  C23 UNL     1       3.480  12.973  -5.272  1.00  0.00    -0.026 C 
HETATM   44  C24 UNL     1       2.624  13.582  -6.075  1.00  0.00    -0.024 C 
ENDBRANCH  33  34
ENDBRANCH  32  33
ENDBRANCH   1  32
BRANCH   8  45
HETATM   45  C12 UNL     1       9.355  11.787   0.234  1.00  0.00     0.122 C 
BRANCH  45  46
HETATM   46  C13 UNL     1       9.998  12.730  -0.728  1.00  0.00     0.028 C 
BRANCH  46  47
HETATM   47  C14 UNL     1      10.904  13.741  -0.043  1.00  0.00     0.101 C 
BRANCH  47  48
HETATM   48  C15 UNL     1      10.254  15.070  -0.073  1.00  0.00     0.231 C 
HETATM   49  N5  UNL     1      10.661  16.084   0.834  1.00  0.00    -0.062 NA
HETATM   50  O1  UNL     1       9.347  15.290  -0.901  1.00  0.00    -0.277 OA
ENDBRANCH  47  48
ENDBRANCH  46  47
ENDBRANCH  45  46
ENDBRANCH   8  45
TORSDOF 10
ENDMDL
