MODEL 1
REMARK VINA RESULT: -8.703509317      0.000      0.000
REMARK  3 active torsions:
REMARK  status: ('A' for Active; 'I' for Inactive)
REMARK    1  A    between atoms: C3_7  and  S1_8 
REMARK    2  A    between atoms: S1_8  and  C4_9 
REMARK    3  A    between atoms: C4_9  and  C5_10 
ROOT
HETATM    1  C5  UNL     1      57.670   8.332   0.958  1.00  0.00     0.093 A 
HETATM    2  N3  UNL     1      57.718   8.733   2.264  1.00  0.00    -0.342 N 
ATOM      3  H3  UNL     1      56.946   8.651   2.926  1.00  0.00     0.167 HD
HETATM    4  C6  UNL     1      58.920   9.252   2.556  1.00  0.00     0.085 A 
HETATM    5  C7  UNL     1      59.473   9.790   3.715  1.00  0.00    -0.012 A 
HETATM    6  C8  UNL     1      58.665   9.868   4.957  1.00  0.00     0.052 C 
HETATM    7  C9  UNL     1      60.775  10.231   3.635  1.00  0.00     0.041 A 
HETATM    8 BR1  UNL     1      61.605  10.987   5.196  1.00  0.00    -0.048 Br
HETATM    9  C10 UNL     1      61.510  10.154   2.472  1.00  0.00     0.025 A 
HETATM   10  C11 UNL     1      62.916  10.625   2.372  1.00  0.00     0.069 C 
HETATM   11  N4  UNL     1      60.921   9.622   1.377  1.00  0.00    -0.343 N 
ATOM     12  H4  UNL     1      61.456   9.560   0.510  1.00  0.00     0.167 HD
HETATM   13  C12 UNL     1      59.656   9.173   1.391  1.00  0.00     0.134 A 
HETATM   14  N5  UNL     1      58.875   8.615   0.443  1.00  0.00    -0.330 N 
ATOM     15  H5  UNL     1      59.159   8.435  -0.520  1.00  0.00     0.168 HD
ENDROOT
BRANCH   1  16
HETATM   16  C4  UNL     1      56.469   7.713   0.309  1.00  0.00     0.159 C 
BRANCH  16  17
HETATM   17  S1  UNL     1      55.423   6.904   1.512  1.00  0.00    -0.077 SA
BRANCH  17  18
HETATM   18  C3  UNL     1      54.660   8.036   2.665  1.00  0.00     0.203 A 
HETATM   19  N2  UNL     1      53.550   8.778   2.440  1.00  0.00    -0.272 N 
HETATM   20  N1  UNL     1      53.296   9.488   3.525  1.00  0.00    -0.281 N 
ATOM     21  H2  UNL     1      53.003   8.788   1.579  1.00  0.00     0.189 HD
HETATM   22  C2  UNL     1      54.234   9.193   4.410  1.00  0.00     0.137 A 
ATOM     23  H1  UNL     1      52.523  10.140   3.656  1.00  0.00     0.189 HD
HETATM   24  C1  UNL     1      54.451   9.691   5.809  1.00  0.00     0.099 C 
HETATM   25  O1  UNL     1      55.057   8.312   3.882  1.00  0.00    -0.273 OA
ENDBRANCH  17  18
ENDBRANCH  16  17
ENDBRANCH   1  16
TORSDOF 3
ENDMDL
MODEL 2
REMARK VINA RESULT: -8.481032655      1.141      1.273
REMARK  3 active torsions:
REMARK  status: ('A' for Active; 'I' for Inactive)
REMARK    1  A    between atoms: C3_7  and  S1_8 
REMARK    2  A    between atoms: S1_8  and  C4_9 
REMARK    3  A    between atoms: C4_9  and  C5_10 
ROOT
HETATM    1  C5  UNL     1      57.673   8.473   1.217  1.00  0.00     0.093 A 
HETATM    2  N3  UNL     1      57.783   8.880   2.518  1.00  0.00    -0.342 N 
ATOM      3  H3  UNL     1      57.039   8.812   3.212  1.00  0.00     0.167 HD
HETATM    4  C6  UNL     1      59.004   9.380   2.755  1.00  0.00     0.085 A 
HETATM    5  C7  UNL     1      59.615   9.914   3.887  1.00  0.00    -0.012 A 
HETATM    6  C8  UNL     1      58.863  10.009   5.162  1.00  0.00     0.052 C 
HETATM    7  C9  UNL     1      60.919  10.334   3.749  1.00  0.00     0.041 A 
HETATM    8 BR1  UNL     1      61.827  11.082   5.269  1.00  0.00    -0.048 Br
HETATM    9  C10 UNL     1      61.602  10.240   2.556  1.00  0.00     0.025 A 
HETATM   10  C11 UNL     1      63.010  10.688   2.393  1.00  0.00     0.069 C 
HETATM   11  N4  UNL     1      60.959   9.713   1.489  1.00  0.00    -0.343 N 
ATOM     12  H4  UNL     1      61.454   9.639   0.601  1.00  0.00     0.167 HD
HETATM   13  C12 UNL     1      59.688   9.285   1.560  1.00  0.00     0.134 A 
HETATM   14  N5  UNL     1      58.859   8.735   0.649  1.00  0.00    -0.330 N 
ATOM     15  H5  UNL     1      59.098   8.546  -0.325  1.00  0.00     0.168 HD
ENDROOT
BRANCH   1  16
HETATM   16  C4  UNL     1      56.434   7.872   0.623  1.00  0.00     0.159 C 
BRANCH  16  17
HETATM   17  S1  UNL     1      55.459   7.032   1.863  1.00  0.00    -0.077 SA
BRANCH  17  18
HETATM   18  C3  UNL     1      54.187   8.061   2.582  1.00  0.00     0.203 A 
HETATM   19  N2  UNL     1      54.349   9.322   3.050  1.00  0.00    -0.272 N 
HETATM   20  N1  UNL     1      53.184   9.752   3.501  1.00  0.00    -0.281 N 
ATOM     21  H2  UNL     1      55.221   9.850   3.054  1.00  0.00     0.189 HD
HETATM   22  C2  UNL     1      52.313   8.774   3.318  1.00  0.00     0.137 A 
ATOM     23  H1  UNL     1      52.993  10.665   3.912  1.00  0.00     0.189 HD
HETATM   24  C1  UNL     1      50.848   8.695   3.636  1.00  0.00     0.099 C 
HETATM   25  O1  UNL     1      52.928   7.753   2.760  1.00  0.00    -0.273 OA
ENDBRANCH  17  18
ENDBRANCH  16  17
ENDBRANCH   1  16
TORSDOF 3
ENDMDL
MODEL 3
REMARK VINA RESULT: -8.453863517      2.110      3.470
REMARK  3 active torsions:
REMARK  status: ('A' for Active; 'I' for Inactive)
REMARK    1  A    between atoms: C3_7  and  S1_8 
REMARK    2  A    between atoms: S1_8  and  C4_9 
REMARK    3  A    between atoms: C4_9  and  C5_10 
ROOT
HETATM    1  C5  UNL     1      56.285   8.583   3.868  1.00  0.00     0.093 A 
HETATM    2  N3  UNL     1      56.802   9.327   4.892  1.00  0.00    -0.342 N 
ATOM      3  H3  UNL     1      56.294   9.581   5.740  1.00  0.00     0.167 HD
HETATM    4  C6  UNL     1      58.071   9.676   4.629  1.00  0.00     0.085 A 
HETATM    5  C7  UNL     1      59.024  10.412   5.329  1.00  0.00    -0.012 A 
HETATM    6  C8  UNL     1      58.690  10.991   6.654  1.00  0.00     0.052 C 
HETATM    7  C9  UNL     1      60.254  10.564   4.729  1.00  0.00     0.041 A 
HETATM    8 BR1  UNL     1      61.619  11.569   5.635  1.00  0.00    -0.048 Br
HETATM    9  C10 UNL     1      60.545  10.022   3.495  1.00  0.00     0.025 A 
HETATM   10  C11 UNL     1      61.868  10.177   2.837  1.00  0.00     0.069 C 
HETATM   11  N4  UNL     1      59.580   9.317   2.862  1.00  0.00    -0.343 N 
ATOM     12  H4  UNL     1      59.785   8.911   1.948  1.00  0.00     0.167 HD
HETATM   13  C12 UNL     1      58.362   9.132   3.395  1.00  0.00     0.134 A 
HETATM   14  N5  UNL     1      57.265   8.479   2.959  1.00  0.00    -0.330 N 
ATOM     15  H5  UNL     1      57.192   7.982   2.071  1.00  0.00     0.168 HD
ENDROOT
BRANCH   1  16
HETATM   16  C4  UNL     1      54.889   8.038   3.843  1.00  0.00     0.159 C 
BRANCH  16  17
HETATM   17  S1  UNL     1      54.188   8.113   2.201  1.00  0.00    -0.077 SA
BRANCH  17  18
HETATM   18  C3  UNL     1      55.088   7.142   1.000  1.00  0.00     0.203 A 
HETATM   19  N2  UNL     1      55.033   7.283  -0.345  1.00  0.00    -0.272 N 
HETATM   20  N1  UNL     1      55.836   6.388  -0.892  1.00  0.00    -0.281 N 
ATOM     21  H2  UNL     1      54.467   7.965  -0.851  1.00  0.00     0.189 HD
HETATM   22  C2  UNL     1      56.380   5.700   0.097  1.00  0.00     0.137 A 
ATOM     23  H1  UNL     1      56.004   6.253  -1.889  1.00  0.00     0.189 HD
HETATM   24  C1  UNL     1      57.364   4.566   0.077  1.00  0.00     0.099 C 
HETATM   25  O1  UNL     1      55.923   6.163   1.242  1.00  0.00    -0.273 OA
ENDBRANCH  17  18
ENDBRANCH  16  17
ENDBRANCH   1  16
TORSDOF 3
ENDMDL
MODEL 4
REMARK VINA RESULT: -8.146122961      2.195      3.642
REMARK  3 active torsions:
REMARK  status: ('A' for Active; 'I' for Inactive)
REMARK    1  A    between atoms: C3_7  and  S1_8 
REMARK    2  A    between atoms: S1_8  and  C4_9 
REMARK    3  A    between atoms: C4_9  and  C5_10 
ROOT
HETATM    1  C5  UNL     1      56.776   9.128   4.728  1.00  0.00     0.093 A 
HETATM    2  N3  UNL     1      57.546   8.978   3.607  1.00  0.00    -0.342 N 
ATOM      3  H3  UNL     1      57.247   8.502   2.756  1.00  0.00     0.167 HD
HETATM    4  C6  UNL     1      58.750   9.542   3.783  1.00  0.00     0.085 A 
HETATM    5  C7  UNL     1      59.875   9.666   2.970  1.00  0.00    -0.012 A 
HETATM    6  C8  UNL     1      59.870   9.094   1.602  1.00  0.00     0.052 C 
HETATM    7  C9  UNL     1      60.955  10.332   3.504  1.00  0.00     0.041 A 
HETATM    8 BR1  UNL     1      62.543  10.542   2.441  1.00  0.00    -0.048 Br
HETATM    9  C10 UNL     1      60.944  10.856   4.779  1.00  0.00     0.025 A 
HETATM   10  C11 UNL     1      62.102  11.578   5.366  1.00  0.00     0.069 C 
HETATM   11  N4  UNL     1      59.824  10.705   5.523  1.00  0.00    -0.343 N 
ATOM     12  H4  UNL     1      59.804  11.088   6.468  1.00  0.00     0.167 HD
HETATM   13  C12 UNL     1      58.738  10.066   5.059  1.00  0.00     0.134 A 
HETATM   14  N5  UNL     1      57.533   9.801   5.606  1.00  0.00    -0.330 N 
ATOM     15  H5  UNL     1      57.243  10.071   6.546  1.00  0.00     0.168 HD
ENDROOT
BRANCH   1  16
HETATM   16  C4  UNL     1      55.377   8.609   4.864  1.00  0.00     0.159 C 
BRANCH  16  17
HETATM   17  S1  UNL     1      54.413   8.939   3.396  1.00  0.00    -0.077 SA
BRANCH  17  18
HETATM   18  C3  UNL     1      55.044   8.125   1.935  1.00  0.00     0.203 A 
HETATM   19  N2  UNL     1      54.937   8.573   0.662  1.00  0.00    -0.272 N 
HETATM   20  N1  UNL     1      55.526   7.702  -0.137  1.00  0.00    -0.281 N 
ATOM     21  H2  UNL     1      54.479   9.437   0.369  1.00  0.00     0.189 HD
HETATM   22  C2  UNL     1      55.990   6.728   0.626  1.00  0.00     0.137 A 
ATOM     23  H1  UNL     1      55.607   7.769  -1.152  1.00  0.00     0.189 HD
HETATM   24  C1  UNL     1      56.743   5.478   0.270  1.00  0.00     0.099 C 
HETATM   25  O1  UNL     1      55.695   6.991   1.881  1.00  0.00    -0.273 OA
ENDBRANCH  17  18
ENDBRANCH  16  17
ENDBRANCH   1  16
TORSDOF 3
ENDMDL
MODEL 5
REMARK VINA RESULT: -8.057782451      1.507      2.673
REMARK  3 active torsions:
REMARK  status: ('A' for Active; 'I' for Inactive)
REMARK    1  A    between atoms: C3_7  and  S1_8 
REMARK    2  A    between atoms: S1_8  and  C4_9 
REMARK    3  A    between atoms: C4_9  and  C5_10 
ROOT
HETATM    1  C5  UNL     1      57.713   8.592   1.755  1.00  0.00     0.093 A 
HETATM    2  N3  UNL     1      59.023   8.976   1.830  1.00  0.00    -0.342 N 
ATOM      3  H3  UNL     1      59.712   8.839   1.091  1.00  0.00     0.167 HD
HETATM    4  C6  UNL     1      59.277   9.559   3.011  1.00  0.00     0.085 A 
HETATM    5  C7  UNL     1      60.423  10.115   3.576  1.00  0.00    -0.012 A 
HETATM    6  C8  UNL     1      61.697  10.122   2.816  1.00  0.00     0.052 C 
HETATM    7  C9  UNL     1      60.299  10.637   4.844  1.00  0.00     0.041 A 
HETATM    8 BR1  UNL     1      61.839  11.420   5.687  1.00  0.00    -0.048 Br
HETATM    9  C10 UNL     1      59.108  10.619   5.536  1.00  0.00     0.025 A 
HETATM   10  C11 UNL     1      58.960  11.181   6.904  1.00  0.00     0.069 C 
HETATM   11  N4  UNL     1      58.028  10.066   4.939  1.00  0.00    -0.343 N 
ATOM     12  H4  UNL     1      57.141  10.047   5.442  1.00  0.00     0.167 HD
HETATM   13  C12 UNL     1      58.084   9.541   3.704  1.00  0.00     0.134 A 
HETATM   14  N5  UNL     1      57.157   8.950   2.921  1.00  0.00    -0.330 N 
ATOM     15  H5  UNL     1      56.182   8.799   3.179  1.00  0.00     0.168 HD
ENDROOT
BRANCH   1  16
HETATM   16  C4  UNL     1      57.102   7.906   0.570  1.00  0.00     0.159 C 
BRANCH  16  17
HETATM   17  S1  UNL     1      55.919   6.664   1.073  1.00  0.00    -0.077 SA
BRANCH  17  18
HETATM   18  C3  UNL     1      54.351   7.346   1.591  1.00  0.00     0.203 A 
HETATM   19  N2  UNL     1      53.147   7.108   1.018  1.00  0.00    -0.272 N 
HETATM   20  N1  UNL     1      52.229   7.788   1.680  1.00  0.00    -0.281 N 
ATOM     21  H2  UNL     1      52.979   6.506   0.212  1.00  0.00     0.189 HD
HETATM   22  C2  UNL     1      52.850   8.439   2.648  1.00  0.00     0.137 A 
ATOM     23  H1  UNL     1      51.228   7.806   1.482  1.00  0.00     0.189 HD
HETATM   24  C1  UNL     1      52.319   9.362   3.707  1.00  0.00     0.099 C 
HETATM   25  O1  UNL     1      54.137   8.166   2.589  1.00  0.00    -0.273 OA
ENDBRANCH  17  18
ENDBRANCH  16  17
ENDBRANCH   1  16
TORSDOF 3
ENDMDL
