MODEL 1
REMARK VINA RESULT: -6.223705784      0.000      0.000
REMARK  16 active torsions:
REMARK  status: ('A' for Active; 'I' for Inactive)
REMARK    1  A    between atoms: N1_1  and  N2_4 
REMARK    2  A    between atoms: N2_4  and  S1_6 
REMARK    3  A    between atoms: S1_6  and  O3_9 
REMARK    4  A    between atoms: O3_9  and  C1_10 
REMARK    5  A    between atoms: N3_13  and  C3_14 
REMARK    6  A    between atoms: C3_14  and  C4_15 
REMARK    7  A    between atoms: N4_17  and  C6_18 
REMARK    8  A    between atoms: C6_18  and  C7_19 
REMARK    9  A    between atoms: C7_19  and  N5_20 
REMARK   10  A    between atoms: N5_20  and  C8_22 
REMARK   11  A    between atoms: C11_29  and  N8_30 
REMARK   12  A    between atoms: N8_30  and  C12_32 
REMARK   13  A    between atoms: C12_32  and  C13_33 
REMARK   14  A    between atoms: C13_33  and  O5_34 
REMARK   15  A    between atoms: C14_41  and  C15_42 
REMARK   16  A    between atoms: C15_42  and  O7_43 
ROOT
HETATM    1  C4  UNL     1      -7.162   5.052   0.808  1.00  0.00     0.064 A 
HETATM    2  C5  UNL     1      -8.500   4.656   0.735  1.00  0.00     0.140 A 
HETATM    3  N4  UNL     1      -8.813   4.453  -0.576  1.00  0.00    -0.286 N 
HETATM    4  N9  UNL     1      -7.722   4.715  -1.246  1.00  0.00    -0.241 N 
ATOM      5  H9  UNL     1      -7.648   4.652  -2.261  1.00  0.00     0.208 HD
HETATM    6  N10 UNL     1      -6.736   5.069  -0.460  1.00  0.00    -0.287 N 
ATOM      7  H10 UNL     1      -5.795   5.318  -0.765  1.00  0.00     0.188 HD
ENDROOT
BRANCH   1   8
HETATM    8  C3  UNL     1      -6.402   5.379   2.032  1.00  0.00     0.219 C 
BRANCH   8   9
HETATM    9  N3  UNL     1      -5.795   4.213   2.645  1.00  0.00    -0.217 N 
HETATM   10  C2  UNL     1      -5.784   3.891   4.038  1.00  0.00     0.277 C 
HETATM   11  C1  UNL     1      -5.217   2.483   4.054  1.00  0.00     0.271 C 
HETATM   12  O4  UNL     1      -6.147   4.587   4.996  1.00  0.00    -0.268 OA
HETATM   13  C14 UNL     1      -4.312   2.656   2.854  1.00  0.00     0.215 C 
HETATM   14  O6  UNL     1      -5.141   3.257   1.944  1.00  0.00    -0.264 OA
BRANCH  11  15
HETATM   15  O3  UNL     1      -6.294   1.681   3.838  1.00  0.00    -0.240 OA
BRANCH  15  16
HETATM   16  S1  UNL     1      -6.103   0.075   4.080  1.00  0.00     0.375 S 
HETATM   17  O1  UNL     1      -5.584  -0.671   2.884  1.00  0.00    -0.174 OA
HETATM   18  O2  UNL     1      -7.487  -0.517   4.335  1.00  0.00    -0.174 OA
BRANCH  16  19
HETATM   19  N2  UNL     1      -5.176  -0.311   5.499  1.00  0.00    -0.211 N 
ATOM     20  H2  UNL     1      -5.546  -0.290   6.449  1.00  0.00     0.201 HD
BRANCH  19  21
HETATM   21  N1  UNL     1      -3.867  -0.651   5.177  1.00  0.00    -0.334 N 
ATOM     22  H12 UNL     1      -3.284  -0.103   4.545  1.00  0.00     0.177 HD
ATOM     23  H11 UNL     1      -3.574  -1.506   5.649  1.00  0.00     0.177 HD
ENDBRANCH  19  21
ENDBRANCH  16  19
ENDBRANCH  15  16
ENDBRANCH  11  15
BRANCH  13  24
HETATM   24  C15 UNL     1      -3.235   3.676   3.237  1.00  0.00     0.201 C 
BRANCH  24  25
HETATM   25  O7  UNL     1      -2.427   3.891   2.136  1.00  0.00    -0.398 OA
ATOM     26  H7  UNL     1      -2.463   4.813   1.913  1.00  0.00     0.209 HD
ENDBRANCH  24  25
ENDBRANCH  13  24
ENDBRANCH   8   9
ENDBRANCH   1   8
BRANCH   3  27
HETATM   27  C6  UNL     1     -10.082   4.034  -1.134  1.00  0.00     0.169 C 
BRANCH  27  28
HETATM   28  C7  UNL     1      -9.899   2.666  -1.761  1.00  0.00     0.143 C 
BRANCH  28  29
HETATM   29  N5  UNL     1     -10.287   1.614  -0.898  1.00  0.00    -0.372 N 
ATOM     30  H5  UNL     1     -10.618   0.764  -1.356  1.00  0.00     0.161 HD
BRANCH  29  31
HETATM   31  C8  UNL     1     -10.278   1.588   0.368  1.00  0.00     0.145 A 
HETATM   32  N6  UNL     1     -11.315   1.994   1.122  1.00  0.00    -0.348 N 
HETATM   33  C9  UNL     1     -11.301   1.968   2.477  1.00  0.00     0.107 A 
ATOM     34  H6  UNL     1     -12.153   2.337   0.652  1.00  0.00     0.167 HD
HETATM   35  C10 UNL     1     -10.185   1.511   3.102  1.00  0.00     0.107 A 
HETATM   36  N7  UNL     1      -9.129   1.097   2.401  1.00  0.00    -0.348 N 
HETATM   37  C11 UNL     1      -9.144   1.123   1.044  1.00  0.00     0.145 A 
ATOM     38  H7  UNL     1      -8.301   0.758   2.891  1.00  0.00     0.167 HD
BRANCH  37  39
HETATM   39  N8  UNL     1      -8.110   0.715   0.442  1.00  0.00    -0.371 N 
ATOM     40  H8  UNL     1      -8.225  -0.189  -0.015  1.00  0.00     0.161 HD
BRANCH  39  41
HETATM   41  C12 UNL     1      -6.828   1.277   0.287  1.00  0.00     0.147 C 
BRANCH  41  42
HETATM   42  C13 UNL     1      -6.507   1.315  -1.209  1.00  0.00     0.183 C 
BRANCH  42  43
HETATM   43  O5  UNL     1      -5.761   2.445  -1.512  1.00  0.00    -0.399 OA
ATOM     44  H5  UNL     1      -5.348   2.349  -2.362  1.00  0.00     0.209 HD
ENDBRANCH  42  43
ENDBRANCH  41  42
ENDBRANCH  39  41
ENDBRANCH  37  39
ENDBRANCH  29  31
ENDBRANCH  28  29
ENDBRANCH  27  28
ENDBRANCH   3  27
TORSDOF 16
ENDMDL
MODEL 2
REMARK VINA RESULT: -5.975472919      1.965      2.741
REMARK  16 active torsions:
REMARK  status: ('A' for Active; 'I' for Inactive)
REMARK    1  A    between atoms: N1_1  and  N2_4 
REMARK    2  A    between atoms: N2_4  and  S1_6 
REMARK    3  A    between atoms: S1_6  and  O3_9 
REMARK    4  A    between atoms: O3_9  and  C1_10 
REMARK    5  A    between atoms: N3_13  and  C3_14 
REMARK    6  A    between atoms: C3_14  and  C4_15 
REMARK    7  A    between atoms: N4_17  and  C6_18 
REMARK    8  A    between atoms: C6_18  and  C7_19 
REMARK    9  A    between atoms: C7_19  and  N5_20 
REMARK   10  A    between atoms: N5_20  and  C8_22 
REMARK   11  A    between atoms: C11_29  and  N8_30 
REMARK   12  A    between atoms: N8_30  and  C12_32 
REMARK   13  A    between atoms: C12_32  and  C13_33 
REMARK   14  A    between atoms: C13_33  and  O5_34 
REMARK   15  A    between atoms: C14_41  and  C15_42 
REMARK   16  A    between atoms: C15_42  and  O7_43 
ROOT
HETATM    1  C4  UNL     1      -6.190   3.798   0.867  1.00  0.00     0.064 A 
HETATM    2  C5  UNL     1      -7.278   4.382   0.212  1.00  0.00     0.140 A 
HETATM    3  N4  UNL     1      -7.518   3.674  -0.928  1.00  0.00    -0.286 N 
HETATM    4  N9  UNL     1      -6.621   2.723  -0.952  1.00  0.00    -0.241 N 
ATOM      5  H9  UNL     1      -6.548   2.027  -1.693  1.00  0.00     0.208 HD
HETATM    6  N10 UNL     1      -5.828   2.771   0.090  1.00  0.00    -0.287 N 
ATOM      7  H10 UNL     1      -5.058   2.129   0.278  1.00  0.00     0.188 HD
ENDROOT
BRANCH   1   8
HETATM    8  C3  UNL     1      -5.584   4.239   2.140  1.00  0.00     0.219 C 
BRANCH   8   9
HETATM    9  N3  UNL     1      -5.086   3.135   2.938  1.00  0.00    -0.217 N 
HETATM   10  C2  UNL     1      -5.800   2.426   3.953  1.00  0.00     0.277 C 
HETATM   11  C1  UNL     1      -4.875   1.266   4.271  1.00  0.00     0.271 C 
HETATM   12  O4  UNL     1      -6.903   2.692   4.451  1.00  0.00    -0.268 OA
HETATM   13  C14 UNL     1      -3.583   2.009   4.008  1.00  0.00     0.215 C 
HETATM   14  O6  UNL     1      -3.838   2.627   2.810  1.00  0.00    -0.264 OA
BRANCH  11  15
HETATM   15  O3  UNL     1      -5.182   0.322   3.342  1.00  0.00    -0.240 OA
BRANCH  15  16
HETATM   16  S1  UNL     1      -5.787  -1.100   3.878  1.00  0.00     0.375 S 
HETATM   17  O1  UNL     1      -5.342  -1.476   5.262  1.00  0.00    -0.174 OA
HETATM   18  O2  UNL     1      -5.230  -2.202   2.979  1.00  0.00    -0.174 OA
BRANCH  16  19
HETATM   19  N2  UNL     1      -7.515  -1.223   3.730  1.00  0.00    -0.211 N 
ATOM     20  H2  UNL     1      -7.995  -1.951   3.200  1.00  0.00     0.201 HD
BRANCH  19  21
HETATM   21  N1  UNL     1      -8.160  -0.205   4.421  1.00  0.00    -0.334 N 
ATOM     22  H12 UNL     1      -7.741   0.294   5.206  1.00  0.00     0.177 HD
ATOM     23  H11 UNL     1      -9.092  -0.029   4.046  1.00  0.00     0.177 HD
ENDBRANCH  19  21
ENDBRANCH  16  19
ENDBRANCH  15  16
ENDBRANCH  11  15
BRANCH  13  24
HETATM   24  C15 UNL     1      -3.461   3.105   5.071  1.00  0.00     0.201 C 
BRANCH  24  25
HETATM   25  O7  UNL     1      -2.137   3.189   5.460  1.00  0.00    -0.398 OA
ATOM     26  H7  UNL     1      -2.060   3.872   6.116  1.00  0.00     0.209 HD
ENDBRANCH  24  25
ENDBRANCH  13  24
ENDBRANCH   8   9
ENDBRANCH   1   8
BRANCH   3  27
HETATM   27  C6  UNL     1      -8.545   3.907  -1.921  1.00  0.00     0.169 C 
BRANCH  27  28
HETATM   28  C7  UNL     1      -9.418   2.669  -2.005  1.00  0.00     0.143 C 
BRANCH  28  29
HETATM   29  N5  UNL     1     -10.734   2.898  -1.538  1.00  0.00    -0.372 N 
ATOM     30  H5  UNL     1     -11.451   2.277  -1.915  1.00  0.00     0.161 HD
BRANCH  29  31
HETATM   31  C8  UNL     1     -11.139   3.770  -0.715  1.00  0.00     0.145 A 
HETATM   32  N6  UNL     1     -11.586   4.983  -1.085  1.00  0.00    -0.348 N 
HETATM   33  C9  UNL     1     -12.016   5.916  -0.200  1.00  0.00     0.107 A 
ATOM     34  H6  UNL     1     -11.603   5.212  -2.078  1.00  0.00     0.167 HD
HETATM   35  C10 UNL     1     -11.992   5.610   1.123  1.00  0.00     0.107 A 
HETATM   36  N7  UNL     1     -11.558   4.422   1.543  1.00  0.00    -0.348 N 
HETATM   37  C11 UNL     1     -11.128   3.487   0.656  1.00  0.00     0.145 A 
ATOM     38  H7  UNL     1     -11.549   4.213   2.541  1.00  0.00     0.167 HD
BRANCH  37  39
HETATM   39  N8  UNL     1     -10.731   2.382   1.122  1.00  0.00    -0.371 N 
ATOM     40  H8  UNL     1     -11.380   1.610   0.971  1.00  0.00     0.161 HD
BRANCH  39  41
HETATM   41  C12 UNL     1      -9.559   2.018   1.813  1.00  0.00     0.147 C 
BRANCH  41  42
HETATM   42  C13 UNL     1      -8.927   0.833   1.079  1.00  0.00     0.183 C 
BRANCH  42  43
HETATM   43  O5  UNL     1      -7.584   0.721   1.411  1.00  0.00    -0.399 OA
ATOM     44  H5  UNL     1      -7.359  -0.186   1.576  1.00  0.00     0.209 HD
ENDBRANCH  42  43
ENDBRANCH  41  42
ENDBRANCH  39  41
ENDBRANCH  37  39
ENDBRANCH  29  31
ENDBRANCH  28  29
ENDBRANCH  27  28
ENDBRANCH   3  27
TORSDOF 16
ENDMDL
MODEL 3
REMARK VINA RESULT: -5.965439739      2.164      4.422
REMARK  16 active torsions:
REMARK  status: ('A' for Active; 'I' for Inactive)
REMARK    1  A    between atoms: N1_1  and  N2_4 
REMARK    2  A    between atoms: N2_4  and  S1_6 
REMARK    3  A    between atoms: S1_6  and  O3_9 
REMARK    4  A    between atoms: O3_9  and  C1_10 
REMARK    5  A    between atoms: N3_13  and  C3_14 
REMARK    6  A    between atoms: C3_14  and  C4_15 
REMARK    7  A    between atoms: N4_17  and  C6_18 
REMARK    8  A    between atoms: C6_18  and  C7_19 
REMARK    9  A    between atoms: C7_19  and  N5_20 
REMARK   10  A    between atoms: N5_20  and  C8_22 
REMARK   11  A    between atoms: C11_29  and  N8_30 
REMARK   12  A    between atoms: N8_30  and  C12_32 
REMARK   13  A    between atoms: C12_32  and  C13_33 
REMARK   14  A    between atoms: C13_33  and  O5_34 
REMARK   15  A    between atoms: C14_41  and  C15_42 
REMARK   16  A    between atoms: C15_42  and  O7_43 
ROOT
HETATM    1  C4  UNL     1      -8.862   0.418   3.467  1.00  0.00     0.064 A 
HETATM    2  C5  UNL     1      -9.413   1.692   3.302  1.00  0.00     0.140 A 
HETATM    3  N4  UNL     1     -10.037   1.731   2.090  1.00  0.00    -0.286 N 
HETATM    4  N9  UNL     1      -9.865   0.548   1.563  1.00  0.00    -0.241 N 
ATOM      5  H9  UNL     1     -10.223   0.274   0.648  1.00  0.00     0.208 HD
HETATM    6  N10 UNL     1      -9.180  -0.245   2.349  1.00  0.00    -0.287 N 
ATOM      7  H10 UNL     1      -8.928  -1.211   2.143  1.00  0.00     0.188 HD
ENDROOT
BRANCH   1   8
HETATM    8  C3  UNL     1      -8.096  -0.069   4.633  1.00  0.00     0.219 C 
BRANCH   8   9
HETATM    9  N3  UNL     1      -6.723   0.398   4.638  1.00  0.00    -0.217 N 
HETATM   10  C2  UNL     1      -5.809   0.369   3.539  1.00  0.00     0.277 C 
HETATM   11  C1  UNL     1      -4.631   1.173   4.058  1.00  0.00     0.271 C 
HETATM   12  O4  UNL     1      -5.944  -0.177   2.435  1.00  0.00    -0.268 OA
HETATM   13  C14 UNL     1      -4.779   0.766   5.507  1.00  0.00     0.215 C 
HETATM   14  O6  UNL     1      -6.122   0.936   5.725  1.00  0.00    -0.264 OA
BRANCH  11  15
HETATM   15  O3  UNL     1      -4.962   2.467   3.798  1.00  0.00    -0.240 OA
BRANCH  15  16
HETATM   16  S1  UNL     1      -3.747   3.559   3.725  1.00  0.00     0.375 S 
HETATM   17  O1  UNL     1      -2.596   3.263   4.642  1.00  0.00    -0.174 OA
HETATM   18  O2  UNL     1      -4.302   4.894   4.216  1.00  0.00    -0.174 OA
BRANCH  16  19
HETATM   19  N2  UNL     1      -3.185   3.869   2.109  1.00  0.00    -0.211 N 
ATOM     20  H2  UNL     1      -3.798   4.020   1.307  1.00  0.00     0.201 HD
BRANCH  19  21
HETATM   21  N1  UNL     1      -1.797   3.885   2.045  1.00  0.00    -0.334 N 
ATOM     22  H12 UNL     1      -1.200   3.322   2.652  1.00  0.00     0.177 HD
ATOM     23  H11 UNL     1      -1.461   4.524   1.324  1.00  0.00     0.177 HD
ENDBRANCH  19  21
ENDBRANCH  16  19
ENDBRANCH  15  16
ENDBRANCH  11  15
BRANCH  13  24
HETATM   24  C15 UNL     1      -4.488  -0.735   5.593  1.00  0.00     0.201 C 
BRANCH  24  25
HETATM   25  O7  UNL     1      -3.139  -0.905   5.841  1.00  0.00    -0.398 OA
ATOM     26  H7  UNL     1      -2.662  -0.726   5.040  1.00  0.00     0.209 HD
ENDBRANCH  24  25
ENDBRANCH  13  24
ENDBRANCH   8   9
ENDBRANCH   1   8
BRANCH   3  27
HETATM   27  C6  UNL     1     -10.747   2.841   1.491  1.00  0.00     0.169 C 
BRANCH  27  28
HETATM   28  C7  UNL     1     -10.297   2.973   0.048  1.00  0.00     0.143 C 
BRANCH  28  29
HETATM   29  N5  UNL     1      -9.028   3.587  -0.073  1.00  0.00    -0.372 N 
ATOM     30  H5  UNL     1      -8.512   3.372  -0.927  1.00  0.00     0.161 HD
BRANCH  29  31
HETATM   31  C8  UNL     1      -8.448   4.367   0.738  1.00  0.00     0.145 A 
HETATM   32  N6  UNL     1      -8.912   5.592   1.043  1.00  0.00    -0.348 N 
HETATM   33  C9  UNL     1      -8.286   6.426   1.910  1.00  0.00     0.107 A 
ATOM     34  H6  UNL     1      -9.775   5.908   0.601  1.00  0.00     0.167 HD
HETATM   35  C10 UNL     1      -7.138   6.004   2.497  1.00  0.00     0.107 A 
HETATM   36  N7  UNL     1      -6.636   4.798   2.230  1.00  0.00    -0.348 N 
HETATM   37  C11 UNL     1      -7.262   3.962   1.361  1.00  0.00     0.145 A 
ATOM     38  H7  UNL     1      -5.771   4.501   2.682  1.00  0.00     0.167 HD
BRANCH  37  39
HETATM   39  N8  UNL     1      -6.732   2.834   1.154  1.00  0.00    -0.371 N 
ATOM     40  H8  UNL     1      -7.032   2.108   1.806  1.00  0.00     0.161 HD
BRANCH  39  41
HETATM   41  C12 UNL     1      -5.803   2.393   0.192  1.00  0.00     0.147 C 
BRANCH  41  42
HETATM   42  C13 UNL     1      -6.488   1.331  -0.673  1.00  0.00     0.183 C 
BRANCH  42  43
HETATM   43  O5  UNL     1      -7.526   0.735   0.028  1.00  0.00    -0.399 OA
ATOM     44  H5  UNL     1      -7.826  -0.044  -0.426  1.00  0.00     0.209 HD
ENDBRANCH  42  43
ENDBRANCH  41  42
ENDBRANCH  39  41
ENDBRANCH  37  39
ENDBRANCH  29  31
ENDBRANCH  28  29
ENDBRANCH  27  28
ENDBRANCH   3  27
TORSDOF 16
ENDMDL
MODEL 4
REMARK VINA RESULT: -5.960823932      2.313      3.291
REMARK  16 active torsions:
REMARK  status: ('A' for Active; 'I' for Inactive)
REMARK    1  A    between atoms: N1_1  and  N2_4 
REMARK    2  A    between atoms: N2_4  and  S1_6 
REMARK    3  A    between atoms: S1_6  and  O3_9 
REMARK    4  A    between atoms: O3_9  and  C1_10 
REMARK    5  A    between atoms: N3_13  and  C3_14 
REMARK    6  A    between atoms: C3_14  and  C4_15 
REMARK    7  A    between atoms: N4_17  and  C6_18 
REMARK    8  A    between atoms: C6_18  and  C7_19 
REMARK    9  A    between atoms: C7_19  and  N5_20 
REMARK   10  A    between atoms: N5_20  and  C8_22 
REMARK   11  A    between atoms: C11_29  and  N8_30 
REMARK   12  A    between atoms: N8_30  and  C12_32 
REMARK   13  A    between atoms: C12_32  and  C13_33 
REMARK   14  A    between atoms: C13_33  and  O5_34 
REMARK   15  A    between atoms: C14_41  and  C15_42 
REMARK   16  A    between atoms: C15_42  and  O7_43 
ROOT
HETATM    1  C4  UNL     1      -5.699   3.658   0.876  1.00  0.00     0.064 A 
HETATM    2  C5  UNL     1      -6.437   2.492   0.655  1.00  0.00     0.140 A 
HETATM    3  N4  UNL     1      -6.812   2.468  -0.655  1.00  0.00    -0.286 N 
HETATM    4  N9  UNL     1      -6.327   3.561  -1.184  1.00  0.00    -0.241 N 
ATOM      5  H9  UNL     1      -6.448   3.823  -2.162  1.00  0.00     0.208 HD
HETATM    6  N10 UNL     1      -5.669   4.279  -0.309  1.00  0.00    -0.287 N 
ATOM      7  H10 UNL     1      -5.207   5.168  -0.500  1.00  0.00     0.188 HD
ENDROOT
BRANCH   1   8
HETATM    8  C3  UNL     1      -5.095   4.094   2.152  1.00  0.00     0.219 C 
BRANCH   8   9
HETATM    9  N3  UNL     1      -4.758   2.983   3.022  1.00  0.00    -0.217 N 
HETATM   10  C2  UNL     1      -5.633   2.321   3.938  1.00  0.00     0.277 C 
HETATM   11  C1  UNL     1      -4.810   1.129   4.390  1.00  0.00     0.271 C 
HETATM   12  O4  UNL     1      -6.780   2.641   4.278  1.00  0.00    -0.268 OA
HETATM   13  C14 UNL     1      -3.464   1.813   4.298  1.00  0.00     0.215 C 
HETATM   14  O6  UNL     1      -3.527   2.421   3.070  1.00  0.00    -0.264 OA
BRANCH  11  15
HETATM   15  O3  UNL     1      -5.030   0.183   3.438  1.00  0.00    -0.240 OA
BRANCH  15  16
HETATM   16  S1  UNL     1      -5.744  -1.212   3.907  1.00  0.00     0.375 S 
HETATM   17  O1  UNL     1      -5.364  -1.665   5.287  1.00  0.00    -0.174 OA
HETATM   18  O2  UNL     1      -5.237  -2.317   2.983  1.00  0.00    -0.174 OA
BRANCH  16  19
HETATM   19  N2  UNL     1      -7.471  -1.211   3.709  1.00  0.00    -0.211 N 
ATOM     20  H2  UNL     1      -7.945  -1.194   2.805  1.00  0.00     0.201 HD
BRANCH  19  21
HETATM   21  N1  UNL     1      -8.125  -1.237   4.935  1.00  0.00    -0.334 N 
ATOM     22  H12 UNL     1      -9.034  -0.802   5.095  1.00  0.00     0.177 HD
ATOM     23  H11 UNL     1      -7.584  -1.739   5.639  1.00  0.00     0.177 HD
ENDBRANCH  19  21
ENDBRANCH  16  19
ENDBRANCH  15  16
ENDBRANCH  11  15
BRANCH  13  24
HETATM   24  C15 UNL     1      -3.439   2.920   5.356  1.00  0.00     0.201 C 
BRANCH  24  25
HETATM   25  O7  UNL     1      -2.150   3.411   5.445  1.00  0.00    -0.398 OA
ATOM     26  H7  UNL     1      -1.951   3.880   4.643  1.00  0.00     0.209 HD
ENDBRANCH  24  25
ENDBRANCH  13  24
ENDBRANCH   8   9
ENDBRANCH   1   8
BRANCH   3  27
HETATM   27  C6  UNL     1      -7.587   1.455  -1.341  1.00  0.00     0.169 C 
BRANCH  27  28
HETATM   28  C7  UNL     1      -8.912   2.067  -1.755  1.00  0.00     0.143 C 
BRANCH  28  29
HETATM   29  N5  UNL     1      -9.616   2.633  -0.666  1.00  0.00    -0.372 N 
ATOM     30  H5  UNL     1      -9.396   2.245   0.252  1.00  0.00     0.161 HD
BRANCH  29  31
HETATM   31  C8  UNL     1     -10.482   3.556  -0.680  1.00  0.00     0.145 A 
HETATM   32  N6  UNL     1     -11.691   3.425  -1.251  1.00  0.00    -0.348 N 
HETATM   33  C9  UNL     1     -12.615   4.418  -1.267  1.00  0.00     0.107 A 
ATOM     34  H6  UNL     1     -11.926   2.537  -1.694  1.00  0.00     0.167 HD
HETATM   35  C10 UNL     1     -12.302   5.600  -0.677  1.00  0.00     0.107 A 
HETATM   36  N7  UNL     1     -11.116   5.782  -0.097  1.00  0.00    -0.348 N 
HETATM   37  C11 UNL     1     -10.191   4.788  -0.081  1.00  0.00     0.145 A 
ATOM     38  H7  UNL     1     -10.901   6.678   0.340  1.00  0.00     0.167 HD
BRANCH  37  39
HETATM   39  N8  UNL     1      -9.088   5.028   0.488  1.00  0.00    -0.371 N 
ATOM     40  H8  UNL     1      -8.292   5.065  -0.149  1.00  0.00     0.161 HD
BRANCH  39  41
HETATM   41  C12 UNL     1      -8.754   5.253   1.837  1.00  0.00     0.147 C 
BRANCH  41  42
HETATM   42  C13 UNL     1      -7.997   6.580   1.921  1.00  0.00     0.183 C 
BRANCH  42  43
HETATM   43  O5  UNL     1      -7.208   6.758   0.793  1.00  0.00    -0.399 OA
ATOM     44  H5  UNL     1      -6.289   6.691   1.020  1.00  0.00     0.209 HD
ENDBRANCH  42  43
ENDBRANCH  41  42
ENDBRANCH  39  41
ENDBRANCH  37  39
ENDBRANCH  29  31
ENDBRANCH  28  29
ENDBRANCH  27  28
ENDBRANCH   3  27
TORSDOF 16
ENDMDL
MODEL 5
REMARK VINA RESULT: -5.957501613      1.987      4.277
REMARK  16 active torsions:
REMARK  status: ('A' for Active; 'I' for Inactive)
REMARK    1  A    between atoms: N1_1  and  N2_4 
REMARK    2  A    between atoms: N2_4  and  S1_6 
REMARK    3  A    between atoms: S1_6  and  O3_9 
REMARK    4  A    between atoms: O3_9  and  C1_10 
REMARK    5  A    between atoms: N3_13  and  C3_14 
REMARK    6  A    between atoms: C3_14  and  C4_15 
REMARK    7  A    between atoms: N4_17  and  C6_18 
REMARK    8  A    between atoms: C6_18  and  C7_19 
REMARK    9  A    between atoms: C7_19  and  N5_20 
REMARK   10  A    between atoms: N5_20  and  C8_22 
REMARK   11  A    between atoms: C11_29  and  N8_30 
REMARK   12  A    between atoms: N8_30  and  C12_32 
REMARK   13  A    between atoms: C12_32  and  C13_33 
REMARK   14  A    between atoms: C13_33  and  O5_34 
REMARK   15  A    between atoms: C14_41  and  C15_42 
REMARK   16  A    between atoms: C15_42  and  O7_43 
ROOT
HETATM    1  C4  UNL     1      -9.110   1.124   2.183  1.00  0.00     0.064 A 
HETATM    2  C5  UNL     1      -8.757   1.183   0.832  1.00  0.00     0.140 A 
HETATM    3  N4  UNL     1      -9.471   2.187   0.249  1.00  0.00    -0.286 N 
HETATM    4  N9  UNL     1     -10.210   2.696   1.200  1.00  0.00    -0.241 N 
ATOM      5  H9  UNL     1     -10.859   3.471   1.064  1.00  0.00     0.208 HD
HETATM    6  N10 UNL     1     -10.018   2.092   2.346  1.00  0.00    -0.287 N 
ATOM      7  H10 UNL     1     -10.486   2.323   3.222  1.00  0.00     0.188 HD
ENDROOT
BRANCH   1   8
HETATM    8  C3  UNL     1      -8.582   0.185   3.194  1.00  0.00     0.219 C 
BRANCH   8   9
HETATM    9  N3  UNL     1      -7.352   0.651   3.806  1.00  0.00    -0.217 N 
HETATM   10  C2  UNL     1      -6.030   0.187   3.522  1.00  0.00     0.277 C 
HETATM   11  C1  UNL     1      -5.157   1.169   4.280  1.00  0.00     0.271 C 
HETATM   12  O4  UNL     1      -5.682  -0.779   2.828  1.00  0.00    -0.268 OA
HETATM   13  C14 UNL     1      -6.127   1.410   5.416  1.00  0.00     0.215 C 
HETATM   14  O6  UNL     1      -7.309   1.616   4.754  1.00  0.00    -0.264 OA
BRANCH  11  15
HETATM   15  O3  UNL     1      -5.011   2.221   3.430  1.00  0.00    -0.240 OA
BRANCH  15  16
HETATM   16  S1  UNL     1      -3.745   3.226   3.678  1.00  0.00     0.375 S 
HETATM   17  O1  UNL     1      -4.049   4.390   4.576  1.00  0.00    -0.174 OA
HETATM   18  O2  UNL     1      -3.391   3.855   2.332  1.00  0.00    -0.174 OA
BRANCH  16  19
HETATM   19  N2  UNL     1      -2.298   2.410   4.191  1.00  0.00    -0.211 N 
ATOM     20  H2  UNL     1      -2.248   1.778   4.991  1.00  0.00     0.201 HD
BRANCH  19  21
HETATM   21  N1  UNL     1      -1.217   2.726   3.376  1.00  0.00    -0.334 N 
ATOM     22  H12 UNL     1      -1.189   2.522   2.377  1.00  0.00     0.177 HD
ATOM     23  H11 UNL     1      -0.471   3.181   3.902  1.00  0.00     0.177 HD
ENDBRANCH  19  21
ENDBRANCH  16  19
ENDBRANCH  15  16
ENDBRANCH  11  15
BRANCH  13  24
HETATM   24  C15 UNL     1      -6.259   0.095   6.190  1.00  0.00     0.201 C 
BRANCH  24  25
HETATM   25  O7  UNL     1      -7.134   0.294   7.242  1.00  0.00    -0.398 OA
ATOM     26  H7  UNL     1      -7.568  -0.528   7.431  1.00  0.00     0.209 HD
ENDBRANCH  24  25
ENDBRANCH  13  24
ENDBRANCH   8   9
ENDBRANCH   1   8
BRANCH   3  27
HETATM   27  C6  UNL     1      -9.437   2.617  -1.133  1.00  0.00     0.169 C 
BRANCH  27  28
HETATM   28  C7  UNL     1      -9.341   4.131  -1.159  1.00  0.00     0.143 C 
BRANCH  28  29
HETATM   29  N5  UNL     1      -8.088   4.605  -0.703  1.00  0.00    -0.372 N 
ATOM     30  H5  UNL     1      -7.348   4.645  -1.405  1.00  0.00     0.161 HD
BRANCH  29  31
HETATM   31  C8  UNL     1      -7.765   4.987   0.460  1.00  0.00     0.145 A 
HETATM   32  N6  UNL     1      -8.502   5.845   1.187  1.00  0.00    -0.348 N 
HETATM   33  C9  UNL     1      -8.150   6.254   2.431  1.00  0.00     0.107 A 
ATOM     34  H6  UNL     1      -9.367   6.204   0.784  1.00  0.00     0.167 HD
HETATM   35  C10 UNL     1      -6.999   5.774   2.966  1.00  0.00     0.107 A 
HETATM   36  N7  UNL     1      -6.231   4.922   2.287  1.00  0.00    -0.348 N 
HETATM   37  C11 UNL     1      -6.583   4.512   1.041  1.00  0.00     0.145 A 
ATOM     38  H7  UNL     1      -5.370   4.574   2.708  1.00  0.00     0.167 HD
BRANCH  37  39
HETATM   39  N8  UNL     1      -5.811   3.702   0.454  1.00  0.00    -0.371 N 
ATOM     40  H8  UNL     1      -5.026   4.148  -0.021  1.00  0.00     0.161 HD
BRANCH  39  41
HETATM   41  C12 UNL     1      -5.832   2.299   0.335  1.00  0.00     0.147 C 
BRANCH  41  42
HETATM   42  C13 UNL     1      -5.772   1.951  -1.154  1.00  0.00     0.183 C 
BRANCH  42  43
HETATM   43  O5  UNL     1      -5.690   3.107  -1.917  1.00  0.00    -0.399 OA
ATOM     44  H5  UNL     1      -6.398   3.136  -2.549  1.00  0.00     0.209 HD
ENDBRANCH  42  43
ENDBRANCH  41  42
ENDBRANCH  39  41
ENDBRANCH  37  39
ENDBRANCH  29  31
ENDBRANCH  28  29
ENDBRANCH  27  28
ENDBRANCH   3  27
TORSDOF 16
ENDMDL
