MODEL 1
REMARK VINA RESULT: -7.028716687      0.000      0.000
REMARK  12 active torsions:
REMARK  status: ('A' for Active; 'I' for Inactive)
REMARK    1  A    between atoms: N1_1  and  N2_4 
REMARK    2  A    between atoms: N2_4  and  C1_5 
REMARK    3  A    between atoms: N3_10  and  C3_11 
REMARK    4  A    between atoms: N7_18  and  O3_19 
REMARK    5  A    between atoms: O3_19  and  C5_20 
REMARK    6  A    between atoms: C5_20  and  C6_21 
REMARK    7  A    between atoms: C6_21  and  N8_22 
REMARK    8  A    between atoms: N8_22  and  C7_24 
REMARK    9  A    between atoms: C7_24  and  C8_25 
REMARK   10  A    between atoms: C8_25  and  O4_26 
REMARK   11  A    between atoms: O4_26  and  S2_27 
REMARK   12  A    between atoms: C10_33  and  C11_34 
ROOT
HETATM    1  C3  UNL     1      -7.517   3.743   1.874  1.00  0.00     0.204 A 
HETATM    2  N4  UNL     1      -8.417   4.449   2.616  1.00  0.00    -0.278 N 
ATOM      3  H4  UNL     1      -9.414   4.353   2.420  1.00  0.00     0.189 HD
HETATM    4  N5  UNL     1      -8.020   5.252   3.579  1.00  0.00    -0.270 N 
ATOM      5  H5  UNL     1      -8.719   5.765   4.115  1.00  0.00     0.189 HD
HETATM    6  C4  UNL     1      -6.718   5.417   3.878  1.00  0.00     0.237 A 
HETATM    7  N6  UNL     1      -6.427   6.313   4.935  1.00  0.00    -0.060 NA
HETATM    8  N7  UNL     1      -5.789   4.764   3.201  1.00  0.00    -0.150 N 
HETATM    9  C9  UNL     1      -6.195   3.925   2.196  1.00  0.00     0.320 A 
HETATM   10  O8  UNL     1      -5.293   3.316   1.569  1.00  0.00    -0.261 OA
ENDROOT
BRANCH   1  11
HETATM   11  N3  UNL     1      -7.947   2.880   0.841  1.00  0.00    -0.238 N 
HETATM   12  S1  UNL     1      -8.842   1.434   0.969  1.00  0.00     0.236 S 
HETATM   13  C2  UNL     1      -8.829   0.944  -0.774  1.00  0.00     0.189 C 
HETATM   14  O1  UNL     1     -10.261   1.661   1.423  1.00  0.00    -0.205 OA
HETATM   15  O2  UNL     1      -8.157   0.366   1.782  1.00  0.00    -0.205 OA
HETATM   16  C1  UNL     1      -7.673   1.782  -1.275  1.00  0.00     0.149 C 
HETATM   17  C10 UNL     1      -7.713   3.083  -0.566  1.00  0.00     0.226 C 
BRANCH  16  18
HETATM   18  N2  UNL     1      -6.414   1.107  -1.242  1.00  0.00    -0.140 NA
BRANCH  18  19
HETATM   19  N1  UNL     1      -5.410   2.066  -1.093  1.00  0.00    -0.348 N 
ATOM     20  H12 UNL     1      -5.095   2.452  -0.203  1.00  0.00     0.172 HD
ATOM     21  H11 UNL     1      -5.058   2.304  -2.020  1.00  0.00     0.172 HD
ENDBRANCH  18  19
ENDBRANCH  16  18
BRANCH  17  22
HETATM   22  C11 UNL     1      -8.784   3.919  -1.186  1.00  0.00     0.199 C 
HETATM   23  O9  UNL     1      -8.821   4.070  -2.429  1.00  0.00    -0.646 OA
HETATM   24  O10 UNL     1      -9.712   4.505  -0.341  1.00  0.00    -0.646 OA
ENDBRANCH  17  22
ENDBRANCH   1  11
BRANCH   8  25
HETATM   25  O3  UNL     1      -4.453   4.892   3.451  1.00  0.00    -0.266 OA
BRANCH  25  26
HETATM   26  C5  UNL     1      -3.730   4.261   4.468  1.00  0.00     0.221 C 
BRANCH  26  27
HETATM   27  C6  UNL     1      -2.738   3.255   3.887  1.00  0.00     0.147 C 
BRANCH  27  28
HETATM   28  N8  UNL     1      -3.248   1.936   3.883  1.00  0.00    -0.398 N 
ATOM     29  H8  UNL     1      -2.871   1.235   3.245  1.00  0.00     0.158 HD
BRANCH  28  30
HETATM   30  C7  UNL     1      -4.286   1.608   4.775  1.00  0.00     0.083 C 
BRANCH  30  31
HETATM   31  C8  UNL     1      -5.469   0.920   4.130  1.00  0.00     0.237 C 
BRANCH  31  32
HETATM   32  O4  UNL     1      -5.047  -0.100   3.277  1.00  0.00    -0.252 OA
BRANCH  32  33
HETATM   33  S2  UNL     1      -5.363  -1.619   3.857  1.00  0.00     0.251 S 
HETATM   34  O5  UNL     1      -4.980  -2.636   2.813  1.00  0.00    -0.572 OA
HETATM   35  O6  UNL     1      -6.861  -1.684   4.117  1.00  0.00    -0.572 OA
HETATM   36  O7  UNL     1      -4.506  -1.930   5.258  1.00  0.00    -0.572 OA
ENDBRANCH  32  33
ENDBRANCH  31  32
ENDBRANCH  30  31
ENDBRANCH  28  30
ENDBRANCH  27  28
ENDBRANCH  26  27
ENDBRANCH  25  26
ENDBRANCH   8  25
TORSDOF 12
ENDMDL
MODEL 2
REMARK VINA RESULT: -6.748224820      4.049      6.974
REMARK  12 active torsions:
REMARK  status: ('A' for Active; 'I' for Inactive)
REMARK    1  A    between atoms: N1_1  and  N2_4 
REMARK    2  A    between atoms: N2_4  and  C1_5 
REMARK    3  A    between atoms: N3_10  and  C3_11 
REMARK    4  A    between atoms: N7_18  and  O3_19 
REMARK    5  A    between atoms: O3_19  and  C5_20 
REMARK    6  A    between atoms: C5_20  and  C6_21 
REMARK    7  A    between atoms: C6_21  and  N8_22 
REMARK    8  A    between atoms: N8_22  and  C7_24 
REMARK    9  A    between atoms: C7_24  and  C8_25 
REMARK   10  A    between atoms: C8_25  and  O4_26 
REMARK   11  A    between atoms: O4_26  and  S2_27 
REMARK   12  A    between atoms: C10_33  and  C11_34 
ROOT
HETATM    1  C3  UNL     1      -7.168   3.700   1.425  1.00  0.00     0.204 A 
HETATM    2  N4  UNL     1      -5.877   3.340   1.673  1.00  0.00    -0.278 N 
ATOM      3  H4  UNL     1      -5.483   2.526   1.202  1.00  0.00     0.189 HD
HETATM    4  N5  UNL     1      -5.132   4.027   2.512  1.00  0.00    -0.270 N 
ATOM      5  H5  UNL     1      -4.169   3.732   2.674  1.00  0.00     0.189 HD
HETATM    6  C4  UNL     1      -5.601   5.108   3.162  1.00  0.00     0.237 A 
HETATM    7  N6  UNL     1      -4.696   5.754   4.038  1.00  0.00    -0.060 NA
HETATM    8  N7  UNL     1      -6.844   5.516   2.971  1.00  0.00    -0.150 N 
HETATM    9  C9  UNL     1      -7.627   4.805   2.097  1.00  0.00     0.320 A 
HETATM   10  O8  UNL     1      -8.803   5.214   1.933  1.00  0.00    -0.261 OA
ENDROOT
BRANCH   1  11
HETATM   11  N3  UNL     1      -7.966   2.960   0.523  1.00  0.00    -0.238 N 
HETATM   12  S1  UNL     1      -7.856   2.887  -1.178  1.00  0.00     0.236 S 
HETATM   13  C2  UNL     1      -9.296   1.840  -1.505  1.00  0.00     0.189 C 
HETATM   14  O1  UNL     1      -6.605   2.193  -1.654  1.00  0.00    -0.205 OA
HETATM   15  O2  UNL     1      -8.053   4.217  -1.857  1.00  0.00    -0.205 OA
HETATM   16  C1  UNL     1     -10.047   2.011  -0.202  1.00  0.00     0.149 C 
HETATM   17  C10 UNL     1      -9.050   2.086   0.892  1.00  0.00     0.226 C 
BRANCH  16  18
HETATM   18  N2  UNL     1     -11.010   3.067  -0.225  1.00  0.00    -0.140 NA
BRANCH  18  19
HETATM   19  N1  UNL     1     -11.252   3.462   1.092  1.00  0.00    -0.348 N 
ATOM     20  H12 UNL     1     -11.382   2.828   1.881  1.00  0.00     0.172 HD
ATOM     21  H11 UNL     1     -11.276   4.481   1.119  1.00  0.00     0.172 HD
ENDBRANCH  18  19
ENDBRANCH  16  18
BRANCH  17  22
HETATM   22  C11 UNL     1      -8.566   0.702   1.177  1.00  0.00     0.199 C 
HETATM   23  O9  UNL     1      -9.376  -0.253   1.199  1.00  0.00    -0.646 OA
HETATM   24  O10 UNL     1      -7.212   0.530   1.411  1.00  0.00    -0.646 OA
ENDBRANCH  17  22
ENDBRANCH   1  11
BRANCH   8  25
HETATM   25  O3  UNL     1      -7.382   6.599   3.602  1.00  0.00    -0.266 OA
BRANCH  25  26
HETATM   26  C5  UNL     1      -8.074   6.598   4.817  1.00  0.00     0.221 C 
BRANCH  26  27
HETATM   27  C6  UNL     1      -9.392   7.361   4.695  1.00  0.00     0.147 C 
BRANCH  27  28
HETATM   28  N8  UNL     1      -9.772   7.567   3.348  1.00  0.00    -0.398 N 
ATOM     29  H8  UNL     1     -10.116   6.792   2.781  1.00  0.00     0.158 HD
BRANCH  28  30
HETATM   30  C7  UNL     1      -9.666   8.861   2.804  1.00  0.00     0.083 C 
BRANCH  30  31
HETATM   31  C8  UNL     1      -9.459   9.954   3.831  1.00  0.00     0.237 C 
BRANCH  31  32
HETATM   32  O4  UNL     1      -8.129  10.372   3.850  1.00  0.00    -0.252 OA
BRANCH  32  33
HETATM   33  S2  UNL     1      -7.763  11.351   5.135  1.00  0.00     0.251 S 
HETATM   34  O5  UNL     1      -9.011  11.583   5.949  1.00  0.00    -0.572 OA
HETATM   35  O6  UNL     1      -7.272  12.669   4.555  1.00  0.00    -0.572 OA
HETATM   36  O7  UNL     1      -6.596  10.665   6.116  1.00  0.00    -0.572 OA
ENDBRANCH  32  33
ENDBRANCH  31  32
ENDBRANCH  30  31
ENDBRANCH  28  30
ENDBRANCH  27  28
ENDBRANCH  26  27
ENDBRANCH  25  26
ENDBRANCH   8  25
TORSDOF 12
ENDMDL
MODEL 3
REMARK VINA RESULT: -6.706521279      2.177      3.159
REMARK  12 active torsions:
REMARK  status: ('A' for Active; 'I' for Inactive)
REMARK    1  A    between atoms: N1_1  and  N2_4 
REMARK    2  A    between atoms: N2_4  and  C1_5 
REMARK    3  A    between atoms: N3_10  and  C3_11 
REMARK    4  A    between atoms: N7_18  and  O3_19 
REMARK    5  A    between atoms: O3_19  and  C5_20 
REMARK    6  A    between atoms: C5_20  and  C6_21 
REMARK    7  A    between atoms: C6_21  and  N8_22 
REMARK    8  A    between atoms: N8_22  and  C7_24 
REMARK    9  A    between atoms: C7_24  and  C8_25 
REMARK   10  A    between atoms: C8_25  and  O4_26 
REMARK   11  A    between atoms: O4_26  and  S2_27 
REMARK   12  A    between atoms: C10_33  and  C11_34 
ROOT
HETATM    1  C3  UNL     1      -6.262   2.970   1.875  1.00  0.00     0.204 A 
HETATM    2  N4  UNL     1      -5.170   3.494   1.250  1.00  0.00    -0.278 N 
ATOM      3  H4  UNL     1      -5.162   3.570   0.233  1.00  0.00     0.189 HD
HETATM    4  N5  UNL     1      -4.126   3.902   1.939  1.00  0.00    -0.270 N 
ATOM      5  H5  UNL     1      -3.326   4.290   1.441  1.00  0.00     0.189 HD
HETATM    6  C4  UNL     1      -4.082   3.823   3.282  1.00  0.00     0.237 A 
HETATM    7  N6  UNL     1      -2.899   4.295   3.899  1.00  0.00    -0.060 NA
HETATM    8  N7  UNL     1      -5.106   3.326   3.956  1.00  0.00    -0.150 N 
HETATM    9  C9  UNL     1      -6.198   2.900   3.245  1.00  0.00     0.320 A 
HETATM   10  O8  UNL     1      -7.156   2.433   3.909  1.00  0.00    -0.261 OA
ENDROOT
BRANCH   1  11
HETATM   11  N3  UNL     1      -7.382   2.533   1.133  1.00  0.00    -0.238 N 
HETATM   12  S1  UNL     1      -8.867   3.335   0.880  1.00  0.00     0.236 S 
HETATM   13  C2  UNL     1      -9.729   2.039  -0.044  1.00  0.00     0.189 C 
HETATM   14  O1  UNL     1      -8.729   4.566   0.022  1.00  0.00    -0.205 OA
HETATM   15  O2  UNL     1      -9.627   3.619   2.150  1.00  0.00    -0.205 OA
HETATM   16  C1  UNL     1      -8.883   0.842   0.329  1.00  0.00     0.149 C 
HETATM   17  C10 UNL     1      -7.472   1.289   0.413  1.00  0.00     0.226 C 
BRANCH  16  18
HETATM   18  N2  UNL     1      -9.365   0.126   1.468  1.00  0.00    -0.140 NA
BRANCH  18  19
HETATM   19  N1  UNL     1      -8.298  -0.057   2.350  1.00  0.00    -0.348 N 
ATOM     20  H12 UNL     1      -7.716   0.688   2.731  1.00  0.00     0.172 HD
ATOM     21  H11 UNL     1      -8.210  -1.056   2.538  1.00  0.00     0.172 HD
ENDBRANCH  18  19
ENDBRANCH  16  18
BRANCH  17  22
HETATM   22  C11 UNL     1      -6.941   1.421  -0.977  1.00  0.00     0.199 C 
HETATM   23  O9  UNL     1      -7.707   1.267  -1.957  1.00  0.00    -0.646 OA
HETATM   24  O10 UNL     1      -5.596   1.715  -1.127  1.00  0.00    -0.646 OA
ENDBRANCH  17  22
ENDBRANCH   1  11
BRANCH   8  25
HETATM   25  O3  UNL     1      -5.122   3.214   5.316  1.00  0.00    -0.266 OA
BRANCH  25  26
HETATM   26  C5  UNL     1      -4.516   2.210   6.077  1.00  0.00     0.221 C 
BRANCH  26  27
HETATM   27  C6  UNL     1      -5.559   1.421   6.867  1.00  0.00     0.147 C 
BRANCH  27  28
HETATM   28  N8  UNL     1      -6.414   0.670   6.029  1.00  0.00    -0.398 N 
ATOM     29  H8  UNL     1      -6.524   0.914   5.045  1.00  0.00     0.158 HD
BRANCH  28  30
HETATM   30  C7  UNL     1      -7.113  -0.423   6.577  1.00  0.00     0.083 C 
BRANCH  30  31
HETATM   31  C8  UNL     1      -6.730  -1.765   5.992  1.00  0.00     0.237 C 
BRANCH  31  32
HETATM   32  O4  UNL     1      -6.770  -1.730   4.598  1.00  0.00    -0.252 OA
BRANCH  32  33
HETATM   33  S2  UNL     1      -5.278  -1.565   3.898  1.00  0.00     0.251 S 
HETATM   34  O5  UNL     1      -4.229  -1.510   4.980  1.00  0.00    -0.572 OA
HETATM   35  O6  UNL     1      -5.298  -0.252   3.130  1.00  0.00    -0.572 OA
HETATM   36  O7  UNL     1      -4.936  -2.843   2.877  1.00  0.00    -0.572 OA
ENDBRANCH  32  33
ENDBRANCH  31  32
ENDBRANCH  30  31
ENDBRANCH  28  30
ENDBRANCH  27  28
ENDBRANCH  26  27
ENDBRANCH  25  26
ENDBRANCH   8  25
TORSDOF 12
ENDMDL
MODEL 4
REMARK VINA RESULT: -6.650307810      2.533      4.471
REMARK  12 active torsions:
REMARK  status: ('A' for Active; 'I' for Inactive)
REMARK    1  A    between atoms: N1_1  and  N2_4 
REMARK    2  A    between atoms: N2_4  and  C1_5 
REMARK    3  A    between atoms: N3_10  and  C3_11 
REMARK    4  A    between atoms: N7_18  and  O3_19 
REMARK    5  A    between atoms: O3_19  and  C5_20 
REMARK    6  A    between atoms: C5_20  and  C6_21 
REMARK    7  A    between atoms: C6_21  and  N8_22 
REMARK    8  A    between atoms: N8_22  and  C7_24 
REMARK    9  A    between atoms: C7_24  and  C8_25 
REMARK   10  A    between atoms: C8_25  and  O4_26 
REMARK   11  A    between atoms: O4_26  and  S2_27 
REMARK   12  A    between atoms: C10_33  and  C11_34 
ROOT
HETATM    1  C3  UNL     1      -7.702   1.015   1.792  1.00  0.00     0.204 A 
HETATM    2  N4  UNL     1      -8.603   0.146   2.331  1.00  0.00    -0.278 N 
ATOM      3  H4  UNL     1      -9.572   0.166   2.013  1.00  0.00     0.189 HD
HETATM    4  N5  UNL     1      -8.243  -0.718   3.256  1.00  0.00    -0.270 N 
ATOM      5  H5  UNL     1      -8.942  -1.354   3.638  1.00  0.00     0.189 HD
HETATM    6  C4  UNL     1      -6.979  -0.786   3.714  1.00  0.00     0.237 A 
HETATM    7  N6  UNL     1      -6.726  -1.759   4.711  1.00  0.00    -0.060 NA
HETATM    8  N7  UNL     1      -6.051   0.025   3.237  1.00  0.00    -0.150 N 
HETATM    9  C9  UNL     1      -6.419   0.928   2.272  1.00  0.00     0.320 A 
HETATM   10  O8  UNL     1      -5.517   1.686   1.836  1.00  0.00    -0.261 OA
ENDROOT
BRANCH   1  11
HETATM   11  N3  UNL     1      -8.092   1.940   0.799  1.00  0.00    -0.238 N 
HETATM   12  S1  UNL     1      -8.580   1.632  -0.807  1.00  0.00     0.236 S 
HETATM   13  C2  UNL     1      -8.763   3.341  -1.375  1.00  0.00     0.189 C 
HETATM   14  O1  UNL     1      -9.908   0.924  -0.889  1.00  0.00    -0.205 OA
HETATM   15  O2  UNL     1      -7.527   0.949  -1.641  1.00  0.00    -0.205 OA
HETATM   16  C1  UNL     1      -7.947   4.058  -0.321  1.00  0.00     0.149 C 
HETATM   17  C10 UNL     1      -8.167   3.368   0.973  1.00  0.00     0.226 C 
BRANCH  16  18
HETATM   18  N2  UNL     1      -6.578   4.253  -0.684  1.00  0.00    -0.140 NA
BRANCH  18  19
HETATM   19  N1  UNL     1      -5.817   4.270   0.487  1.00  0.00    -0.348 N 
ATOM     20  H12 UNL     1      -6.149   3.986   1.408  1.00  0.00     0.172 HD
ATOM     21  H11 UNL     1      -4.885   4.614   0.254  1.00  0.00     0.172 HD
ENDBRANCH  18  19
ENDBRANCH  16  18
BRANCH  17  22
HETATM   22  C11 UNL     1      -9.499   3.787   1.503  1.00  0.00     0.199 C 
HETATM   23  O9  UNL     1     -10.260   2.939   2.026  1.00  0.00    -0.646 OA
HETATM   24  O10 UNL     1      -9.845   5.123   1.392  1.00  0.00    -0.646 OA
ENDBRANCH  17  22
ENDBRANCH   1  11
BRANCH   8  25
HETATM   25  O3  UNL     1      -4.754   0.010   3.662  1.00  0.00    -0.266 OA
BRANCH  25  26
HETATM   26  C5  UNL     1      -4.296   0.288   4.954  1.00  0.00     0.221 C 
BRANCH  26  27
HETATM   27  C6  UNL     1      -3.711   1.697   5.035  1.00  0.00     0.147 C 
BRANCH  27  28
HETATM   28  N8  UNL     1      -3.079   2.087   3.832  1.00  0.00    -0.398 N 
ATOM     29  H8  UNL     1      -2.640   1.393   3.227  1.00  0.00     0.158 HD
BRANCH  28  30
HETATM   30  C7  UNL     1      -3.065   3.451   3.485  1.00  0.00     0.083 C 
BRANCH  30  31
HETATM   31  C8  UNL     1      -4.054   4.300   4.253  1.00  0.00     0.237 C 
BRANCH  31  32
HETATM   32  O4  UNL     1      -4.706   5.195   3.404  1.00  0.00    -0.252 OA
BRANCH  32  33
HETATM   33  S2  UNL     1      -6.300   5.427   3.788  1.00  0.00     0.251 S 
HETATM   34  O5  UNL     1      -6.960   4.086   3.986  1.00  0.00    -0.572 OA
HETATM   35  O6  UNL     1      -6.934   6.146   2.607  1.00  0.00    -0.572 OA
HETATM   36  O7  UNL     1      -6.469   6.326   5.188  1.00  0.00    -0.572 OA
ENDBRANCH  32  33
ENDBRANCH  31  32
ENDBRANCH  30  31
ENDBRANCH  28  30
ENDBRANCH  27  28
ENDBRANCH  26  27
ENDBRANCH  25  26
ENDBRANCH   8  25
TORSDOF 12
ENDMDL
MODEL 5
REMARK VINA RESULT: -6.552292252      2.562      3.666
REMARK  12 active torsions:
REMARK  status: ('A' for Active; 'I' for Inactive)
REMARK    1  A    between atoms: N1_1  and  N2_4 
REMARK    2  A    between atoms: N2_4  and  C1_5 
REMARK    3  A    between atoms: N3_10  and  C3_11 
REMARK    4  A    between atoms: N7_18  and  O3_19 
REMARK    5  A    between atoms: O3_19  and  C5_20 
REMARK    6  A    between atoms: C5_20  and  C6_21 
REMARK    7  A    between atoms: C6_21  and  N8_22 
REMARK    8  A    between atoms: N8_22  and  C7_24 
REMARK    9  A    between atoms: C7_24  and  C8_25 
REMARK   10  A    between atoms: C8_25  and  O4_26 
REMARK   11  A    between atoms: O4_26  and  S2_27 
REMARK   12  A    between atoms: C10_33  and  C11_34 
ROOT
HETATM    1  C3  UNL     1      -7.923   3.792   1.610  1.00  0.00     0.204 A 
HETATM    2  N4  UNL     1      -7.158   4.898   1.384  1.00  0.00    -0.278 N 
ATOM      3  H4  UNL     1      -6.918   5.155   0.426  1.00  0.00     0.189 HD
HETATM    4  N5  UNL     1      -6.726   5.639   2.382  1.00  0.00    -0.270 N 
ATOM      5  H5  UNL     1      -6.157   6.460   2.178  1.00  0.00     0.189 HD
HETATM    6  C4  UNL     1      -7.012   5.345   3.664  1.00  0.00     0.237 A 
HETATM    7  N6  UNL     1      -6.482   6.222   4.640  1.00  0.00    -0.060 NA
HETATM    8  N7  UNL     1      -7.749   4.287   3.959  1.00  0.00    -0.150 N 
HETATM    9  C9  UNL     1      -8.203   3.511   2.924  1.00  0.00     0.320 A 
HETATM   10  O8  UNL     1      -8.902   2.513   3.232  1.00  0.00    -0.261 OA
ENDROOT
BRANCH   1  11
HETATM   11  N3  UNL     1      -8.386   2.999   0.536  1.00  0.00    -0.238 N 
HETATM   12  S1  UNL     1      -9.724   3.274  -0.486  1.00  0.00     0.236 S 
HETATM   13  C2  UNL     1      -9.652   1.747  -1.455  1.00  0.00     0.189 C 
HETATM   14  O1  UNL     1      -9.534   4.462  -1.394  1.00  0.00    -0.205 OA
HETATM   15  O2  UNL     1     -11.043   3.330   0.242  1.00  0.00    -0.205 OA
HETATM   16  C1  UNL     1      -8.797   0.896  -0.542  1.00  0.00     0.149 C 
HETATM   17  C10 UNL     1      -7.779   1.776   0.081  1.00  0.00     0.226 C 
BRANCH  16  18
HETATM   18  N2  UNL     1      -9.549   0.092   0.369  1.00  0.00    -0.140 NA
BRANCH  18  19
HETATM   19  N1  UNL     1      -8.832   0.004   1.565  1.00  0.00    -0.348 N 
ATOM     20  H12 UNL     1      -9.112   0.426   2.450  1.00  0.00     0.172 HD
ATOM     21  H11 UNL     1      -7.993  -0.550   1.392  1.00  0.00     0.172 HD
ENDBRANCH  18  19
ENDBRANCH  16  18
BRANCH  17  22
HETATM   22  C11 UNL     1      -6.708   2.036  -0.928  1.00  0.00     0.199 C 
HETATM   23  O9  UNL     1      -6.057   1.081  -1.411  1.00  0.00    -0.646 OA
HETATM   24  O10 UNL     1      -6.477   3.352  -1.295  1.00  0.00    -0.646 OA
ENDBRANCH  17  22
ENDBRANCH   1  11
BRANCH   8  25
HETATM   25  O3  UNL     1      -8.069   3.932   5.237  1.00  0.00    -0.266 OA
BRANCH  25  26
HETATM   26  C5  UNL     1      -7.223   3.328   6.172  1.00  0.00     0.221 C 
BRANCH  26  27
HETATM   27  C6  UNL     1      -7.476   1.823   6.245  1.00  0.00     0.147 C 
BRANCH  27  28
HETATM   28  N8  UNL     1      -6.826   1.117   5.207  1.00  0.00    -0.398 N 
ATOM     29  H8  UNL     1      -7.348   0.480   4.606  1.00  0.00     0.158 HD
BRANCH  28  30
HETATM   30  C7  UNL     1      -5.444   1.309   5.019  1.00  0.00     0.083 C 
BRANCH  30  31
HETATM   31  C8  UNL     1      -5.052   1.672   3.603  1.00  0.00     0.237 C 
BRANCH  31  32
HETATM   32  O4  UNL     1      -3.685   1.936   3.518  1.00  0.00    -0.252 OA
BRANCH  32  33
HETATM   33  S2  UNL     1      -3.329   3.551   3.427  1.00  0.00     0.251 S 
HETATM   34  O5  UNL     1      -4.212   4.194   2.388  1.00  0.00    -0.572 OA
HETATM   35  O6  UNL     1      -1.872   3.655   3.003  1.00  0.00    -0.572 OA
HETATM   36  O7  UNL     1      -3.573   4.316   4.894  1.00  0.00    -0.572 OA
ENDBRANCH  32  33
ENDBRANCH  31  32
ENDBRANCH  30  31
ENDBRANCH  28  30
ENDBRANCH  27  28
ENDBRANCH  26  27
ENDBRANCH  25  26
ENDBRANCH   8  25
TORSDOF 12
ENDMDL
