MODEL 1
REMARK VINA RESULT: -6.979031742      0.000      0.000
REMARK  13 active torsions:
REMARK  status: ('A' for Active; 'I' for Inactive)
REMARK    1  A    between atoms: C2_2  and  N1_3 
REMARK       I    between atoms: N1_3  and  C3_5 
REMARK    2  A    between atoms: C3_5  and  C4_7 
REMARK    3  A    between atoms: C4_7  and  N2_8 
REMARK    4  A    between atoms: N3_11  and  C6_12 
REMARK    5  A    between atoms: C6_12  and  C7_13 
REMARK    6  A    between atoms: N5_18  and  C9_19 
REMARK    7  A    between atoms: C9_19  and  C10_20 
REMARK    8  A    between atoms: C9_19  and  C13_27 
REMARK    9  A    between atoms: C10_20  and  O6_22 
REMARK   10  A    between atoms: O6_22  and  C11_23 
REMARK   11  A    between atoms: C11_23  and  C12_24 
REMARK   12  A    between atoms: C12_24  and  O7_25 
REMARK   13  A    between atoms: C14_30  and  N7_31 
ROOT
HETATM    1  C9  UNL     1      -5.932   4.172   2.529  1.00  0.00     0.267 C 
ENDROOT
BRANCH   1   2
HETATM    2  N5  UNL     1      -6.748   3.063   2.131  1.00  0.00    -0.229 N 
HETATM    3  C8  UNL     1      -7.318   2.197   2.976  1.00  0.00     0.338 A 
HETATM    4  N3  UNL     1      -8.082   1.143   2.612  1.00  0.00    -0.242 N 
HETATM    5  O4  UNL     1      -7.149   2.347   4.204  1.00  0.00    -0.246 OA
HETATM    6  C5  UNL     1      -8.275   0.966   1.301  1.00  0.00     0.337 A 
HETATM    7  N2  UNL     1      -7.738   1.788   0.390  1.00  0.00    -0.242 N 
HETATM    8  O2  UNL     1      -8.995  -0.014   0.953  1.00  0.00    -0.246 OA
HETATM    9  C16 UNL     1      -6.976   2.834   0.828  1.00  0.00     0.338 A 
HETATM   10  O9  UNL     1      -6.502   3.561  -0.061  1.00  0.00    -0.246 OA
BRANCH   4  11
HETATM   11  C6  UNL     1      -8.678   0.278   3.613  1.00  0.00     0.238 C 
BRANCH  11  12
HETATM   12  C7  UNL     1      -7.717  -0.681   4.160  1.00  0.00     0.249 C 
HETATM   13  N4  UNL     1      -7.606  -0.821   5.580  1.00  0.00    -0.061 NA
HETATM   14  O3  UNL     1      -6.996  -1.380   3.436  1.00  0.00    -0.275 OA
ENDBRANCH  11  12
ENDBRANCH   4  11
BRANCH   7  15
HETATM   15  C4  UNL     1      -7.885   1.598  -1.046  1.00  0.00     0.241 C 
BRANCH  15  16
HETATM   16  C3  UNL     1      -9.075   2.373  -1.525  1.00  0.00     0.236 C 
HETATM   17  N1  UNL     1     -10.224   2.594  -0.732  1.00  0.00    -0.360 N 
ATOM     18  H1  UNL     1     -10.283   2.237   0.221  1.00  0.00     0.162 HD
HETATM   19  O1  UNL     1      -9.077   2.864  -2.700  1.00  0.00    -0.272 OA
BRANCH  17  20
HETATM   20  C2  UNL     1     -11.335   3.359  -1.329  1.00  0.00     0.118 C 
HETATM   21  C1  UNL     1     -12.614   2.690  -0.964  1.00  0.00     0.026 C 
ENDBRANCH  17  20
ENDBRANCH  15  16
ENDBRANCH   7  15
ENDBRANCH   1   2
BRANCH   1  22
HETATM   22  C10 UNL     1      -6.592   5.170   3.411  1.00  0.00     0.290 C 
HETATM   23  O5  UNL     1      -5.906   5.783   4.325  1.00  0.00    -0.262 OA
BRANCH  22  24
HETATM   24  O6  UNL     1      -7.925   5.530   3.364  1.00  0.00    -0.317 OA
BRANCH  24  25
HETATM   25  C11 UNL     1      -8.416   6.302   2.257  1.00  0.00     0.204 C 
BRANCH  25  26
HETATM   26  C12 UNL     1      -9.439   5.540   1.480  1.00  0.00     0.191 C 
BRANCH  26  27
HETATM   27  O7  UNL     1      -8.952   5.366   0.176  1.00  0.00    -0.399 OA
ATOM     28  H7  UNL     1      -9.695   5.215  -0.397  1.00  0.00     0.209 HD
ENDBRANCH  26  27
ENDBRANCH  25  26
ENDBRANCH  24  25
ENDBRANCH  22  24
ENDBRANCH   1  22
BRANCH   1  29
HETATM   29  C13 UNL     1      -4.582   3.827   3.019  1.00  0.00     0.135 A 
HETATM   30  N6  UNL     1      -3.467   3.947   2.239  1.00  0.00    -0.178 N 
HETATM   31  C14 UNL     1      -2.234   3.642   2.660  1.00  0.00     0.681 A 
ATOM     32  H6  UNL     1      -3.580   4.287   1.285  1.00  0.00     0.185 HD
HETATM   33  N8  UNL     1      -2.052   3.195   3.903  1.00  0.00    -0.141 N 
HETATM   34  C15 UNL     1      -3.154   3.071   4.695  1.00  0.00     0.340 A 
ATOM     35  H8  UNL     1      -1.123   2.955   4.248  1.00  0.00     0.189 HD
HETATM   36  O8  UNL     1      -2.978   2.654   5.854  1.00  0.00    -0.246 OA
HETATM   37  N9  UNL     1      -4.384   3.378   4.266  1.00  0.00    -0.295 N 
ATOM     38  H9  UNL     1      -5.180   3.267   4.895  1.00  0.00     0.172 HD
BRANCH  31  39
HETATM   39  N7  UNL     1      -1.229   3.773   1.865  1.00  0.00    -0.234 N 
ATOM     40  H72 UNL     1      -1.355   4.189   0.942  1.00  0.00     0.174 HD
ATOM     41  H71 UNL     1      -0.300   3.467   2.158  1.00  0.00     0.174 HD
ENDBRANCH  31  39
ENDBRANCH   1  29
TORSDOF 13
ENDMDL
MODEL 2
REMARK VINA RESULT: -6.886473905      0.987      1.407
REMARK  13 active torsions:
REMARK  status: ('A' for Active; 'I' for Inactive)
REMARK    1  A    between atoms: C2_2  and  N1_3 
REMARK       I    between atoms: N1_3  and  C3_5 
REMARK    2  A    between atoms: C3_5  and  C4_7 
REMARK    3  A    between atoms: C4_7  and  N2_8 
REMARK    4  A    between atoms: N3_11  and  C6_12 
REMARK    5  A    between atoms: C6_12  and  C7_13 
REMARK    6  A    between atoms: N5_18  and  C9_19 
REMARK    7  A    between atoms: C9_19  and  C10_20 
REMARK    8  A    between atoms: C9_19  and  C13_27 
REMARK    9  A    between atoms: C10_20  and  O6_22 
REMARK   10  A    between atoms: O6_22  and  C11_23 
REMARK   11  A    between atoms: C11_23  and  C12_24 
REMARK   12  A    between atoms: C12_24  and  O7_25 
REMARK   13  A    between atoms: C14_30  and  N7_31 
ROOT
HETATM    1  C9  UNL     1      -5.613   3.992   2.140  1.00  0.00     0.267 C 
ENDROOT
BRANCH   1   2
HETATM    2  N5  UNL     1      -6.525   2.919   1.871  1.00  0.00    -0.229 N 
HETATM    3  C8  UNL     1      -7.092   2.152   2.807  1.00  0.00     0.338 A 
HETATM    4  N3  UNL     1      -7.947   1.132   2.565  1.00  0.00    -0.242 N 
HETATM    5  O4  UNL     1      -6.832   2.368   4.009  1.00  0.00    -0.246 OA
HETATM    6  C5  UNL     1      -8.238   0.885   1.283  1.00  0.00     0.337 A 
HETATM    7  N2  UNL     1      -7.710   1.608   0.287  1.00  0.00    -0.242 N 
HETATM    8  O2  UNL     1      -9.042  -0.062   1.049  1.00  0.00    -0.246 OA
HETATM    9  C16 UNL     1      -6.853   2.624   0.604  1.00  0.00     0.338 A 
HETATM   10  O9  UNL     1      -6.393   3.257  -0.361  1.00  0.00    -0.246 OA
BRANCH   4  11
HETATM   11  C6  UNL     1      -8.530   0.377   3.658  1.00  0.00     0.238 C 
BRANCH  11  12
HETATM   12  C7  UNL     1      -7.611  -0.633   4.187  1.00  0.00     0.249 C 
HETATM   13  N4  UNL     1      -7.439  -0.743   5.603  1.00  0.00    -0.061 NA
HETATM   14  O3  UNL     1      -6.978  -1.400   3.450  1.00  0.00    -0.275 OA
ENDBRANCH  11  12
ENDBRANCH   4  11
BRANCH   7  15
HETATM   15  C4  UNL     1      -7.965   1.337  -1.121  1.00  0.00     0.241 C 
BRANCH  15  16
HETATM   16  C3  UNL     1      -9.148   2.140  -1.570  1.00  0.00     0.236 C 
HETATM   17  N1  UNL     1     -10.399   2.107  -0.914  1.00  0.00    -0.360 N 
ATOM     18  H1  UNL     1     -10.544   1.532  -0.084  1.00  0.00     0.162 HD
HETATM   19  O1  UNL     1      -9.048   2.895  -2.591  1.00  0.00    -0.272 OA
BRANCH  17  20
HETATM   20  C2  UNL     1     -11.489   2.933  -1.467  1.00  0.00     0.118 C 
HETATM   21  C1  UNL     1     -12.435   3.259  -0.365  1.00  0.00     0.026 C 
ENDBRANCH  17  20
ENDBRANCH  15  16
ENDBRANCH   7  15
ENDBRANCH   1   2
BRANCH   1  22
HETATM   22  C10 UNL     1      -6.170   5.127   2.922  1.00  0.00     0.290 C 
HETATM   23  O5  UNL     1      -5.398   5.826   3.693  1.00  0.00    -0.262 OA
BRANCH  22  24
HETATM   24  O6  UNL     1      -7.490   5.537   2.917  1.00  0.00    -0.317 OA
BRANCH  24  25
HETATM   25  C11 UNL     1      -8.063   6.085   1.721  1.00  0.00     0.204 C 
BRANCH  25  26
HETATM   26  C12 UNL     1      -9.215   5.262   1.248  1.00  0.00     0.191 C 
BRANCH  26  27
HETATM   27  O7  UNL     1      -9.030   5.001  -0.118  1.00  0.00    -0.399 OA
ATOM     28  H7  UNL     1      -8.933   5.833  -0.567  1.00  0.00     0.209 HD
ENDBRANCH  26  27
ENDBRANCH  25  26
ENDBRANCH  24  25
ENDBRANCH  22  24
ENDBRANCH   1  22
BRANCH   1  29
HETATM   29  C13 UNL     1      -4.285   3.589   2.647  1.00  0.00     0.135 A 
HETATM   30  N6  UNL     1      -4.130   2.805   3.754  1.00  0.00    -0.178 N 
HETATM   31  C14 UNL     1      -2.939   2.426   4.231  1.00  0.00     0.681 A 
ATOM     32  H6  UNL     1      -4.967   2.491   4.244  1.00  0.00     0.185 HD
HETATM   33  N8  UNL     1      -1.825   2.820   3.614  1.00  0.00    -0.141 N 
HETATM   34  C15 UNL     1      -1.961   3.602   2.507  1.00  0.00     0.340 A 
ATOM     35  H8  UNL     1      -0.904   2.546   3.958  1.00  0.00     0.189 HD
HETATM   36  O8  UNL     1      -0.918   3.965   1.934  1.00  0.00    -0.246 OA
HETATM   37  N9  UNL     1      -3.156   3.976   2.036  1.00  0.00    -0.295 N 
ATOM     38  H9  UNL     1      -3.209   4.564   1.203  1.00  0.00     0.172 HD
BRANCH  31  39
HETATM   39  N7  UNL     1      -2.870   1.691   5.288  1.00  0.00    -0.234 N 
ATOM     40  H72 UNL     1      -3.507   1.853   6.067  1.00  0.00     0.174 HD
ATOM     41  H71 UNL     1      -2.181   0.940   5.345  1.00  0.00     0.174 HD
ENDBRANCH  31  39
ENDBRANCH   1  29
TORSDOF 13
ENDMDL
MODEL 3
REMARK VINA RESULT: -6.874348924      0.969      4.445
REMARK  13 active torsions:
REMARK  status: ('A' for Active; 'I' for Inactive)
REMARK    1  A    between atoms: C2_2  and  N1_3 
REMARK       I    between atoms: N1_3  and  C3_5 
REMARK    2  A    between atoms: C3_5  and  C4_7 
REMARK    3  A    between atoms: C4_7  and  N2_8 
REMARK    4  A    between atoms: N3_11  and  C6_12 
REMARK    5  A    between atoms: C6_12  and  C7_13 
REMARK    6  A    between atoms: N5_18  and  C9_19 
REMARK    7  A    between atoms: C9_19  and  C10_20 
REMARK    8  A    between atoms: C9_19  and  C13_27 
REMARK    9  A    between atoms: C10_20  and  O6_22 
REMARK   10  A    between atoms: O6_22  and  C11_23 
REMARK   11  A    between atoms: C11_23  and  C12_24 
REMARK   12  A    between atoms: C12_24  and  O7_25 
REMARK   13  A    between atoms: C14_30  and  N7_31 
ROOT
HETATM    1  C9  UNL     1      -5.964   4.151   2.439  1.00  0.00     0.267 C 
ENDROOT
BRANCH   1   2
HETATM    2  N5  UNL     1      -6.753   3.024   2.038  1.00  0.00    -0.229 N 
HETATM    3  C8  UNL     1      -7.069   2.730   0.773  1.00  0.00     0.338 A 
HETATM    4  N3  UNL     1      -7.820   1.674   0.383  1.00  0.00    -0.242 N 
HETATM    5  O4  UNL     1      -6.655   3.469  -0.145  1.00  0.00    -0.246 OA
HETATM    6  C5  UNL     1      -8.273   0.871   1.351  1.00  0.00     0.337 A 
HETATM    7  N2  UNL     1      -8.001   1.098   2.642  1.00  0.00    -0.242 N 
HETATM    8  O2  UNL     1      -8.969  -0.122   0.994  1.00  0.00    -0.246 OA
HETATM    9  C16 UNL     1      -7.236   2.183   2.965  1.00  0.00     0.338 A 
HETATM   10  O9  UNL     1      -7.020   2.344   4.178  1.00  0.00    -0.246 OA
BRANCH   4  11
HETATM   11  C6  UNL     1      -8.082   1.429  -1.022  1.00  0.00     0.238 C 
BRANCH  11  12
HETATM   12  C7  UNL     1      -9.310   2.082  -1.480  1.00  0.00     0.249 C 
HETATM   13  N4  UNL     1      -9.212   3.223  -2.339  1.00  0.00    -0.061 NA
HETATM   14  O3  UNL     1     -10.433   1.679  -1.152  1.00  0.00    -0.275 OA
ENDBRANCH  11  12
ENDBRANCH   4  11
BRANCH   7  15
HETATM   15  C4  UNL     1      -8.518   0.273   3.726  1.00  0.00     0.241 C 
BRANCH  15  16
HETATM   16  C3  UNL     1      -7.419  -0.606   4.242  1.00  0.00     0.236 C 
HETATM   17  N1  UNL     1      -6.841  -0.450   5.522  1.00  0.00    -0.360 N 
ATOM     18  H1  UNL     1      -7.166   0.275   6.162  1.00  0.00     0.162 HD
HETATM   19  O1  UNL     1      -6.964  -1.543   3.510  1.00  0.00    -0.272 OA
BRANCH  17  20
HETATM   20  C2  UNL     1      -5.753  -1.371   5.903  1.00  0.00     0.118 C 
HETATM   21  C1  UNL     1      -4.461  -0.639   5.794  1.00  0.00     0.026 C 
ENDBRANCH  17  20
ENDBRANCH  15  16
ENDBRANCH   7  15
ENDBRANCH   1   2
BRANCH   1  22
HETATM   22  C10 UNL     1      -6.658   5.147   3.297  1.00  0.00     0.290 C 
HETATM   23  O5  UNL     1      -6.014   5.745   4.251  1.00  0.00    -0.262 OA
BRANCH  22  24
HETATM   24  O6  UNL     1      -7.983   5.521   3.186  1.00  0.00    -0.317 OA
BRANCH  24  25
HETATM   25  C11 UNL     1      -8.444   6.173   1.993  1.00  0.00     0.204 C 
BRANCH  25  26
HETATM   26  C12 UNL     1      -9.548   5.401   1.349  1.00  0.00     0.191 C 
BRANCH  26  27
HETATM   27  O7  UNL     1      -9.213   5.207  -0.000  1.00  0.00    -0.399 OA
ATOM     28  H7  UNL     1      -9.923   4.730  -0.414  1.00  0.00     0.209 HD
ENDBRANCH  26  27
ENDBRANCH  25  26
ENDBRANCH  24  25
ENDBRANCH  22  24
ENDBRANCH   1  22
BRANCH   1  29
HETATM   29  C13 UNL     1      -4.618   3.836   2.958  1.00  0.00     0.135 A 
HETATM   30  N6  UNL     1      -3.492   3.946   2.193  1.00  0.00    -0.178 N 
HETATM   31  C14 UNL     1      -2.263   3.668   2.641  1.00  0.00     0.681 A 
ATOM     32  H6  UNL     1      -3.594   4.258   1.227  1.00  0.00     0.185 HD
HETATM   33  N8  UNL     1      -2.095   3.258   3.898  1.00  0.00    -0.141 N 
HETATM   34  C15 UNL     1      -3.207   3.143   4.677  1.00  0.00     0.340 A 
ATOM     35  H8  UNL     1      -1.169   3.038   4.264  1.00  0.00     0.189 HD
HETATM   36  O8  UNL     1      -3.045   2.762   5.850  1.00  0.00    -0.246 OA
HETATM   37  N9  UNL     1      -4.434   3.424   4.221  1.00  0.00    -0.295 N 
ATOM     38  H9  UNL     1      -5.238   3.323   4.841  1.00  0.00     0.172 HD
BRANCH  31  39
HETATM   39  N7  UNL     1      -1.247   3.787   1.857  1.00  0.00    -0.234 N 
ATOM     40  H72 UNL     1      -1.365   3.705   0.848  1.00  0.00     0.174 HD
ATOM     41  H71 UNL     1      -0.321   3.972   2.244  1.00  0.00     0.174 HD
ENDBRANCH  31  39
ENDBRANCH   1  29
TORSDOF 13
ENDMDL
MODEL 4
REMARK VINA RESULT: -6.777702156      2.254      4.266
REMARK  13 active torsions:
REMARK  status: ('A' for Active; 'I' for Inactive)
REMARK    1  A    between atoms: C2_2  and  N1_3 
REMARK       I    between atoms: N1_3  and  C3_5 
REMARK    2  A    between atoms: C3_5  and  C4_7 
REMARK    3  A    between atoms: C4_7  and  N2_8 
REMARK    4  A    between atoms: N3_11  and  C6_12 
REMARK    5  A    between atoms: C6_12  and  C7_13 
REMARK    6  A    between atoms: N5_18  and  C9_19 
REMARK    7  A    between atoms: C9_19  and  C10_20 
REMARK    8  A    between atoms: C9_19  and  C13_27 
REMARK    9  A    between atoms: C10_20  and  O6_22 
REMARK   10  A    between atoms: O6_22  and  C11_23 
REMARK   11  A    between atoms: C11_23  and  C12_24 
REMARK   12  A    between atoms: C12_24  and  O7_25 
REMARK   13  A    between atoms: C14_30  and  N7_31 
ROOT
HETATM    1  C9  UNL     1      -4.796   3.854   4.310  1.00  0.00     0.267 C 
ENDROOT
BRANCH   1   2
HETATM    2  N5  UNL     1      -5.484   4.031   3.064  1.00  0.00    -0.229 N 
HETATM    3  C8  UNL     1      -5.371   3.215   2.012  1.00  0.00     0.338 A 
HETATM    4  N3  UNL     1      -6.008   3.377   0.830  1.00  0.00    -0.242 N 
HETATM    5  O4  UNL     1      -4.626   2.216   2.095  1.00  0.00    -0.246 OA
HETATM    6  C5  UNL     1      -6.810   4.441   0.721  1.00  0.00     0.337 A 
HETATM    7  N2  UNL     1      -6.976   5.306   1.730  1.00  0.00    -0.242 N 
HETATM    8  O2  UNL     1      -7.415   4.595  -0.379  1.00  0.00    -0.246 OA
HETATM    9  C16 UNL     1      -6.302   5.082   2.897  1.00  0.00     0.338 A 
HETATM   10  O9  UNL     1      -6.492   5.919   3.795  1.00  0.00    -0.246 OA
BRANCH   4  11
HETATM   11  C6  UNL     1      -5.838   2.415  -0.243  1.00  0.00     0.238 C 
BRANCH  11  12
HETATM   12  C7  UNL     1      -6.982   1.510  -0.363  1.00  0.00     0.249 C 
HETATM   13  N4  UNL     1      -7.636   1.380  -1.630  1.00  0.00    -0.061 NA
HETATM   14  O3  UNL     1      -7.405   0.849   0.594  1.00  0.00    -0.275 OA
ENDBRANCH  11  12
ENDBRANCH   4  11
BRANCH   7  15
HETATM   15  C4  UNL     1      -7.802   6.502   1.631  1.00  0.00     0.241 C 
BRANCH  15  16
HETATM   16  C3  UNL     1      -9.246   6.111   1.724  1.00  0.00     0.236 C 
HETATM   17  N1  UNL     1     -10.076   5.946   0.592  1.00  0.00    -0.360 N 
ATOM     18  H1  UNL     1      -9.713   6.079  -0.352  1.00  0.00     0.162 HD
HETATM   19  O1  UNL     1      -9.774   5.914   2.865  1.00  0.00    -0.272 OA
BRANCH  17  20
HETATM   20  C2  UNL     1     -11.486   5.576   0.821  1.00  0.00     0.118 C 
HETATM   21  C1  UNL     1     -12.159   5.458  -0.502  1.00  0.00     0.026 C 
ENDBRANCH  17  20
ENDBRANCH  15  16
ENDBRANCH   7  15
ENDBRANCH   1   2
BRANCH   1  22
HETATM   22  C10 UNL     1      -5.415   2.885   5.252  1.00  0.00     0.290 C 
HETATM   23  O5  UNL     1      -5.351   3.091   6.530  1.00  0.00    -0.262 OA
BRANCH  22  24
HETATM   24  O6  UNL     1      -6.081   1.729   4.895  1.00  0.00    -0.317 OA
BRANCH  24  25
HETATM   25  C11 UNL     1      -5.643   0.464   5.414  1.00  0.00     0.204 C 
BRANCH  25  26
HETATM   26  C12 UNL     1      -4.998  -0.362   4.350  1.00  0.00     0.191 C 
BRANCH  26  27
HETATM   27  O7  UNL     1      -3.776   0.240   4.015  1.00  0.00    -0.399 OA
ATOM     28  H7  UNL     1      -3.080  -0.256   4.431  1.00  0.00     0.209 HD
ENDBRANCH  26  27
ENDBRANCH  25  26
ENDBRANCH  24  25
ENDBRANCH  22  24
ENDBRANCH   1  22
BRANCH   1  29
HETATM   29  C13 UNL     1      -3.336   3.653   4.210  1.00  0.00     0.135 A 
HETATM   30  N6  UNL     1      -2.611   4.071   3.131  1.00  0.00    -0.178 N 
HETATM   31  C14 UNL     1      -1.289   3.901   3.018  1.00  0.00     0.681 A 
ATOM     32  H6  UNL     1      -3.103   4.539   2.371  1.00  0.00     0.185 HD
HETATM   33  N8  UNL     1      -0.615   3.293   3.994  1.00  0.00    -0.141 N 
HETATM   34  C15 UNL     1      -1.323   2.869   5.079  1.00  0.00     0.340 A 
ATOM     35  H8  UNL     1       0.392   3.149   3.933  1.00  0.00     0.189 HD
HETATM   36  O8  UNL     1      -0.690   2.303   5.987  1.00  0.00    -0.246 OA
HETATM   37  N9  UNL     1      -2.646   3.044   5.184  1.00  0.00    -0.295 N 
ATOM     38  H9  UNL     1      -3.134   2.709   6.015  1.00  0.00     0.172 HD
BRANCH  31  39
HETATM   39  N7  UNL     1      -0.671   4.316   1.965  1.00  0.00    -0.234 N 
ATOM     40  H72 UNL     1      -0.409   3.658   1.231  1.00  0.00     0.174 HD
ATOM     41  H71 UNL     1      -0.448   5.306   1.860  1.00  0.00     0.174 HD
ENDBRANCH  31  39
ENDBRANCH   1  29
TORSDOF 13
ENDMDL
MODEL 5
REMARK VINA RESULT: -6.696714758      2.145      4.530
REMARK  13 active torsions:
REMARK  status: ('A' for Active; 'I' for Inactive)
REMARK    1  A    between atoms: C2_2  and  N1_3 
REMARK       I    between atoms: N1_3  and  C3_5 
REMARK    2  A    between atoms: C3_5  and  C4_7 
REMARK    3  A    between atoms: C4_7  and  N2_8 
REMARK    4  A    between atoms: N3_11  and  C6_12 
REMARK    5  A    between atoms: C6_12  and  C7_13 
REMARK    6  A    between atoms: N5_18  and  C9_19 
REMARK    7  A    between atoms: C9_19  and  C10_20 
REMARK    8  A    between atoms: C9_19  and  C13_27 
REMARK    9  A    between atoms: C10_20  and  O6_22 
REMARK   10  A    between atoms: O6_22  and  C11_23 
REMARK   11  A    between atoms: C11_23  and  C12_24 
REMARK   12  A    between atoms: C12_24  and  O7_25 
REMARK   13  A    between atoms: C14_30  and  N7_31 
ROOT
HETATM    1  C9  UNL     1      -4.260   3.735   4.610  1.00  0.00     0.267 C 
ENDROOT
BRANCH   1   2
HETATM    2  N5  UNL     1      -5.033   4.037   3.442  1.00  0.00    -0.229 N 
HETATM    3  C8  UNL     1      -5.742   5.157   3.269  1.00  0.00     0.338 A 
HETATM    4  N3  UNL     1      -6.482   5.450   2.175  1.00  0.00    -0.242 N 
HETATM    5  O4  UNL     1      -5.742   6.022   4.170  1.00  0.00    -0.246 OA
HETATM    6  C5  UNL     1      -6.494   4.536   1.198  1.00  0.00     0.337 A 
HETATM    7  N2  UNL     1      -5.812   3.388   1.296  1.00  0.00    -0.242 N 
HETATM    8  O2  UNL     1      -7.178   4.806   0.169  1.00  0.00    -0.246 OA
HETATM    9  C16 UNL     1      -5.085   3.158   2.429  1.00  0.00     0.338 A 
HETATM   10  O9  UNL     1      -4.476   2.076   2.464  1.00  0.00    -0.246 OA
BRANCH   4  11
HETATM   11  C6  UNL     1      -7.193   6.710   2.075  1.00  0.00     0.238 C 
BRANCH  11  12
HETATM   12  C7  UNL     1      -8.416   6.722   2.881  1.00  0.00     0.249 C 
HETATM   13  N4  UNL     1      -8.607   7.768   3.839  1.00  0.00    -0.061 NA
HETATM   14  O3  UNL     1      -9.294   5.858   2.760  1.00  0.00    -0.275 OA
ENDBRANCH  11  12
ENDBRANCH   4  11
BRANCH   7  15
HETATM   15  C4  UNL     1      -5.842   2.350   0.275  1.00  0.00     0.241 C 
BRANCH  15  16
HETATM   16  C3  UNL     1      -7.182   1.679   0.295  1.00  0.00     0.236 C 
HETATM   17  N1  UNL     1      -8.208   1.973  -0.631  1.00  0.00    -0.360 N 
ATOM     18  H1  UNL     1      -8.068   2.659  -1.373  1.00  0.00     0.162 HD
HETATM   19  O1  UNL     1      -7.435   0.801   1.182  1.00  0.00    -0.272 OA
BRANCH  17  20
HETATM   20  C2  UNL     1      -9.489   1.254  -0.491  1.00  0.00     0.118 C 
HETATM   21  C1  UNL     1     -10.534   2.010  -1.235  1.00  0.00     0.026 C 
ENDBRANCH  17  20
ENDBRANCH  15  16
ENDBRANCH   7  15
ENDBRANCH   1   2
BRANCH   1  22
HETATM   22  C10 UNL     1      -4.775   2.621   5.449  1.00  0.00     0.290 C 
HETATM   23  O5  UNL     1      -5.675   2.850   6.354  1.00  0.00    -0.262 OA
BRANCH  22  24
HETATM   24  O6  UNL     1      -4.375   1.301   5.368  1.00  0.00    -0.317 OA
BRANCH  24  25
HETATM   25  C11 UNL     1      -5.360   0.259   5.300  1.00  0.00     0.204 C 
BRANCH  25  26
HETATM   26  C12 UNL     1      -4.983  -0.775   4.290  1.00  0.00     0.191 C 
BRANCH  26  27
HETATM   27  O7  UNL     1      -5.567  -0.418   3.065  1.00  0.00    -0.399 OA
ATOM     28  H7  UNL     1      -4.867  -0.262   2.441  1.00  0.00     0.209 HD
ENDBRANCH  26  27
ENDBRANCH  25  26
ENDBRANCH  24  25
ENDBRANCH  22  24
ENDBRANCH   1  22
BRANCH   1  29
HETATM   29  C13 UNL     1      -2.802   3.624   4.400  1.00  0.00     0.135 A 
HETATM   30  N6  UNL     1      -2.178   4.147   3.305  1.00  0.00    -0.178 N 
HETATM   31  C14 UNL     1      -0.860   4.060   3.093  1.00  0.00     0.681 A 
ATOM     32  H6  UNL     1      -2.747   4.631   2.610  1.00  0.00     0.185 HD
HETATM   33  N8  UNL     1      -0.088   3.434   3.981  1.00  0.00    -0.141 N 
HETATM   34  C15 UNL     1      -0.694   2.906   5.081  1.00  0.00     0.340 A 
ATOM     35  H8  UNL     1       0.919   3.352   3.843  1.00  0.00     0.189 HD
HETATM   36  O8  UNL     1       0.030   2.324   5.907  1.00  0.00    -0.246 OA
HETATM   37  N9  UNL     1      -2.014   2.998   5.285  1.00  0.00    -0.295 N 
ATOM     38  H9  UNL     1      -2.424   2.586   6.124  1.00  0.00     0.172 HD
BRANCH  31  39
HETATM   39  N7  UNL     1      -0.341   4.572   2.030  1.00  0.00    -0.234 N 
ATOM     40  H72 UNL     1      -0.886   5.208   1.448  1.00  0.00     0.174 HD
ATOM     41  H71 UNL     1       0.620   4.348   1.770  1.00  0.00     0.174 HD
ENDBRANCH  31  39
ENDBRANCH   1  29
TORSDOF 13
ENDMDL
