MODEL 1
REMARK VINA RESULT: -7.185300645      0.000      0.000
REMARK  13 active torsions:
REMARK  status: ('A' for Active; 'I' for Inactive)
REMARK       I    between atoms: C2_2  and  N1_4 
REMARK    1  A    between atoms: N1_4  and  N2_6 
REMARK    2  A    between atoms: C4_9  and  N3_10 
REMARK       I    between atoms: N3_10  and  C5_12 
REMARK    3  A    between atoms: C5_12  and  C6_14 
REMARK    4  A    between atoms: C6_14  and  N4_15 
REMARK    5  A    between atoms: C6_14  and  C7_19 
REMARK    6  A    between atoms: C7_19  and  S1_20 
REMARK    7  A    between atoms: S1_20  and  N5_23 
REMARK       I    between atoms: N5_23  and  C8_25 
REMARK    8  A    between atoms: C8_25  and  C9_27 
REMARK    9  A    between atoms: C9_27  and  C10_28 
REMARK   10  A    between atoms: C10_28  and  O7_29 
REMARK   11  A    between atoms: C10_28  and  N7_33 
REMARK   12  A    between atoms: C12_38  and  C13_39 
REMARK   13  A    between atoms: C13_39  and  N10_40 
ROOT
HETATM    1  C10 UNL     1      -5.466   3.870   2.873  1.00  0.00     0.268 C 
HETATM    2  C11 UNL     1      -5.845   4.961   3.791  1.00  0.00     0.125 C 
HETATM    3  N6  UNL     1      -6.148   5.796   4.500  1.00  0.00    -0.192 NA
ENDROOT
BRANCH   1   4
HETATM    4  C9  UNL     1      -5.763   4.225   1.465  1.00  0.00     0.184 C 
BRANCH   4   5
HETATM    5  C8  UNL     1      -6.317   3.138   0.625  1.00  0.00     0.236 C 
HETATM    6  N5  UNL     1      -7.444   3.268  -0.183  1.00  0.00    -0.254 N 
ATOM      7  H5  UNL     1      -7.938   4.160  -0.212  1.00  0.00     0.181 HD
HETATM    8  O6  UNL     1      -5.705   2.029   0.664  1.00  0.00    -0.272 OA
BRANCH   6   9
HETATM    9  S1  UNL     1      -8.017   1.965  -1.126  1.00  0.00     0.235 S 
HETATM   10  O4  UNL     1      -8.806   2.446  -2.338  1.00  0.00    -0.205 OA
HETATM   11  O5  UNL     1      -6.839   1.187  -1.690  1.00  0.00    -0.205 OA
BRANCH   9  12
HETATM   12  C7  UNL     1      -9.072   0.858  -0.254  1.00  0.00     0.206 C 
BRANCH  12  13
HETATM   13  C6  UNL     1      -9.144   1.258   1.183  1.00  0.00     0.290 C 
BRANCH  13  14
HETATM   14  C5  UNL     1      -8.879   0.149   2.131  1.00  0.00     0.251 C 
HETATM   15  N3  UNL     1      -7.862   0.296   3.092  1.00  0.00    -0.329 N 
ATOM     16  H3  UNL     1      -7.334   1.168   3.106  1.00  0.00     0.165 HD
HETATM   17  O3  UNL     1      -9.557  -0.894   2.061  1.00  0.00    -0.271 OA
BRANCH  15  18
HETATM   18  C4  UNL     1      -7.525  -0.728   4.067  1.00  0.00     0.306 A 
HETATM   19  N2  UNL     1      -6.476  -0.406   5.010  1.00  0.00    -0.222 N 
HETATM   20  C3  UNL     1      -6.210  -1.360   3.910  1.00  0.00     0.285 A 
HETATM   21  O2  UNL     1      -5.463  -2.131   3.290  1.00  0.00    -0.267 OA
BRANCH  19  22
HETATM   22  N1  UNL     1      -5.885   0.211   6.109  1.00  0.00    -0.263 N 
HETATM   23  C2  UNL     1      -4.641   0.872   6.008  1.00  0.00     0.232 C 
HETATM   24  C1  UNL     1      -4.074   1.516   7.230  1.00  0.00     0.119 C 
HETATM   25  O1  UNL     1      -3.992   0.945   4.941  1.00  0.00    -0.272 OA
ATOM     26  H1  UNL     1      -6.362   0.185   7.010  1.00  0.00     0.190 HD
ENDBRANCH  19  22
ENDBRANCH  15  18
ENDBRANCH  13  14
BRANCH  13  27
HETATM   27  N4  UNL     1     -10.386   1.922   1.465  1.00  0.00    -0.066 N 
ATOM     28  H43 UNL     1     -11.145   1.251   1.585  1.00  0.00     0.275 HD
ATOM     29  H42 UNL     1     -10.383   2.330   2.400  1.00  0.00     0.275 HD
ATOM     30  H41 UNL     1     -10.616   2.619   0.757  1.00  0.00     0.275 HD
ENDBRANCH  13  27
ENDBRANCH  12  13
ENDBRANCH   9  12
ENDBRANCH   6   9
ENDBRANCH   4   5
ENDBRANCH   1   4
BRANCH   1  31
HETATM   31  O7  UNL     1      -5.977   2.657   3.292  1.00  0.00    -0.356 OA
ATOM     32  H7  UNL     1      -5.718   2.390   4.167  1.00  0.00     0.213 HD
ENDBRANCH   1  31
BRANCH   1  33
HETATM   33  N7  UNL     1      -4.009   3.755   2.966  1.00  0.00    -0.166 N 
HETATM   34  N8  UNL     1      -3.217   3.818   1.913  1.00  0.00    -0.221 N 
HETATM   35  N9  UNL     1      -1.985   3.676   2.286  1.00  0.00    -0.271 N 
ATOM     36  H8  UNL     1      -3.528   3.957   0.951  1.00  0.00     0.210 HD
HETATM   37  C12 UNL     1      -1.937   3.514   3.617  1.00  0.00     0.139 A 
ATOM     38  H9  UNL     1      -1.177   3.685   1.663  1.00  0.00     0.190 HD
HETATM   39  N11 UNL     1      -3.245   3.571   4.018  1.00  0.00    -0.265 N 
ATOM     40  H11 UNL     1      -3.574   3.485   4.979  1.00  0.00     0.190 HD
BRANCH  37  41
HETATM   41  C13 UNL     1      -0.727   3.309   4.449  1.00  0.00     0.308 C 
BRANCH  41  42
HETATM   42  N10 UNL     1      -1.040   2.299   5.446  1.00  0.00    -0.073 N 
ATOM     43 3H10 UNL     1      -1.940   1.846   5.283  1.00  0.00     0.274 HD
ATOM     44 2H10 UNL     1      -0.455   1.467   5.364  1.00  0.00     0.274 HD
ATOM     45 1H10 UNL     1      -0.979   2.738   6.365  1.00  0.00     0.274 HD
ENDBRANCH  41  42
ENDBRANCH  37  41
ENDBRANCH   1  33
TORSDOF 13
ENDMDL
MODEL 2
REMARK VINA RESULT: -7.101876681      1.811      3.045
REMARK  13 active torsions:
REMARK  status: ('A' for Active; 'I' for Inactive)
REMARK       I    between atoms: C2_2  and  N1_4 
REMARK    1  A    between atoms: N1_4  and  N2_6 
REMARK    2  A    between atoms: C4_9  and  N3_10 
REMARK       I    between atoms: N3_10  and  C5_12 
REMARK    3  A    between atoms: C5_12  and  C6_14 
REMARK    4  A    between atoms: C6_14  and  N4_15 
REMARK    5  A    between atoms: C6_14  and  C7_19 
REMARK    6  A    between atoms: C7_19  and  S1_20 
REMARK    7  A    between atoms: S1_20  and  N5_23 
REMARK       I    between atoms: N5_23  and  C8_25 
REMARK    8  A    between atoms: C8_25  and  C9_27 
REMARK    9  A    between atoms: C9_27  and  C10_28 
REMARK   10  A    between atoms: C10_28  and  O7_29 
REMARK   11  A    between atoms: C10_28  and  N7_33 
REMARK   12  A    between atoms: C12_38  and  C13_39 
REMARK   13  A    between atoms: C13_39  and  N10_40 
ROOT
HETATM    1  C10 UNL     1      -3.752   2.524   4.087  1.00  0.00     0.268 C 
HETATM    2  C11 UNL     1      -4.274   2.586   5.466  1.00  0.00     0.125 C 
HETATM    3  N6  UNL     1      -4.685   2.625   6.525  1.00  0.00    -0.192 NA
ENDROOT
BRANCH   1   4
HETATM    4  C9  UNL     1      -4.395   3.543   3.223  1.00  0.00     0.184 C 
BRANCH   4   5
HETATM    5  C8  UNL     1      -5.416   3.037   2.275  1.00  0.00     0.236 C 
HETATM    6  N5  UNL     1      -5.191   2.837   0.915  1.00  0.00    -0.254 N 
ATOM      7  H5  UNL     1      -4.273   3.049   0.524  1.00  0.00     0.181 HD
HETATM    8  O6  UNL     1      -6.556   2.776   2.762  1.00  0.00    -0.272 OA
BRANCH   6   9
HETATM    9  S1  UNL     1      -6.421   2.244  -0.111  1.00  0.00     0.235 S 
HETATM   10  O4  UNL     1      -5.999   2.268  -1.575  1.00  0.00    -0.205 OA
HETATM   11  O5  UNL     1      -6.694   0.784   0.211  1.00  0.00    -0.205 OA
BRANCH   9  12
HETATM   12  C7  UNL     1      -7.930   3.146  -0.014  1.00  0.00     0.206 C 
BRANCH  12  13
HETATM   13  C6  UNL     1      -9.072   2.258  -0.384  1.00  0.00     0.290 C 
BRANCH  13  14
HETATM   14  C5  UNL     1      -9.809   1.707   0.780  1.00  0.00     0.251 C 
HETATM   15  N3  UNL     1      -9.085   1.258   1.899  1.00  0.00    -0.329 N 
ATOM     16  H3  UNL     1      -8.068   1.325   1.876  1.00  0.00     0.165 HD
HETATM   17  O3  UNL     1     -11.053   1.648   0.746  1.00  0.00    -0.271 OA
BRANCH  15  18
HETATM   18  C4  UNL     1      -9.711   0.704   3.090  1.00  0.00     0.306 A 
HETATM   19  N2  UNL     1      -9.039  -0.415   3.715  1.00  0.00    -0.222 N 
HETATM   20  C3  UNL     1     -10.286  -0.639   2.951  1.00  0.00     0.285 A 
HETATM   21  O2  UNL     1     -11.177  -1.377   2.506  1.00  0.00    -0.267 OA
BRANCH  19  22
HETATM   22  N1  UNL     1      -8.063  -1.071   4.459  1.00  0.00    -0.263 N 
HETATM   23  C2  UNL     1      -6.697  -1.013   4.105  1.00  0.00     0.232 C 
HETATM   24  C1  UNL     1      -5.707  -1.738   4.957  1.00  0.00     0.119 C 
HETATM   25  O1  UNL     1      -6.276  -0.382   3.110  1.00  0.00    -0.272 OA
ATOM     26  H1  UNL     1      -8.341  -1.606   5.282  1.00  0.00     0.190 HD
ENDBRANCH  19  22
ENDBRANCH  15  18
ENDBRANCH  13  14
BRANCH  13  27
HETATM   27  N4  UNL     1      -8.644   1.226  -1.287  1.00  0.00    -0.066 N 
ATOM     28  H43 UNL     1      -7.647   1.035  -1.184  1.00  0.00     0.275 HD
ATOM     29  H42 UNL     1      -9.012   0.316  -1.010  1.00  0.00     0.275 HD
ATOM     30  H41 UNL     1      -8.882   1.443  -2.255  1.00  0.00     0.275 HD
ENDBRANCH  13  27
ENDBRANCH  12  13
ENDBRANCH   9  12
ENDBRANCH   6   9
ENDBRANCH   4   5
ENDBRANCH   1   4
BRANCH   1  31
HETATM   31  O7  UNL     1      -3.780   1.234   3.595  1.00  0.00    -0.356 OA
ATOM     32  H7  UNL     1      -3.181   0.628   4.014  1.00  0.00     0.213 HD
ENDBRANCH   1  31
BRANCH   1  33
HETATM   33  N7  UNL     1      -2.339   2.898   4.175  1.00  0.00    -0.166 N 
HETATM   34  N8  UNL     1      -1.498   2.327   5.015  1.00  0.00    -0.221 N 
HETATM   35  N9  UNL     1      -0.325   2.859   4.886  1.00  0.00    -0.271 N 
ATOM     36  H8  UNL     1      -1.735   1.579   5.667  1.00  0.00     0.210 HD
HETATM   37  C12 UNL     1      -0.367   3.810   3.940  1.00  0.00     0.139 A 
ATOM     38  H9  UNL     1       0.504   2.597   5.421  1.00  0.00     0.190 HD
HETATM   39  N11 UNL     1      -1.667   3.807   3.508  1.00  0.00    -0.265 N 
ATOM     40  H11 UNL     1      -2.051   4.413   2.784  1.00  0.00     0.190 HD
BRANCH  37  41
HETATM   41  C13 UNL     1       0.752   4.670   3.486  1.00  0.00     0.308 C 
BRANCH  41  42
HETATM   42  N10 UNL     1       0.326   5.349   2.273  1.00  0.00    -0.073 N 
ATOM     43 3H10 UNL     1       0.394   4.758   1.444  1.00  0.00     0.274 HD
ATOM     44 2H10 UNL     1      -0.681   5.510   2.242  1.00  0.00     0.274 HD
ATOM     45 1H10 UNL     1       0.868   6.210   2.191  1.00  0.00     0.274 HD
ENDBRANCH  41  42
ENDBRANCH  37  41
ENDBRANCH   1  33
TORSDOF 13
ENDMDL
MODEL 3
REMARK VINA RESULT: -7.050665646      1.857      2.416
REMARK  13 active torsions:
REMARK  status: ('A' for Active; 'I' for Inactive)
REMARK       I    between atoms: C2_2  and  N1_4 
REMARK    1  A    between atoms: N1_4  and  N2_6 
REMARK    2  A    between atoms: C4_9  and  N3_10 
REMARK       I    between atoms: N3_10  and  C5_12 
REMARK    3  A    between atoms: C5_12  and  C6_14 
REMARK    4  A    between atoms: C6_14  and  N4_15 
REMARK    5  A    between atoms: C6_14  and  C7_19 
REMARK    6  A    between atoms: C7_19  and  S1_20 
REMARK    7  A    between atoms: S1_20  and  N5_23 
REMARK       I    between atoms: N5_23  and  C8_25 
REMARK    8  A    between atoms: C8_25  and  C9_27 
REMARK    9  A    between atoms: C9_27  and  C10_28 
REMARK   10  A    between atoms: C10_28  and  O7_29 
REMARK   11  A    between atoms: C10_28  and  N7_33 
REMARK   12  A    between atoms: C12_38  and  C13_39 
REMARK   13  A    between atoms: C13_39  and  N10_40 
ROOT
HETATM    1  C10 UNL     1      -6.415   4.722   2.878  1.00  0.00     0.268 C 
HETATM    2  C11 UNL     1      -6.650   5.632   4.015  1.00  0.00     0.125 C 
HETATM    3  N6  UNL     1      -6.844   6.329   4.891  1.00  0.00    -0.192 NA
ENDROOT
BRANCH   1   4
HETATM    4  C9  UNL     1      -6.551   5.433   1.584  1.00  0.00     0.184 C 
BRANCH   4   5
HETATM    5  C8  UNL     1      -7.238   4.687   0.504  1.00  0.00     0.236 C 
HETATM    6  N5  UNL     1      -8.548   4.927   0.097  1.00  0.00    -0.254 N 
ATOM      7  H5  UNL     1      -9.089   5.658   0.560  1.00  0.00     0.181 HD
HETATM    8  O6  UNL     1      -6.566   3.778  -0.068  1.00  0.00    -0.272 OA
BRANCH   6   9
HETATM    9  S1  UNL     1      -9.267   4.025  -1.162  1.00  0.00     0.235 S 
HETATM   10  O4  UNL     1     -10.709   4.449  -1.412  1.00  0.00    -0.205 OA
HETATM   11  O5  UNL     1      -8.532   4.292  -2.465  1.00  0.00    -0.205 OA
BRANCH   9  12
HETATM   12  C7  UNL     1      -9.304   2.289  -0.869  1.00  0.00     0.206 C 
BRANCH  12  13
HETATM   13  C6  UNL     1      -9.576   2.028   0.576  1.00  0.00     0.290 C 
BRANCH  13  14
HETATM   14  C5  UNL     1      -8.800   0.897   1.140  1.00  0.00     0.251 C 
HETATM   15  N3  UNL     1      -7.502   1.130   1.628  1.00  0.00    -0.329 N 
ATOM     16  H3  UNL     1      -7.131   2.079   1.578  1.00  0.00     0.165 HD
HETATM   17  O3  UNL     1      -9.309  -0.240   1.171  1.00  0.00    -0.271 OA
BRANCH  15  18
HETATM   18  C4  UNL     1      -6.661   0.092   2.202  1.00  0.00     0.306 A 
HETATM   19  N2  UNL     1      -6.951  -0.299   3.565  1.00  0.00    -0.222 N 
HETATM   20  C3  UNL     1      -5.751   0.517   3.272  1.00  0.00     0.285 A 
HETATM   21  O2  UNL     1      -4.728   1.120   3.626  1.00  0.00    -0.267 OA
BRANCH  19  22
HETATM   22  N1  UNL     1      -7.651  -0.907   4.602  1.00  0.00    -0.263 N 
HETATM   23  C2  UNL     1      -8.892  -0.408   5.052  1.00  0.00     0.232 C 
HETATM   24  C1  UNL     1      -9.586  -1.120   6.167  1.00  0.00     0.119 C 
HETATM   25  O1  UNL     1      -9.440   0.604   4.560  1.00  0.00    -0.272 OA
ATOM     26  H1  UNL     1      -7.257  -1.735   5.049  1.00  0.00     0.190 HD
ENDBRANCH  19  22
ENDBRANCH  15  18
ENDBRANCH  13  14
BRANCH  13  27
HETATM   27  N4  UNL     1     -10.986   1.885   0.812  1.00  0.00    -0.066 N 
ATOM     28  H43 UNL     1     -11.384   2.740   1.203  1.00  0.00     0.275 HD
ATOM     29  H42 UNL     1     -11.506   1.851  -0.064  1.00  0.00     0.275 HD
ATOM     30  H41 UNL     1     -11.194   1.078   1.400  1.00  0.00     0.275 HD
ENDBRANCH  13  27
ENDBRANCH  12  13
ENDBRANCH   9  12
ENDBRANCH   6   9
ENDBRANCH   4   5
ENDBRANCH   1   4
BRANCH   1  31
HETATM   31  O7  UNL     1      -7.161   3.565   2.993  1.00  0.00    -0.356 OA
ATOM     32  H7  UNL     1      -7.995   3.666   3.437  1.00  0.00     0.213 HD
ENDBRANCH   1  31
BRANCH   1  33
HETATM   33  N7  UNL     1      -5.011   4.315   2.973  1.00  0.00    -0.166 N 
HETATM   34  N8  UNL     1      -4.312   3.905   1.933  1.00  0.00    -0.221 N 
HETATM   35  N9  UNL     1      -3.111   3.600   2.309  1.00  0.00    -0.271 N 
ATOM     36  H8  UNL     1      -4.664   3.839   0.978  1.00  0.00     0.210 HD
HETATM   37  C12 UNL     1      -2.989   3.807   3.629  1.00  0.00     0.139 A 
ATOM     38  H9  UNL     1      -2.371   3.256   1.696  1.00  0.00     0.190 HD
HETATM   39  N11 UNL     1      -4.220   4.263   4.020  1.00  0.00    -0.265 N 
ATOM     40  H11 UNL     1      -4.480   4.522   4.971  1.00  0.00     0.190 HD
BRANCH  37  41
HETATM   41  C13 UNL     1      -1.786   3.576   4.463  1.00  0.00     0.308 C 
BRANCH  41  42
HETATM   42  N10 UNL     1      -0.830   2.825   3.665  1.00  0.00    -0.073 N 
ATOM     43 3H10 UNL     1      -0.350   2.101   4.199  1.00  0.00     0.274 HD
ATOM     44 2H10 UNL     1      -1.279   2.213   2.982  1.00  0.00     0.274 HD
ATOM     45 1H10 UNL     1      -0.188   3.493   3.237  1.00  0.00     0.274 HD
ENDBRANCH  41  42
ENDBRANCH  37  41
ENDBRANCH   1  33
TORSDOF 13
ENDMDL
MODEL 4
REMARK VINA RESULT: -7.032599109      1.935      2.364
REMARK  13 active torsions:
REMARK  status: ('A' for Active; 'I' for Inactive)
REMARK       I    between atoms: C2_2  and  N1_4 
REMARK    1  A    between atoms: N1_4  and  N2_6 
REMARK    2  A    between atoms: C4_9  and  N3_10 
REMARK       I    between atoms: N3_10  and  C5_12 
REMARK    3  A    between atoms: C5_12  and  C6_14 
REMARK    4  A    between atoms: C6_14  and  N4_15 
REMARK    5  A    between atoms: C6_14  and  C7_19 
REMARK    6  A    between atoms: C7_19  and  S1_20 
REMARK    7  A    between atoms: S1_20  and  N5_23 
REMARK       I    between atoms: N5_23  and  C8_25 
REMARK    8  A    between atoms: C8_25  and  C9_27 
REMARK    9  A    between atoms: C9_27  and  C10_28 
REMARK   10  A    between atoms: C10_28  and  O7_29 
REMARK   11  A    between atoms: C10_28  and  N7_33 
REMARK   12  A    between atoms: C12_38  and  C13_39 
REMARK   13  A    between atoms: C13_39  and  N10_40 
ROOT
HETATM    1  C10 UNL     1      -6.672   4.710   1.551  1.00  0.00     0.268 C 
HETATM    2  C11 UNL     1      -7.013   6.128   1.775  1.00  0.00     0.125 C 
HETATM    3  N6  UNL     1      -7.289   7.217   1.946  1.00  0.00    -0.192 NA
ENDROOT
BRANCH   1   4
HETATM    4  C9  UNL     1      -6.377   4.448   0.122  1.00  0.00     0.184 C 
BRANCH   4   5
HETATM    5  C8  UNL     1      -7.419   3.711  -0.630  1.00  0.00     0.236 C 
HETATM    6  N5  UNL     1      -8.756   4.094  -0.694  1.00  0.00    -0.254 N 
ATOM      7  H5  UNL     1      -9.061   4.930  -0.196  1.00  0.00     0.181 HD
HETATM    8  O6  UNL     1      -7.039   2.671  -1.246  1.00  0.00    -0.272 OA
BRANCH   6   9
HETATM    9  S1  UNL     1      -9.897   3.191  -1.589  1.00  0.00     0.235 S 
HETATM   10  O4  UNL     1     -11.144   4.008  -1.906  1.00  0.00    -0.205 OA
HETATM   11  O5  UNL     1      -9.305   2.814  -2.937  1.00  0.00    -0.205 OA
BRANCH   9  12
HETATM   12  C7  UNL     1     -10.453   1.732  -0.777  1.00  0.00     0.206 C 
BRANCH  12  13
HETATM   13  C6  UNL     1     -10.338   1.903   0.702  1.00  0.00     0.290 C 
BRANCH  13  14
HETATM   14  C5  UNL     1      -9.419   0.937   1.352  1.00  0.00     0.251 C 
HETATM   15  N3  UNL     1      -8.764   1.305   2.541  1.00  0.00    -0.329 N 
ATOM     16  H3  UNL     1      -8.942   2.234   2.922  1.00  0.00     0.165 HD
HETATM   17  O3  UNL     1      -9.240  -0.182   0.834  1.00  0.00    -0.271 OA
BRANCH  15  18
HETATM   18  C4  UNL     1      -7.847   0.432   3.256  1.00  0.00     0.306 A 
HETATM   19  N2  UNL     1      -7.237   0.972   4.451  1.00  0.00    -0.222 N 
HETATM   20  C3  UNL     1      -6.431   0.815   3.219  1.00  0.00     0.285 A 
HETATM   21  O2  UNL     1      -5.368   0.916   2.590  1.00  0.00    -0.267 OA
BRANCH  19  22
HETATM   22  N1  UNL     1      -7.166   1.398   5.774  1.00  0.00    -0.263 N 
HETATM   23  C2  UNL     1      -6.955   2.754   6.106  1.00  0.00     0.232 C 
HETATM   24  C1  UNL     1      -6.898   3.135   7.549  1.00  0.00     0.119 C 
HETATM   25  O1  UNL     1      -6.815   3.653   5.248  1.00  0.00    -0.272 OA
ATOM     26  H1  UNL     1      -7.270   0.713   6.524  1.00  0.00     0.190 HD
ENDBRANCH  19  22
ENDBRANCH  15  18
ENDBRANCH  13  14
BRANCH  13  27
HETATM   27  N4  UNL     1     -11.636   1.908   1.317  1.00  0.00    -0.066 N 
ATOM     28  H43 UNL     1     -11.729   1.147   1.991  1.00  0.00     0.275 HD
ATOM     29  H42 UNL     1     -11.741   2.699   1.953  1.00  0.00     0.275 HD
ATOM     30  H41 UNL     1     -12.386   1.885   0.626  1.00  0.00     0.275 HD
ENDBRANCH  13  27
ENDBRANCH  12  13
ENDBRANCH   9  12
ENDBRANCH   6   9
ENDBRANCH   4   5
ENDBRANCH   1   4
BRANCH   1  31
HETATM   31  O7  UNL     1      -7.608   3.869   2.121  1.00  0.00    -0.356 OA
ATOM     32  H7  UNL     1      -7.546   3.777   3.064  1.00  0.00     0.213 HD
ENDBRANCH   1  31
BRANCH   1  33
HETATM   33  N7  UNL     1      -5.419   4.480   2.275  1.00  0.00    -0.166 N 
HETATM   34  N8  UNL     1      -5.158   5.028   3.445  1.00  0.00    -0.221 N 
HETATM   35  N9  UNL     1      -3.981   4.661   3.843  1.00  0.00    -0.271 N 
ATOM     36  H8  UNL     1      -5.786   5.646   3.959  1.00  0.00     0.210 HD
HETATM   37  C12 UNL     1      -3.432   3.848   2.928  1.00  0.00     0.139 A 
ATOM     38  H9  UNL     1      -3.540   4.947   4.718  1.00  0.00     0.190 HD
HETATM   39  N11 UNL     1      -4.378   3.753   1.942  1.00  0.00    -0.265 N 
ATOM     40  H11 UNL     1      -4.287   3.207   1.086  1.00  0.00     0.190 HD
BRANCH  37  41
HETATM   41  C13 UNL     1      -2.094   3.213   2.985  1.00  0.00     0.308 C 
BRANCH  41  42
HETATM   42  N10 UNL     1      -1.253   3.861   1.991  1.00  0.00    -0.073 N 
ATOM     43 3H10 UNL     1      -1.580   3.712   1.037  1.00  0.00     0.274 HD
ATOM     44 2H10 UNL     1      -1.336   4.879   2.005  1.00  0.00     0.274 HD
ATOM     45 1H10 UNL     1      -0.295   3.540   2.136  1.00  0.00     0.274 HD
ENDBRANCH  41  42
ENDBRANCH  37  41
ENDBRANCH   1  33
TORSDOF 13
ENDMDL
MODEL 5
REMARK VINA RESULT: -7.029814856      3.439      6.345
REMARK  13 active torsions:
REMARK  status: ('A' for Active; 'I' for Inactive)
REMARK       I    between atoms: C2_2  and  N1_4 
REMARK    1  A    between atoms: N1_4  and  N2_6 
REMARK    2  A    between atoms: C4_9  and  N3_10 
REMARK       I    between atoms: N3_10  and  C5_12 
REMARK    3  A    between atoms: C5_12  and  C6_14 
REMARK    4  A    between atoms: C6_14  and  N4_15 
REMARK    5  A    between atoms: C6_14  and  C7_19 
REMARK    6  A    between atoms: C7_19  and  S1_20 
REMARK    7  A    between atoms: S1_20  and  N5_23 
REMARK       I    between atoms: N5_23  and  C8_25 
REMARK    8  A    between atoms: C8_25  and  C9_27 
REMARK    9  A    between atoms: C9_27  and  C10_28 
REMARK   10  A    between atoms: C10_28  and  O7_29 
REMARK   11  A    between atoms: C10_28  and  N7_33 
REMARK   12  A    between atoms: C12_38  and  C13_39 
REMARK   13  A    between atoms: C13_39  and  N10_40 
ROOT
HETATM    1  C10 UNL     1      -3.882   2.582   3.944  1.00  0.00     0.268 C 
HETATM    2  C11 UNL     1      -4.055   2.640   5.408  1.00  0.00     0.125 C 
HETATM    3  N6  UNL     1      -4.197   2.675   6.535  1.00  0.00    -0.192 NA
ENDROOT
BRANCH   1   4
HETATM    4  C9  UNL     1      -4.871   3.442   3.251  1.00  0.00     0.184 C 
BRANCH   4   5
HETATM    5  C8  UNL     1      -5.702   2.774   2.222  1.00  0.00     0.236 C 
HETATM    6  N5  UNL     1      -5.547   2.955   0.850  1.00  0.00    -0.254 N 
ATOM      7  H5  UNL     1      -4.822   3.587   0.509  1.00  0.00     0.181 HD
HETATM    8  O6  UNL     1      -6.603   1.991   2.648  1.00  0.00    -0.272 OA
BRANCH   6   9
HETATM    9  S1  UNL     1      -6.544   2.142  -0.273  1.00  0.00     0.235 S 
HETATM   10  O4  UNL     1      -6.112   2.407  -1.710  1.00  0.00    -0.205 OA
HETATM   11  O5  UNL     1      -6.412   0.641  -0.078  1.00  0.00    -0.205 OA
BRANCH   9  12
HETATM   12  C7  UNL     1      -8.244   2.587  -0.175  1.00  0.00     0.206 C 
BRANCH  12  13
HETATM   13  C6  UNL     1      -8.369   4.067  -0.020  1.00  0.00     0.290 C 
BRANCH  13  14
HETATM   14  C5  UNL     1      -9.685   4.509   0.503  1.00  0.00     0.251 C 
HETATM   15  N3  UNL     1     -10.001   5.880   0.496  1.00  0.00    -0.329 N 
ATOM     16  H3  UNL     1      -9.308   6.533   0.129  1.00  0.00     0.165 HD
HETATM   17  O3  UNL     1     -10.487   3.662   0.941  1.00  0.00    -0.271 OA
BRANCH  15  18
HETATM   18  C4  UNL     1     -11.262   6.416   0.983  1.00  0.00     0.306 A 
HETATM   19  N2  UNL     1     -12.432   6.157   0.173  1.00  0.00    -0.222 N 
HETATM   20  C3  UNL     1     -11.841   7.514   0.201  1.00  0.00     0.285 A 
HETATM   21  O2  UNL     1     -11.818   8.702  -0.150  1.00  0.00    -0.267 OA
BRANCH  19  22
HETATM   22  N1  UNL     1     -13.470   5.412  -0.380  1.00  0.00    -0.263 N 
HETATM   23  C2  UNL     1     -13.248   4.506  -1.440  1.00  0.00     0.232 C 
HETATM   24  C1  UNL     1     -14.411   3.737  -1.976  1.00  0.00     0.119 C 
HETATM   25  O1  UNL     1     -12.122   4.315  -1.951  1.00  0.00    -0.272 OA
ATOM     26  H1  UNL     1     -14.414   5.523  -0.010  1.00  0.00     0.190 HD
ENDBRANCH  19  22
ENDBRANCH  15  18
ENDBRANCH  13  14
BRANCH  13  27
HETATM   27  N4  UNL     1      -8.023   4.738  -1.242  1.00  0.00    -0.066 N 
ATOM     28  H43 UNL     1      -8.001   5.750  -1.114  1.00  0.00     0.275 HD
ATOM     29  H42 UNL     1      -7.044   4.585  -1.483  1.00  0.00     0.275 HD
ATOM     30  H41 UNL     1      -8.640   4.475  -2.010  1.00  0.00     0.275 HD
ENDBRANCH  13  27
ENDBRANCH  12  13
ENDBRANCH   9  12
ENDBRANCH   6   9
ENDBRANCH   4   5
ENDBRANCH   1   4
BRANCH   1  31
HETATM   31  O7  UNL     1      -3.822   1.277   3.494  1.00  0.00    -0.356 OA
ATOM     32  H7  UNL     1      -4.209   0.632   4.074  1.00  0.00     0.213 HD
ENDBRANCH   1  31
BRANCH   1  33
HETATM   33  N7  UNL     1      -2.569   3.170   3.671  1.00  0.00    -0.166 N 
HETATM   34  N8  UNL     1      -2.239   3.671   2.498  1.00  0.00    -0.221 N 
HETATM   35  N9  UNL     1      -1.021   4.110   2.539  1.00  0.00    -0.271 N 
ATOM     36  H8  UNL     1      -2.849   3.708   1.681  1.00  0.00     0.210 HD
HETATM   37  C12 UNL     1      -0.513   3.905   3.764  1.00  0.00     0.139 A 
ATOM     38  H9  UNL     1      -0.524   4.544   1.760  1.00  0.00     0.190 HD
HETATM   39  N11 UNL     1      -1.528   3.305   4.460  1.00  0.00    -0.265 N 
ATOM     40  H11 UNL     1      -1.483   3.010   5.435  1.00  0.00     0.190 HD
BRANCH  37  41
HETATM   41  C13 UNL     1       0.850   4.248   4.235  1.00  0.00     0.308 C 
BRANCH  41  42
HETATM   42  N10 UNL     1       1.508   5.003   3.181  1.00  0.00    -0.073 N 
ATOM     43 3H10 UNL     1       0.921   5.745   2.799  1.00  0.00     0.274 HD
ATOM     44 2H10 UNL     1       2.263   5.594   3.529  1.00  0.00     0.274 HD
ATOM     45 1H10 UNL     1       1.819   4.339   2.471  1.00  0.00     0.274 HD
ENDBRANCH  41  42
ENDBRANCH  37  41
ENDBRANCH   1  33
TORSDOF 13
ENDMDL
