MODEL 1
REMARK VINA RESULT: -7.307308811      0.000      0.000
REMARK  11 active torsions:
REMARK  status: ('A' for Active; 'I' for Inactive)
REMARK    1  A    between atoms: C1_2  and  N1_3 
REMARK    2  A    between atoms: N1_3  and  N2_5 
REMARK    3  A    between atoms: N2_5  and  S1_7 
REMARK    4  A    between atoms: S1_7  and  O4_10 
REMARK    5  A    between atoms: O4_10  and  C2_11 
REMARK    6  A    between atoms: C3_13  and  O6_14 
REMARK    7  A    between atoms: O6_14  and  S2_15 
REMARK    8  A    between atoms: C4_19  and  O10_20 
REMARK    9  A    between atoms: O10_20  and  S3_21 
REMARK   10  A    between atoms: C5_25  and  O14_26 
REMARK   11  A    between atoms: O14_26  and  S4_27 
ROOT
HETATM    1  C2  UNL     1      -6.184   2.339   1.208  1.00  0.00     0.317 C 
HETATM    2  O5  UNL     1      -6.005   1.062   1.778  1.00  0.00    -0.324 OA
HETATM    3  C3  UNL     1      -5.725   1.201   3.117  1.00  0.00     0.318 C 
HETATM    4  C4  UNL     1      -5.236   2.604   3.263  1.00  0.00     0.236 C 
HETATM    5  C5  UNL     1      -6.314   3.281   2.348  1.00  0.00     0.236 C 
ENDROOT
BRANCH   1   6
HETATM    6  O4  UNL     1      -7.333   2.290   0.476  1.00  0.00    -0.223 OA
BRANCH   6   7
HETATM    7  S1  UNL     1      -7.241   2.925  -1.060  1.00  0.00     0.378 S 
HETATM    8  O2  UNL     1      -5.889   2.671  -1.648  1.00  0.00    -0.174 OA
HETATM    9  O3  UNL     1      -8.217   2.102  -1.896  1.00  0.00    -0.174 OA
BRANCH   7  10
HETATM   10  N2  UNL     1      -7.662   4.592  -1.137  1.00  0.00    -0.202 N 
ATOM     11  H2  UNL     1      -7.344   5.263  -1.838  1.00  0.00     0.202 HD
BRANCH  10  12
HETATM   12  N1  UNL     1      -8.522   4.861  -0.065  1.00  0.00    -0.266 N 
ATOM     13  H1  UNL     1      -8.147   5.242   0.804  1.00  0.00     0.190 HD
BRANCH  12  14
HETATM   14  C1  UNL     1      -9.919   4.606  -0.182  1.00  0.00     0.369 C 
HETATM   15  O1  UNL     1     -10.428   4.608  -1.321  1.00  0.00    -0.282 OA
ENDBRANCH  12  14
ENDBRANCH  10  12
ENDBRANCH   7  10
ENDBRANCH   6   7
ENDBRANCH   1   6
BRANCH   5  16
HETATM   16  O14 UNL     1      -5.989   4.591   2.123  1.00  0.00    -0.244 OA
BRANCH  16  17
HETATM   17  S4  UNL     1      -7.090   5.537   2.993  1.00  0.00     0.252 S 
HETATM   18  O15 UNL     1      -7.364   6.826   2.253  1.00  0.00    -0.572 OA
HETATM   19  O16 UNL     1      -8.402   4.805   3.097  1.00  0.00    -0.572 OA
HETATM   20  O17 UNL     1      -6.489   5.929   4.501  1.00  0.00    -0.572 OA
ENDBRANCH  16  17
ENDBRANCH   5  16
BRANCH   3  21
HETATM   21  O6  UNL     1      -4.819   0.237   3.561  1.00  0.00    -0.221 OA
BRANCH  21  22
HETATM   22  S2  UNL     1      -5.715  -1.143   3.905  1.00  0.00     0.254 S 
HETATM   23  O7  UNL     1      -5.383  -1.506   5.347  1.00  0.00    -0.572 OA
HETATM   24  O8  UNL     1      -7.184  -0.925   3.724  1.00  0.00    -0.572 OA
HETATM   25  O9  UNL     1      -5.139  -2.400   2.954  1.00  0.00    -0.572 OA
ENDBRANCH  21  22
ENDBRANCH   3  21
BRANCH   4  26
HETATM   26  O10 UNL     1      -4.005   2.737   2.636  1.00  0.00    -0.244 OA
BRANCH  26  27
HETATM   27  S3  UNL     1      -2.857   3.435   3.655  1.00  0.00     0.252 S 
HETATM   28  O11 UNL     1      -2.500   2.431   4.733  1.00  0.00    -0.572 OA
HETATM   29  O12 UNL     1      -1.664   3.919   2.896  1.00  0.00    -0.572 OA
HETATM   30  O13 UNL     1      -3.544   4.758   4.431  1.00  0.00    -0.572 OA
ENDBRANCH  26  27
ENDBRANCH   4  26
TORSDOF 11
ENDMDL
MODEL 2
REMARK VINA RESULT: -7.208528805      0.136      1.184
REMARK  11 active torsions:
REMARK  status: ('A' for Active; 'I' for Inactive)
REMARK    1  A    between atoms: C1_2  and  N1_3 
REMARK    2  A    between atoms: N1_3  and  N2_5 
REMARK    3  A    between atoms: N2_5  and  S1_7 
REMARK    4  A    between atoms: S1_7  and  O4_10 
REMARK    5  A    between atoms: O4_10  and  C2_11 
REMARK    6  A    between atoms: C3_13  and  O6_14 
REMARK    7  A    between atoms: O6_14  and  S2_15 
REMARK    8  A    between atoms: C4_19  and  O10_20 
REMARK    9  A    between atoms: O10_20  and  S3_21 
REMARK   10  A    between atoms: C5_25  and  O14_26 
REMARK   11  A    between atoms: O14_26  and  S4_27 
ROOT
HETATM    1  C2  UNL     1      -6.200   2.344   1.165  1.00  0.00     0.317 C 
HETATM    2  O5  UNL     1      -6.032   1.074   1.753  1.00  0.00    -0.324 OA
HETATM    3  C3  UNL     1      -5.753   1.230   3.091  1.00  0.00     0.318 C 
HETATM    4  C4  UNL     1      -5.254   2.631   3.218  1.00  0.00     0.236 C 
HETATM    5  C5  UNL     1      -6.326   3.303   2.292  1.00  0.00     0.236 C 
ENDROOT
BRANCH   1   6
HETATM    6  O4  UNL     1      -7.349   2.292   0.432  1.00  0.00    -0.223 OA
BRANCH   6   7
HETATM    7  S1  UNL     1      -7.256   2.925  -1.104  1.00  0.00     0.378 S 
HETATM    8  O2  UNL     1      -5.891   2.703  -1.676  1.00  0.00    -0.174 OA
HETATM    9  O3  UNL     1      -8.201   2.075  -1.949  1.00  0.00    -0.174 OA
BRANCH   7  10
HETATM   10  N2  UNL     1      -7.718   4.581  -1.192  1.00  0.00    -0.202 N 
ATOM     11  H2  UNL     1      -7.414   5.256  -1.894  1.00  0.00     0.202 HD
BRANCH  10  12
HETATM   12  N1  UNL     1      -8.589   4.834  -0.124  1.00  0.00    -0.266 N 
ATOM     13  H1  UNL     1      -8.223   5.207   0.752  1.00  0.00     0.190 HD
BRANCH  12  14
HETATM   14  C1  UNL     1      -9.982   4.571  -0.256  1.00  0.00     0.369 C 
HETATM   15  O1  UNL     1     -10.474   4.536  -1.402  1.00  0.00    -0.282 OA
ENDBRANCH  12  14
ENDBRANCH  10  12
ENDBRANCH   7  10
ENDBRANCH   6   7
ENDBRANCH   1   6
BRANCH   5  16
HETATM   16  O14 UNL     1      -5.991   4.607   2.049  1.00  0.00    -0.244 OA
BRANCH  16  17
HETATM   17  S4  UNL     1      -7.126   5.573   2.851  1.00  0.00     0.252 S 
HETATM   18  O15 UNL     1      -8.432   4.825   2.996  1.00  0.00    -0.572 OA
HETATM   19  O16 UNL     1      -6.635   5.869   4.243  1.00  0.00    -0.572 OA
HETATM   20  O17 UNL     1      -7.433   6.977   2.000  1.00  0.00    -0.572 OA
ENDBRANCH  16  17
ENDBRANCH   5  16
BRANCH   3  21
HETATM   21  O6  UNL     1      -4.854   0.265   3.550  1.00  0.00    -0.221 OA
BRANCH  21  22
HETATM   22  S2  UNL     1      -5.767  -1.081   3.973  1.00  0.00     0.254 S 
HETATM   23  O7  UNL     1      -5.323  -2.196   3.033  1.00  0.00    -0.572 OA
HETATM   24  O8  UNL     1      -5.576  -1.469   5.406  1.00  0.00    -0.572 OA
HETATM   25  O9  UNL     1      -7.375  -0.767   3.610  1.00  0.00    -0.572 OA
ENDBRANCH  21  22
ENDBRANCH   3  21
BRANCH   4  26
HETATM   26  O10 UNL     1      -4.021   2.746   2.592  1.00  0.00    -0.244 OA
BRANCH  26  27
HETATM   27  S3  UNL     1      -2.872   3.459   3.599  1.00  0.00     0.252 S 
HETATM   28  O11 UNL     1      -2.490   2.459   4.672  1.00  0.00    -0.572 OA
HETATM   29  O12 UNL     1      -1.694   3.961   2.828  1.00  0.00    -0.572 OA
HETATM   30  O13 UNL     1      -3.570   4.772   4.384  1.00  0.00    -0.572 OA
ENDBRANCH  26  27
ENDBRANCH   4  26
TORSDOF 11
ENDMDL
MODEL 3
REMARK VINA RESULT: -6.691882712      2.025      3.843
REMARK  11 active torsions:
REMARK  status: ('A' for Active; 'I' for Inactive)
REMARK    1  A    between atoms: C1_2  and  N1_3 
REMARK    2  A    between atoms: N1_3  and  N2_5 
REMARK    3  A    between atoms: N2_5  and  S1_7 
REMARK    4  A    between atoms: S1_7  and  O4_10 
REMARK    5  A    between atoms: O4_10  and  C2_11 
REMARK    6  A    between atoms: C3_13  and  O6_14 
REMARK    7  A    between atoms: O6_14  and  S2_15 
REMARK    8  A    between atoms: C4_19  and  O10_20 
REMARK    9  A    between atoms: O10_20  and  S3_21 
REMARK   10  A    between atoms: C5_25  and  O14_26 
REMARK   11  A    between atoms: O14_26  and  S4_27 
ROOT
HETATM    1  C2  UNL     1      -6.364   1.973   1.294  1.00  0.00     0.317 C 
HETATM    2  O5  UNL     1      -7.656   1.444   1.486  1.00  0.00    -0.324 OA
HETATM    3  C3  UNL     1      -7.789   1.041   2.793  1.00  0.00     0.318 C 
HETATM    4  C4  UNL     1      -6.390   0.865   3.285  1.00  0.00     0.236 C 
HETATM    5  C5  UNL     1      -5.797   2.171   2.653  1.00  0.00     0.236 C 
ENDROOT
BRANCH   1   6
HETATM    6  O4  UNL     1      -6.514   3.163   0.645  1.00  0.00    -0.223 OA
BRANCH   6   7
HETATM    7  S1  UNL     1      -7.061   3.069  -0.923  1.00  0.00     0.378 S 
HETATM    8  O2  UNL     1      -7.379   4.434  -1.447  1.00  0.00    -0.174 OA
HETATM    9  O3  UNL     1      -5.868   2.579  -1.739  1.00  0.00    -0.174 OA
BRANCH   7  10
HETATM   10  N2  UNL     1      -8.389   1.990  -1.120  1.00  0.00    -0.202 N 
ATOM     11  H2  UNL     1      -8.353   1.059  -1.537  1.00  0.00     0.202 HD
BRANCH  10  12
HETATM   12  N1  UNL     1      -9.527   2.621  -0.603  1.00  0.00    -0.266 N 
ATOM     13  H1  UNL     1      -9.572   2.853   0.390  1.00  0.00     0.190 HD
BRANCH  12  14
HETATM   14  C1  UNL     1     -10.622   2.940  -1.456  1.00  0.00     0.369 C 
HETATM   15  O1  UNL     1     -10.849   4.142  -1.704  1.00  0.00    -0.282 OA
ENDBRANCH  12  14
ENDBRANCH  10  12
ENDBRANCH   7  10
ENDBRANCH   6   7
ENDBRANCH   1   6
BRANCH   5  16
HETATM   16  O14 UNL     1      -4.434   2.178   2.772  1.00  0.00    -0.244 OA
BRANCH  16  17
HETATM   17  S4  UNL     1      -4.006   3.633   3.523  1.00  0.00     0.252 S 
HETATM   18  O15 UNL     1      -4.816   4.771   2.947  1.00  0.00    -0.572 OA
HETATM   19  O16 UNL     1      -4.340   3.554   4.989  1.00  0.00    -0.572 OA
HETATM   20  O17 UNL     1      -2.390   3.982   3.283  1.00  0.00    -0.572 OA
ENDBRANCH  16  17
ENDBRANCH   5  16
BRANCH   3  21
HETATM   21  O6  UNL     1      -8.577  -0.107   2.906  1.00  0.00    -0.221 OA
BRANCH  21  22
HETATM   22  S2  UNL     1      -9.962   0.169   1.995  1.00  0.00     0.254 S 
HETATM   23  O7  UNL     1     -10.943  -0.929   2.387  1.00  0.00    -0.572 OA
HETATM   24  O8  UNL     1     -10.540   1.528   2.239  1.00  0.00    -0.572 OA
HETATM   25  O9  UNL     1      -9.592  -0.080   0.377  1.00  0.00    -0.572 OA
ENDBRANCH  21  22
ENDBRANCH   3  21
BRANCH   4  26
HETATM   26  O10 UNL     1      -5.804  -0.219   2.646  1.00  0.00    -0.244 OA
BRANCH  26  27
HETATM   27  S3  UNL     1      -5.317  -1.404   3.743  1.00  0.00     0.252 S 
HETATM   28  O11 UNL     1      -4.944  -2.650   2.966  1.00  0.00    -0.572 OA
HETATM   29  O12 UNL     1      -4.214  -0.920   4.628  1.00  0.00    -0.572 OA
HETATM   30  O13 UNL     1      -6.621  -1.813   4.722  1.00  0.00    -0.572 OA
ENDBRANCH  26  27
ENDBRANCH   4  26
TORSDOF 11
ENDMDL
MODEL 4
REMARK VINA RESULT: -6.679573882      1.943      3.963
REMARK  11 active torsions:
REMARK  status: ('A' for Active; 'I' for Inactive)
REMARK    1  A    between atoms: C1_2  and  N1_3 
REMARK    2  A    between atoms: N1_3  and  N2_5 
REMARK    3  A    between atoms: N2_5  and  S1_7 
REMARK    4  A    between atoms: S1_7  and  O4_10 
REMARK    5  A    between atoms: O4_10  and  C2_11 
REMARK    6  A    between atoms: C3_13  and  O6_14 
REMARK    7  A    between atoms: O6_14  and  S2_15 
REMARK    8  A    between atoms: C4_19  and  O10_20 
REMARK    9  A    between atoms: O10_20  and  S3_21 
REMARK   10  A    between atoms: C5_25  and  O14_26 
REMARK   11  A    between atoms: O14_26  and  S4_27 
ROOT
HETATM    1  C2  UNL     1      -6.067   1.526   1.460  1.00  0.00     0.317 C 
HETATM    2  O5  UNL     1      -7.366   0.983   1.546  1.00  0.00    -0.324 OA
HETATM    3  C3  UNL     1      -7.640   0.678   2.858  1.00  0.00     0.318 C 
HETATM    4  C4  UNL     1      -6.305   0.572   3.516  1.00  0.00     0.236 C 
HETATM    5  C5  UNL     1      -5.662   1.839   2.854  1.00  0.00     0.236 C 
ENDROOT
BRANCH   1   6
HETATM    6  O4  UNL     1      -6.159   2.659   0.707  1.00  0.00    -0.223 OA
BRANCH   6   7
HETATM    7  S1  UNL     1      -6.703   2.450  -0.852  1.00  0.00     0.378 S 
HETATM    8  O2  UNL     1      -6.371   3.648  -1.684  1.00  0.00    -0.174 OA
HETATM    9  O3  UNL     1      -5.869   1.305  -1.421  1.00  0.00    -0.174 OA
BRANCH   7  10
HETATM   10  N2  UNL     1      -8.378   2.058  -0.945  1.00  0.00    -0.202 N 
ATOM     11  H2  UNL     1      -8.804   1.375  -1.572  1.00  0.00     0.202 HD
BRANCH  10  12
HETATM   12  N1  UNL     1      -9.050   2.848  -0.003  1.00  0.00    -0.266 N 
ATOM     13  H1  UNL     1      -9.153   2.516   0.956  1.00  0.00     0.190 HD
BRANCH  12  14
HETATM   14  C1  UNL     1      -9.589   4.111  -0.378  1.00  0.00     0.369 C 
HETATM   15  O1  UNL     1      -9.807   4.328  -1.588  1.00  0.00    -0.282 OA
ENDBRANCH  12  14
ENDBRANCH  10  12
ENDBRANCH   7  10
ENDBRANCH   6   7
ENDBRANCH   1   6
BRANCH   5  16
HETATM   16  O14 UNL     1      -4.322   1.887   3.124  1.00  0.00    -0.244 OA
BRANCH  16  17
HETATM   17  S4  UNL     1      -3.995   3.420   3.764  1.00  0.00     0.252 S 
HETATM   18  O15 UNL     1      -2.677   3.932   3.231  1.00  0.00    -0.572 OA
HETATM   19  O16 UNL     1      -5.056   4.386   3.309  1.00  0.00    -0.572 OA
HETATM   20  O17 UNL     1      -3.889   3.368   5.430  1.00  0.00    -0.572 OA
ENDBRANCH  16  17
ENDBRANCH   5  16
BRANCH   3  21
HETATM   21  O6  UNL     1      -8.420  -0.475   2.971  1.00  0.00    -0.221 OA
BRANCH  21  22
HETATM   22  S2  UNL     1      -9.905  -0.123   2.267  1.00  0.00     0.254 S 
HETATM   23  O7  UNL     1      -9.665  -0.139   0.762  1.00  0.00    -0.572 OA
HETATM   24  O8  UNL     1     -10.965  -1.104   2.659  1.00  0.00    -0.572 OA
HETATM   25  O9  UNL     1     -10.321   1.453   2.665  1.00  0.00    -0.572 OA
ENDBRANCH  21  22
ENDBRANCH   3  21
BRANCH   4  26
HETATM   26  O10 UNL     1      -5.634  -0.544   3.034  1.00  0.00    -0.244 OA
BRANCH  26  27
HETATM   27  S3  UNL     1      -5.279  -1.640   4.266  1.00  0.00     0.252 S 
HETATM   28  O11 UNL     1      -4.141  -1.077   5.093  1.00  0.00    -0.572 OA
HETATM   29  O12 UNL     1      -6.487  -1.964   5.084  1.00  0.00    -0.572 OA
HETATM   30  O13 UNL     1      -4.722  -3.071   3.582  1.00  0.00    -0.572 OA
ENDBRANCH  26  27
ENDBRANCH   4  26
TORSDOF 11
ENDMDL
MODEL 5
REMARK VINA RESULT: -6.639619215      1.665      1.766
REMARK  11 active torsions:
REMARK  status: ('A' for Active; 'I' for Inactive)
REMARK    1  A    between atoms: C1_2  and  N1_3 
REMARK    2  A    between atoms: N1_3  and  N2_5 
REMARK    3  A    between atoms: N2_5  and  S1_7 
REMARK    4  A    between atoms: S1_7  and  O4_10 
REMARK    5  A    between atoms: O4_10  and  C2_11 
REMARK    6  A    between atoms: C3_13  and  O6_14 
REMARK    7  A    between atoms: O6_14  and  S2_15 
REMARK    8  A    between atoms: C4_19  and  O10_20 
REMARK    9  A    between atoms: O10_20  and  S3_21 
REMARK   10  A    between atoms: C5_25  and  O14_26 
REMARK   11  A    between atoms: O14_26  and  S4_27 
ROOT
HETATM    1  C2  UNL     1      -6.281   2.726   1.138  1.00  0.00     0.317 C 
HETATM    2  O5  UNL     1      -6.154   1.384   1.551  1.00  0.00    -0.324 OA
HETATM    3  C3  UNL     1      -5.843   1.352   2.890  1.00  0.00     0.318 C 
HETATM    4  C4  UNL     1      -5.285   2.705   3.187  1.00  0.00     0.236 C 
HETATM    5  C5  UNL     1      -6.345   3.533   2.383  1.00  0.00     0.236 C 
ENDROOT
BRANCH   1   6
HETATM    6  O4  UNL     1      -7.444   2.815   0.433  1.00  0.00    -0.223 OA
BRANCH   6   7
HETATM    7  S1  UNL     1      -7.654   1.678  -0.764  1.00  0.00     0.378 S 
HETATM    8  O2  UNL     1      -8.279   2.303  -1.972  1.00  0.00    -0.174 OA
HETATM    9  O3  UNL     1      -6.246   1.274  -1.189  1.00  0.00    -0.174 OA
BRANCH   7  10
HETATM   10  N2  UNL     1      -8.532   0.291  -0.243  1.00  0.00    -0.202 N 
ATOM     11  H2  UNL     1      -8.782  -0.515  -0.817  1.00  0.00     0.202 HD
BRANCH  10  12
HETATM   12  N1  UNL     1      -8.838   0.469   1.112  1.00  0.00    -0.266 N 
ATOM     13  H1  UNL     1      -8.125   0.297   1.820  1.00  0.00     0.190 HD
BRANCH  12  14
HETATM   14  C1  UNL     1     -10.142   0.888   1.504  1.00  0.00     0.369 C 
HETATM   15  O1  UNL     1     -10.919   1.312   0.625  1.00  0.00    -0.282 OA
ENDBRANCH  12  14
ENDBRANCH  10  12
ENDBRANCH   7  10
ENDBRANCH   6   7
ENDBRANCH   1   6
BRANCH   5  16
HETATM   16  O14 UNL     1      -5.962   4.844   2.304  1.00  0.00    -0.244 OA
BRANCH  16  17
HETATM   17  S4  UNL     1      -7.098   5.750   3.171  1.00  0.00     0.252 S 
HETATM   18  O15 UNL     1      -7.372   7.055   2.459  1.00  0.00    -0.572 OA
HETATM   19  O16 UNL     1      -8.401   4.997   3.223  1.00  0.00    -0.572 OA
HETATM   20  O17 UNL     1      -6.540   6.111   4.703  1.00  0.00    -0.572 OA
ENDBRANCH  16  17
ENDBRANCH   5  16
BRANCH   3  21
HETATM   21  O6  UNL     1      -4.976   0.302   3.198  1.00  0.00    -0.221 OA
BRANCH  21  22
HETATM   22  S2  UNL     1      -5.929  -0.951   3.789  1.00  0.00     0.254 S 
HETATM   23  O7  UNL     1      -5.668  -0.998   5.290  1.00  0.00    -0.572 OA
HETATM   24  O8  UNL     1      -7.382  -0.745   3.496  1.00  0.00    -0.572 OA
HETATM   25  O9  UNL     1      -5.353  -2.396   3.162  1.00  0.00    -0.572 OA
ENDBRANCH  21  22
ENDBRANCH   3  21
BRANCH   4  26
HETATM   26  O10 UNL     1      -4.060   2.854   2.552  1.00  0.00    -0.244 OA
BRANCH  26  27
HETATM   27  S3  UNL     1      -2.881   3.452   3.598  1.00  0.00     0.252 S 
HETATM   28  O11 UNL     1      -2.551   2.375   4.612  1.00  0.00    -0.572 OA
HETATM   29  O12 UNL     1      -1.678   3.939   2.857  1.00  0.00    -0.572 OA
HETATM   30  O13 UNL     1      -3.517   4.750   4.457  1.00  0.00    -0.572 OA
ENDBRANCH  26  27
ENDBRANCH   4  26
TORSDOF 11
ENDMDL
