MODEL 1
REMARK VINA RESULT: -9.062423118      0.000      0.000
REMARK  13 active torsions:
REMARK  status: ('A' for Active; 'I' for Inactive)
REMARK    1  A    between atoms: C3_5  and  N2_6 
REMARK       I    between atoms: N2_6  and  C4_8 
REMARK    2  A    between atoms: C4_8  and  C5_10 
REMARK    3  A    between atoms: C5_10  and  N3_11 
REMARK    4  A    between atoms: C9_15  and  C10_16 
REMARK    5  A    between atoms: C10_16  and  C11_17 
REMARK    6  A    between atoms: C11_17  and  O2_18 
REMARK    7  A    between atoms: C12_21  and  C13_22 
REMARK    8  A    between atoms: C13_22  and  C14_23 
REMARK    9  A    between atoms: C14_23  and  C15_24 
REMARK   10  A    between atoms: C15_24  and  C16_25 
REMARK   11  A    between atoms: C16_25  and  C17_26 
REMARK       I    between atoms: N6_32  and  C19_34 
REMARK   12  A    between atoms: C19_34  and  C20_36 
REMARK   13  A    between atoms: C20_36  and  C21_37 
ROOT
HETATM    1  C1  UNL     1      13.236 -15.235   0.479  1.00  0.00     0.069 C 
HETATM    2  C2  UNL     1      11.761 -15.144   0.109  1.00  0.00     0.020 A 
HETATM    3  N1  UNL     1      11.030 -16.187  -0.154  1.00  0.00    -0.339 N 
ATOM      4  H1  UNL     1      11.431 -17.125  -0.120  1.00  0.00     0.168 HD
HETATM    5  C3  UNL     1       9.747 -16.007  -0.470  1.00  0.00     0.151 A 
HETATM    6  S1  UNL     1       9.566 -14.312  -0.394  1.00  0.00    -0.057 SA
HETATM    7  C12 UNL     1      11.166 -13.913   0.045  1.00  0.00     0.008 A 
ENDROOT
BRANCH   7   8
HETATM    8  C13 UNL     1      11.761 -12.553   0.293  1.00  0.00     0.048 C 
BRANCH   8   9
HETATM    9  C14 UNL     1      11.904 -12.246   1.748  1.00  0.00     0.006 C 
BRANCH   9  10
HETATM   10  C15 UNL     1      13.161 -11.519   2.099  1.00  0.00     0.007 C 
BRANCH  10  11
HETATM   11  C16 UNL     1      14.207 -12.345   2.777  1.00  0.00     0.066 C 
BRANCH  11  12
HETATM   12  C17 UNL     1      13.702 -12.663   4.164  1.00  0.00     0.069 A 
HETATM   13  N4  UNL     1      13.217 -11.823   5.069  1.00  0.00    -0.296 N 
HETATM   14  N5  UNL     1      12.839 -12.254   6.202  1.00  0.00    -0.279 N 
ATOM     15  H4  UNL     1      13.146 -10.829   4.853  1.00  0.00     0.187 HD
HETATM   16  C18 UNL     1      12.942 -13.561   6.458  1.00  0.00     0.167 A 
ATOM     17  H5  UNL     1      12.466 -11.615   6.903  1.00  0.00     0.189 HD
HETATM   18  N6  UNL     1      12.614 -14.205   7.555  1.00  0.00    -0.306 N 
HETATM   19  S3  UNL     1      13.605 -14.150   4.999  1.00  0.00    -0.038 SA
HETATM   20  C19 UNL     1      12.076 -13.530   8.671  1.00  0.00     0.227 C 
ATOM     21  H6  UNL     1      12.752 -15.215   7.601  1.00  0.00     0.171 HD
HETATM   22  O3  UNL     1      12.854 -13.038   9.526  1.00  0.00    -0.273 OA
BRANCH  20  23
HETATM   23  C20 UNL     1      10.615 -13.387   8.860  1.00  0.00     0.142 C 
BRANCH  23  24
HETATM   24  C21 UNL     1       9.885 -14.258   7.841  1.00  0.00    -0.043 A 
HETATM   25  C22 UNL     1       9.461 -13.791   6.659  1.00  0.00     0.015 A 
HETATM   26  C23 UNL     1       8.817 -14.664   5.827  1.00  0.00     0.050 A 
HETATM   27  S2  UNL     1       8.820 -16.115   6.720  1.00  0.00    -0.113 SA
HETATM   28  C24 UNL     1       9.635 -15.579   8.117  1.00  0.00     0.057 A 
ENDBRANCH  23  24
ENDBRANCH  20  23
ENDBRANCH  11  12
ENDBRANCH  10  11
ENDBRANCH   9  10
ENDBRANCH   8   9
ENDBRANCH   7   8
BRANCH   5  29
HETATM   29  N2  UNL     1       8.854 -16.933  -0.767  1.00  0.00    -0.306 N 
HETATM   30  C4  UNL     1       7.925 -16.716  -1.814  1.00  0.00     0.252 C 
HETATM   31  O1  UNL     1       6.726 -16.534  -1.520  1.00  0.00    -0.271 OA
ATOM     32  H2  UNL     1       8.832 -17.806  -0.241  1.00  0.00     0.171 HD
BRANCH  30  33
HETATM   33  C5  UNL     1       8.359 -16.708  -3.202  1.00  0.00     0.375 C 
BRANCH  33  34
HETATM   34  N3  UNL     1       7.627 -15.821  -4.077  1.00  0.00     0.102 N 
HETATM   35  C6  UNL     1       8.229 -14.489  -3.893  1.00  0.00     0.273 C 
HETATM   36  C7  UNL     1       9.481 -14.456  -4.713  1.00  0.00     0.032 C 
HETATM   37  C8  UNL     1       9.337 -15.601  -5.692  1.00  0.00     0.037 C 
HETATM   38  C9  UNL     1       7.935 -16.069  -5.476  1.00  0.00     0.225 C 
BRANCH  38  39
HETATM   39  C10 UNL     1       6.980 -15.241  -6.300  1.00  0.00     0.062 C 
BRANCH  39  40
HETATM   40  C11 UNL     1       5.899 -16.036  -6.969  1.00  0.00     0.166 C 
BRANCH  40  41
HETATM   41  O2  UNL     1       4.727 -15.308  -7.021  1.00  0.00    -0.401 OA
ATOM     42  H2  UNL     1       4.152 -15.651  -7.695  1.00  0.00     0.209 HD
ENDBRANCH  40  41
ENDBRANCH  39  40
ENDBRANCH  38  39
ENDBRANCH  33  34
ENDBRANCH  30  33
ENDBRANCH   5  29
TORSDOF 13
ENDMDL
MODEL 2
REMARK VINA RESULT: -9.056251622      2.820      4.269
REMARK  13 active torsions:
REMARK  status: ('A' for Active; 'I' for Inactive)
REMARK    1  A    between atoms: C3_5  and  N2_6 
REMARK       I    between atoms: N2_6  and  C4_8 
REMARK    2  A    between atoms: C4_8  and  C5_10 
REMARK    3  A    between atoms: C5_10  and  N3_11 
REMARK    4  A    between atoms: C9_15  and  C10_16 
REMARK    5  A    between atoms: C10_16  and  C11_17 
REMARK    6  A    between atoms: C11_17  and  O2_18 
REMARK    7  A    between atoms: C12_21  and  C13_22 
REMARK    8  A    between atoms: C13_22  and  C14_23 
REMARK    9  A    between atoms: C14_23  and  C15_24 
REMARK   10  A    between atoms: C15_24  and  C16_25 
REMARK   11  A    between atoms: C16_25  and  C17_26 
REMARK       I    between atoms: N6_32  and  C19_34 
REMARK   12  A    between atoms: C19_34  and  C20_36 
REMARK   13  A    between atoms: C20_36  and  C21_37 
ROOT
HETATM    1  C1  UNL     1       6.172 -16.044   0.850  1.00  0.00     0.069 C 
HETATM    2  C2  UNL     1       6.597 -16.417  -0.565  1.00  0.00     0.020 A 
HETATM    3  N1  UNL     1       6.059 -17.394  -1.234  1.00  0.00    -0.339 N 
ATOM      4  H1  UNL     1       5.314 -17.957  -0.822  1.00  0.00     0.168 HD
HETATM    5  C3  UNL     1       6.498 -17.646  -2.466  1.00  0.00     0.151 A 
HETATM    6  S1  UNL     1       7.712 -16.467  -2.691  1.00  0.00    -0.057 SA
HETATM    7  C12 UNL     1       7.593 -15.700  -1.171  1.00  0.00     0.008 A 
ENDROOT
BRANCH   7   8
HETATM    8  C13 UNL     1       8.386 -14.535  -0.642  1.00  0.00     0.048 C 
BRANCH   8   9
HETATM    9  C14 UNL     1       9.766 -14.475  -1.210  1.00  0.00     0.006 C 
BRANCH   9  10
HETATM   10  C15 UNL     1      10.825 -14.140  -0.212  1.00  0.00     0.007 C 
BRANCH  10  11
HETATM   11  C16 UNL     1      11.517 -15.315   0.403  1.00  0.00     0.066 C 
BRANCH  11  12
HETATM   12  C17 UNL     1      11.115 -15.365   1.858  1.00  0.00     0.069 A 
HETATM   13  N4  UNL     1      11.785 -14.904   2.906  1.00  0.00    -0.296 N 
HETATM   14  N5  UNL     1      11.308 -15.035   4.075  1.00  0.00    -0.279 N 
ATOM     15  H4  UNL     1      12.684 -14.444   2.772  1.00  0.00     0.187 HD
HETATM   16  C18 UNL     1      10.127 -15.641   4.222  1.00  0.00     0.167 A 
ATOM     17  H5  UNL     1      11.817 -14.684   4.886  1.00  0.00     0.189 HD
HETATM   18  N6  UNL     1       9.465 -15.879   5.332  1.00  0.00    -0.306 N 
HETATM   19  S3  UNL     1       9.726 -16.018   2.607  1.00  0.00    -0.038 SA
HETATM   20  C19 UNL     1       9.972 -15.486   6.589  1.00  0.00     0.227 C 
ATOM     21  H6  UNL     1       8.565 -16.356   5.284  1.00  0.00     0.171 HD
HETATM   22  O3  UNL     1      10.740 -16.262   7.212  1.00  0.00    -0.273 OA
BRANCH  20  23
HETATM   23  C20 UNL     1       9.621 -14.181   7.194  1.00  0.00     0.142 C 
BRANCH  23  24
HETATM   24  C21 UNL     1      10.895 -13.479   7.656  1.00  0.00    -0.043 A 
HETATM   25  C22 UNL     1      11.153 -13.219   8.944  1.00  0.00     0.015 A 
HETATM   26  C23 UNL     1      12.326 -12.582   9.240  1.00  0.00     0.050 A 
HETATM   27  S2  UNL     1      13.037 -12.362   7.707  1.00  0.00    -0.113 SA
HETATM   28  C24 UNL     1      11.833 -13.081   6.738  1.00  0.00     0.057 A 
ENDBRANCH  23  24
ENDBRANCH  20  23
ENDBRANCH  11  12
ENDBRANCH  10  11
ENDBRANCH   9  10
ENDBRANCH   8   9
ENDBRANCH   7   8
BRANCH   5  29
HETATM   29  N2  UNL     1       6.081 -18.586  -3.294  1.00  0.00    -0.306 N 
HETATM   30  C4  UNL     1       4.923 -18.379  -4.082  1.00  0.00     0.252 C 
HETATM   31  O1  UNL     1       3.891 -19.029  -3.810  1.00  0.00    -0.271 OA
ATOM     32  H2  UNL     1       6.594 -19.464  -3.366  1.00  0.00     0.171 HD
BRANCH  30  33
HETATM   33  C5  UNL     1       4.933 -17.432  -5.185  1.00  0.00     0.375 C 
BRANCH  33  34
HETATM   34  N3  UNL     1       5.979 -17.627  -6.163  1.00  0.00     0.102 N 
HETATM   35  C6  UNL     1       5.329 -17.491  -7.478  1.00  0.00     0.273 C 
HETATM   36  C7  UNL     1       5.189 -16.026  -7.749  1.00  0.00     0.032 C 
HETATM   37  C8  UNL     1       6.155 -15.358  -6.794  1.00  0.00     0.037 C 
HETATM   38  C9  UNL     1       6.902 -16.506  -6.196  1.00  0.00     0.225 C 
BRANCH  38  39
HETATM   39  C10 UNL     1       8.052 -16.896  -7.092  1.00  0.00     0.062 C 
BRANCH  39  40
HETATM   40  C11 UNL     1       8.936 -15.751  -7.490  1.00  0.00     0.166 C 
BRANCH  40  41
HETATM   41  O2  UNL     1      10.114 -15.779  -6.770  1.00  0.00    -0.401 OA
ATOM     42  H2  UNL     1      10.847 -15.541  -7.326  1.00  0.00     0.209 HD
ENDBRANCH  40  41
ENDBRANCH  39  40
ENDBRANCH  38  39
ENDBRANCH  33  34
ENDBRANCH  30  33
ENDBRANCH   5  29
TORSDOF 13
ENDMDL
MODEL 3
REMARK VINA RESULT: -9.051532665      2.696     11.655
REMARK  13 active torsions:
REMARK  status: ('A' for Active; 'I' for Inactive)
REMARK    1  A    between atoms: C3_5  and  N2_6 
REMARK       I    between atoms: N2_6  and  C4_8 
REMARK    2  A    between atoms: C4_8  and  C5_10 
REMARK    3  A    between atoms: C5_10  and  N3_11 
REMARK    4  A    between atoms: C9_15  and  C10_16 
REMARK    5  A    between atoms: C10_16  and  C11_17 
REMARK    6  A    between atoms: C11_17  and  O2_18 
REMARK    7  A    between atoms: C12_21  and  C13_22 
REMARK    8  A    between atoms: C13_22  and  C14_23 
REMARK    9  A    between atoms: C14_23  and  C15_24 
REMARK   10  A    between atoms: C15_24  and  C16_25 
REMARK   11  A    between atoms: C16_25  and  C17_26 
REMARK       I    between atoms: N6_32  and  C19_34 
REMARK   12  A    between atoms: C19_34  and  C20_36 
REMARK   13  A    between atoms: C20_36  and  C21_37 
ROOT
HETATM    1  C1  UNL     1       8.194 -14.530  -0.689  1.00  0.00     0.069 C 
HETATM    2  C2  UNL     1       9.237 -15.285   0.126  1.00  0.00     0.020 A 
HETATM    3  N1  UNL     1      10.145 -14.690   0.842  1.00  0.00    -0.339 N 
ATOM      4  H1  UNL     1      10.189 -13.671   0.884  1.00  0.00     0.168 HD
HETATM    5  C3  UNL     1      11.017 -15.436   1.521  1.00  0.00     0.151 A 
HETATM    6  S1  UNL     1      10.542 -17.029   1.135  1.00  0.00    -0.057 SA
HETATM    7  C12 UNL     1       9.231 -16.653   0.109  1.00  0.00     0.008 A 
ENDROOT
BRANCH   7   8
HETATM    8  C13 UNL     1       8.312 -17.593  -0.623  1.00  0.00     0.048 C 
BRANCH   8   9
HETATM    9  C14 UNL     1       7.160 -18.039   0.216  1.00  0.00     0.006 C 
BRANCH   9  10
HETATM   10  C15 UNL     1       5.822 -17.789  -0.399  1.00  0.00     0.007 C 
BRANCH  10  11
HETATM   11  C16 UNL     1       5.347 -18.845  -1.346  1.00  0.00     0.066 C 
BRANCH  11  12
HETATM   12  C17 UNL     1       5.459 -18.281  -2.743  1.00  0.00     0.069 A 
HETATM   13  N4  UNL     1       5.686 -17.024  -3.100  1.00  0.00    -0.296 N 
HETATM   14  N5  UNL     1       5.742 -16.710  -4.329  1.00  0.00    -0.279 N 
ATOM     15  H4  UNL     1       5.816 -16.308  -2.386  1.00  0.00     0.187 HD
HETATM   16  C18 UNL     1       5.570 -17.668  -5.244  1.00  0.00     0.167 A 
ATOM     17  H5  UNL     1       5.916 -15.746  -4.612  1.00  0.00     0.189 HD
HETATM   18  N6  UNL     1       5.587 -17.557  -6.554  1.00  0.00    -0.306 N 
HETATM   19  S3  UNL     1       5.322 -19.044  -4.265  1.00  0.00    -0.038 SA
HETATM   20  C19 UNL     1       5.808 -16.314  -7.183  1.00  0.00     0.227 C 
ATOM     21  H6  UNL     1       5.439 -18.388  -7.127  1.00  0.00     0.171 HD
HETATM   22  O3  UNL     1       4.829 -15.559  -7.413  1.00  0.00    -0.273 OA
BRANCH  20  23
HETATM   23  C20 UNL     1       7.164 -15.877  -7.582  1.00  0.00     0.142 C 
BRANCH  23  24
HETATM   24  C21 UNL     1       7.971 -15.526  -6.335  1.00  0.00    -0.043 A 
HETATM   25  C22 UNL     1       7.687 -14.470  -5.561  1.00  0.00     0.015 A 
HETATM   26  C23 UNL     1       8.481 -14.253  -4.469  1.00  0.00     0.050 A 
HETATM   27  S2  UNL     1       9.603 -15.533  -4.553  1.00  0.00    -0.113 SA
HETATM   28  C24 UNL     1       9.038 -16.304  -5.964  1.00  0.00     0.057 A 
ENDBRANCH  23  24
ENDBRANCH  20  23
ENDBRANCH  11  12
ENDBRANCH  10  11
ENDBRANCH   9  10
ENDBRANCH   8   9
ENDBRANCH   7   8
BRANCH   5  29
HETATM   29  N2  UNL     1      12.001 -15.020   2.295  1.00  0.00    -0.306 N 
HETATM   30  C4  UNL     1      11.718 -14.360   3.516  1.00  0.00     0.252 C 
HETATM   31  O1  UNL     1      11.961 -13.138   3.604  1.00  0.00    -0.271 OA
ATOM     32  H2  UNL     1      12.969 -15.175   2.014  1.00  0.00     0.171 HD
BRANCH  30  33
HETATM   33  C5  UNL     1      11.157 -15.088   4.642  1.00  0.00     0.375 C 
BRANCH  33  34
HETATM   34  N3  UNL     1      10.651 -14.272   5.721  1.00  0.00     0.102 N 
HETATM   35  C6  UNL     1       9.184 -14.387   5.657  1.00  0.00     0.273 C 
HETATM   36  C7  UNL     1       8.816 -15.683   6.310  1.00  0.00     0.032 C 
HETATM   37  C8  UNL     1      10.033 -16.070   7.123  1.00  0.00     0.037 C 
HETATM   38  C9  UNL     1      10.916 -14.868   7.019  1.00  0.00     0.225 C 
BRANCH  38  39
HETATM   39  C10 UNL     1      10.533 -13.853   8.068  1.00  0.00     0.062 C 
BRANCH  39  40
HETATM   40  C11 UNL     1      11.525 -12.741   8.236  1.00  0.00     0.166 C 
BRANCH  40  41
HETATM   41  O2  UNL     1      11.017 -11.562   7.728  1.00  0.00    -0.401 OA
ATOM     42  H2  UNL     1      10.116 -11.443   8.003  1.00  0.00     0.209 HD
ENDBRANCH  40  41
ENDBRANCH  39  40
ENDBRANCH  38  39
ENDBRANCH  33  34
ENDBRANCH  30  33
ENDBRANCH   5  29
TORSDOF 13
ENDMDL
MODEL 4
REMARK VINA RESULT: -9.043915609      2.671      4.188
REMARK  13 active torsions:
REMARK  status: ('A' for Active; 'I' for Inactive)
REMARK    1  A    between atoms: C3_5  and  N2_6 
REMARK       I    between atoms: N2_6  and  C4_8 
REMARK    2  A    between atoms: C4_8  and  C5_10 
REMARK    3  A    between atoms: C5_10  and  N3_11 
REMARK    4  A    between atoms: C9_15  and  C10_16 
REMARK    5  A    between atoms: C10_16  and  C11_17 
REMARK    6  A    between atoms: C11_17  and  O2_18 
REMARK    7  A    between atoms: C12_21  and  C13_22 
REMARK    8  A    between atoms: C13_22  and  C14_23 
REMARK    9  A    between atoms: C14_23  and  C15_24 
REMARK   10  A    between atoms: C15_24  and  C16_25 
REMARK   11  A    between atoms: C16_25  and  C17_26 
REMARK       I    between atoms: N6_32  and  C19_34 
REMARK   12  A    between atoms: C19_34  and  C20_36 
REMARK   13  A    between atoms: C20_36  and  C21_37 
ROOT
HETATM    1  C1  UNL     1       4.688 -16.411   1.011  1.00  0.00     0.069 C 
HETATM    2  C2  UNL     1       5.537 -16.827  -0.184  1.00  0.00     0.020 A 
HETATM    3  N1  UNL     1       5.126 -17.666  -1.088  1.00  0.00    -0.339 N 
ATOM      4  H1  UNL     1       4.197 -18.084  -1.025  1.00  0.00     0.168 HD
HETATM    5  C3  UNL     1       5.941 -17.970  -2.098  1.00  0.00     0.151 A 
HETATM    6  S1  UNL     1       7.333 -17.043  -1.762  1.00  0.00    -0.057 SA
HETATM    7  C12 UNL     1       6.792 -16.301  -0.323  1.00  0.00     0.008 A 
ENDROOT
BRANCH   7   8
HETATM    8  C13 UNL     1       7.520 -15.323   0.561  1.00  0.00     0.048 C 
BRANCH   8   9
HETATM    9  C14 UNL     1       8.168 -14.224  -0.213  1.00  0.00     0.006 C 
BRANCH   9  10
HETATM   10  C15 UNL     1       9.564 -14.525  -0.652  1.00  0.00     0.007 C 
BRANCH  10  11
HETATM   11  C16 UNL     1      10.557 -13.431  -0.416  1.00  0.00     0.066 C 
BRANCH  11  12
HETATM   12  C17 UNL     1      11.132 -13.634   0.965  1.00  0.00     0.069 A 
HETATM   13  N4  UNL     1      11.818 -12.769   1.700  1.00  0.00    -0.296 N 
HETATM   14  N5  UNL     1      12.243 -13.101   2.849  1.00  0.00    -0.279 N 
ATOM     15  H4  UNL     1      12.004 -11.833   1.340  1.00  0.00     0.187 HD
HETATM   16  C18 UNL     1      11.984 -14.333   3.296  1.00  0.00     0.167 A 
ATOM     17  H5  UNL     1      12.772 -12.442   3.419  1.00  0.00     0.189 HD
HETATM   18  N6  UNL     1      12.330 -14.874   4.442  1.00  0.00    -0.306 N 
HETATM   19  S3  UNL     1      11.101 -14.997   1.994  1.00  0.00    -0.038 SA
HETATM   20  C19 UNL     1      13.073 -14.153   5.401  1.00  0.00     0.227 C 
ATOM     21  H6  UNL     1      12.055 -15.836   4.644  1.00  0.00     0.171 HD
HETATM   22  O3  UNL     1      14.328 -14.160   5.338  1.00  0.00    -0.273 OA
BRANCH  20  23
HETATM   23  C20 UNL     1      12.410 -13.388   6.481  1.00  0.00     0.142 C 
BRANCH  23  24
HETATM   24  C21 UNL     1      11.143 -14.119   6.915  1.00  0.00    -0.043 A 
HETATM   25  C22 UNL     1       9.946 -13.889   6.358  1.00  0.00     0.015 A 
HETATM   26  C23 UNL     1       8.880 -14.603   6.830  1.00  0.00     0.050 A 
HETATM   27  S2  UNL     1       9.579 -15.578   8.041  1.00  0.00    -0.113 SA
HETATM   28  C24 UNL     1      11.197 -15.056   7.916  1.00  0.00     0.057 A 
ENDBRANCH  23  24
ENDBRANCH  20  23
ENDBRANCH  11  12
ENDBRANCH  10  11
ENDBRANCH   9  10
ENDBRANCH   8   9
ENDBRANCH   7   8
BRANCH   5  29
HETATM   29  N2  UNL     1       5.706 -18.794  -3.103  1.00  0.00    -0.306 N 
HETATM   30  C4  UNL     1       4.818 -18.418  -4.140  1.00  0.00     0.252 C 
HETATM   31  O1  UNL     1       3.715 -18.996  -4.220  1.00  0.00    -0.271 OA
ATOM     32  H2  UNL     1       6.165 -19.704  -3.132  1.00  0.00     0.171 HD
BRANCH  30  33
HETATM   33  C5  UNL     1       5.184 -17.382  -5.092  1.00  0.00     0.375 C 
BRANCH  33  34
HETATM   34  N3  UNL     1       6.477 -17.541  -5.719  1.00  0.00     0.102 N 
HETATM   35  C6  UNL     1       6.226 -17.507  -7.170  1.00  0.00     0.273 C 
HETATM   36  C7  UNL     1       6.085 -16.068  -7.557  1.00  0.00     0.032 C 
HETATM   37  C8  UNL     1       6.695 -15.293  -6.409  1.00  0.00     0.037 C 
HETATM   38  C9  UNL     1       7.304 -16.358  -5.556  1.00  0.00     0.225 C 
BRANCH  38  39
HETATM   39  C10 UNL     1       8.684 -16.700  -6.062  1.00  0.00     0.062 C 
BRANCH  39  40
HETATM   40  C11 UNL     1       9.566 -15.508  -6.288  1.00  0.00     0.166 C 
BRANCH  40  41
HETATM   41  O2  UNL     1      10.019 -15.485  -7.592  1.00  0.00    -0.401 OA
ATOM     42  H2  UNL     1      10.960 -15.353  -7.614  1.00  0.00     0.209 HD
ENDBRANCH  40  41
ENDBRANCH  39  40
ENDBRANCH  38  39
ENDBRANCH  33  34
ENDBRANCH  30  33
ENDBRANCH   5  29
TORSDOF 13
ENDMDL
MODEL 5
REMARK VINA RESULT: -8.927519613      2.773     11.540
REMARK  13 active torsions:
REMARK  status: ('A' for Active; 'I' for Inactive)
REMARK    1  A    between atoms: C3_5  and  N2_6 
REMARK       I    between atoms: N2_6  and  C4_8 
REMARK    2  A    between atoms: C4_8  and  C5_10 
REMARK    3  A    between atoms: C5_10  and  N3_11 
REMARK    4  A    between atoms: C9_15  and  C10_16 
REMARK    5  A    between atoms: C10_16  and  C11_17 
REMARK    6  A    between atoms: C11_17  and  O2_18 
REMARK    7  A    between atoms: C12_21  and  C13_22 
REMARK    8  A    between atoms: C13_22  and  C14_23 
REMARK    9  A    between atoms: C14_23  and  C15_24 
REMARK   10  A    between atoms: C15_24  and  C16_25 
REMARK   11  A    between atoms: C16_25  and  C17_26 
REMARK       I    between atoms: N6_32  and  C19_34 
REMARK   12  A    between atoms: C19_34  and  C20_36 
REMARK   13  A    between atoms: C20_36  and  C21_37 
ROOT
HETATM    1  C1  UNL     1      10.911 -13.384  -0.257  1.00  0.00     0.069 C 
HETATM    2  C2  UNL     1      10.984 -13.916   1.169  1.00  0.00     0.020 A 
HETATM    3  N1  UNL     1      12.088 -13.956   1.855  1.00  0.00    -0.339 N 
ATOM      4  H1  UNL     1      12.963 -13.623   1.451  1.00  0.00     0.168 HD
HETATM    5  C3  UNL     1      12.053 -14.441   3.097  1.00  0.00     0.151 A 
HETATM    6  S1  UNL     1      10.410 -14.855   3.303  1.00  0.00    -0.057 SA
HETATM    7  C12 UNL     1       9.843 -14.379   1.766  1.00  0.00     0.008 A 
ENDROOT
BRANCH   7   8
HETATM    8  C13 UNL     1       8.443 -14.455   1.217  1.00  0.00     0.048 C 
BRANCH   8   9
HETATM    9  C14 UNL     1       7.666 -15.597   1.783  1.00  0.00     0.006 C 
BRANCH   9  10
HETATM   10  C15 UNL     1       7.119 -16.534   0.756  1.00  0.00     0.007 C 
BRANCH  10  11
HETATM   11  C16 UNL     1       8.109 -17.490   0.173  1.00  0.00     0.066 C 
BRANCH  11  12
HETATM   12  C17 UNL     1       8.187 -17.212  -1.309  1.00  0.00     0.069 A 
HETATM   13  N4  UNL     1       7.330 -17.574  -2.254  1.00  0.00    -0.296 N 
HETATM   14  N5  UNL     1       7.547 -17.266  -3.466  1.00  0.00    -0.279 N 
ATOM     15  H4  UNL     1       6.493 -18.101  -2.006  1.00  0.00     0.187 HD
HETATM   16  C18 UNL     1       8.651 -16.574  -3.763  1.00  0.00     0.167 A 
ATOM     17  H5  UNL     1       6.893 -17.541  -4.198  1.00  0.00     0.189 HD
HETATM   18  N6  UNL     1       9.062 -16.160  -4.941  1.00  0.00    -0.306 N 
HETATM   19  S3  UNL     1       9.366 -16.382  -2.225  1.00  0.00    -0.038 SA
HETATM   20  C19 UNL     1       8.321 -16.424  -6.112  1.00  0.00     0.227 C 
ATOM     21  H6  UNL     1       9.934 -15.636  -5.010  1.00  0.00     0.171 HD
HETATM   22  O3  UNL     1       8.516 -17.499  -6.733  1.00  0.00    -0.273 OA
BRANCH  20  23
HETATM   23  C20 UNL     1       7.319 -15.465  -6.629  1.00  0.00     0.142 C 
BRANCH  23  24
HETATM   24  C21 UNL     1       6.038 -16.214  -6.986  1.00  0.00    -0.043 A 
HETATM   25  C22 UNL     1       5.543 -16.253  -8.230  1.00  0.00     0.015 A 
HETATM   26  C23 UNL     1       4.386 -16.953  -8.431  1.00  0.00     0.050 A 
HETATM   27  S2  UNL     1       4.021 -17.539  -6.873  1.00  0.00    -0.113 SA
HETATM   28  C24 UNL     1       5.338 -16.883  -6.014  1.00  0.00     0.057 A 
ENDBRANCH  23  24
ENDBRANCH  20  23
ENDBRANCH  11  12
ENDBRANCH  10  11
ENDBRANCH   9  10
ENDBRANCH   8   9
ENDBRANCH   7   8
BRANCH   5  29
HETATM   29  N2  UNL     1      13.060 -14.563   3.942  1.00  0.00    -0.306 N 
HETATM   30  C4  UNL     1      13.458 -13.462   4.739  1.00  0.00     0.252 C 
HETATM   31  O1  UNL     1      14.547 -12.905   4.488  1.00  0.00    -0.271 OA
ATOM     32  H2  UNL     1      13.553 -15.452   4.021  1.00  0.00     0.171 HD
BRANCH  30  33
HETATM   33  C5  UNL     1      12.618 -12.991   5.829  1.00  0.00     0.375 C 
BRANCH  33  34
HETATM   34  N3  UNL     1      12.326 -13.965   6.856  1.00  0.00     0.102 N 
HETATM   35  C6  UNL     1      12.539 -13.272   8.138  1.00  0.00     0.273 C 
HETATM   36  C7  UNL     1      11.314 -12.454   8.403  1.00  0.00     0.032 C 
HETATM   37  C8  UNL     1      10.252 -13.036   7.496  1.00  0.00     0.037 C 
HETATM   38  C9  UNL     1      10.905 -14.257   6.934  1.00  0.00     0.225 C 
BRANCH  38  39
HETATM   39  C10 UNL     1      10.735 -15.417   7.884  1.00  0.00     0.062 C 
BRANCH  39  40
HETATM   40  C11 UNL     1       9.339 -15.581   8.408  1.00  0.00     0.166 C 
BRANCH  40  41
HETATM   41  O2  UNL     1       8.632 -16.471   7.626  1.00  0.00    -0.401 OA
ATOM     42  H2  UNL     1       7.805 -16.089   7.353  1.00  0.00     0.209 HD
ENDBRANCH  40  41
ENDBRANCH  39  40
ENDBRANCH  38  39
ENDBRANCH  33  34
ENDBRANCH  30  33
ENDBRANCH   5  29
TORSDOF 13
ENDMDL
