MODEL 1
REMARK VINA RESULT: -8.505730032      0.000      0.000
REMARK  13 active torsions:
REMARK  status: ('A' for Active; 'I' for Inactive)
REMARK    1  A    between atoms: C2_2  and  C3_3 
REMARK    2  A    between atoms: C3_3  and  C4_4 
REMARK    3  A    between atoms: C4_4  and  C5_5 
REMARK    4  A    between atoms: C5_5  and  N1_6 
REMARK    5  A    between atoms: C5_5  and  C24_35 
REMARK       I    between atoms: N1_6  and  C6_8 
REMARK    6  A    between atoms: C6_8  and  C7_10 
REMARK    7  A    between atoms: C9_12  and  C10_13 
REMARK    8  A    between atoms: C11_14  and  C12_15 
REMARK    9  A    between atoms: C19_24  and  C20_25 
REMARK   10  A    between atoms: C20_25  and  C21_26 
REMARK       I    between atoms: C21_26  and  N3_28 
REMARK   11  A    between atoms: N3_28  and  S1_30 
REMARK       I    between atoms: C24_35  and  N4_37 
REMARK   12  A    between atoms: N4_37  and  C25_39 
REMARK   13  A    between atoms: C25_39  and  C26_40 
ROOT
HETATM    1  C26 UNL     1       4.665 -17.166  -0.611  1.00  0.00     0.143 C 
HETATM    2  C27 UNL     1       5.595 -16.392   0.212  1.00  0.00     0.060 C 
HETATM    3  N5  UNL     1       6.317 -15.773   0.859  1.00  0.00    -0.197 NA
ENDROOT
BRANCH   1   4
HETATM    4  C25 UNL     1       5.379 -18.285  -1.334  1.00  0.00     0.136 C 
BRANCH   4   5
HETATM    5  N4  UNL     1       6.755 -17.918  -1.603  1.00  0.00    -0.358 N 
HETATM    6  C24 UNL     1       7.167 -17.313  -2.805  1.00  0.00     0.240 C 
HETATM    7  O5  UNL     1       6.339 -17.072  -3.702  1.00  0.00    -0.271 OA
ATOM      8  H4  UNL     1       7.458 -18.109  -0.888  1.00  0.00     0.162 HD
BRANCH   6   9
HETATM    9  C5  UNL     1       8.602 -16.951  -3.017  1.00  0.00     0.177 C 
BRANCH   9  10
HETATM   10  C4  UNL     1       8.834 -16.400  -4.382  1.00  0.00     0.035 C 
BRANCH  10  11
HETATM   11  C3  UNL     1       9.758 -15.212  -4.402  1.00  0.00     0.002 C 
BRANCH  11  12
HETATM   12  C2  UNL     1       9.139 -14.119  -5.256  1.00  0.00    -0.004 C 
HETATM   13  C1  UNL     1       7.675 -14.006  -4.827  1.00  0.00     0.005 C 
ENDBRANCH  11  12
ENDBRANCH  10  11
ENDBRANCH   9  10
BRANCH   9  14
HETATM   14  N1  UNL     1       9.026 -15.985  -2.016  1.00  0.00    -0.342 N 
HETATM   15  C6  UNL     1       9.693 -16.480  -0.865  1.00  0.00     0.269 C 
HETATM   16  O1  UNL     1       9.902 -17.694  -0.726  1.00  0.00    -0.266 OA
ATOM     17  H1  UNL     1       8.850 -14.987  -2.137  1.00  0.00     0.163 HD
BRANCH  15  18
HETATM   18  C7  UNL     1      10.127 -15.542   0.150  1.00  0.00     0.102 A 
HETATM   19  C8  UNL     1       9.810 -15.777   1.458  1.00  0.00     0.058 A 
HETATM   20  C9  UNL     1      10.190 -14.934   2.474  1.00  0.00     0.055 A 
HETATM   21  C16 UNL     1      10.926 -13.801   2.161  1.00  0.00     0.110 A 
HETATM   22  C17 UNL     1      11.243 -13.569   0.856  1.00  0.00     0.047 A 
HETATM   23  O4  UNL     1      11.453 -12.769   2.936  1.00  0.00    -0.342 OA
HETATM   24  N2  UNL     1      10.842 -14.434  -0.120  1.00  0.00    -0.353 N 
HETATM   25  C18 UNL     1      12.052 -12.311   0.784  1.00  0.00     0.093 C 
ATOM     26  H2  UNL     1      11.093 -14.234  -1.088  1.00  0.00     0.166 HD
HETATM   27  C19 UNL     1      12.405 -12.027   2.213  1.00  0.00     0.143 C 
BRANCH  20  28
HETATM   28  C10 UNL     1       9.824 -15.214   3.835  1.00  0.00    -0.063 C 
HETATM   29  C11 UNL     1       9.513 -15.473   4.970  1.00  0.00    -0.092 C 
BRANCH  29  30
HETATM   30  C12 UNL     1       9.116 -15.805   6.339  1.00  0.00     0.013 C 
HETATM   31  C13 UNL     1       8.199 -17.003   6.350  1.00  0.00     0.028 C 
HETATM   32  C14 UNL     1       8.366 -14.596   6.889  1.00  0.00     0.028 C 
HETATM   33  C15 UNL     1      10.337 -16.115   7.197  1.00  0.00     0.028 C 
ENDBRANCH  29  30
ENDBRANCH  20  28
BRANCH  27  34
HETATM   34  C20 UNL     1      13.806 -12.431   2.522  1.00  0.00     0.136 C 
BRANCH  34  35
HETATM   35  C21 UNL     1      14.211 -12.062   3.873  1.00  0.00     0.231 C 
HETATM   36  O2  UNL     1      15.406 -11.688   4.099  1.00  0.00    -0.273 OA
HETATM   37  N3  UNL     1      13.261 -12.118   4.954  1.00  0.00    -0.287 N 
ATOM     38  H3  UNL     1      12.312 -12.424   4.739  1.00  0.00     0.178 HD
BRANCH  37  39
HETATM   39  S1  UNL     1      13.621 -11.705   6.579  1.00  0.00     0.019 S 
HETATM   40  C22 UNL     1      13.706 -11.634   8.385  1.00  0.00     0.136 C 
HETATM   41  C23 UNL     1      13.179  -9.909   6.374  1.00  0.00     0.136 C 
HETATM   42  O3  UNL     1      11.857 -12.777   7.034  1.00  0.00    -0.250 OA
ENDBRANCH  37  39
ENDBRANCH  34  35
ENDBRANCH  27  34
ENDBRANCH  15  18
ENDBRANCH   9  14
ENDBRANCH   6   9
ENDBRANCH   4   5
ENDBRANCH   1   4
TORSDOF 13
ENDMDL
MODEL 2
REMARK VINA RESULT: -8.503555014      3.584     10.650
REMARK  13 active torsions:
REMARK  status: ('A' for Active; 'I' for Inactive)
REMARK    1  A    between atoms: C2_2  and  C3_3 
REMARK    2  A    between atoms: C3_3  and  C4_4 
REMARK    3  A    between atoms: C4_4  and  C5_5 
REMARK    4  A    between atoms: C5_5  and  N1_6 
REMARK    5  A    between atoms: C5_5  and  C24_35 
REMARK       I    between atoms: N1_6  and  C6_8 
REMARK    6  A    between atoms: C6_8  and  C7_10 
REMARK    7  A    between atoms: C9_12  and  C10_13 
REMARK    8  A    between atoms: C11_14  and  C12_15 
REMARK    9  A    between atoms: C19_24  and  C20_25 
REMARK   10  A    between atoms: C20_25  and  C21_26 
REMARK       I    between atoms: C21_26  and  N3_28 
REMARK   11  A    between atoms: N3_28  and  S1_30 
REMARK       I    between atoms: C24_35  and  N4_37 
REMARK   12  A    between atoms: N4_37  and  C25_39 
REMARK   13  A    between atoms: C25_39  and  C26_40 
ROOT
HETATM    1  C26 UNL     1      12.663 -12.581   1.586  1.00  0.00     0.143 C 
HETATM    2  C27 UNL     1      11.491 -12.844   0.750  1.00  0.00     0.060 C 
HETATM    3  N5  UNL     1      10.566 -13.037   0.094  1.00  0.00    -0.197 NA
ENDROOT
BRANCH   1   4
HETATM    4  C25 UNL     1      13.131 -13.839   2.280  1.00  0.00     0.136 C 
BRANCH   4   5
HETATM    5  N4  UNL     1      12.003 -14.691   2.602  1.00  0.00    -0.358 N 
HETATM    6  C24 UNL     1      11.348 -14.659   3.848  1.00  0.00     0.240 C 
HETATM    7  O5  UNL     1      11.733 -13.881   4.739  1.00  0.00    -0.271 OA
ATOM      8  H4  UNL     1      11.668 -15.344   1.893  1.00  0.00     0.162 HD
BRANCH   6   9
HETATM    9  C5  UNL     1      10.184 -15.557   4.114  1.00  0.00     0.177 C 
BRANCH   9  10
HETATM   10  C4  UNL     1       9.513 -15.220   5.400  1.00  0.00     0.035 C 
BRANCH  10  11
HETATM   11  C3  UNL     1       8.707 -16.355   5.974  1.00  0.00     0.002 C 
BRANCH  11  12
HETATM   12  C2  UNL     1       8.601 -16.175   7.479  1.00  0.00    -0.004 C 
HETATM   13  C1  UNL     1       9.873 -15.452   7.923  1.00  0.00     0.005 C 
ENDBRANCH  11  12
ENDBRANCH  10  11
ENDBRANCH   9  10
BRANCH   9  14
HETATM   14  N1  UNL     1       9.228 -15.473   3.021  1.00  0.00    -0.342 N 
HETATM   15  C6  UNL     1       9.308 -16.454   1.999  1.00  0.00     0.269 C 
HETATM   16  O1  UNL     1      10.166 -17.349   2.043  1.00  0.00    -0.266 OA
ATOM     17  H1  UNL     1       8.525 -14.734   2.990  1.00  0.00     0.163 HD
BRANCH  15  18
HETATM   18  C7  UNL     1       8.370 -16.395   0.897  1.00  0.00     0.102 A 
HETATM   19  C8  UNL     1       8.841 -16.234  -0.376  1.00  0.00     0.058 A 
HETATM   20  C9  UNL     1       8.012 -16.173  -1.469  1.00  0.00     0.055 A 
HETATM   21  C16 UNL     1       6.644 -16.281  -1.276  1.00  0.00     0.110 A 
HETATM   22  C17 UNL     1       6.175 -16.444  -0.006  1.00  0.00     0.047 A 
HETATM   23  O4  UNL     1       5.558 -16.259  -2.150  1.00  0.00    -0.342 OA
HETATM   24  N2  UNL     1       7.037 -16.497   1.050  1.00  0.00    -0.353 N 
HETATM   25  C18 UNL     1       4.683 -16.558  -0.065  1.00  0.00     0.093 C 
ATOM     26  H2  UNL     1       6.658 -16.619   1.989  1.00  0.00     0.166 HD
HETATM   27  C19 UNL     1       4.393 -16.741  -1.525  1.00  0.00     0.143 C 
BRANCH  20  28
HETATM   28  C10 UNL     1       8.551 -15.990  -2.789  1.00  0.00    -0.063 C 
HETATM   29  C11 UNL     1       8.993 -15.813  -3.895  1.00  0.00    -0.092 C 
BRANCH  29  30
HETATM   30  C12 UNL     1       9.507 -15.585  -5.247  1.00  0.00     0.013 C 
HETATM   31  C13 UNL     1      10.997 -15.818  -5.294  1.00  0.00     0.028 C 
HETATM   32  C14 UNL     1       9.218 -14.128  -5.592  1.00  0.00     0.028 C 
HETATM   33  C15 UNL     1       8.834 -16.517  -6.247  1.00  0.00     0.028 C 
ENDBRANCH  29  30
ENDBRANCH  20  28
BRANCH  27  34
HETATM   34  C20 UNL     1       4.112 -18.167  -1.853  1.00  0.00     0.136 C 
BRANCH  34  35
HETATM   35  C21 UNL     1       3.574 -18.337  -3.197  1.00  0.00     0.231 C 
HETATM   36  O2  UNL     1       2.652 -19.188  -3.411  1.00  0.00    -0.273 OA
HETATM   37  N3  UNL     1       4.083 -17.543  -4.286  1.00  0.00    -0.287 N 
ATOM     38  H3  UNL     1       4.823 -16.872  -4.081  1.00  0.00     0.178 HD
BRANCH  37  39
HETATM   39  S1  UNL     1       3.526 -17.653  -5.904  1.00  0.00     0.019 S 
HETATM   40  C22 UNL     1       3.393 -17.655  -7.709  1.00  0.00     0.136 C 
HETATM   41  C23 UNL     1       2.096 -16.491  -5.646  1.00  0.00     0.136 C 
HETATM   42  O3  UNL     1       5.241 -16.506  -6.363  1.00  0.00    -0.250 OA
ENDBRANCH  37  39
ENDBRANCH  34  35
ENDBRANCH  27  34
ENDBRANCH  15  18
ENDBRANCH   9  14
ENDBRANCH   6   9
ENDBRANCH   4   5
ENDBRANCH   1   4
TORSDOF 13
ENDMDL
MODEL 3
REMARK VINA RESULT: -8.257385711      3.740     10.719
REMARK  13 active torsions:
REMARK  status: ('A' for Active; 'I' for Inactive)
REMARK    1  A    between atoms: C2_2  and  C3_3 
REMARK    2  A    between atoms: C3_3  and  C4_4 
REMARK    3  A    between atoms: C4_4  and  C5_5 
REMARK    4  A    between atoms: C5_5  and  N1_6 
REMARK    5  A    between atoms: C5_5  and  C24_35 
REMARK       I    between atoms: N1_6  and  C6_8 
REMARK    6  A    between atoms: C6_8  and  C7_10 
REMARK    7  A    between atoms: C9_12  and  C10_13 
REMARK    8  A    between atoms: C11_14  and  C12_15 
REMARK    9  A    between atoms: C19_24  and  C20_25 
REMARK   10  A    between atoms: C20_25  and  C21_26 
REMARK       I    between atoms: C21_26  and  N3_28 
REMARK   11  A    between atoms: N3_28  and  S1_30 
REMARK       I    between atoms: C24_35  and  N4_37 
REMARK   12  A    between atoms: N4_37  and  C25_39 
REMARK   13  A    between atoms: C25_39  and  C26_40 
ROOT
HETATM    1  C26 UNL     1      12.731 -12.549   1.641  1.00  0.00     0.143 C 
HETATM    2  C27 UNL     1      11.549 -12.840   0.829  1.00  0.00     0.060 C 
HETATM    3  N5  UNL     1      10.616 -13.053   0.190  1.00  0.00    -0.197 NA
ENDROOT
BRANCH   1   4
HETATM    4  C25 UNL     1      13.231 -13.795   2.337  1.00  0.00     0.136 C 
BRANCH   4   5
HETATM    5  N4  UNL     1      12.121 -14.644   2.719  1.00  0.00    -0.358 N 
HETATM    6  C24 UNL     1      11.505 -14.580   3.983  1.00  0.00     0.240 C 
HETATM    7  O5  UNL     1      11.911 -13.773   4.839  1.00  0.00    -0.271 OA
ATOM      8  H4  UNL     1      11.769 -15.320   2.040  1.00  0.00     0.162 HD
BRANCH   6   9
HETATM    9  C5  UNL     1      10.357 -15.479   4.312  1.00  0.00     0.177 C 
BRANCH   9  10
HETATM   10  C4  UNL     1       9.743 -15.129   5.623  1.00  0.00     0.035 C 
BRANCH  10  11
HETATM   11  C3  UNL     1       8.748 -16.147   6.112  1.00  0.00     0.002 C 
BRANCH  11  12
HETATM   12  C2  UNL     1       8.656 -16.060   7.626  1.00  0.00    -0.004 C 
HETATM   13  C1  UNL     1       9.821 -15.182   8.085  1.00  0.00     0.005 C 
ENDBRANCH  11  12
ENDBRANCH  10  11
ENDBRANCH   9  10
BRANCH   9  14
HETATM   14  N1  UNL     1       9.353 -15.409   3.262  1.00  0.00    -0.342 N 
HETATM   15  C6  UNL     1       9.436 -16.356   2.207  1.00  0.00     0.269 C 
HETATM   16  O1  UNL     1      10.337 -17.208   2.189  1.00  0.00    -0.266 OA
ATOM     17  H1  UNL     1       8.614 -14.705   3.283  1.00  0.00     0.163 HD
BRANCH  15  18
HETATM   18  C7  UNL     1       8.450 -16.311   1.147  1.00  0.00     0.102 A 
HETATM   19  C8  UNL     1       8.859 -16.088  -0.138  1.00  0.00     0.058 A 
HETATM   20  C9  UNL     1       7.982 -16.037  -1.194  1.00  0.00     0.055 A 
HETATM   21  C16 UNL     1       6.630 -16.219  -0.948  1.00  0.00     0.110 A 
HETATM   22  C17 UNL     1       6.224 -16.443   0.334  1.00  0.00     0.047 A 
HETATM   23  O4  UNL     1       5.508 -16.225  -1.776  1.00  0.00    -0.342 OA
HETATM   24  N2  UNL     1       7.131 -16.484   1.352  1.00  0.00    -0.353 N 
HETATM   25  C18 UNL     1       4.738 -16.630   0.332  1.00  0.00     0.093 C 
ATOM     26  H2  UNL     1       6.799 -16.653   2.301  1.00  0.00     0.166 HD
HETATM   27  C19 UNL     1       4.396 -16.783  -1.120  1.00  0.00     0.143 C 
BRANCH  20  28
HETATM   28  C10 UNL     1       8.455 -15.787  -2.528  1.00  0.00    -0.063 C 
HETATM   29  C11 UNL     1       8.846 -15.554  -3.643  1.00  0.00    -0.092 C 
BRANCH  29  30
HETATM   30  C12 UNL     1       9.302 -15.252  -5.001  1.00  0.00     0.013 C 
HETATM   31  C13 UNL     1       9.450 -13.763  -5.192  1.00  0.00     0.028 C 
HETATM   32  C14 UNL     1       8.231 -15.775  -5.954  1.00  0.00     0.028 C 
HETATM   33  C15 UNL     1      10.643 -15.918  -5.284  1.00  0.00     0.028 C 
ENDBRANCH  29  30
ENDBRANCH  20  28
BRANCH  27  34
HETATM   34  C20 UNL     1       4.170 -18.211  -1.481  1.00  0.00     0.136 C 
BRANCH  34  35
HETATM   35  C21 UNL     1       3.659 -18.372  -2.837  1.00  0.00     0.231 C 
HETATM   36  O2  UNL     1       4.254 -19.143  -3.655  1.00  0.00    -0.273 OA
HETATM   37  N3  UNL     1       2.478 -17.660  -3.253  1.00  0.00    -0.287 N 
ATOM     38  H3  UNL     1       2.026 -17.049  -2.574  1.00  0.00     0.178 HD
BRANCH  37  39
HETATM   39  S1  UNL     1       1.782 -17.773  -4.817  1.00  0.00     0.019 S 
HETATM   40  C22 UNL     1       1.049 -17.416  -6.432  1.00  0.00     0.136 C 
HETATM   41  C23 UNL     1       0.439 -18.950  -4.295  1.00  0.00     0.136 C 
HETATM   42  O3  UNL     1       1.119 -15.800  -4.448  1.00  0.00    -0.250 OA
ENDBRANCH  37  39
ENDBRANCH  34  35
ENDBRANCH  27  34
ENDBRANCH  15  18
ENDBRANCH   9  14
ENDBRANCH   6   9
ENDBRANCH   4   5
ENDBRANCH   1   4
TORSDOF 13
ENDMDL
MODEL 4
REMARK VINA RESULT: -8.228780508      1.065      1.143
REMARK  13 active torsions:
REMARK  status: ('A' for Active; 'I' for Inactive)
REMARK    1  A    between atoms: C2_2  and  C3_3 
REMARK    2  A    between atoms: C3_3  and  C4_4 
REMARK    3  A    between atoms: C4_4  and  C5_5 
REMARK    4  A    between atoms: C5_5  and  N1_6 
REMARK    5  A    between atoms: C5_5  and  C24_35 
REMARK       I    between atoms: N1_6  and  C6_8 
REMARK    6  A    between atoms: C6_8  and  C7_10 
REMARK    7  A    between atoms: C9_12  and  C10_13 
REMARK    8  A    between atoms: C11_14  and  C12_15 
REMARK    9  A    between atoms: C19_24  and  C20_25 
REMARK   10  A    between atoms: C20_25  and  C21_26 
REMARK       I    between atoms: C21_26  and  N3_28 
REMARK   11  A    between atoms: N3_28  and  S1_30 
REMARK       I    between atoms: C24_35  and  N4_37 
REMARK   12  A    between atoms: N4_37  and  C25_39 
REMARK   13  A    between atoms: C25_39  and  C26_40 
ROOT
HETATM    1  C26 UNL     1       4.564 -17.104  -0.741  1.00  0.00     0.143 C 
HETATM    2  C27 UNL     1       5.480 -16.370   0.134  1.00  0.00     0.060 C 
HETATM    3  N5  UNL     1       6.191 -15.782   0.821  1.00  0.00    -0.197 NA
ENDROOT
BRANCH   1   4
HETATM    4  C25 UNL     1       5.270 -18.251  -1.428  1.00  0.00     0.136 C 
BRANCH   4   5
HETATM    5  N4  UNL     1       6.639 -17.891  -1.738  1.00  0.00    -0.358 N 
HETATM    6  C24 UNL     1       7.028 -17.349  -2.977  1.00  0.00     0.240 C 
HETATM    7  O5  UNL     1       6.185 -17.162  -3.873  1.00  0.00    -0.271 OA
ATOM      8  H4  UNL     1       7.354 -18.039  -1.025  1.00  0.00     0.162 HD
BRANCH   6   9
HETATM    9  C5  UNL     1       8.457 -16.991  -3.232  1.00  0.00     0.177 C 
BRANCH   9  10
HETATM   10  C4  UNL     1       8.650 -16.445  -4.604  1.00  0.00     0.035 C 
BRANCH  10  11
HETATM   11  C3  UNL     1       9.732 -15.402  -4.689  1.00  0.00     0.002 C 
BRANCH  11  12
HETATM   12  C2  UNL     1       9.175 -14.167  -5.377  1.00  0.00    -0.004 C 
HETATM   13  C1  UNL     1       7.677 -14.133  -5.068  1.00  0.00     0.005 C 
ENDBRANCH  11  12
ENDBRANCH  10  11
ENDBRANCH   9  10
BRANCH   9  14
HETATM   14  N1  UNL     1       8.912 -16.023  -2.246  1.00  0.00    -0.342 N 
HETATM   15  C6  UNL     1       9.556 -16.521  -1.083  1.00  0.00     0.269 C 
HETATM   16  O1  UNL     1       9.719 -17.740  -0.921  1.00  0.00    -0.266 OA
ATOM     17  H1  UNL     1       8.773 -15.022  -2.386  1.00  0.00     0.163 HD
BRANCH  15  18
HETATM   18  C7  UNL     1      10.018 -15.582  -0.083  1.00  0.00     0.102 A 
HETATM   19  C8  UNL     1       9.745 -15.817   1.235  1.00  0.00     0.058 A 
HETATM   20  C9  UNL     1      10.155 -14.973   2.238  1.00  0.00     0.055 A 
HETATM   21  C16 UNL     1      10.877 -13.838   1.901  1.00  0.00     0.110 A 
HETATM   22  C17 UNL     1      11.151 -13.605   0.586  1.00  0.00     0.047 A 
HETATM   23  O4  UNL     1      11.426 -12.804   2.658  1.00  0.00    -0.342 OA
HETATM   24  N2  UNL     1      10.721 -14.472  -0.376  1.00  0.00    -0.353 N 
HETATM   25  C18 UNL     1      11.953 -12.344   0.487  1.00  0.00     0.093 C 
ATOM     26  H2  UNL     1      10.940 -14.271  -1.352  1.00  0.00     0.166 HD
HETATM   27  C19 UNL     1      12.352 -12.059   1.904  1.00  0.00     0.143 C 
BRANCH  20  28
HETATM   28  C10 UNL     1       9.834 -15.253   3.610  1.00  0.00    -0.063 C 
HETATM   29  C11 UNL     1       9.540 -15.486   4.755  1.00  0.00    -0.092 C 
BRANCH  29  30
HETATM   30  C12 UNL     1       9.164 -15.749   6.145  1.00  0.00     0.013 C 
HETATM   31  C13 UNL     1       8.207 -16.913   6.224  1.00  0.00     0.028 C 
HETATM   32  C14 UNL     1       8.469 -14.493   6.661  1.00  0.00     0.028 C 
HETATM   33  C15 UNL     1      10.393 -16.067   6.988  1.00  0.00     0.028 C 
ENDBRANCH  29  30
ENDBRANCH  20  28
BRANCH  27  34
HETATM   34  C20 UNL     1      13.763 -12.459   2.168  1.00  0.00     0.136 C 
BRANCH  34  35
HETATM   35  C21 UNL     1      14.186 -12.158   3.530  1.00  0.00     0.231 C 
HETATM   36  O2  UNL     1      14.436 -13.104   4.342  1.00  0.00    -0.273 OA
HETATM   37  N3  UNL     1      14.322 -10.789   3.959  1.00  0.00    -0.287 N 
ATOM     38  H3  UNL     1      14.112 -10.055   3.284  1.00  0.00     0.178 HD
BRANCH  37  39
HETATM   39  S1  UNL     1      14.815 -10.315   5.532  1.00  0.00     0.019 S 
HETATM   40  C22 UNL     1      14.880  -9.673   7.222  1.00  0.00     0.136 C 
HETATM   41  C23 UNL     1      16.274  -9.325   4.935  1.00  0.00     0.136 C 
HETATM   42  O3  UNL     1      13.104  -9.075   5.479  1.00  0.00    -0.250 OA
ENDBRANCH  37  39
ENDBRANCH  34  35
ENDBRANCH  27  34
ENDBRANCH  15  18
ENDBRANCH   9  14
ENDBRANCH   6   9
ENDBRANCH   4   5
ENDBRANCH   1   4
TORSDOF 13
ENDMDL
MODEL 5
REMARK VINA RESULT: -7.762168416      3.618     10.819
REMARK  13 active torsions:
REMARK  status: ('A' for Active; 'I' for Inactive)
REMARK    1  A    between atoms: C2_2  and  C3_3 
REMARK    2  A    between atoms: C3_3  and  C4_4 
REMARK    3  A    between atoms: C4_4  and  C5_5 
REMARK    4  A    between atoms: C5_5  and  N1_6 
REMARK    5  A    between atoms: C5_5  and  C24_35 
REMARK       I    between atoms: N1_6  and  C6_8 
REMARK    6  A    between atoms: C6_8  and  C7_10 
REMARK    7  A    between atoms: C9_12  and  C10_13 
REMARK    8  A    between atoms: C11_14  and  C12_15 
REMARK    9  A    between atoms: C19_24  and  C20_25 
REMARK   10  A    between atoms: C20_25  and  C21_26 
REMARK       I    between atoms: C21_26  and  N3_28 
REMARK   11  A    between atoms: N3_28  and  S1_30 
REMARK       I    between atoms: C24_35  and  N4_37 
REMARK   12  A    between atoms: N4_37  and  C25_39 
REMARK   13  A    between atoms: C25_39  and  C26_40 
ROOT
HETATM    1  C26 UNL     1      12.808 -12.417   2.684  1.00  0.00     0.143 C 
HETATM    2  C27 UNL     1      13.913 -12.076   3.582  1.00  0.00     0.060 C 
HETATM    3  N5  UNL     1      14.778 -11.792   4.284  1.00  0.00    -0.197 NA
ENDROOT
BRANCH   1   4
HETATM    4  C25 UNL     1      12.885 -13.864   2.253  1.00  0.00     0.136 C 
BRANCH   4   5
HETATM    5  N4  UNL     1      11.674 -14.569   2.624  1.00  0.00    -0.358 N 
HETATM    6  C24 UNL     1      11.358 -14.905   3.953  1.00  0.00     0.240 C 
HETATM    7  O5  UNL     1      12.135 -14.604   4.878  1.00  0.00    -0.271 OA
ATOM      8  H4  UNL     1      11.020 -14.834   1.886  1.00  0.00     0.162 HD
BRANCH   6   9
HETATM    9  C5  UNL     1      10.088 -15.626   4.271  1.00  0.00     0.177 C 
BRANCH   9  10
HETATM   10  C4  UNL     1       9.454 -15.102   5.513  1.00  0.00     0.035 C 
BRANCH  10  11
HETATM   11  C3  UNL     1       8.727 -16.154   6.307  1.00  0.00     0.002 C 
BRANCH  11  12
HETATM   12  C2  UNL     1       8.764 -15.776   7.778  1.00  0.00    -0.004 C 
HETATM   13  C1  UNL     1      10.091 -15.052   8.011  1.00  0.00     0.005 C 
ENDBRANCH  11  12
ENDBRANCH  10  11
ENDBRANCH   9  10
BRANCH   9  14
HETATM   14  N1  UNL     1       9.159 -15.513   3.158  1.00  0.00    -0.342 N 
HETATM   15  C6  UNL     1       9.177 -16.540   2.178  1.00  0.00     0.269 C 
HETATM   16  O1  UNL     1       9.961 -17.496   2.275  1.00  0.00    -0.266 OA
ATOM     17  H1  UNL     1       8.517 -14.723   3.083  1.00  0.00     0.163 HD
BRANCH  15  18
HETATM   18  C7  UNL     1       8.264 -16.454   1.057  1.00  0.00     0.102 A 
HETATM   19  C8  UNL     1       8.760 -16.221  -0.195  1.00  0.00     0.058 A 
HETATM   20  C9  UNL     1       7.956 -16.132  -1.304  1.00  0.00     0.055 A 
HETATM   21  C16 UNL     1       6.587 -16.285  -1.150  1.00  0.00     0.110 A 
HETATM   22  C17 UNL     1       6.093 -16.519   0.099  1.00  0.00     0.047 A 
HETATM   23  O4  UNL     1       5.521 -16.250  -2.049  1.00  0.00    -0.342 OA
HETATM   24  N2  UNL     1       6.931 -16.599   1.172  1.00  0.00    -0.353 N 
HETATM   25  C18 UNL     1       4.607 -16.670  -0.002  1.00  0.00     0.093 C 
ATOM     26  H2  UNL     1       6.533 -16.774   2.095  1.00  0.00     0.166 HD
HETATM   27  C19 UNL     1       4.356 -16.792  -1.476  1.00  0.00     0.143 C 
BRANCH  20  28
HETATM   28  C10 UNL     1       8.520 -15.873  -2.601  1.00  0.00    -0.063 C 
HETATM   29  C11 UNL     1       8.977 -15.638  -3.690  1.00  0.00    -0.092 C 
BRANCH  29  30
HETATM   30  C12 UNL     1       9.506 -15.349  -5.025  1.00  0.00     0.013 C 
HETATM   31  C13 UNL     1       9.587 -13.860  -5.252  1.00  0.00     0.028 C 
HETATM   32  C14 UNL     1       8.531 -15.956  -6.029  1.00  0.00     0.028 C 
HETATM   33  C15 UNL     1      10.896 -15.948  -5.198  1.00  0.00     0.028 C 
ENDBRANCH  29  30
ENDBRANCH  20  28
BRANCH  27  34
HETATM   34  C20 UNL     1       4.122 -18.208  -1.876  1.00  0.00     0.136 C 
BRANCH  34  35
HETATM   35  C21 UNL     1       3.526 -18.324  -3.202  1.00  0.00     0.231 C 
HETATM   36  O2  UNL     1       2.552 -19.120  -3.394  1.00  0.00    -0.273 OA
HETATM   37  N3  UNL     1       4.038 -17.540  -4.296  1.00  0.00    -0.287 N 
ATOM     38  H3  UNL     1       4.821 -16.914  -4.109  1.00  0.00     0.178 HD
BRANCH  37  39
HETATM   39  S1  UNL     1       3.417 -17.590  -5.894  1.00  0.00     0.019 S 
HETATM   40  C22 UNL     1       3.211 -17.524  -7.690  1.00  0.00     0.136 C 
HETATM   41  C23 UNL     1       1.993 -16.448  -5.534  1.00  0.00     0.136 C 
HETATM   42  O3  UNL     1       5.107 -16.416  -6.376  1.00  0.00    -0.250 OA
ENDBRANCH  37  39
ENDBRANCH  34  35
ENDBRANCH  27  34
ENDBRANCH  15  18
ENDBRANCH   9  14
ENDBRANCH   6   9
ENDBRANCH   4   5
ENDBRANCH   1   4
TORSDOF 13
ENDMDL
