MODEL 1
REMARK VINA RESULT: -8.398792188      0.000      0.000
REMARK  16 active torsions:
REMARK  status: ('A' for Active; 'I' for Inactive)
REMARK    1  A    between atoms: C2_2  and  C3_3 
REMARK    2  A    between atoms: C4_4  and  C5_5 
REMARK    3  A    between atoms: C5_5  and  C6_6 
REMARK    4  A    between atoms: C6_6  and  C7_7 
REMARK    5  A    between atoms: C7_7  and  O1_8 
REMARK    6  A    between atoms: C7_7  and  N1_10 
REMARK    7  A    between atoms: N1_10  and  C8_12 
REMARK    8  A    between atoms: C9_15  and  N3_16 
REMARK    9  A    between atoms: N3_16  and  C10_17 
REMARK   10  A    between atoms: N3_16  and  C16_24 
REMARK   11  A    between atoms: C10_17  and  C11_18 
REMARK   12  A    between atoms: C11_18  and  N4_19 
REMARK   13  A    between atoms: N4_19  and  C12_20 
REMARK   14  A    between atoms: N4_19  and  C14_22 
REMARK   15  A    between atoms: C21_30  and  N5_31 
REMARK   16  A    between atoms: N5_31  and  C22_33 
ROOT
HETATM    1  C8  UNL     1      10.743 -16.241   1.412  1.00  0.00     0.687 A 
HETATM    2  N2  UNL     1       9.740 -16.127   0.491  1.00  0.00    -0.176 N 
ATOM      3  H2  UNL     1       9.983 -16.111  -0.500  1.00  0.00     0.186 HD
HETATM    4  C9  UNL     1       8.453 -16.035   0.839  1.00  0.00     0.127 A 
HETATM    5  C20 UNL     1       8.167 -16.059   2.174  1.00  0.00     0.098 A 
HETATM    6  C21 UNL     1       9.190 -16.178   3.128  1.00  0.00     0.126 A 
HETATM    7  N8  UNL     1      10.461 -16.266   2.740  1.00  0.00    -0.176 N 
ATOM      8  H8  UNL     1      11.209 -16.351   3.429  1.00  0.00     0.186 HD
ENDROOT
BRANCH   1   9
HETATM    9  N1  UNL     1      11.976 -16.330   1.093  1.00  0.00    -0.170 N 
ATOM     10  H1  UNL     1      12.321 -17.276   0.935  1.00  0.00     0.186 HD
BRANCH   9  11
HETATM   11  C7  UNL     1      12.910 -15.320   0.930  1.00  0.00     0.155 C 
BRANCH  11  12
HETATM   12  C6  UNL     1      13.093 -14.110   1.654  1.00  0.00     0.057 C 
BRANCH  12  13
HETATM   13  C5  UNL     1      13.751 -13.729   2.671  1.00  0.00     0.019 C 
BRANCH  13  14
HETATM   14  C4  UNL     1      13.589 -13.640   4.088  1.00  0.00     0.005 A 
HETATM   15  C3  UNL     1      13.547 -12.449   4.852  1.00  0.00     0.039 A 
HETATM   16  N10 UNL     1      13.351 -12.734   6.131  1.00  0.00    -0.300 N 
HETATM   17  N9  UNL     1      13.264 -14.019   6.237  1.00  0.00    -0.309 N 
HETATM   18  C27 UNL     1      13.254 -11.776   7.202  1.00  0.00     0.177 C 
HETATM   19  C26 UNL     1      13.404 -14.616   5.013  1.00  0.00     0.120 A 
ATOM     20  H9  UNL     1      13.112 -14.520   7.113  1.00  0.00     0.186 HD
BRANCH  15  21
HETATM   21  C2  UNL     1      13.714 -11.104   4.247  1.00  0.00     0.055 C 
HETATM   22  C1  UNL     1      15.179 -10.704   4.297  1.00  0.00     0.011 C 
ENDBRANCH  15  21
ENDBRANCH  13  14
ENDBRANCH  12  13
ENDBRANCH  11  12
BRANCH  11  23
HETATM   23  O1  UNL     1      13.762 -15.513  -0.048  1.00  0.00    -0.346 OA
ATOM     24  H1  UNL     1      14.044 -16.413  -0.163  1.00  0.00     0.219 HD
ENDBRANCH  11  23
ENDBRANCH   9  11
ENDBRANCH   1   9
BRANCH   4  25
HETATM   25  N3  UNL     1       7.449 -15.892  -0.202  1.00  0.00    -0.338 N 
BRANCH  25  26
HETATM   26  C10 UNL     1       7.676 -14.751  -1.065  1.00  0.00     0.160 C 
BRANCH  26  27
HETATM   27  C11 UNL     1       8.339 -14.960  -2.354  1.00  0.00     0.292 C 
BRANCH  27  28
HETATM   28  N4  UNL     1       7.467 -15.391  -3.463  1.00  0.00     0.089 N 
BRANCH  28  29
HETATM   29  C12 UNL     1       7.794 -14.502  -4.607  1.00  0.00     0.268 C 
HETATM   30  C13 UNL     1       9.246 -14.349  -4.857  1.00  0.00     0.037 C 
ENDBRANCH  28  29
BRANCH  28  31
HETATM   31  C14 UNL     1       8.003 -16.725  -3.798  1.00  0.00     0.268 C 
HETATM   32  C15 UNL     1       7.079 -17.598  -4.560  1.00  0.00     0.037 C 
ENDBRANCH  28  31
ENDBRANCH  27  28
ENDBRANCH  26  27
ENDBRANCH  25  26
BRANCH  25  33
HETATM   33  C16 UNL     1       6.366 -16.835  -0.282  1.00  0.00     0.001 C 
HETATM   34  C17 UNL     1       6.716 -18.211  -0.711  1.00  0.00     0.063 C 
HETATM   35  C18 UNL     1       5.579 -18.988  -1.202  1.00  0.00     0.080 C 
HETATM   36  S1  UNL     1       4.394 -17.745  -1.768  1.00  0.00    -0.163 SA
HETATM   37  C19 UNL     1       5.067 -16.364  -0.772  1.00  0.00     0.126 C 
ENDBRANCH  25  33
ENDBRANCH   4  25
BRANCH   6  38
HETATM   38  N5  UNL     1       8.892 -16.210   4.512  1.00  0.00    -0.327 N 
ATOM     39  H5  UNL     1       8.367 -17.008   4.869  1.00  0.00     0.169 HD
BRANCH  38  40
HETATM   40  C22 UNL     1       9.238 -15.304   5.341  1.00  0.00     0.123 A 
HETATM   41  C23 UNL     1       9.668 -15.526   6.628  1.00  0.00     0.075 A 
HETATM   42  C24 UNL     1       9.950 -14.303   7.202  1.00  0.00     0.025 A 
HETATM   43  C25 UNL     1      10.448 -14.065   8.589  1.00  0.00     0.070 C 
HETATM   44  N6  UNL     1       9.695 -13.372   6.278  1.00  0.00    -0.304 N 
HETATM   45  N7  UNL     1       9.271 -13.972   5.170  1.00  0.00    -0.285 N 
ATOM     46  H6  UNL     1       9.808 -12.366   6.402  1.00  0.00     0.186 HD
ATOM     47  H7  UNL     1       9.009 -13.490   4.311  1.00  0.00     0.188 HD
ENDBRANCH  38  40
ENDBRANCH   6  38
TORSDOF 16
ENDMDL
MODEL 2
REMARK VINA RESULT: -8.324419245      2.352      4.835
REMARK  16 active torsions:
REMARK  status: ('A' for Active; 'I' for Inactive)
REMARK    1  A    between atoms: C2_2  and  C3_3 
REMARK    2  A    between atoms: C4_4  and  C5_5 
REMARK    3  A    between atoms: C5_5  and  C6_6 
REMARK    4  A    between atoms: C6_6  and  C7_7 
REMARK    5  A    between atoms: C7_7  and  O1_8 
REMARK    6  A    between atoms: C7_7  and  N1_10 
REMARK    7  A    between atoms: N1_10  and  C8_12 
REMARK    8  A    between atoms: C9_15  and  N3_16 
REMARK    9  A    between atoms: N3_16  and  C10_17 
REMARK   10  A    between atoms: N3_16  and  C16_24 
REMARK   11  A    between atoms: C10_17  and  C11_18 
REMARK   12  A    between atoms: C11_18  and  N4_19 
REMARK   13  A    between atoms: N4_19  and  C12_20 
REMARK   14  A    between atoms: N4_19  and  C14_22 
REMARK   15  A    between atoms: C21_30  and  N5_31 
REMARK   16  A    between atoms: N5_31  and  C22_33 
ROOT
HETATM    1  C8  UNL     1       8.896 -15.024   1.657  1.00  0.00     0.687 A 
HETATM    2  N2  UNL     1       8.527 -15.542   0.447  1.00  0.00    -0.176 N 
ATOM      3  H2  UNL     1       7.774 -16.230   0.417  1.00  0.00     0.186 HD
HETATM    4  C9  UNL     1       9.114 -15.181  -0.698  1.00  0.00     0.127 A 
HETATM    5  C20 UNL     1      10.118 -14.258  -0.617  1.00  0.00     0.098 A 
HETATM    6  C21 UNL     1      10.503 -13.719   0.621  1.00  0.00     0.126 A 
HETATM    7  N8  UNL     1       9.893 -14.106   1.739  1.00  0.00    -0.176 N 
ATOM      8  H8  UNL     1      10.169 -13.719   2.642  1.00  0.00     0.186 HD
ENDROOT
BRANCH   1   9
HETATM    9  N1  UNL     1       8.343 -15.361   2.757  1.00  0.00    -0.170 N 
ATOM     10  H1  UNL     1       7.532 -14.804   3.028  1.00  0.00     0.186 HD
BRANCH   9  11
HETATM   11  C7  UNL     1       8.688 -16.376   3.633  1.00  0.00     0.155 C 
BRANCH  11  12
HETATM   12  C6  UNL     1       8.710 -16.396   5.055  1.00  0.00     0.057 C 
BRANCH  12  13
HETATM   13  C5  UNL     1       8.653 -15.545   5.995  1.00  0.00     0.019 C 
BRANCH  13  14
HETATM   14  C4  UNL     1       9.444 -15.107   7.101  1.00  0.00     0.005 A 
HETATM   15  C3  UNL     1      10.625 -14.330   7.029  1.00  0.00     0.039 A 
HETATM   16  N10 UNL     1      11.081 -14.079   8.248  1.00  0.00    -0.300 N 
HETATM   17  N9  UNL     1      10.276 -14.637   9.091  1.00  0.00    -0.309 N 
HETATM   18  C27 UNL     1      12.262 -13.318   8.565  1.00  0.00     0.177 C 
HETATM   19  C26 UNL     1       9.259 -15.279   8.435  1.00  0.00     0.120 A 
ATOM     20  H9  UNL     1      10.383 -14.605  10.105  1.00  0.00     0.186 HD
BRANCH  15  21
HETATM   21  C2  UNL     1      11.222 -13.898   5.741  1.00  0.00     0.055 C 
HETATM   22  C1  UNL     1      12.224 -14.940   5.272  1.00  0.00     0.011 C 
ENDBRANCH  15  21
ENDBRANCH  13  14
ENDBRANCH  12  13
ENDBRANCH  11  12
BRANCH  11  23
HETATM   23  O1  UNL     1       9.053 -17.497   3.059  1.00  0.00    -0.346 OA
ATOM     24  H1  UNL     1       8.465 -17.811   2.382  1.00  0.00     0.219 HD
ENDBRANCH  11  23
ENDBRANCH   9  11
ENDBRANCH   1   9
BRANCH   4  25
HETATM   25  N3  UNL     1       8.679 -15.798  -1.940  1.00  0.00    -0.338 N 
BRANCH  25  26
HETATM   26  C10 UNL     1       8.110 -17.117  -1.757  1.00  0.00     0.160 C 
BRANCH  26  27
HETATM   27  C11 UNL     1       6.708 -17.338  -2.116  1.00  0.00     0.292 C 
BRANCH  27  28
HETATM   28  N4  UNL     1       5.856 -17.911  -1.057  1.00  0.00     0.089 N 
BRANCH  28  29
HETATM   29  C12 UNL     1       4.929 -16.823  -0.648  1.00  0.00     0.268 C 
HETATM   30  C13 UNL     1       4.997 -16.482   0.792  1.00  0.00     0.037 C 
ENDBRANCH  28  29
BRANCH  28  31
HETATM   31  C14 UNL     1       5.046 -18.901  -1.791  1.00  0.00     0.268 C 
HETATM   32  C15 UNL     1       3.875 -18.344  -2.509  1.00  0.00     0.037 C 
ENDBRANCH  28  31
ENDBRANCH  27  28
ENDBRANCH  26  27
ENDBRANCH  25  26
BRANCH  25  33
HETATM   33  C16 UNL     1       8.847 -15.093  -3.182  1.00  0.00     0.001 C 
HETATM   34  C17 UNL     1       7.636 -14.447  -3.746  1.00  0.00     0.063 C 
HETATM   35  C18 UNL     1       7.734 -14.143  -5.173  1.00  0.00     0.080 C 
HETATM   36  S1  UNL     1       8.955 -15.319  -5.801  1.00  0.00    -0.163 SA
HETATM   37  C19 UNL     1       9.751 -15.658  -4.188  1.00  0.00     0.126 C 
ENDBRANCH  25  33
ENDBRANCH   4  25
BRANCH   6  38
HETATM   38  N5  UNL     1      11.538 -12.757   0.703  1.00  0.00    -0.327 N 
ATOM     39  H5  UNL     1      11.525 -11.983   0.039  1.00  0.00     0.169 HD
BRANCH  38  40
HETATM   40  C22 UNL     1      12.488 -12.796   1.554  1.00  0.00     0.123 A 
HETATM   41  C23 UNL     1      12.819 -11.784   2.424  1.00  0.00     0.075 A 
HETATM   42  C24 UNL     1      13.893 -12.205   3.182  1.00  0.00     0.025 A 
HETATM   43  C25 UNL     1      14.582 -11.428   4.255  1.00  0.00     0.070 C 
HETATM   44  N6  UNL     1      14.195 -13.441   2.774  1.00  0.00    -0.304 N 
HETATM   45  N7  UNL     1      13.356 -13.790   1.804  1.00  0.00    -0.285 N 
ATOM     46  H6  UNL     1      14.947 -14.021   3.146  1.00  0.00     0.186 HD
ATOM     47  H7  UNL     1      13.369 -14.687   1.318  1.00  0.00     0.188 HD
ENDBRANCH  38  40
ENDBRANCH   6  38
TORSDOF 16
ENDMDL
MODEL 3
REMARK VINA RESULT: -8.274891810      3.072     10.315
REMARK  16 active torsions:
REMARK  status: ('A' for Active; 'I' for Inactive)
REMARK    1  A    between atoms: C2_2  and  C3_3 
REMARK    2  A    between atoms: C4_4  and  C5_5 
REMARK    3  A    between atoms: C5_5  and  C6_6 
REMARK    4  A    between atoms: C6_6  and  C7_7 
REMARK    5  A    between atoms: C7_7  and  O1_8 
REMARK    6  A    between atoms: C7_7  and  N1_10 
REMARK    7  A    between atoms: N1_10  and  C8_12 
REMARK    8  A    between atoms: C9_15  and  N3_16 
REMARK    9  A    between atoms: N3_16  and  C10_17 
REMARK   10  A    between atoms: N3_16  and  C16_24 
REMARK   11  A    between atoms: C10_17  and  C11_18 
REMARK   12  A    between atoms: C11_18  and  N4_19 
REMARK   13  A    between atoms: N4_19  and  C12_20 
REMARK   14  A    between atoms: N4_19  and  C14_22 
REMARK   15  A    between atoms: C21_30  and  N5_31 
REMARK   16  A    between atoms: N5_31  and  C22_33 
ROOT
HETATM    1  C8  UNL     1       8.979 -16.832  -0.852  1.00  0.00     0.687 A 
HETATM    2  N2  UNL     1       9.426 -16.154   0.248  1.00  0.00    -0.176 N 
ATOM      3  H2  UNL     1       9.375 -16.609   1.159  1.00  0.00     0.186 HD
HETATM    4  C9  UNL     1       9.925 -14.917   0.173  1.00  0.00     0.127 A 
HETATM    5  C20 UNL     1       9.976 -14.340  -1.063  1.00  0.00     0.098 A 
HETATM    6  C21 UNL     1       9.521 -15.029  -2.199  1.00  0.00     0.126 A 
HETATM    7  N8  UNL     1       9.029 -16.261  -2.083  1.00  0.00    -0.176 N 
ATOM      8  H8  UNL     1       8.696 -16.767  -2.903  1.00  0.00     0.186 HD
ENDROOT
BRANCH   1   9
HETATM    9  N1  UNL     1       8.500 -18.014  -0.794  1.00  0.00    -0.170 N 
ATOM     10  H1  UNL     1       9.144 -18.762  -1.052  1.00  0.00     0.186 HD
BRANCH   9  11
HETATM   11  C7  UNL     1       7.228 -18.423  -0.430  1.00  0.00     0.155 C 
BRANCH  11  12
HETATM   12  C6  UNL     1       5.956 -17.903  -0.792  1.00  0.00     0.057 C 
BRANCH  12  13
HETATM   13  C5  UNL     1       4.953 -18.294  -1.466  1.00  0.00     0.019 C 
BRANCH  13  14
HETATM   14  C4  UNL     1       4.150 -17.845  -2.560  1.00  0.00     0.005 A 
HETATM   15  C3  UNL     1       4.335 -18.174  -3.924  1.00  0.00     0.039 A 
HETATM   16  N10 UNL     1       3.389 -17.612  -4.662  1.00  0.00    -0.300 N 
HETATM   17  N9  UNL     1       2.613 -16.950  -3.867  1.00  0.00    -0.309 N 
HETATM   18  C27 UNL     1       3.258 -17.725  -6.092  1.00  0.00     0.177 C 
HETATM   19  C26 UNL     1       3.040 -17.064  -2.571  1.00  0.00     0.120 A 
ATOM     20  H9  UNL     1       1.796 -16.417  -4.165  1.00  0.00     0.186 HD
BRANCH  15  21
HETATM   21  C2  UNL     1       5.456 -19.025  -4.397  1.00  0.00     0.055 C 
HETATM   22  C1  UNL     1       6.692 -18.166  -4.605  1.00  0.00     0.011 C 
ENDBRANCH  15  21
ENDBRANCH  13  14
ENDBRANCH  12  13
ENDBRANCH  11  12
BRANCH  11  23
HETATM   23  O1  UNL     1       7.194 -19.456   0.378  1.00  0.00    -0.346 OA
ATOM     24  H1  UNL     1       6.996 -20.286  -0.040  1.00  0.00     0.219 HD
ENDBRANCH  11  23
ENDBRANCH   9  11
ENDBRANCH   1   9
BRANCH   4  25
HETATM   25  N3  UNL     1      10.356 -14.255   1.393  1.00  0.00    -0.338 N 
BRANCH  25  26
HETATM   26  C10 UNL     1       9.350 -14.261   2.436  1.00  0.00     0.160 C 
BRANCH  26  27
HETATM   27  C11 UNL     1       9.592 -15.048   3.647  1.00  0.00     0.292 C 
BRANCH  27  28
HETATM   28  N4  UNL     1      10.190 -14.317   4.780  1.00  0.00     0.089 N 
BRANCH  28  29
HETATM   29  C12 UNL     1       9.172 -14.342   5.863  1.00  0.00     0.268 C 
HETATM   30  C13 UNL     1       8.776 -15.705   6.287  1.00  0.00     0.037 C 
ENDBRANCH  28  29
BRANCH  28  31
HETATM   31  C14 UNL     1      11.281 -15.214   5.205  1.00  0.00     0.268 C 
HETATM   32  C15 UNL     1      12.419 -14.541   5.877  1.00  0.00     0.037 C 
ENDBRANCH  28  31
ENDBRANCH  27  28
ENDBRANCH  26  27
ENDBRANCH  25  26
BRANCH  25  33
HETATM   33  C16 UNL     1      11.669 -13.671   1.462  1.00  0.00     0.001 C 
HETATM   34  C17 UNL     1      12.777 -14.577   1.851  1.00  0.00     0.063 C 
HETATM   35  C18 UNL     1      13.970 -13.883   2.336  1.00  0.00     0.080 C 
HETATM   36  S1  UNL     1      13.351 -12.297   2.948  1.00  0.00    -0.163 SA
HETATM   37  C19 UNL     1      11.798 -12.306   1.979  1.00  0.00     0.126 C 
ENDBRANCH  25  33
ENDBRANCH   4  25
BRANCH   6  38
HETATM   38  N5  UNL     1       9.581 -14.434  -3.482  1.00  0.00    -0.327 N 
ATOM     39  H5  UNL     1      10.366 -13.815  -3.685  1.00  0.00     0.169 HD
BRANCH  38  40
HETATM   40  C22 UNL     1       8.716 -14.621  -4.401  1.00  0.00     0.123 A 
HETATM   41  C23 UNL     1       8.943 -15.284  -5.584  1.00  0.00     0.075 A 
HETATM   42  C24 UNL     1       7.768 -15.281  -6.308  1.00  0.00     0.025 A 
HETATM   43  C25 UNL     1       7.552 -15.889  -7.655  1.00  0.00     0.070 C 
HETATM   44  N6  UNL     1       6.860 -14.634  -5.572  1.00  0.00    -0.304 N 
HETATM   45  N7  UNL     1       7.428 -14.242  -4.437  1.00  0.00    -0.285 N 
ATOM     46  H6  UNL     1       5.889 -14.468  -5.839  1.00  0.00     0.186 HD
ATOM     47  H7  UNL     1       6.953 -13.727  -3.696  1.00  0.00     0.188 HD
ENDBRANCH  38  40
ENDBRANCH   6  38
TORSDOF 16
ENDMDL
MODEL 4
REMARK VINA RESULT: -8.126501577      2.959     10.320
REMARK  16 active torsions:
REMARK  status: ('A' for Active; 'I' for Inactive)
REMARK    1  A    between atoms: C2_2  and  C3_3 
REMARK    2  A    between atoms: C4_4  and  C5_5 
REMARK    3  A    between atoms: C5_5  and  C6_6 
REMARK    4  A    between atoms: C6_6  and  C7_7 
REMARK    5  A    between atoms: C7_7  and  O1_8 
REMARK    6  A    between atoms: C7_7  and  N1_10 
REMARK    7  A    between atoms: N1_10  and  C8_12 
REMARK    8  A    between atoms: C9_15  and  N3_16 
REMARK    9  A    between atoms: N3_16  and  C10_17 
REMARK   10  A    between atoms: N3_16  and  C16_24 
REMARK   11  A    between atoms: C10_17  and  C11_18 
REMARK   12  A    between atoms: C11_18  and  N4_19 
REMARK   13  A    between atoms: N4_19  and  C12_20 
REMARK   14  A    between atoms: N4_19  and  C14_22 
REMARK   15  A    between atoms: C21_30  and  N5_31 
REMARK   16  A    between atoms: N5_31  and  C22_33 
ROOT
HETATM    1  C8  UNL     1       7.840 -15.980  -0.415  1.00  0.00     0.687 A 
HETATM    2  N2  UNL     1       8.601 -15.560   0.641  1.00  0.00    -0.176 N 
ATOM      3  H2  UNL     1       8.346 -15.865   1.580  1.00  0.00     0.186 HD
HETATM    4  C9  UNL     1       9.665 -14.767   0.488  1.00  0.00     0.127 A 
HETATM    5  C20 UNL     1       9.975 -14.381  -0.785  1.00  0.00     0.098 A 
HETATM    6  C21 UNL     1       9.201 -14.807  -1.876  1.00  0.00     0.126 A 
HETATM    7  N8  UNL     1       8.147 -15.597  -1.681  1.00  0.00    -0.176 N 
ATOM      8  H8  UNL     1       7.579 -15.909  -2.469  1.00  0.00     0.186 HD
ENDROOT
BRANCH   1   9
HETATM    9  N1  UNL     1       6.822 -16.737  -0.282  1.00  0.00    -0.170 N 
ATOM     10  H1  UNL     1       5.939 -16.259  -0.101  1.00  0.00     0.186 HD
BRANCH   9  11
HETATM   11  C7  UNL     1       6.746 -18.118  -0.350  1.00  0.00     0.155 C 
BRANCH  11  12
HETATM   12  C6  UNL     1       5.667 -18.964  -0.728  1.00  0.00     0.057 C 
BRANCH  12  13
HETATM   13  C5  UNL     1       4.970 -19.167  -1.770  1.00  0.00     0.019 C 
BRANCH  13  14
HETATM   14  C4  UNL     1       4.199 -18.420  -2.712  1.00  0.00     0.005 A 
HETATM   15  C3  UNL     1       4.430 -18.340  -4.106  1.00  0.00     0.039 A 
HETATM   16  N10 UNL     1       3.504 -17.587  -4.681  1.00  0.00    -0.300 N 
HETATM   17  N9  UNL     1       2.697 -17.183  -3.755  1.00  0.00    -0.309 N 
HETATM   18  C27 UNL     1       3.418 -17.281  -6.085  1.00  0.00     0.177 C 
HETATM   19  C26 UNL     1       3.083 -17.668  -2.534  1.00  0.00     0.120 A 
ATOM     20  H9  UNL     1       1.886 -16.586  -3.912  1.00  0.00     0.186 HD
BRANCH  15  21
HETATM   21  C2  UNL     1       5.573 -19.019  -4.769  1.00  0.00     0.055 C 
HETATM   22  C1  UNL     1       6.806 -18.136  -4.682  1.00  0.00     0.011 C 
ENDBRANCH  15  21
ENDBRANCH  13  14
ENDBRANCH  12  13
ENDBRANCH  11  12
BRANCH  11  23
HETATM   23  O1  UNL     1       7.847 -18.746  -0.012  1.00  0.00    -0.346 OA
ATOM     24  H1  UNL     1       8.622 -18.484  -0.495  1.00  0.00     0.219 HD
ENDBRANCH  11  23
ENDBRANCH   9  11
ENDBRANCH   1   9
BRANCH   4  25
HETATM   25  N3  UNL     1      10.407 -14.346   1.665  1.00  0.00    -0.338 N 
BRANCH  25  26
HETATM   26  C10 UNL     1       9.719 -14.627   2.908  1.00  0.00     0.160 C 
BRANCH  26  27
HETATM   27  C11 UNL     1      10.161 -15.762   3.721  1.00  0.00     0.292 C 
BRANCH  27  28
HETATM   28  N4  UNL     1      10.429 -15.469   5.142  1.00  0.00     0.089 N 
BRANCH  28  29
HETATM   29  C12 UNL     1      11.409 -14.353   5.150  1.00  0.00     0.268 C 
HETATM   30  C13 UNL     1      12.785 -14.760   5.516  1.00  0.00     0.037 C 
ENDBRANCH  28  29
BRANCH  28  31
HETATM   31  C14 UNL     1       9.145 -14.908   5.605  1.00  0.00     0.268 C 
HETATM   32  C15 UNL     1       9.263 -13.768   6.545  1.00  0.00     0.037 C 
ENDBRANCH  28  31
ENDBRANCH  27  28
ENDBRANCH  26  27
ENDBRANCH  25  26
BRANCH  25  33
HETATM   33  C16 UNL     1      11.689 -13.712   1.511  1.00  0.00     0.001 C 
HETATM   34  C17 UNL     1      12.881 -14.565   1.738  1.00  0.00     0.063 C 
HETATM   35  C18 UNL     1      14.106 -13.813   2.011  1.00  0.00     0.080 C 
HETATM   36  S1  UNL     1      13.527 -12.235   2.677  1.00  0.00    -0.163 SA
HETATM   37  C19 UNL     1      11.842 -12.329   1.969  1.00  0.00     0.126 C 
ENDBRANCH  25  33
ENDBRANCH   4  25
BRANCH   6  38
HETATM   38  N5  UNL     1       9.526 -14.412  -3.195  1.00  0.00    -0.327 N 
ATOM     39  H5  UNL     1      10.432 -13.969  -3.352  1.00  0.00     0.169 HD
BRANCH  38  40
HETATM   40  C22 UNL     1       8.759 -14.573  -4.202  1.00  0.00     0.123 A 
HETATM   41  C23 UNL     1       9.092 -15.242  -5.357  1.00  0.00     0.075 A 
HETATM   42  C24 UNL     1       8.002 -15.204  -6.203  1.00  0.00     0.025 A 
HETATM   43  C25 UNL     1       7.914 -15.805  -7.567  1.00  0.00     0.070 C 
HETATM   44  N6  UNL     1       7.040 -14.529  -5.566  1.00  0.00    -0.304 N 
HETATM   45  N7  UNL     1       7.495 -14.155  -4.375  1.00  0.00    -0.285 N 
ATOM     46  H6  UNL     1       6.109 -14.334  -5.935  1.00  0.00     0.186 HD
ATOM     47  H7  UNL     1       6.959 -13.626  -3.688  1.00  0.00     0.188 HD
ENDBRANCH  38  40
ENDBRANCH   6  38
TORSDOF 16
ENDMDL
MODEL 5
REMARK VINA RESULT: -8.114284883      2.714      9.282
REMARK  16 active torsions:
REMARK  status: ('A' for Active; 'I' for Inactive)
REMARK    1  A    between atoms: C2_2  and  C3_3 
REMARK    2  A    between atoms: C4_4  and  C5_5 
REMARK    3  A    between atoms: C5_5  and  C6_6 
REMARK    4  A    between atoms: C6_6  and  C7_7 
REMARK    5  A    between atoms: C7_7  and  O1_8 
REMARK    6  A    between atoms: C7_7  and  N1_10 
REMARK    7  A    between atoms: N1_10  and  C8_12 
REMARK    8  A    between atoms: C9_15  and  N3_16 
REMARK    9  A    between atoms: N3_16  and  C10_17 
REMARK   10  A    between atoms: N3_16  and  C16_24 
REMARK   11  A    between atoms: C10_17  and  C11_18 
REMARK   12  A    between atoms: C11_18  and  N4_19 
REMARK   13  A    between atoms: N4_19  and  C12_20 
REMARK   14  A    between atoms: N4_19  and  C14_22 
REMARK   15  A    between atoms: C21_30  and  N5_31 
REMARK   16  A    between atoms: N5_31  and  C22_33 
ROOT
HETATM    1  C8  UNL     1       8.883 -14.713  -0.386  1.00  0.00     0.687 A 
HETATM    2  N2  UNL     1       9.477 -14.397   0.803  1.00  0.00    -0.176 N 
ATOM      3  H2  UNL     1      10.359 -13.884   0.790  1.00  0.00     0.186 HD
HETATM    4  C9  UNL     1       8.946 -14.733   1.982  1.00  0.00     0.127 A 
HETATM    5  C20 UNL     1       7.765 -15.419   1.959  1.00  0.00     0.098 A 
HETATM    6  C21 UNL     1       7.146 -15.747   0.742  1.00  0.00     0.126 A 
HETATM    7  N8  UNL     1       7.708 -15.394  -0.412  1.00  0.00    -0.176 N 
ATOM      8  H8  UNL     1       7.265 -15.631  -1.299  1.00  0.00     0.186 HD
ENDROOT
BRANCH   1   9
HETATM    9  N1  UNL     1       9.380 -14.397  -1.519  1.00  0.00    -0.170 N 
ATOM     10  H1  UNL     1       9.486 -13.396  -1.688  1.00  0.00     0.186 HD
BRANCH   9  11
HETATM   11  C7  UNL     1       9.796 -15.222  -2.551  1.00  0.00     0.155 C 
BRANCH  11  12
HETATM   12  C6  UNL     1       9.857 -14.984  -3.951  1.00  0.00     0.057 C 
BRANCH  12  13
HETATM   13  C5  UNL     1       9.752 -15.672  -5.013  1.00  0.00     0.019 C 
BRANCH  13  14
HETATM   14  C4  UNL     1       8.895 -15.772  -6.152  1.00  0.00     0.005 A 
HETATM   15  C3  UNL     1       7.528 -16.140  -6.140  1.00  0.00     0.039 A 
HETATM   16  N10 UNL     1       7.033 -16.096  -7.369  1.00  0.00    -0.300 N 
HETATM   17  N9  UNL     1       7.984 -15.725  -8.161  1.00  0.00    -0.309 N 
HETATM   18  C27 UNL     1       5.677 -16.407  -7.742  1.00  0.00     0.177 C 
HETATM   19  C26 UNL     1       9.142 -15.516  -7.461  1.00  0.00     0.120 A 
ATOM     20  H9  UNL     1       7.885 -15.605  -9.170  1.00  0.00     0.186 HD
BRANCH  15  21
HETATM   21  C2  UNL     1       6.812 -16.520  -4.897  1.00  0.00     0.055 C 
HETATM   22  C1  UNL     1       6.932 -18.018  -4.680  1.00  0.00     0.011 C 
ENDBRANCH  15  21
ENDBRANCH  13  14
ENDBRANCH  12  13
ENDBRANCH  11  12
BRANCH  11  23
HETATM   23  O1  UNL     1      10.197 -16.412  -2.174  1.00  0.00    -0.346 OA
ATOM     24  H1  UNL     1      10.924 -16.415  -1.562  1.00  0.00     0.219 HD
ENDBRANCH  11  23
ENDBRANCH   9  11
ENDBRANCH   1   9
BRANCH   4  25
HETATM   25  N3  UNL     1       9.654 -14.381   3.202  1.00  0.00    -0.338 N 
BRANCH  25  26
HETATM   26  C10 UNL     1      10.879 -13.646   2.963  1.00  0.00     0.160 C 
BRANCH  26  27
HETATM   27  C11 UNL     1      12.103 -14.073   3.644  1.00  0.00     0.292 C 
BRANCH  27  28
HETATM   28  N4  UNL     1      13.321 -14.112   2.813  1.00  0.00     0.089 N 
BRANCH  28  29
HETATM   29  C12 UNL     1      12.870 -13.872   1.418  1.00  0.00     0.268 C 
HETATM   30  C13 UNL     1      13.137 -14.998   0.494  1.00  0.00     0.037 C 
ENDBRANCH  28  29
BRANCH  28  31
HETATM   31  C14 UNL     1      14.043 -12.898   3.238  1.00  0.00     0.268 C 
HETATM   32  C15 UNL     1      13.610 -11.646   2.573  1.00  0.00     0.037 C 
ENDBRANCH  28  31
ENDBRANCH  27  28
ENDBRANCH  26  27
ENDBRANCH  25  26
BRANCH  25  33
HETATM   33  C16 UNL     1       9.116 -14.775   4.477  1.00  0.00     0.001 C 
HETATM   34  C17 UNL     1       9.132 -13.748   5.548  1.00  0.00     0.063 C 
HETATM   35  C18 UNL     1       9.007 -14.296   6.898  1.00  0.00     0.080 C 
HETATM   36  S1  UNL     1       9.619 -15.992   6.755  1.00  0.00    -0.163 SA
HETATM   37  C19 UNL     1       9.368 -16.139   4.948  1.00  0.00     0.126 C 
ENDBRANCH  25  33
ENDBRANCH   4  25
BRANCH   6  38
HETATM   38  N5  UNL     1       5.919 -16.452   0.719  1.00  0.00    -0.327 N 
ATOM     39  H5  UNL     1       5.262 -16.291   1.483  1.00  0.00     0.169 HD
BRANCH  38  40
HETATM   40  C22 UNL     1       5.581 -17.275  -0.196  1.00  0.00     0.123 A 
HETATM   41  C23 UNL     1       4.565 -17.084  -1.102  1.00  0.00     0.075 A 
HETATM   42  C24 UNL     1       4.513 -18.189  -1.926  1.00  0.00     0.025 A 
HETATM   43  C25 UNL     1       3.563 -18.412  -3.056  1.00  0.00     0.070 C 
HETATM   44  N6  UNL     1       5.478 -19.021  -1.522  1.00  0.00    -0.304 N 
HETATM   45  N7  UNL     1       6.112 -18.472  -0.491  1.00  0.00    -0.285 N 
ATOM     46  H6  UNL     1       5.692 -19.927  -1.937  1.00  0.00     0.186 HD
ATOM     47  H7  UNL     1       6.893 -18.900   0.006  1.00  0.00     0.188 HD
ENDBRANCH  38  40
ENDBRANCH   6  38
TORSDOF 16
ENDMDL
