MODEL 1
REMARK VINA RESULT: -8.206341059      0.000      0.000
REMARK  15 active torsions:
REMARK  status: ('A' for Active; 'I' for Inactive)
REMARK    1  A    between atoms: O1_2  and  C2_3 
REMARK    2  A    between atoms: C2_3  and  C3_5 
REMARK    3  A    between atoms: C3_5  and  C4_6 
REMARK    4  A    between atoms: C3_5  and  N3_27 
REMARK    5  A    between atoms: C4_6  and  C5_7 
REMARK       I    between atoms: C5_7  and  N1_9 
REMARK    6  A    between atoms: C9_13  and  C10_14 
REMARK    7  A    between atoms: C10_14  and  O4_15 
REMARK    8  A    between atoms: O4_15  and  C11_16 
REMARK       I    between atoms: C11_16  and  N2_18 
REMARK    9  A    between atoms: N2_18  and  C12_20 
REMARK   10  A    between atoms: C12_20  and  C15_23 
REMARK   11  A    between atoms: N3_27  and  C19_29 
REMARK   12  A    between atoms: C19_29  and  C20_30 
REMARK   13  A    between atoms: C20_30  and  C21_31 
REMARK   14  A    between atoms: C21_31  and  N4_32 
REMARK   15  A    between atoms: C27_38  and  C28_39 
ROOT
HETATM    1  C4  UNL     1       6.952 -18.093  -0.024  1.00  0.00     0.138 C 
ENDROOT
BRANCH   1   2
HETATM    2  C3  UNL     1       6.098 -17.807  -1.301  1.00  0.00     0.189 C 
BRANCH   2   3
HETATM    3  C2  UNL     1       4.924 -16.984  -0.910  1.00  0.00     0.281 C 
HETATM    4  O2  UNL     1       4.700 -16.684   0.301  1.00  0.00    -0.263 OA
BRANCH   3   5
HETATM    5  O1  UNL     1       4.019 -16.507  -1.846  1.00  0.00    -0.325 OA
HETATM    6  C1  UNL     1       2.811 -17.198  -2.146  1.00  0.00     0.213 C 
ENDBRANCH   3   5
ENDBRANCH   2   3
BRANCH   2   7
HETATM    7  N3  UNL     1       5.818 -19.038  -1.865  1.00  0.00    -0.388 N 
ATOM      8  H3  UNL     1       5.925 -19.849  -1.255  1.00  0.00     0.159 HD
BRANCH   7   9
HETATM    9  C19 UNL     1       5.410 -19.295  -3.156  1.00  0.00     0.058 C 
BRANCH   9  10
HETATM   10  C20 UNL     1       6.251 -18.863  -4.315  1.00  0.00     0.074 C 
BRANCH  10  11
HETATM   11  C21 UNL     1       6.004 -17.551  -4.905  1.00  0.00     0.278 C 
BRANCH  11  12
HETATM   12  N4  UNL     1       6.957 -16.523  -4.649  1.00  0.00     0.103 N 
HETATM   13  C22 UNL     1       8.119 -17.037  -3.979  1.00  0.00     0.273 C 
HETATM   14  C23 UNL     1       8.990 -15.974  -3.383  1.00  0.00     0.030 C 
HETATM   15  C24 UNL     1       9.944 -15.439  -4.397  1.00  0.00     0.002 C 
HETATM   16  C25 UNL     1       9.323 -14.353  -5.218  1.00  0.00     0.003 C 
HETATM   17  C26 UNL     1       7.823 -14.374  -5.217  1.00  0.00     0.047 C 
HETATM   18  C27 UNL     1       7.237 -15.661  -5.753  1.00  0.00     0.322 C 
BRANCH  18  19
HETATM   19  C28 UNL     1       8.022 -16.249  -6.845  1.00  0.00     0.207 C 
HETATM   20  O6  UNL     1       8.088 -15.567  -7.916  1.00  0.00    -0.646 OA
HETATM   21  O7  UNL     1       8.688 -17.442  -6.848  1.00  0.00    -0.646 OA
ENDBRANCH  18  19
ENDBRANCH  11  12
ENDBRANCH  10  11
ENDBRANCH   9  10
ENDBRANCH   7   9
ENDBRANCH   2   7
ENDBRANCH   1   2
BRANCH   1  22
HETATM   22  C5  UNL     1       8.316 -17.560  -0.175  1.00  0.00     0.222 C 
HETATM   23  O3  UNL     1       9.177 -18.304  -0.704  1.00  0.00    -0.273 OA
HETATM   24  N1  UNL     1       8.700 -16.261   0.243  1.00  0.00    -0.345 N 
HETATM   25  C6  UNL     1      10.012 -15.686   0.136  1.00  0.00     0.126 C 
HETATM   26  C9  UNL     1       7.879 -15.203   0.833  1.00  0.00     0.111 C 
HETATM   27  C7  UNL     1       9.778 -14.247  -0.200  1.00  0.00     0.022 C 
HETATM   28  C8  UNL     1       8.352 -13.959   0.203  1.00  0.00     0.029 C 
BRANCH  26  29
HETATM   29  C10 UNL     1       7.699 -15.258   2.276  1.00  0.00     0.206 C 
BRANCH  29  30
HETATM   30  O4  UNL     1       8.444 -14.506   3.126  1.00  0.00    -0.302 OA
BRANCH  30  31
HETATM   31  C11 UNL     1       9.474 -14.756   3.960  1.00  0.00     0.361 C 
HETATM   32  O5  UNL     1      10.090 -15.834   3.845  1.00  0.00    -0.238 OA
HETATM   33  N2  UNL     1       9.933 -13.882   4.983  1.00  0.00    -0.328 N 
ATOM     34  H2  UNL     1       9.423 -13.005   5.087  1.00  0.00     0.165 HD
BRANCH  33  35
HETATM   35  C12 UNL     1      11.018 -14.087   5.880  1.00  0.00     0.034 C 
HETATM   36  C13 UNL     1      11.016 -15.490   6.469  1.00  0.00     0.039 C 
HETATM   37  C14 UNL     1      10.714 -13.181   7.110  1.00  0.00     0.039 C 
BRANCH  35  38
HETATM   38  C15 UNL     1      12.376 -13.695   5.451  1.00  0.00    -0.027 C 
HETATM   39  C16 UNL     1      13.301 -14.923   5.473  1.00  0.00     0.017 C 
HETATM   40  C17 UNL     1      12.529 -13.139   4.059  1.00  0.00     0.017 C 
HETATM   41  C18 UNL     1      12.978 -12.627   6.374  1.00  0.00     0.017 C 
ENDBRANCH  35  38
ENDBRANCH  33  35
ENDBRANCH  30  31
ENDBRANCH  29  30
ENDBRANCH  26  29
ENDBRANCH   1  22
TORSDOF 15
ENDMDL
MODEL 2
REMARK VINA RESULT: -8.158042155      2.033      3.112
REMARK  15 active torsions:
REMARK  status: ('A' for Active; 'I' for Inactive)
REMARK    1  A    between atoms: O1_2  and  C2_3 
REMARK    2  A    between atoms: C2_3  and  C3_5 
REMARK    3  A    between atoms: C3_5  and  C4_6 
REMARK    4  A    between atoms: C3_5  and  N3_27 
REMARK    5  A    between atoms: C4_6  and  C5_7 
REMARK       I    between atoms: C5_7  and  N1_9 
REMARK    6  A    between atoms: C9_13  and  C10_14 
REMARK    7  A    between atoms: C10_14  and  O4_15 
REMARK    8  A    between atoms: O4_15  and  C11_16 
REMARK       I    between atoms: C11_16  and  N2_18 
REMARK    9  A    between atoms: N2_18  and  C12_20 
REMARK   10  A    between atoms: C12_20  and  C15_23 
REMARK   11  A    between atoms: N3_27  and  C19_29 
REMARK   12  A    between atoms: C19_29  and  C20_30 
REMARK   13  A    between atoms: C20_30  and  C21_31 
REMARK   14  A    between atoms: C21_31  and  N4_32 
REMARK   15  A    between atoms: C27_38  and  C28_39 
ROOT
HETATM    1  C4  UNL     1       7.953 -14.594   0.651  1.00  0.00     0.138 C 
ENDROOT
BRANCH   1   2
HETATM    2  C3  UNL     1       7.300 -15.873   0.036  1.00  0.00     0.189 C 
BRANCH   2   3
HETATM    3  C2  UNL     1       6.027 -16.144   0.751  1.00  0.00     0.281 C 
HETATM    4  O2  UNL     1       6.009 -16.434   1.986  1.00  0.00    -0.263 OA
BRANCH   3   5
HETATM    5  O1  UNL     1       4.800 -16.097   0.107  1.00  0.00    -0.325 OA
HETATM    6  C1  UNL     1       4.531 -16.866  -1.060  1.00  0.00     0.213 C 
ENDBRANCH   3   5
ENDBRANCH   2   3
BRANCH   2   7
HETATM    7  N3  UNL     1       8.259 -16.868   0.102  1.00  0.00    -0.388 N 
ATOM      8  H3  UNL     1       8.709 -17.003   1.008  1.00  0.00     0.159 HD
BRANCH   7   9
HETATM    9  C19 UNL     1       8.676 -17.698  -0.917  1.00  0.00     0.058 C 
BRANCH   9  10
HETATM   10  C20 UNL     1       8.817 -17.173  -2.310  1.00  0.00     0.074 C 
BRANCH  10  11
HETATM   11  C21 UNL     1       7.621 -17.073  -3.141  1.00  0.00     0.278 C 
BRANCH  11  12
HETATM   12  N4  UNL     1       7.802 -17.026  -4.554  1.00  0.00     0.103 N 
HETATM   13  C22 UNL     1       6.552 -16.851  -5.238  1.00  0.00     0.273 C 
HETATM   14  C23 UNL     1       6.625 -17.135  -6.707  1.00  0.00     0.030 C 
HETATM   15  C24 UNL     1       7.083 -15.929  -7.459  1.00  0.00     0.002 C 
HETATM   16  C25 UNL     1       8.577 -15.833  -7.488  1.00  0.00     0.003 C 
HETATM   17  C26 UNL     1       9.255 -16.612  -6.399  1.00  0.00     0.047 C 
HETATM   18  C27 UNL     1       8.856 -16.176  -5.007  1.00  0.00     0.322 C 
BRANCH  18  19
HETATM   19  C28 UNL     1       8.612 -14.734  -4.895  1.00  0.00     0.207 C 
HETATM   20  O6  UNL     1       9.637 -13.985  -4.970  1.00  0.00    -0.646 OA
HETATM   21  O7  UNL     1       7.414 -14.099  -4.717  1.00  0.00    -0.646 OA
ENDBRANCH  18  19
ENDBRANCH  11  12
ENDBRANCH  10  11
ENDBRANCH   9  10
ENDBRANCH   7   9
ENDBRANCH   2   7
ENDBRANCH   1   2
BRANCH   1  22
HETATM   22  C5  UNL     1       9.039 -14.094  -0.210  1.00  0.00     0.222 C 
HETATM   23  O3  UNL     1       8.779 -13.900  -1.422  1.00  0.00    -0.273 OA
HETATM   24  N1  UNL     1      10.349 -13.822   0.260  1.00  0.00    -0.345 N 
HETATM   25  C6  UNL     1      11.452 -13.345  -0.526  1.00  0.00     0.126 C 
HETATM   26  C9  UNL     1      10.877 -13.919   1.622  1.00  0.00     0.111 C 
HETATM   27  C7  UNL     1      12.186 -12.398   0.371  1.00  0.00     0.022 C 
HETATM   28  C8  UNL     1      11.750 -12.743   1.775  1.00  0.00     0.029 C 
BRANCH  26  29
HETATM   29  C10 UNL     1      11.355 -15.230   2.034  1.00  0.00     0.206 C 
BRANCH  29  30
HETATM   30  O4  UNL     1      10.652 -16.018   2.888  1.00  0.00    -0.302 OA
BRANCH  30  31
HETATM   31  C11 UNL     1       9.878 -15.791   3.969  1.00  0.00     0.361 C 
HETATM   32  O5  UNL     1       8.686 -16.156   3.941  1.00  0.00    -0.238 OA
HETATM   33  N2  UNL     1      10.308 -15.160   5.168  1.00  0.00    -0.328 N 
ATOM     34  H2  UNL     1      11.279 -14.851   5.191  1.00  0.00     0.165 HD
BRANCH  33  35
HETATM   35  C12 UNL     1       9.543 -14.908   6.342  1.00  0.00     0.034 C 
HETATM   36  C13 UNL     1       8.548 -16.024   6.625  1.00  0.00     0.039 C 
HETATM   37  C14 UNL     1       8.632 -13.696   5.989  1.00  0.00     0.039 C 
BRANCH  35  38
HETATM   38  C15 UNL     1      10.248 -14.503   7.575  1.00  0.00    -0.027 C 
HETATM   39  C16 UNL     1       9.486 -15.024   8.804  1.00  0.00     0.017 C 
HETATM   40  C17 UNL     1      11.655 -15.008   7.766  1.00  0.00     0.017 C 
HETATM   41  C18 UNL     1      10.355 -12.976   7.691  1.00  0.00     0.017 C 
ENDBRANCH  35  38
ENDBRANCH  33  35
ENDBRANCH  30  31
ENDBRANCH  29  30
ENDBRANCH  26  29
ENDBRANCH   1  22
TORSDOF 15
ENDMDL
MODEL 3
REMARK VINA RESULT: -7.982977384      1.045      1.518
REMARK  15 active torsions:
REMARK  status: ('A' for Active; 'I' for Inactive)
REMARK    1  A    between atoms: O1_2  and  C2_3 
REMARK    2  A    between atoms: C2_3  and  C3_5 
REMARK    3  A    between atoms: C3_5  and  C4_6 
REMARK    4  A    between atoms: C3_5  and  N3_27 
REMARK    5  A    between atoms: C4_6  and  C5_7 
REMARK       I    between atoms: C5_7  and  N1_9 
REMARK    6  A    between atoms: C9_13  and  C10_14 
REMARK    7  A    between atoms: C10_14  and  O4_15 
REMARK    8  A    between atoms: O4_15  and  C11_16 
REMARK       I    between atoms: C11_16  and  N2_18 
REMARK    9  A    between atoms: N2_18  and  C12_20 
REMARK   10  A    between atoms: C12_20  and  C15_23 
REMARK   11  A    between atoms: N3_27  and  C19_29 
REMARK   12  A    between atoms: C19_29  and  C20_30 
REMARK   13  A    between atoms: C20_30  and  C21_31 
REMARK   14  A    between atoms: C21_31  and  N4_32 
REMARK   15  A    between atoms: C27_38  and  C28_39 
ROOT
HETATM    1  C4  UNL     1       7.207 -17.939   0.101  1.00  0.00     0.138 C 
ENDROOT
BRANCH   1   2
HETATM    2  C3  UNL     1       6.275 -17.677  -1.125  1.00  0.00     0.189 C 
BRANCH   2   3
HETATM    3  C2  UNL     1       5.218 -16.716  -0.720  1.00  0.00     0.281 C 
HETATM    4  O2  UNL     1       4.245 -16.439  -1.486  1.00  0.00    -0.263 OA
BRANCH   3   5
HETATM    5  O1  UNL     1       5.243 -16.073   0.509  1.00  0.00    -0.325 OA
HETATM    6  C1  UNL     1       4.374 -16.448   1.573  1.00  0.00     0.213 C 
ENDBRANCH   3   5
ENDBRANCH   2   3
BRANCH   2   7
HETATM    7  N3  UNL     1       5.838 -18.919  -1.552  1.00  0.00    -0.388 N 
ATOM      8  H3  UNL     1       5.873 -19.671  -0.863  1.00  0.00     0.159 HD
BRANCH   7   9
HETATM    9  C19 UNL     1       5.361 -19.255  -2.801  1.00  0.00     0.058 C 
BRANCH   9  10
HETATM   10  C20 UNL     1       5.293 -18.229  -3.886  1.00  0.00     0.074 C 
BRANCH  10  11
HETATM   11  C21 UNL     1       6.490 -17.979  -4.685  1.00  0.00     0.278 C 
BRANCH  11  12
HETATM   12  N4  UNL     1       7.146 -16.726  -4.515  1.00  0.00     0.103 N 
HETATM   13  C22 UNL     1       8.411 -16.879  -3.854  1.00  0.00     0.273 C 
HETATM   14  C23 UNL     1       8.985 -15.593  -3.344  1.00  0.00     0.030 C 
HETATM   15  C24 UNL     1       9.750 -14.891  -4.416  1.00  0.00     0.002 C 
HETATM   16  C25 UNL     1       8.854 -14.054  -5.275  1.00  0.00     0.003 C 
HETATM   17  C26 UNL     1       7.411 -14.465  -5.225  1.00  0.00     0.047 C 
HETATM   18  C27 UNL     1       7.173 -15.889  -5.672  1.00  0.00     0.322 C 
BRANCH  18  19
HETATM   19  C28 UNL     1       8.066 -16.318  -6.754  1.00  0.00     0.207 C 
HETATM   20  O6  UNL     1       8.011 -15.640  -7.828  1.00  0.00    -0.646 OA
HETATM   21  O7  UNL     1       8.949 -17.361  -6.746  1.00  0.00    -0.646 OA
ENDBRANCH  18  19
ENDBRANCH  11  12
ENDBRANCH  10  11
ENDBRANCH   9  10
ENDBRANCH   7   9
ENDBRANCH   2   7
ENDBRANCH   1   2
BRANCH   1  22
HETATM   22  C5  UNL     1       8.565 -17.429  -0.154  1.00  0.00     0.222 C 
HETATM   23  O3  UNL     1       9.342 -18.153  -0.823  1.00  0.00    -0.273 OA
HETATM   24  N1  UNL     1       9.032 -16.174   0.312  1.00  0.00    -0.345 N 
HETATM   25  C6  UNL     1      10.343 -15.625   0.108  1.00  0.00     0.126 C 
HETATM   26  C9  UNL     1       8.309 -15.143   1.058  1.00  0.00     0.111 C 
HETATM   27  C7  UNL     1      10.122 -14.160  -0.099  1.00  0.00     0.022 C 
HETATM   28  C8  UNL     1       8.755 -13.867   0.471  1.00  0.00     0.029 C 
BRANCH  26  29
HETATM   29  C10 UNL     1       8.278 -15.300   2.505  1.00  0.00     0.206 C 
BRANCH  29  30
HETATM   30  O4  UNL     1       9.101 -14.597   3.325  1.00  0.00    -0.302 OA
BRANCH  30  31
HETATM   31  C11 UNL     1      10.429 -14.591   3.556  1.00  0.00     0.361 C 
HETATM   32  O5  UNL     1      11.082 -15.629   3.332  1.00  0.00    -0.238 OA
HETATM   33  N2  UNL     1      11.173 -13.481   4.042  1.00  0.00    -0.328 N 
ATOM     34  H2  UNL     1      10.640 -12.633   4.236  1.00  0.00     0.165 HD
BRANCH  33  35
HETATM   35  C12 UNL     1      12.573 -13.412   4.289  1.00  0.00     0.034 C 
HETATM   36  C13 UNL     1      13.114 -14.709   4.872  1.00  0.00     0.039 C 
HETATM   37  C14 UNL     1      12.736 -12.398   5.459  1.00  0.00     0.039 C 
BRANCH  35  38
HETATM   38  C15 UNL     1      13.457 -12.901   3.222  1.00  0.00    -0.027 C 
HETATM   39  C16 UNL     1      14.286 -14.057   2.638  1.00  0.00     0.017 C 
HETATM   40  C17 UNL     1      12.801 -12.269   2.022  1.00  0.00     0.017 C 
HETATM   41  C18 UNL     1      14.428 -11.836   3.751  1.00  0.00     0.017 C 
ENDBRANCH  35  38
ENDBRANCH  33  35
ENDBRANCH  30  31
ENDBRANCH  29  30
ENDBRANCH  26  29
ENDBRANCH   1  22
TORSDOF 15
ENDMDL
MODEL 4
REMARK VINA RESULT: -7.929079569      1.999      3.564
REMARK  15 active torsions:
REMARK  status: ('A' for Active; 'I' for Inactive)
REMARK    1  A    between atoms: O1_2  and  C2_3 
REMARK    2  A    between atoms: C2_3  and  C3_5 
REMARK    3  A    between atoms: C3_5  and  C4_6 
REMARK    4  A    between atoms: C3_5  and  N3_27 
REMARK    5  A    between atoms: C4_6  and  C5_7 
REMARK       I    between atoms: C5_7  and  N1_9 
REMARK    6  A    between atoms: C9_13  and  C10_14 
REMARK    7  A    between atoms: C10_14  and  O4_15 
REMARK    8  A    between atoms: O4_15  and  C11_16 
REMARK       I    between atoms: C11_16  and  N2_18 
REMARK    9  A    between atoms: N2_18  and  C12_20 
REMARK   10  A    between atoms: C12_20  and  C15_23 
REMARK   11  A    between atoms: N3_27  and  C19_29 
REMARK   12  A    between atoms: C19_29  and  C20_30 
REMARK   13  A    between atoms: C20_30  and  C21_31 
REMARK   14  A    between atoms: C21_31  and  N4_32 
REMARK   15  A    between atoms: C27_38  and  C28_39 
ROOT
HETATM    1  C4  UNL     1       8.092 -14.200   1.777  1.00  0.00     0.138 C 
ENDROOT
BRANCH   1   2
HETATM    2  C3  UNL     1       7.598 -15.682   1.757  1.00  0.00     0.189 C 
BRANCH   2   3
HETATM    3  C2  UNL     1       8.772 -16.575   1.935  1.00  0.00     0.281 C 
HETATM    4  O2  UNL     1       9.447 -16.986   0.943  1.00  0.00    -0.263 OA
BRANCH   3   5
HETATM    5  O1  UNL     1       9.184 -17.004   3.187  1.00  0.00    -0.325 OA
HETATM    6  C1  UNL     1       8.840 -16.301   4.376  1.00  0.00     0.213 C 
ENDBRANCH   3   5
ENDBRANCH   2   3
BRANCH   2   7
HETATM    7  N3  UNL     1       6.887 -15.838   0.581  1.00  0.00    -0.388 N 
ATOM      8  H3  UNL     1       6.967 -15.082  -0.100  1.00  0.00     0.159 HD
BRANCH   7   9
HETATM    9  C19 UNL     1       6.081 -16.899   0.223  1.00  0.00     0.058 C 
BRANCH   9  10
HETATM   10  C20 UNL     1       6.504 -17.837  -0.862  1.00  0.00     0.074 C 
BRANCH  10  11
HETATM   11  C21 UNL     1       6.387 -17.397  -2.248  1.00  0.00     0.278 C 
BRANCH  11  12
HETATM   12  N4  UNL     1       7.335 -16.444  -2.720  1.00  0.00     0.103 N 
HETATM   13  C22 UNL     1       8.666 -16.984  -2.727  1.00  0.00     0.273 C 
HETATM   14  C23 UNL     1       9.736 -15.947  -2.880  1.00  0.00     0.030 C 
HETATM   15  C24 UNL     1       9.970 -15.633  -4.320  1.00  0.00     0.002 C 
HETATM   16  C25 UNL     1       9.012 -14.599  -4.822  1.00  0.00     0.003 C 
HETATM   17  C26 UNL     1       7.767 -14.474  -3.993  1.00  0.00     0.047 C 
HETATM   18  C27 UNL     1       6.964 -15.753  -3.914  1.00  0.00     0.322 C 
BRANCH  18  19
HETATM   19  C28 UNL     1       6.999 -16.542  -5.150  1.00  0.00     0.207 C 
HETATM   20  O6  UNL     1       6.418 -16.028  -6.158  1.00  0.00    -0.646 OA
HETATM   21  O7  UNL     1       7.580 -17.763  -5.348  1.00  0.00    -0.646 OA
ENDBRANCH  18  19
ENDBRANCH  11  12
ENDBRANCH  10  11
ENDBRANCH   9  10
ENDBRANCH   7   9
ENDBRANCH   2   7
ENDBRANCH   1   2
BRANCH   1  22
HETATM   22  C5  UNL     1       8.983 -13.929   0.636  1.00  0.00     0.222 C 
HETATM   23  O3  UNL     1       8.492 -14.001  -0.516  1.00  0.00    -0.273 OA
HETATM   24  N1  UNL     1      10.354 -13.593   0.775  1.00  0.00    -0.345 N 
HETATM   25  C6  UNL     1      11.278 -13.329  -0.292  1.00  0.00     0.126 C 
HETATM   26  C9  UNL     1      11.135 -13.401   1.999  1.00  0.00     0.111 C 
HETATM   27  C7  UNL     1      12.152 -12.227   0.216  1.00  0.00     0.022 C 
HETATM   28  C8  UNL     1      12.000 -12.243   1.718  1.00  0.00     0.029 C 
BRANCH  26  29
HETATM   29  C10 UNL     1      11.707 -14.602   2.591  1.00  0.00     0.206 C 
BRANCH  29  30
HETATM   30  O4  UNL     1      12.552 -14.550   3.652  1.00  0.00    -0.302 OA
BRANCH  30  31
HETATM   31  C11 UNL     1      12.393 -14.534   4.992  1.00  0.00     0.361 C 
HETATM   32  O5  UNL     1      13.123 -15.263   5.691  1.00  0.00    -0.238 OA
HETATM   33  N2  UNL     1      11.446 -13.741   5.697  1.00  0.00    -0.328 N 
ATOM     34  H2  UNL     1      10.840 -13.151   5.127  1.00  0.00     0.165 HD
BRANCH  33  35
HETATM   35  C12 UNL     1      11.244 -13.672   7.104  1.00  0.00     0.034 C 
HETATM   36  C13 UNL     1      11.233 -15.051   7.746  1.00  0.00     0.039 C 
HETATM   37  C14 UNL     1       9.779 -13.179   7.287  1.00  0.00     0.039 C 
BRANCH  35  38
HETATM   38  C15 UNL     1      12.062 -12.728   7.892  1.00  0.00    -0.027 C 
HETATM   39  C16 UNL     1      12.670 -13.454   9.103  1.00  0.00     0.017 C 
HETATM   40  C17 UNL     1      13.243 -12.094   7.205  1.00  0.00     0.017 C 
HETATM   41  C18 UNL     1      11.225 -11.551   8.411  1.00  0.00     0.017 C 
ENDBRANCH  35  38
ENDBRANCH  33  35
ENDBRANCH  30  31
ENDBRANCH  29  30
ENDBRANCH  26  29
ENDBRANCH   1  22
TORSDOF 15
ENDMDL
MODEL 5
REMARK VINA RESULT: -7.902493668      2.067      9.779
REMARK  15 active torsions:
REMARK  status: ('A' for Active; 'I' for Inactive)
REMARK    1  A    between atoms: O1_2  and  C2_3 
REMARK    2  A    between atoms: C2_3  and  C3_5 
REMARK    3  A    between atoms: C3_5  and  C4_6 
REMARK    4  A    between atoms: C3_5  and  N3_27 
REMARK    5  A    between atoms: C4_6  and  C5_7 
REMARK       I    between atoms: C5_7  and  N1_9 
REMARK    6  A    between atoms: C9_13  and  C10_14 
REMARK    7  A    between atoms: C10_14  and  O4_15 
REMARK    8  A    between atoms: O4_15  and  C11_16 
REMARK       I    between atoms: C11_16  and  N2_18 
REMARK    9  A    between atoms: N2_18  and  C12_20 
REMARK   10  A    between atoms: C12_20  and  C15_23 
REMARK   11  A    between atoms: N3_27  and  C19_29 
REMARK   12  A    between atoms: C19_29  and  C20_30 
REMARK   13  A    between atoms: C20_30  and  C21_31 
REMARK   14  A    between atoms: C21_31  and  N4_32 
REMARK   15  A    between atoms: C27_38  and  C28_39 
ROOT
HETATM    1  C4  UNL     1       8.294 -14.306  -1.342  1.00  0.00     0.138 C 
ENDROOT
BRANCH   1   2
HETATM    2  C3  UNL     1       9.699 -14.943  -1.588  1.00  0.00     0.189 C 
BRANCH   2   3
HETATM    3  C2  UNL     1       9.533 -16.133  -2.462  1.00  0.00     0.281 C 
HETATM    4  O2  UNL     1       9.830 -17.298  -2.058  1.00  0.00    -0.263 OA
BRANCH   3   5
HETATM    5  O1  UNL     1       9.050 -16.029  -3.758  1.00  0.00    -0.325 OA
HETATM    6  C1  UNL     1       9.815 -15.436  -4.802  1.00  0.00     0.213 C 
ENDBRANCH   3   5
ENDBRANCH   2   3
BRANCH   2   7
HETATM    7  N3  UNL     1      10.243 -15.178  -0.338  1.00  0.00    -0.388 N 
ATOM      8  H3  UNL     1       9.664 -15.707   0.315  1.00  0.00     0.159 HD
BRANCH   7   9
HETATM    9  C19 UNL     1      11.478 -14.778   0.127  1.00  0.00     0.058 C 
BRANCH   9  10
HETATM   10  C20 UNL     1      11.582 -13.809   1.261  1.00  0.00     0.074 C 
BRANCH  10  11
HETATM   11  C21 UNL     1      11.739 -14.333   2.614  1.00  0.00     0.278 C 
BRANCH  11  12
HETATM   12  N4  UNL     1      10.555 -14.608   3.357  1.00  0.00     0.103 N 
HETATM   13  C22 UNL     1      10.296 -16.019   3.432  1.00  0.00     0.273 C 
HETATM   14  C23 UNL     1       8.911 -16.353   3.893  1.00  0.00     0.030 C 
HETATM   15  C24 UNL     1       8.835 -16.368   5.384  1.00  0.00     0.002 C 
HETATM   16  C25 UNL     1       8.599 -14.997   5.937  1.00  0.00     0.003 C 
HETATM   17  C26 UNL     1       8.979 -13.891   4.997  1.00  0.00     0.047 C 
HETATM   18  C27 UNL     1      10.437 -13.911   4.599  1.00  0.00     0.322 C 
BRANCH  18  19
HETATM   19  C28 UNL     1      11.330 -14.359   5.674  1.00  0.00     0.207 C 
HETATM   20  O6  UNL     1      11.390 -13.610   6.699  1.00  0.00    -0.646 OA
HETATM   21  O7  UNL     1      12.106 -15.484   5.703  1.00  0.00    -0.646 OA
ENDBRANCH  18  19
ENDBRANCH  11  12
ENDBRANCH  10  11
ENDBRANCH   9  10
ENDBRANCH   7   9
ENDBRANCH   2   7
ENDBRANCH   1   2
BRANCH   1  22
HETATM   22  C5  UNL     1       7.702 -14.809  -0.091  1.00  0.00     0.222 C 
HETATM   23  O3  UNL     1       8.143 -14.347   0.989  1.00  0.00    -0.273 OA
HETATM   24  N1  UNL     1       6.667 -15.777  -0.048  1.00  0.00    -0.345 N 
HETATM   25  C6  UNL     1       6.054 -16.316   1.134  1.00  0.00     0.126 C 
HETATM   26  C9  UNL     1       5.961 -16.420  -1.158  1.00  0.00     0.111 C 
HETATM   27  C7  UNL     1       4.610 -16.481   0.781  1.00  0.00     0.022 C 
HETATM   28  C8  UNL     1       4.554 -16.482  -0.728  1.00  0.00     0.029 C 
BRANCH  26  29
HETATM   29  C10 UNL     1       6.595 -17.600  -1.726  1.00  0.00     0.206 C 
BRANCH  29  30
HETATM   30  O4  UNL     1       6.088 -18.241  -2.810  1.00  0.00    -0.302 OA
BRANCH  30  31
HETATM   31  C11 UNL     1       6.207 -18.086  -4.145  1.00  0.00     0.361 C 
HETATM   32  O5  UNL     1       6.449 -19.089  -4.845  1.00  0.00    -0.238 OA
HETATM   33  N2  UNL     1       6.078 -16.855  -4.844  1.00  0.00    -0.328 N 
ATOM     34  H2  UNL     1       5.891 -16.031  -4.272  1.00  0.00     0.165 HD
BRANCH  33  35
HETATM   35  C12 UNL     1       6.178 -16.635  -6.246  1.00  0.00     0.034 C 
HETATM   36  C13 UNL     1       7.385 -17.339  -6.848  1.00  0.00     0.039 C 
HETATM   37  C14 UNL     1       6.526 -15.126  -6.404  1.00  0.00     0.039 C 
BRANCH  35  38
HETATM   38  C15 UNL     1       4.977 -16.835  -7.083  1.00  0.00    -0.027 C 
HETATM   39  C16 UNL     1       4.514 -15.485  -7.655  1.00  0.00     0.017 C 
HETATM   40  C17 UNL     1       5.115 -17.724  -8.291  1.00  0.00     0.017 C 
HETATM   41  C18 UNL     1       3.818 -17.436  -6.277  1.00  0.00     0.017 C 
ENDBRANCH  35  38
ENDBRANCH  33  35
ENDBRANCH  30  31
ENDBRANCH  29  30
ENDBRANCH  26  29
ENDBRANCH   1  22
TORSDOF 15
ENDMDL
