MODEL 1
REMARK VINA RESULT: -8.889495014      0.000      0.000
REMARK  15 active torsions:
REMARK  status: ('A' for Active; 'I' for Inactive)
REMARK    1  A    between atoms: C2_2  and  C3_3 
REMARK    2  A    between atoms: C3_3  and  C4_4 
REMARK    3  A    between atoms: C4_4  and  O1_5 
REMARK    4  A    between atoms: C4_4  and  C7_8 
REMARK    5  A    between atoms: O1_5  and  C5_6 
REMARK       I    between atoms: C7_8  and  N1_10 
REMARK    6  A    between atoms: N1_10  and  C8_12 
REMARK    7  A    between atoms: C8_12  and  O3_13 
REMARK    8  A    between atoms: C8_12  and  N2_15 
REMARK    9  A    between atoms: C13_22  and  C14_23 
REMARK   10  A    between atoms: C14_23  and  C15_24 
REMARK   11  A    between atoms: C14_23  and  N5_32 
REMARK   12  A    between atoms: C15_24  and  C16_25 
REMARK   13  A    between atoms: C16_25  and  C17_26 
REMARK   14  A    between atoms: C17_26  and  N4_27 
REMARK       I    between atoms: N4_27  and  C18_29 
REMARK   15  A    between atoms: N5_32  and  C20_34 
ROOT
HETATM    1  N2  UNL     1       8.238 -16.803  -4.606  1.00  0.00    -0.235 N 
HETATM    2  C9  UNL     1       9.087 -16.419  -5.697  1.00  0.00     0.156 C 
HETATM    3  C10 UNL     1       9.510 -14.984  -5.494  1.00  0.00     0.044 C 
HETATM    4  C11 UNL     1       8.676 -14.367  -4.351  1.00  0.00     0.156 C 
HETATM    5  N3  UNL     1       8.919 -15.107  -3.140  1.00  0.00    -0.236 N 
HETATM    6  C12 UNL     1       9.327 -14.922  -1.894  1.00  0.00     0.277 A 
HETATM    7  O4  UNL     1       9.620 -13.797  -1.376  1.00  0.00    -0.266 OA
HETATM    8  C13 UNL     1       9.396 -16.159  -1.224  1.00  0.00     0.075 A 
HETATM    9  C28 UNL     1       8.988 -17.084  -2.156  1.00  0.00     0.156 A 
HETATM   10  N7  UNL     1       8.716 -16.430  -3.278  1.00  0.00    -0.197 N 
ENDROOT
BRANCH   8  11
HETATM   11  C14 UNL     1       9.747 -16.294   0.189  1.00  0.00     0.028 C 
BRANCH  11  12
HETATM   12  C15 UNL     1       8.602 -17.072   0.880  1.00  0.00     0.060 C 
BRANCH  12  13
HETATM   13  C16 UNL     1       8.172 -16.535   2.160  1.00  0.00     0.026 C 
BRANCH  13  14
HETATM   14  C17 UNL     1       9.039 -16.750   3.369  1.00  0.00     0.123 C 
BRANCH  14  15
HETATM   15  N4  UNL     1       8.784 -15.888   4.474  1.00  0.00    -0.361 N 
HETATM   16  C18 UNL     1       9.200 -14.576   4.672  1.00  0.00     0.213 C 
HETATM   17  C19 UNL     1       8.817 -13.748   5.829  1.00  0.00     0.117 C 
HETATM   18  O5  UNL     1       9.967 -14.000   3.822  1.00  0.00    -0.274 OA
ATOM     19  H4  UNL     1       8.220 -16.288   5.223  1.00  0.00     0.162 HD
ENDBRANCH  14  15
ENDBRANCH  13  14
ENDBRANCH  12  13
ENDBRANCH  11  12
BRANCH  11  20
HETATM   20  N5  UNL     1      11.040 -16.590   0.588  1.00  0.00    -0.349 N 
ATOM     21  H5  UNL     1      11.327 -17.568   0.614  1.00  0.00     0.167 HD
BRANCH  20  22
HETATM   22  C20 UNL     1      12.013 -15.573   0.973  1.00  0.00     0.077 C 
HETATM   23  N6  UNL     1      11.912 -14.867   2.019  1.00  0.00    -0.370 N 
HETATM   24  C21 UNL     1      13.025 -13.927   2.164  1.00  0.00     0.032 C 
ATOM     25  H6  UNL     1      11.143 -14.945   2.685  1.00  0.00     0.161 HD
HETATM   26  C22 UNL     1      13.506 -13.785   3.574  1.00  0.00     0.031 C 
HETATM   27  C25 UNL     1      12.706 -12.569   1.625  1.00  0.00     0.031 C 
HETATM   28  C26 UNL     1      14.120 -14.587   1.286  1.00  0.00     0.038 C 
HETATM   29  C23 UNL     1      13.695 -12.288   3.790  1.00  0.00     0.002 C 
HETATM   30  C24 UNL     1      12.716 -11.650   2.816  1.00  0.00     0.002 C 
HETATM   31  C27 UNL     1      13.269 -15.206   0.234  1.00  0.00     0.078 C 
ENDBRANCH  20  22
ENDBRANCH  11  20
ENDBRANCH   8  11
BRANCH   1  32
HETATM   32  C8  UNL     1       7.065 -17.551  -4.573  1.00  0.00     0.242 C 
BRANCH  32  33
HETATM   33  N1  UNL     1       6.011 -17.512  -3.685  1.00  0.00    -0.289 N 
HETATM   34  C7  UNL     1       5.054 -18.435  -3.290  1.00  0.00     0.253 C 
HETATM   35  O2  UNL     1       5.049 -19.631  -3.717  1.00  0.00    -0.270 OA
ATOM     36  H1  UNL     1       5.914 -16.610  -3.218  1.00  0.00     0.172 HD
BRANCH  34  37
HETATM   37  C4  UNL     1       3.931 -18.182  -2.342  1.00  0.00     0.213 C 
BRANCH  37  38
HETATM   38  C3  UNL     1       4.297 -16.895  -1.595  1.00  0.00     0.041 C 
BRANCH  38  39
HETATM   39  C2  UNL     1       5.139 -17.038  -0.400  1.00  0.00    -0.002 C 
HETATM   40  C1  UNL     1       4.609 -16.429   0.865  1.00  0.00     0.005 C 
ENDBRANCH  38  39
ENDBRANCH  37  38
BRANCH  37  41
HETATM   41  O1  UNL     1       2.670 -18.124  -2.847  1.00  0.00    -0.377 OA
BRANCH  41  42
HETATM   42  C5  UNL     1       2.444 -17.294  -3.904  1.00  0.00     0.164 C 
HETATM   43  C6  UNL     1       1.288 -16.336  -3.624  1.00  0.00     0.033 C 
ENDBRANCH  41  42
ENDBRANCH  37  41
ENDBRANCH  34  37
ENDBRANCH  32  33
BRANCH  32  44
HETATM   44  O3  UNL     1       6.891 -18.471  -5.512  1.00  0.00    -0.331 OA
ATOM     45  H3  UNL     1       6.744 -18.084  -6.367  1.00  0.00     0.221 HD
ENDBRANCH  32  44
ENDBRANCH   1  32
TORSDOF 15
ENDMDL
MODEL 2
REMARK VINA RESULT: -8.838428379      0.522      1.714
REMARK  15 active torsions:
REMARK  status: ('A' for Active; 'I' for Inactive)
REMARK    1  A    between atoms: C2_2  and  C3_3 
REMARK    2  A    between atoms: C3_3  and  C4_4 
REMARK    3  A    between atoms: C4_4  and  O1_5 
REMARK    4  A    between atoms: C4_4  and  C7_8 
REMARK    5  A    between atoms: O1_5  and  C5_6 
REMARK       I    between atoms: C7_8  and  N1_10 
REMARK    6  A    between atoms: N1_10  and  C8_12 
REMARK    7  A    between atoms: C8_12  and  O3_13 
REMARK    8  A    between atoms: C8_12  and  N2_15 
REMARK    9  A    between atoms: C13_22  and  C14_23 
REMARK   10  A    between atoms: C14_23  and  C15_24 
REMARK   11  A    between atoms: C14_23  and  N5_32 
REMARK   12  A    between atoms: C15_24  and  C16_25 
REMARK   13  A    between atoms: C16_25  and  C17_26 
REMARK   14  A    between atoms: C17_26  and  N4_27 
REMARK       I    between atoms: N4_27  and  C18_29 
REMARK   15  A    between atoms: N5_32  and  C20_34 
ROOT
HETATM    1  N2  UNL     1       8.153 -16.856  -4.669  1.00  0.00    -0.235 N 
HETATM    2  C9  UNL     1       9.034 -16.616  -5.774  1.00  0.00     0.156 C 
HETATM    3  C10 UNL     1       9.609 -15.226  -5.637  1.00  0.00     0.044 C 
HETATM    4  C11 UNL     1       8.849 -14.471  -4.526  1.00  0.00     0.156 C 
HETATM    5  N3  UNL     1       9.015 -15.176  -3.281  1.00  0.00    -0.236 N 
HETATM    6  C12 UNL     1       9.445 -14.979  -2.045  1.00  0.00     0.277 A 
HETATM    7  O4  UNL     1       9.857 -13.869  -1.578  1.00  0.00    -0.266 OA
HETATM    8  C13 UNL     1       9.383 -16.185  -1.318  1.00  0.00     0.075 A 
HETATM    9  C28 UNL     1       8.877 -17.103  -2.207  1.00  0.00     0.156 A 
HETATM   10  N7  UNL     1       8.673 -16.475  -3.359  1.00  0.00    -0.197 N 
ENDROOT
BRANCH   8  11
HETATM   11  C14 UNL     1       9.722 -16.291   0.101  1.00  0.00     0.028 C 
BRANCH  11  12
HETATM   12  C15 UNL     1       8.565 -17.043   0.799  1.00  0.00     0.060 C 
BRANCH  12  13
HETATM   13  C16 UNL     1       8.173 -16.512   2.094  1.00  0.00     0.026 C 
BRANCH  13  14
HETATM   14  C17 UNL     1       9.064 -16.751   3.281  1.00  0.00     0.123 C 
BRANCH  14  15
HETATM   15  N4  UNL     1       8.815 -15.930   4.418  1.00  0.00    -0.361 N 
HETATM   16  C18 UNL     1       9.177 -14.606   4.634  1.00  0.00     0.213 C 
HETATM   17  C19 UNL     1       8.803 -13.825   5.827  1.00  0.00     0.117 C 
HETATM   18  O5  UNL     1       9.881 -13.973   3.770  1.00  0.00    -0.274 OA
ATOM     19  H4  UNL     1       8.300 -16.376   5.178  1.00  0.00     0.162 HD
ENDBRANCH  14  15
ENDBRANCH  13  14
ENDBRANCH  12  13
ENDBRANCH  11  12
BRANCH  11  20
HETATM   20  N5  UNL     1      11.010 -16.589   0.516  1.00  0.00    -0.349 N 
ATOM     21  H5  UNL     1      11.296 -17.568   0.541  1.00  0.00     0.167 HD
BRANCH  20  22
HETATM   22  C20 UNL     1      11.977 -15.575   0.920  1.00  0.00     0.077 C 
HETATM   23  N6  UNL     1      11.855 -14.865   1.961  1.00  0.00    -0.370 N 
HETATM   24  C21 UNL     1      12.968 -13.929   2.128  1.00  0.00     0.032 C 
ATOM     25  H6  UNL     1      11.070 -14.937   2.609  1.00  0.00     0.161 HD
HETATM   26  C22 UNL     1      13.417 -13.784   3.548  1.00  0.00     0.031 C 
HETATM   27  C25 UNL     1      12.667 -12.571   1.577  1.00  0.00     0.031 C 
HETATM   28  C26 UNL     1      14.081 -14.596   1.278  1.00  0.00     0.038 C 
HETATM   29  C23 UNL     1      13.607 -12.286   3.763  1.00  0.00     0.002 C 
HETATM   30  C24 UNL     1      12.653 -11.648   2.765  1.00  0.00     0.002 C 
HETATM   31  C27 UNL     1      13.252 -15.216   0.209  1.00  0.00     0.078 C 
ENDBRANCH  20  22
ENDBRANCH  11  20
ENDBRANCH   8  11
BRANCH   1  32
HETATM   32  C8  UNL     1       6.908 -17.473  -4.604  1.00  0.00     0.242 C 
BRANCH  32  33
HETATM   33  N1  UNL     1       5.787 -17.138  -3.873  1.00  0.00    -0.289 N 
HETATM   34  C7  UNL     1       4.814 -17.876  -3.215  1.00  0.00     0.253 C 
HETATM   35  O2  UNL     1       4.857 -19.144  -3.144  1.00  0.00    -0.270 OA
ATOM     36  H1  UNL     1       5.643 -16.130  -3.800  1.00  0.00     0.172 HD
BRANCH  34  37
HETATM   37  C4  UNL     1       3.618 -17.324  -2.517  1.00  0.00     0.213 C 
BRANCH  37  38
HETATM   38  C3  UNL     1       2.435 -18.189  -2.967  1.00  0.00     0.041 C 
BRANCH  38  39
HETATM   39  C2  UNL     1       1.163 -17.497  -3.217  1.00  0.00    -0.002 C 
HETATM   40  C1  UNL     1       1.252 -16.033  -3.529  1.00  0.00     0.005 C 
ENDBRANCH  38  39
ENDBRANCH  37  38
BRANCH  37  41
HETATM   41  O1  UNL     1       3.665 -17.209  -1.163  1.00  0.00    -0.377 OA
BRANCH  41  42
HETATM   42  C5  UNL     1       4.832 -16.790  -0.599  1.00  0.00     0.164 C 
HETATM   43  C6  UNL     1       4.648 -16.448   0.878  1.00  0.00     0.033 C 
ENDBRANCH  41  42
ENDBRANCH  37  41
ENDBRANCH  34  37
ENDBRANCH  32  33
BRANCH  32  44
HETATM   44  O3  UNL     1       6.720 -18.568  -5.328  1.00  0.00    -0.331 OA
ATOM     45  H3  UNL     1       7.459 -18.749  -5.897  1.00  0.00     0.221 HD
ENDBRANCH  32  44
ENDBRANCH   1  32
TORSDOF 15
ENDMDL
MODEL 3
REMARK VINA RESULT: -8.795562365      2.158      3.156
REMARK  15 active torsions:
REMARK  status: ('A' for Active; 'I' for Inactive)
REMARK    1  A    between atoms: C2_2  and  C3_3 
REMARK    2  A    between atoms: C3_3  and  C4_4 
REMARK    3  A    between atoms: C4_4  and  O1_5 
REMARK    4  A    between atoms: C4_4  and  C7_8 
REMARK    5  A    between atoms: O1_5  and  C5_6 
REMARK       I    between atoms: C7_8  and  N1_10 
REMARK    6  A    between atoms: N1_10  and  C8_12 
REMARK    7  A    between atoms: C8_12  and  O3_13 
REMARK    8  A    between atoms: C8_12  and  N2_15 
REMARK    9  A    between atoms: C13_22  and  C14_23 
REMARK   10  A    between atoms: C14_23  and  C15_24 
REMARK   11  A    between atoms: C14_23  and  N5_32 
REMARK   12  A    between atoms: C15_24  and  C16_25 
REMARK   13  A    between atoms: C16_25  and  C17_26 
REMARK   14  A    between atoms: C17_26  and  N4_27 
REMARK       I    between atoms: N4_27  and  C18_29 
REMARK   15  A    between atoms: N5_32  and  C20_34 
ROOT
HETATM    1  N2  UNL     1       6.294 -17.360  -5.868  1.00  0.00    -0.235 N 
HETATM    2  C9  UNL     1       7.002 -17.450  -7.112  1.00  0.00     0.156 C 
HETATM    3  C10 UNL     1       7.838 -16.204  -7.279  1.00  0.00     0.044 C 
HETATM    4  C11 UNL     1       7.433 -15.174  -6.204  1.00  0.00     0.156 C 
HETATM    5  N3  UNL     1       7.678 -15.735  -4.900  1.00  0.00    -0.236 N 
HETATM    6  C12 UNL     1       8.343 -15.477  -3.785  1.00  0.00     0.277 A 
HETATM    7  O4  UNL     1       9.028 -14.428  -3.563  1.00  0.00    -0.266 OA
HETATM    8  C13 UNL     1       8.185 -16.542  -2.876  1.00  0.00     0.075 A 
HETATM    9  C28 UNL     1       7.372 -17.440  -3.527  1.00  0.00     0.156 A 
HETATM   10  N7  UNL     1       7.093 -16.934  -4.722  1.00  0.00    -0.197 N 
ENDROOT
BRANCH   8  11
HETATM   11  C14 UNL     1       8.737 -16.537  -1.522  1.00  0.00     0.028 C 
BRANCH  11  12
HETATM   12  C15 UNL     1       7.963 -17.595  -0.702  1.00  0.00     0.060 C 
BRANCH  12  13
HETATM   13  C16 UNL     1       7.058 -17.061   0.302  1.00  0.00     0.026 C 
BRANCH  13  14
HETATM   14  C17 UNL     1       7.368 -15.731   0.930  1.00  0.00     0.123 C 
BRANCH  14  15
HETATM   15  N4  UNL     1       7.609 -15.750   2.334  1.00  0.00    -0.361 N 
HETATM   16  C18 UNL     1       8.681 -16.300   3.028  1.00  0.00     0.213 C 
HETATM   17  C19 UNL     1       8.867 -16.198   4.486  1.00  0.00     0.117 C 
HETATM   18  O5  UNL     1       9.598 -16.945   2.407  1.00  0.00    -0.274 OA
ATOM     19  H4  UNL     1       6.897 -15.299   2.908  1.00  0.00     0.162 HD
ENDBRANCH  14  15
ENDBRANCH  13  14
ENDBRANCH  12  13
ENDBRANCH  11  12
BRANCH  11  20
HETATM   20  N5  UNL     1      10.100 -16.439  -1.297  1.00  0.00    -0.349 N 
ATOM     21  H5  UNL     1      10.711 -17.144  -1.709  1.00  0.00     0.167 HD
BRANCH  20  22
HETATM   22  C20 UNL     1      10.707 -15.377  -0.501  1.00  0.00     0.077 C 
HETATM   23  N6  UNL     1      11.549 -15.588   0.421  1.00  0.00    -0.370 N 
HETATM   24  C21 UNL     1      11.998 -14.347   1.056  1.00  0.00     0.032 C 
ATOM     25  H6  UNL     1      11.877 -16.515   0.690  1.00  0.00     0.161 HD
HETATM   26  C22 UNL     1      13.459 -14.337   1.380  1.00  0.00     0.031 C 
HETATM   27  C25 UNL     1      11.227 -14.023   2.297  1.00  0.00     0.031 C 
HETATM   28  C26 UNL     1      11.682 -13.293  -0.037  1.00  0.00     0.038 C 
HETATM   29  C23 UNL     1      13.558 -13.765   2.790  1.00  0.00     0.002 C 
HETATM   30  C24 UNL     1      12.220 -14.115   3.423  1.00  0.00     0.002 C 
HETATM   31  C27 UNL     1      10.464 -13.901  -0.637  1.00  0.00     0.078 C 
ENDBRANCH  20  22
ENDBRANCH  11  20
ENDBRANCH   8  11
BRANCH   1  32
HETATM   32  C8  UNL     1       4.986 -17.691  -5.528  1.00  0.00     0.242 C 
BRANCH  32  33
HETATM   33  N1  UNL     1       3.861 -16.898  -5.448  1.00  0.00    -0.289 N 
HETATM   34  C7  UNL     1       2.501 -17.147  -5.559  1.00  0.00     0.253 C 
HETATM   35  O2  UNL     1       2.038 -18.318  -5.723  1.00  0.00    -0.270 OA
ATOM     36  H1  UNL     1       4.075 -15.917  -5.268  1.00  0.00     0.172 HD
BRANCH  34  37
HETATM   37  C4  UNL     1       1.416 -16.126  -5.503  1.00  0.00     0.213 C 
BRANCH  37  38
HETATM   38  C3  UNL     1       1.182 -15.846  -4.014  1.00  0.00     0.041 C 
BRANCH  38  39
HETATM   39  C2  UNL     1       0.572 -14.555  -3.669  1.00  0.00    -0.002 C 
HETATM   40  C1  UNL     1      -0.925 -14.529  -3.574  1.00  0.00     0.005 C 
ENDBRANCH  38  39
ENDBRANCH  37  38
BRANCH  37  41
HETATM   41  O1  UNL     1       1.585 -14.975  -6.207  1.00  0.00    -0.377 OA
BRANCH  41  42
HETATM   42  C5  UNL     1       1.045 -14.907  -7.456  1.00  0.00     0.164 C 
HETATM   43  C6  UNL     1      -0.443 -15.249  -7.441  1.00  0.00     0.033 C 
ENDBRANCH  41  42
ENDBRANCH  37  41
ENDBRANCH  34  37
ENDBRANCH  32  33
BRANCH  32  44
HETATM   44  O3  UNL     1       4.730 -18.952  -5.209  1.00  0.00    -0.331 OA
ATOM     45  H3  UNL     1       5.154 -19.563  -5.800  1.00  0.00     0.221 HD
ENDBRANCH  32  44
ENDBRANCH   1  32
TORSDOF 15
ENDMDL
MODEL 4
REMARK VINA RESULT: -8.749068065      1.282      3.212
REMARK  15 active torsions:
REMARK  status: ('A' for Active; 'I' for Inactive)
REMARK    1  A    between atoms: C2_2  and  C3_3 
REMARK    2  A    between atoms: C3_3  and  C4_4 
REMARK    3  A    between atoms: C4_4  and  O1_5 
REMARK    4  A    between atoms: C4_4  and  C7_8 
REMARK    5  A    between atoms: O1_5  and  C5_6 
REMARK       I    between atoms: C7_8  and  N1_10 
REMARK    6  A    between atoms: N1_10  and  C8_12 
REMARK    7  A    between atoms: C8_12  and  O3_13 
REMARK    8  A    between atoms: C8_12  and  N2_15 
REMARK    9  A    between atoms: C13_22  and  C14_23 
REMARK   10  A    between atoms: C14_23  and  C15_24 
REMARK   11  A    between atoms: C14_23  and  N5_32 
REMARK   12  A    between atoms: C15_24  and  C16_25 
REMARK   13  A    between atoms: C16_25  and  C17_26 
REMARK   14  A    between atoms: C17_26  and  N4_27 
REMARK       I    between atoms: N4_27  and  C18_29 
REMARK   15  A    between atoms: N5_32  and  C20_34 
ROOT
HETATM    1  N2  UNL     1       8.258 -16.717  -3.929  1.00  0.00    -0.235 N 
HETATM    2  C9  UNL     1       9.052 -16.376  -5.073  1.00  0.00     0.156 C 
HETATM    3  C10 UNL     1       9.454 -14.924  -4.963  1.00  0.00     0.044 C 
HETATM    4  C11 UNL     1       8.656 -14.263  -3.819  1.00  0.00     0.156 C 
HETATM    5  N3  UNL     1       8.965 -14.934  -2.582  1.00  0.00    -0.236 N 
HETATM    6  C12 UNL     1       9.421 -14.677  -1.367  1.00  0.00     0.277 A 
HETATM    7  O4  UNL     1       9.712 -13.521  -0.920  1.00  0.00    -0.266 OA
HETATM    8  C13 UNL     1       9.543 -15.876  -0.637  1.00  0.00     0.075 A 
HETATM    9  C28 UNL     1       9.116 -16.856  -1.502  1.00  0.00     0.156 A 
HETATM   10  N7  UNL     1       8.784 -16.266  -2.644  1.00  0.00    -0.197 N 
ENDROOT
BRANCH   8  11
HETATM   11  C14 UNL     1       9.957 -15.930   0.765  1.00  0.00     0.028 C 
BRANCH  11  12
HETATM   12  C15 UNL     1      11.457 -16.306   0.791  1.00  0.00     0.060 C 
BRANCH  12  13
HETATM   13  C16 UNL     1      12.361 -15.284   0.291  1.00  0.00     0.026 C 
BRANCH  13  14
HETATM   14  C17 UNL     1      12.725 -14.132   1.185  1.00  0.00     0.123 C 
BRANCH  14  15
HETATM   15  N4  UNL     1      13.409 -14.473   2.387  1.00  0.00    -0.361 N 
HETATM   16  C18 UNL     1      13.254 -13.938   3.661  1.00  0.00     0.213 C 
HETATM   17  C19 UNL     1      13.968 -14.418   4.857  1.00  0.00     0.117 C 
HETATM   18  O5  UNL     1      12.447 -12.964   3.865  1.00  0.00    -0.274 OA
ATOM     19  H4  UNL     1      14.109 -15.210   2.302  1.00  0.00     0.162 HD
ENDBRANCH  14  15
ENDBRANCH  13  14
ENDBRANCH  12  13
ENDBRANCH  11  12
BRANCH  11  20
HETATM   20  N5  UNL     1       9.526 -14.987   1.683  1.00  0.00    -0.349 N 
ATOM     21  H5  UNL     1       9.272 -14.061   1.342  1.00  0.00     0.167 HD
BRANCH  20  22
HETATM   22  C20 UNL     1       9.419 -15.252   3.114  1.00  0.00     0.077 C 
HETATM   23  N6  UNL     1       9.751 -14.417   4.007  1.00  0.00    -0.370 N 
HETATM   24  C21 UNL     1       9.538 -14.939   5.359  1.00  0.00     0.032 C 
ATOM     25  H6  UNL     1      10.123 -13.489   3.807  1.00  0.00     0.161 HD
HETATM   26  C22 UNL     1       9.004 -13.919   6.314  1.00  0.00     0.031 C 
HETATM   27  C25 UNL     1      10.775 -15.545   5.943  1.00  0.00     0.031 C 
HETATM   28  C26 UNL     1       8.485 -16.050   5.114  1.00  0.00     0.038 C 
HETATM   29  C23 UNL     1       9.815 -14.096   7.593  1.00  0.00     0.002 C 
HETATM   30  C24 UNL     1      11.138 -14.670   7.112  1.00  0.00     0.002 C 
HETATM   31  C27 UNL     1       8.900 -16.505   3.759  1.00  0.00     0.078 C 
ENDBRANCH  20  22
ENDBRANCH  11  20
ENDBRANCH   8  11
BRANCH   1  32
HETATM   32  C8  UNL     1       7.104 -17.484  -3.807  1.00  0.00     0.242 C 
BRANCH  32  33
HETATM   33  N1  UNL     1       5.946 -17.241  -3.097  1.00  0.00    -0.289 N 
HETATM   34  C7  UNL     1       5.123 -18.029  -2.305  1.00  0.00     0.253 C 
HETATM   35  O2  UNL     1       5.390 -19.243  -2.048  1.00  0.00    -0.270 OA
ATOM     36  H1  UNL     1       5.627 -16.275  -3.170  1.00  0.00     0.172 HD
BRANCH  34  37
HETATM   37  C4  UNL     1       3.853 -17.593  -1.657  1.00  0.00     0.213 C 
BRANCH  37  38
HETATM   38  C3  UNL     1       4.240 -16.460  -0.699  1.00  0.00     0.041 C 
BRANCH  38  39
HETATM   39  C2  UNL     1       4.905 -16.846   0.552  1.00  0.00    -0.002 C 
HETATM   40  C1  UNL     1       6.174 -16.117   0.885  1.00  0.00     0.005 C 
ENDBRANCH  38  39
ENDBRANCH  37  38
BRANCH  37  41
HETATM   41  O1  UNL     1       2.816 -17.234  -2.461  1.00  0.00    -0.377 OA
BRANCH  41  42
HETATM   42  C5  UNL     1       2.377 -18.142  -3.377  1.00  0.00     0.164 C 
HETATM   43  C6  UNL     1       2.398 -17.563  -4.790  1.00  0.00     0.033 C 
ENDBRANCH  41  42
ENDBRANCH  37  41
ENDBRANCH  34  37
ENDBRANCH  32  33
BRANCH  32  44
HETATM   44  O3  UNL     1       7.063 -18.648  -4.441  1.00  0.00    -0.331 OA
ATOM     45  H3  UNL     1       7.332 -19.367  -3.882  1.00  0.00     0.221 HD
ENDBRANCH  32  44
ENDBRANCH   1  32
TORSDOF 15
ENDMDL
MODEL 5
REMARK VINA RESULT: -8.714131731      2.324      9.448
REMARK  15 active torsions:
REMARK  status: ('A' for Active; 'I' for Inactive)
REMARK    1  A    between atoms: C2_2  and  C3_3 
REMARK    2  A    between atoms: C3_3  and  C4_4 
REMARK    3  A    between atoms: C4_4  and  O1_5 
REMARK    4  A    between atoms: C4_4  and  C7_8 
REMARK    5  A    between atoms: O1_5  and  C5_6 
REMARK       I    between atoms: C7_8  and  N1_10 
REMARK    6  A    between atoms: N1_10  and  C8_12 
REMARK    7  A    between atoms: C8_12  and  O3_13 
REMARK    8  A    between atoms: C8_12  and  N2_15 
REMARK    9  A    between atoms: C13_22  and  C14_23 
REMARK   10  A    between atoms: C14_23  and  C15_24 
REMARK   11  A    between atoms: C14_23  and  N5_32 
REMARK   12  A    between atoms: C15_24  and  C16_25 
REMARK   13  A    between atoms: C16_25  and  C17_26 
REMARK   14  A    between atoms: C17_26  and  N4_27 
REMARK       I    between atoms: N4_27  and  C18_29 
REMARK   15  A    between atoms: N5_32  and  C20_34 
ROOT
HETATM    1  N2  UNL     1      11.189 -13.832   2.439  1.00  0.00    -0.235 N 
HETATM    2  C9  UNL     1      11.873 -12.634   2.046  1.00  0.00     0.156 C 
HETATM    3  C10 UNL     1      12.602 -12.900   0.750  1.00  0.00     0.044 C 
HETATM    4  C11 UNL     1      12.575 -14.415   0.456  1.00  0.00     0.156 C 
HETATM    5  N3  UNL     1      11.206 -14.844   0.325  1.00  0.00    -0.236 N 
HETATM    6  C12 UNL     1      10.405 -15.452  -0.535  1.00  0.00     0.277 A 
HETATM    7  O4  UNL     1      10.758 -15.928  -1.661  1.00  0.00    -0.266 OA
HETATM    8  C13 UNL     1       9.093 -15.493  -0.020  1.00  0.00     0.075 A 
HETATM    9  C28 UNL     1       9.180 -14.877   1.206  1.00  0.00     0.156 A 
HETATM   10  N7  UNL     1      10.442 -14.503   1.378  1.00  0.00    -0.197 N 
ENDROOT
BRANCH   8  11
HETATM   11  C14 UNL     1       7.980 -16.159  -0.696  1.00  0.00     0.028 C 
BRANCH  11  12
HETATM   12  C15 UNL     1       7.265 -17.044   0.352  1.00  0.00     0.060 C 
BRANCH  12  13
HETATM   13  C16 UNL     1       5.945 -17.516  -0.033  1.00  0.00     0.026 C 
BRANCH  13  14
HETATM   14  C17 UNL     1       5.816 -18.852  -0.708  1.00  0.00     0.123 C 
BRANCH  14  15
HETATM   15  N4  UNL     1       5.995 -18.852  -2.121  1.00  0.00    -0.361 N 
HETATM   16  C18 UNL     1       5.036 -18.958  -3.122  1.00  0.00     0.213 C 
HETATM   17  C19 UNL     1       5.326 -18.874  -4.564  1.00  0.00     0.117 C 
HETATM   18  O5  UNL     1       3.802 -19.139  -2.826  1.00  0.00    -0.274 OA
ATOM     19  H4  UNL     1       6.958 -18.763  -2.443  1.00  0.00     0.162 HD
ENDBRANCH  14  15
ENDBRANCH  13  14
ENDBRANCH  12  13
ENDBRANCH  11  12
BRANCH  11  20
HETATM   20  N5  UNL     1       7.180 -15.488  -1.606  1.00  0.00    -0.349 N 
ATOM     21  H5  UNL     1       6.304 -15.086  -1.275  1.00  0.00     0.167 HD
BRANCH  20  22
HETATM   22  C20 UNL     1       7.528 -15.328  -3.014  1.00  0.00     0.077 C 
HETATM   23  N6  UNL     1       6.896 -15.884  -3.959  1.00  0.00    -0.370 N 
HETATM   24  C21 UNL     1       7.455 -15.551  -5.271  1.00  0.00     0.032 C 
ATOM     25  H6  UNL     1       6.090 -16.493  -3.822  1.00  0.00     0.161 HD
HETATM   26  C22 UNL     1       6.414 -15.326  -6.323  1.00  0.00     0.031 C 
HETATM   27  C25 UNL     1       8.422 -16.581  -5.763  1.00  0.00     0.031 C 
HETATM   28  C26 UNL     1       8.213 -14.232  -4.973  1.00  0.00     0.038 C 
HETATM   29  C23 UNL     1       6.915 -16.071  -7.556  1.00  0.00     0.002 C 
HETATM   30  C24 UNL     1       7.783 -17.182  -6.985  1.00  0.00     0.002 C 
HETATM   31  C27 UNL     1       8.645 -14.493  -3.573  1.00  0.00     0.078 C 
ENDBRANCH  20  22
ENDBRANCH  11  20
ENDBRANCH   8  11
BRANCH   1  32
HETATM   32  C8  UNL     1      11.034 -14.436   3.682  1.00  0.00     0.242 C 
BRANCH  32  33
HETATM   33  N1  UNL     1      10.604 -13.906   4.880  1.00  0.00    -0.289 N 
HETATM   34  C7  UNL     1      10.978 -14.097   6.202  1.00  0.00     0.253 C 
HETATM   35  O2  UNL     1      11.940 -14.857   6.533  1.00  0.00    -0.270 OA
ATOM     36  H1  UNL     1       9.849 -13.229   4.771  1.00  0.00     0.172 HD
BRANCH  34  37
HETATM   37  C4  UNL     1      10.339 -13.465   7.393  1.00  0.00     0.213 C 
BRANCH  37  38
HETATM   38  C3  UNL     1      10.391 -14.521   8.504  1.00  0.00     0.041 C 
BRANCH  38  39
HETATM   39  C2  UNL     1       9.172 -15.309   8.729  1.00  0.00    -0.002 C 
HETATM   40  C1  UNL     1       8.632 -16.054   7.544  1.00  0.00     0.005 C 
ENDBRANCH  38  39
ENDBRANCH  37  38
BRANCH  37  41
HETATM   41  O1  UNL     1      10.824 -12.269   7.819  1.00  0.00    -0.377 OA
BRANCH  41  42
HETATM   42  C5  UNL     1      11.525 -12.244   8.987  1.00  0.00     0.164 C 
HETATM   43  C6  UNL     1      11.422 -10.883   9.671  1.00  0.00     0.033 C 
ENDBRANCH  41  42
ENDBRANCH  37  41
ENDBRANCH  34  37
ENDBRANCH  32  33
BRANCH  32  44
HETATM   44  O3  UNL     1      11.348 -15.720   3.789  1.00  0.00    -0.331 OA
ATOM     45  H3  UNL     1      12.091 -15.952   3.244  1.00  0.00     0.221 HD
ENDBRANCH  32  44
ENDBRANCH   1  32
TORSDOF 15
ENDMDL
