MODEL 1
REMARK VINA RESULT: -7.682349633      0.000      0.000
REMARK  15 active torsions:
REMARK  status: ('A' for Active; 'I' for Inactive)
REMARK       I    between atoms: C1_4  and  N3_6 
REMARK    1  A    between atoms: N3_6  and  C2_8 
REMARK    2  A    between atoms: C2_8  and  C3_9 
REMARK    3  A    between atoms: C3_9  and  C4_10 
REMARK    4  A    between atoms: C4_10  and  C5_11 
REMARK    5  A    between atoms: C5_11  and  N4_12 
REMARK    6  A    between atoms: C5_11  and  C6_16 
REMARK    7  A    between atoms: N6_24  and  C11_25 
REMARK    8  A    between atoms: C11_25  and  O2_26 
REMARK    9  A    between atoms: C11_25  and  C12_28 
REMARK   10  A    between atoms: C12_28  and  N7_29 
REMARK   11  A    between atoms: C12_28  and  C13_33 
REMARK   12  A    between atoms: C13_33  and  O3_34 
REMARK   13  A    between atoms: C13_33  and  C14_36 
REMARK   14  A    between atoms: C14_36  and  O4_37 
REMARK       I    between atoms: N8_39  and  C15_40 
REMARK   15  A    between atoms: C17_46  and  N11_47 
ROOT
HETATM    1  C6  UNL     1     -24.458  -3.905 -10.246  1.00  0.00     0.161 C 
HETATM    2  C7  UNL     1     -24.082  -3.380  -8.874  1.00  0.00     0.137 C 
HETATM    3  C8  UNL     1     -22.718  -3.799  -8.476  1.00  0.00     0.220 C 
HETATM    4  O1  UNL     1     -21.974  -4.204  -9.431  1.00  0.00    -0.274 OA
HETATM    5  N5  UNL     1     -22.169  -3.797  -7.197  1.00  0.00    -0.360 N 
ATOM      6  H5  UNL     1     -21.266  -3.333  -7.102  1.00  0.00     0.162 HD
HETATM    7  C9  UNL     1     -22.717  -4.371  -5.983  1.00  0.00     0.139 C 
HETATM    8  C10 UNL     1     -23.829  -5.313  -6.254  1.00  0.00     0.137 C 
HETATM    9  N6  UNL     1     -23.811  -6.557  -5.511  1.00  0.00    -0.187 NA
HETATM   10  N8  UNL     1     -24.230  -7.551  -6.408  1.00  0.00    -0.220 N 
HETATM   11  C15 UNL     1     -23.676  -8.845  -6.285  1.00  0.00     0.350 C 
HETATM   12  N9  UNL     1     -24.038  -9.926  -7.141  1.00  0.00    -0.038 NA
HETATM   13  O5  UNL     1     -22.838  -9.081  -5.407  1.00  0.00    -0.249 OA
HETATM   14  C16 UNL     1     -25.180  -7.295  -7.439  1.00  0.00     0.223 C 
HETATM   15  N10 UNL     1     -26.305  -8.164  -7.506  1.00  0.00    -0.184 N 
ATOM     16  H10 UNL     1     -26.409  -8.901  -6.809  1.00  0.00     0.185 HD
HETATM   17  C17 UNL     1     -27.286  -8.027  -8.527  1.00  0.00     0.708 C 
HETATM   18  N13 UNL     1     -27.579  -7.025  -9.205  1.00  0.00    -0.156 N 
ATOM     19  H13 UNL     1     -28.331  -7.286  -9.843  1.00  0.00     0.187 HD
HETATM   20  C19 UNL     1     -27.283  -5.725  -9.422  1.00  0.00     0.259 C 
HETATM   21  O6  UNL     1     -27.722  -4.783  -8.679  1.00  0.00    -0.270 OA
HETATM   22  C20 UNL     1     -26.418  -5.182 -10.538  1.00  0.00     0.271 C 
HETATM   23  O7  UNL     1     -25.115  -5.078 -10.263  1.00  0.00    -0.374 OA
ENDROOT
BRANCH   1  24
HETATM   24  C5  UNL     1     -25.003  -2.796 -11.124  1.00  0.00     0.212 C 
BRANCH  24  25
HETATM   25  C4  UNL     1     -24.055  -2.543 -12.237  1.00  0.00     0.037 C 
BRANCH  25  26
HETATM   26  C3  UNL     1     -24.591  -2.505 -13.613  1.00  0.00     0.022 C 
BRANCH  26  27
HETATM   27  C2  UNL     1     -24.626  -1.211 -14.323  1.00  0.00     0.122 C 
BRANCH  27  28
HETATM   28  N3  UNL     1     -24.763  -0.065 -13.442  1.00  0.00    -0.365 N 
HETATM   29  C1  UNL     1     -26.070   0.473 -13.295  1.00  0.00     0.181 C 
HETATM   30  N1  UNL     1     -26.526   1.196 -14.258  1.00  0.00    -0.374 N 
HETATM   31  N2  UNL     1     -26.890   0.257 -12.156  1.00  0.00    -0.064 NA
ATOM     32  H12 UNL     1     -27.464   1.582 -14.152  1.00  0.00     0.158 HD
ATOM     33  H11 UNL     1     -25.937   1.351 -15.075  1.00  0.00     0.158 HD
ATOM     34  H3  UNL     1     -23.961   0.334 -12.953  1.00  0.00     0.162 HD
ENDBRANCH  27  28
ENDBRANCH  26  27
ENDBRANCH  25  26
ENDBRANCH  24  25
BRANCH  24  35
HETATM   35  N4  UNL     1     -25.045  -1.612 -10.286  1.00  0.00    -0.073 N 
ATOM     36  H43 UNL     1     -24.323  -1.614  -9.565  1.00  0.00     0.274 HD
ATOM     37  H42 UNL     1     -24.745  -0.770 -10.779  1.00  0.00     0.274 HD
ATOM     38  H41 UNL     1     -25.986  -1.528  -9.899  1.00  0.00     0.274 HD
ENDBRANCH  24  35
ENDBRANCH   1  24
BRANCH  17  39
HETATM   39  N11 UNL     1     -28.015  -9.249  -8.787  1.00  0.00    -0.079 N 
HETATM   40  C18 UNL     1     -27.946 -10.564  -9.400  1.00  0.00     0.243 A 
HETATM   41  N12 UNL     1     -29.102 -10.123  -8.754  1.00  0.00    -0.272 N 
ATOM     42  H12 UNL     1     -30.062 -10.309  -8.462  1.00  0.00     0.189 HD
ENDBRANCH  17  39
BRANCH   9  43
HETATM   43  C11 UNL     1     -24.807  -6.544  -4.442  1.00  0.00     0.245 C 
BRANCH  43  44
HETATM   44  O2  UNL     1     -25.308  -5.219  -4.375  1.00  0.00    -0.377 OA
ATOM     45  H2  UNL     1     -25.152  -4.916  -3.488  1.00  0.00     0.211 HD
ENDBRANCH  43  44
BRANCH  43  46
HETATM   46  C12 UNL     1     -24.282  -6.873  -3.100  1.00  0.00     0.258 C 
BRANCH  46  47
HETATM   47  N7  UNL     1     -24.521  -5.733  -2.195  1.00  0.00    -0.069 N 
ATOM     48  H73 UNL     1     -23.683  -5.171  -2.049  1.00  0.00     0.275 HD
ATOM     49  H72 UNL     1     -25.104  -5.014  -2.622  1.00  0.00     0.275 HD
ATOM     50  H71 UNL     1     -24.914  -6.079  -1.319  1.00  0.00     0.275 HD
ENDBRANCH  46  47
BRANCH  46  51
HETATM   51  C13 UNL     1     -24.775  -8.125  -2.452  1.00  0.00     0.176 C 
BRANCH  51  52
HETATM   52  O3  UNL     1     -23.865  -9.181  -2.765  1.00  0.00    -0.391 OA
ATOM     53  H3  UNL     1     -24.026  -9.460  -3.659  1.00  0.00     0.210 HD
ENDBRANCH  51  52
BRANCH  51  54
HETATM   54  C14 UNL     1     -24.714  -8.070  -0.918  1.00  0.00     0.198 C 
BRANCH  54  55
HETATM   55  O4  UNL     1     -23.423  -7.844  -0.524  1.00  0.00    -0.398 OA
ATOM     56  H4  UNL     1     -23.293  -8.200   0.347  1.00  0.00     0.209 HD
ENDBRANCH  54  55
ENDBRANCH  51  54
ENDBRANCH  46  51
ENDBRANCH  43  46
ENDBRANCH   9  43
TORSDOF 15
ENDMDL
MODEL 2
REMARK VINA RESULT: -7.547874923      2.388      5.191
REMARK  15 active torsions:
REMARK  status: ('A' for Active; 'I' for Inactive)
REMARK       I    between atoms: C1_4  and  N3_6 
REMARK    1  A    between atoms: N3_6  and  C2_8 
REMARK    2  A    between atoms: C2_8  and  C3_9 
REMARK    3  A    between atoms: C3_9  and  C4_10 
REMARK    4  A    between atoms: C4_10  and  C5_11 
REMARK    5  A    between atoms: C5_11  and  N4_12 
REMARK    6  A    between atoms: C5_11  and  C6_16 
REMARK    7  A    between atoms: N6_24  and  C11_25 
REMARK    8  A    between atoms: C11_25  and  O2_26 
REMARK    9  A    between atoms: C11_25  and  C12_28 
REMARK   10  A    between atoms: C12_28  and  N7_29 
REMARK   11  A    between atoms: C12_28  and  C13_33 
REMARK   12  A    between atoms: C13_33  and  O3_34 
REMARK   13  A    between atoms: C13_33  and  C14_36 
REMARK   14  A    between atoms: C14_36  and  O4_37 
REMARK       I    between atoms: N8_39  and  C15_40 
REMARK   15  A    between atoms: C17_46  and  N11_47 
ROOT
HETATM    1  C6  UNL     1     -25.227  -2.812 -10.593  1.00  0.00     0.161 C 
HETATM    2  C7  UNL     1     -25.048  -3.966 -11.560  1.00  0.00     0.137 C 
HETATM    3  C8  UNL     1     -26.333  -4.638 -11.864  1.00  0.00     0.220 C 
HETATM    4  O1  UNL     1     -27.380  -3.965 -11.574  1.00  0.00    -0.274 OA
HETATM    5  N5  UNL     1     -26.522  -5.898 -12.422  1.00  0.00    -0.360 N 
ATOM      6  H5  UNL     1     -27.147  -5.939 -13.227  1.00  0.00     0.162 HD
HETATM    7  C9  UNL     1     -25.941  -7.161 -12.007  1.00  0.00     0.139 C 
HETATM    8  C10 UNL     1     -25.341  -7.090 -10.653  1.00  0.00     0.137 C 
HETATM    9  N6  UNL     1     -25.625  -8.200  -9.767  1.00  0.00    -0.187 NA
HETATM   10  N8  UNL     1     -25.818  -7.642  -8.494  1.00  0.00    -0.220 N 
HETATM   11  C15 UNL     1     -26.752  -8.251  -7.627  1.00  0.00     0.350 C 
HETATM   12  N9  UNL     1     -27.019  -7.766  -6.313  1.00  0.00    -0.038 NA
HETATM   13  O5  UNL     1     -27.383  -9.249  -7.995  1.00  0.00    -0.249 OA
HETATM   14  C16 UNL     1     -25.117  -6.480  -8.058  1.00  0.00     0.223 C 
HETATM   15  N10 UNL     1     -24.430  -6.574  -6.815  1.00  0.00    -0.184 N 
ATOM     16  H10 UNL     1     -24.432  -7.459  -6.309  1.00  0.00     0.185 HD
HETATM   17  C17 UNL     1     -23.741  -5.458  -6.265  1.00  0.00     0.708 C 
HETATM   18  N13 UNL     1     -23.280  -4.456  -6.843  1.00  0.00    -0.156 N 
ATOM     19  H13 UNL     1     -22.848  -3.858  -6.139  1.00  0.00     0.187 HD
HETATM   20  C19 UNL     1     -23.133  -3.857  -8.044  1.00  0.00     0.259 C 
HETATM   21  O6  UNL     1     -22.221  -4.188  -8.875  1.00  0.00    -0.270 OA
HETATM   22  C20 UNL     1     -23.987  -2.733  -8.590  1.00  0.00     0.271 C 
HETATM   23  O7  UNL     1     -25.059  -3.108  -9.292  1.00  0.00    -0.374 OA
ENDROOT
BRANCH   1  24
HETATM   24  C5  UNL     1     -24.549  -1.558 -11.108  1.00  0.00     0.212 C 
BRANCH  24  25
HETATM   25  C4  UNL     1     -25.510  -0.430 -11.066  1.00  0.00     0.037 C 
BRANCH  25  26
HETATM   26  C3  UNL     1     -25.421   0.601 -12.121  1.00  0.00     0.022 C 
BRANCH  26  27
HETATM   27  C2  UNL     1     -26.672   1.140 -12.691  1.00  0.00     0.122 C 
BRANCH  27  28
HETATM   28  N3  UNL     1     -27.179   0.374 -13.815  1.00  0.00    -0.365 N 
HETATM   29  C1  UNL     1     -26.307   0.220 -14.926  1.00  0.00     0.181 C 
HETATM   30  N1  UNL     1     -26.166   1.229 -15.715  1.00  0.00    -0.374 N 
HETATM   31  N2  UNL     1     -25.590  -0.972 -15.210  1.00  0.00    -0.064 NA
ATOM     32  H12 UNL     1     -25.540   1.118 -16.512  1.00  0.00     0.158 HD
ATOM     33  H11 UNL     1     -26.681   2.085 -15.512  1.00  0.00     0.158 HD
ATOM     34  H3  UNL     1     -28.114  -0.034 -13.808  1.00  0.00     0.162 HD
ENDBRANCH  27  28
ENDBRANCH  26  27
ENDBRANCH  25  26
ENDBRANCH  24  25
BRANCH  24  35
HETATM   35  N4  UNL     1     -24.224  -1.827 -12.497  1.00  0.00    -0.073 N 
ATOM     36  H43 UNL     1     -23.675  -1.080 -12.924  1.00  0.00     0.274 HD
ATOM     37  H42 UNL     1     -23.541  -2.578 -12.604  1.00  0.00     0.274 HD
ATOM     38  H41 UNL     1     -25.093  -2.011 -12.998  1.00  0.00     0.274 HD
ENDBRANCH  24  35
ENDBRANCH   1  24
BRANCH  17  39
HETATM   39  N11 UNL     1     -23.584  -5.535  -4.829  1.00  0.00    -0.079 N 
HETATM   40  C18 UNL     1     -24.259  -5.385  -3.552  1.00  0.00     0.243 A 
HETATM   41  N12 UNL     1     -22.912  -5.743  -3.624  1.00  0.00    -0.272 N 
ATOM     42  H12 UNL     1     -22.048  -5.985  -3.139  1.00  0.00     0.189 HD
ENDBRANCH  17  39
BRANCH   9  43
HETATM   43  C11 UNL     1     -24.465  -9.080  -9.640  1.00  0.00     0.245 C 
BRANCH  43  44
HETATM   44  O2  UNL     1     -24.027  -9.361 -10.959  1.00  0.00    -0.377 OA
ATOM     45  H2  UNL     1     -23.081  -9.435 -10.919  1.00  0.00     0.211 HD
ENDBRANCH  43  44
BRANCH  43  46
HETATM   46  C12 UNL     1     -24.740 -10.379  -8.992  1.00  0.00     0.258 C 
BRANCH  46  47
HETATM   47  N7  UNL     1     -24.929 -11.408 -10.032  1.00  0.00    -0.069 N 
ATOM     48  H73 UNL     1     -24.465 -11.164 -10.907  1.00  0.00     0.275 HD
ATOM     49  H72 UNL     1     -24.412 -12.264  -9.830  1.00  0.00     0.275 HD
ATOM     50  H71 UNL     1     -25.926 -11.578 -10.157  1.00  0.00     0.275 HD
ENDBRANCH  46  47
BRANCH  46  51
HETATM   51  C13 UNL     1     -23.752 -10.875  -7.987  1.00  0.00     0.176 C 
BRANCH  51  52
HETATM   52  O3  UNL     1     -22.449 -10.449  -8.391  1.00  0.00    -0.391 OA
ATOM     53  H3  UNL     1     -21.980 -10.150  -7.621  1.00  0.00     0.210 HD
ENDBRANCH  51  52
BRANCH  51  54
HETATM   54  C14 UNL     1     -23.912 -10.211  -6.610  1.00  0.00     0.198 C 
BRANCH  54  55
HETATM   55  O4  UNL     1     -22.968  -9.231  -6.468  1.00  0.00    -0.398 OA
ATOM     56  H4  UNL     1     -23.263  -8.445  -6.912  1.00  0.00     0.209 HD
ENDBRANCH  54  55
ENDBRANCH  51  54
ENDBRANCH  46  51
ENDBRANCH  43  46
ENDBRANCH   9  43
TORSDOF 15
ENDMDL
MODEL 3
REMARK VINA RESULT: -7.118516577      4.040      6.486
REMARK  15 active torsions:
REMARK  status: ('A' for Active; 'I' for Inactive)
REMARK       I    between atoms: C1_4  and  N3_6 
REMARK    1  A    between atoms: N3_6  and  C2_8 
REMARK    2  A    between atoms: C2_8  and  C3_9 
REMARK    3  A    between atoms: C3_9  and  C4_10 
REMARK    4  A    between atoms: C4_10  and  C5_11 
REMARK    5  A    between atoms: C5_11  and  N4_12 
REMARK    6  A    between atoms: C5_11  and  C6_16 
REMARK    7  A    between atoms: N6_24  and  C11_25 
REMARK    8  A    between atoms: C11_25  and  O2_26 
REMARK    9  A    between atoms: C11_25  and  C12_28 
REMARK   10  A    between atoms: C12_28  and  N7_29 
REMARK   11  A    between atoms: C12_28  and  C13_33 
REMARK   12  A    between atoms: C13_33  and  O3_34 
REMARK   13  A    between atoms: C13_33  and  C14_36 
REMARK   14  A    between atoms: C14_36  and  O4_37 
REMARK       I    between atoms: N8_39  and  C15_40 
REMARK   15  A    between atoms: C17_46  and  N11_47 
ROOT
HETATM    1  C6  UNL     1     -24.249  -8.458  -6.391  1.00  0.00     0.161 C 
HETATM    2  C7  UNL     1     -24.930  -7.503  -5.430  1.00  0.00     0.137 C 
HETATM    3  C8  UNL     1     -23.951  -6.705  -4.657  1.00  0.00     0.220 C 
HETATM    4  O1  UNL     1     -22.769  -6.678  -5.140  1.00  0.00    -0.274 OA
HETATM    5  N5  UNL     1     -24.175  -5.991  -3.483  1.00  0.00    -0.360 N 
ATOM      6  H5  UNL     1     -23.865  -5.019  -3.488  1.00  0.00     0.162 HD
HETATM    7  C9  UNL     1     -24.793  -6.453  -2.255  1.00  0.00     0.139 C 
HETATM    8  C10 UNL     1     -24.894  -7.931  -2.193  1.00  0.00     0.137 C 
HETATM    9  N6  UNL     1     -24.528  -8.545  -0.933  1.00  0.00    -0.187 NA
HETATM   10  N8  UNL     1     -23.835  -9.720  -1.261  1.00  0.00    -0.220 N 
HETATM   11  C15 UNL     1     -22.786 -10.142  -0.413  1.00  0.00     0.350 C 
HETATM   12  N9  UNL     1     -22.024 -11.323  -0.653  1.00  0.00    -0.038 NA
HETATM   13  O5  UNL     1     -22.492  -9.478   0.588  1.00  0.00    -0.249 OA
HETATM   14  C16 UNL     1     -24.145 -10.488  -2.421  1.00  0.00     0.223 C 
HETATM   15  N10 UNL     1     -24.390 -11.876  -2.225  1.00  0.00    -0.184 N 
ATOM     16  H10 UNL     1     -24.373 -12.258  -1.279  1.00  0.00     0.185 HD
HETATM   17  C17 UNL     1     -24.660 -12.742  -3.321  1.00  0.00     0.708 C 
HETATM   18  N13 UNL     1     -25.106 -12.465  -4.449  1.00  0.00    -0.156 N 
ATOM     19  H13 UNL     1     -25.174 -13.332  -4.982  1.00  0.00     0.187 HD
HETATM   20  C19 UNL     1     -25.536 -11.458  -5.240  1.00  0.00     0.259 C 
HETATM   21  O6  UNL     1     -26.712 -10.967  -5.158  1.00  0.00    -0.270 OA
HETATM   22  C20 UNL     1     -24.730 -10.765  -6.317  1.00  0.00     0.271 C 
HETATM   23  O7  UNL     1     -24.029  -9.699  -5.922  1.00  0.00    -0.374 OA
ENDROOT
BRANCH   1  24
HETATM   24  C5  UNL     1     -24.835  -8.341  -7.784  1.00  0.00     0.212 C 
BRANCH  24  25
HETATM   25  C4  UNL     1     -23.930  -7.522  -8.627  1.00  0.00     0.037 C 
BRANCH  25  26
HETATM   26  C3  UNL     1     -24.163  -6.064  -8.686  1.00  0.00     0.022 C 
BRANCH  26  27
HETATM   27  C2  UNL     1     -23.091  -5.158  -8.228  1.00  0.00     0.122 C 
BRANCH  27  28
HETATM   28  N3  UNL     1     -23.532  -4.180  -7.250  1.00  0.00    -0.365 N 
HETATM   29  C1  UNL     1     -22.521  -3.391  -6.638  1.00  0.00     0.181 C 
HETATM   30  N1  UNL     1     -21.811  -3.946  -5.717  1.00  0.00    -0.374 N 
HETATM   31  N2  UNL     1     -22.256  -2.040  -6.982  1.00  0.00    -0.064 NA
ATOM     32  H12 UNL     1     -21.085  -3.380  -5.278  1.00  0.00     0.158 HD
ATOM     33  H11 UNL     1     -22.002  -4.917  -5.470  1.00  0.00     0.158 HD
ATOM     34  H3  UNL     1     -24.518  -4.064  -7.015  1.00  0.00     0.162 HD
ENDBRANCH  27  28
ENDBRANCH  26  27
ENDBRANCH  25  26
ENDBRANCH  24  25
BRANCH  24  35
HETATM   35  N4  UNL     1     -26.085  -7.621  -7.628  1.00  0.00    -0.073 N 
ATOM     36  H43 UNL     1     -26.127  -7.089  -6.759  1.00  0.00     0.274 HD
ATOM     37  H42 UNL     1     -26.170  -6.836  -8.275  1.00  0.00     0.274 HD
ATOM     38  H41 UNL     1     -26.851  -8.289  -7.718  1.00  0.00     0.274 HD
ENDBRANCH  24  35
ENDBRANCH   1  24
BRANCH  17  39
HETATM   39  N11 UNL     1     -24.347 -14.127  -3.045  1.00  0.00    -0.079 N 
HETATM   40  C18 UNL     1     -24.888 -15.473  -2.965  1.00  0.00     0.243 A 
HETATM   41  N12 UNL     1     -23.541 -15.214  -2.702  1.00  0.00    -0.272 N 
ATOM     42  H12 UNL     1     -22.620 -15.568  -2.443  1.00  0.00     0.189 HD
ENDBRANCH  17  39
BRANCH   9  43
HETATM   43  C11 UNL     1     -25.714  -8.979  -0.198  1.00  0.00     0.245 C 
BRANCH  43  44
HETATM   44  O2  UNL     1     -26.786  -8.979  -1.126  1.00  0.00    -0.377 OA
ATOM     45  H2  UNL     1     -27.443  -8.386  -0.780  1.00  0.00     0.211 HD
ENDBRANCH  43  44
BRANCH  43  46
HETATM   46  C12 UNL     1     -26.111  -8.093   0.917  1.00  0.00     0.258 C 
BRANCH  46  47
HETATM   47  N7  UNL     1     -27.582  -7.979   0.943  1.00  0.00    -0.069 N 
ATOM     48  H73 UNL     1     -28.043  -8.858   0.710  1.00  0.00     0.275 HD
ATOM     49  H72 UNL     1     -27.946  -7.872   1.890  1.00  0.00     0.275 HD
ATOM     50  H71 UNL     1     -27.869  -7.216   0.330  1.00  0.00     0.275 HD
ENDBRANCH  46  47
BRANCH  46  51
HETATM   51  C13 UNL     1     -25.623  -8.441   2.285  1.00  0.00     0.176 C 
BRANCH  51  52
HETATM   52  O3  UNL     1     -24.862  -9.647   2.198  1.00  0.00    -0.391 OA
ATOM     53  H3  UNL     1     -25.446 -10.380   2.349  1.00  0.00     0.210 HD
ENDBRANCH  51  52
BRANCH  51  54
HETATM   54  C14 UNL     1     -24.598  -7.433   2.830  1.00  0.00     0.198 C 
BRANCH  54  55
HETATM   55  O4  UNL     1     -23.506  -7.409   2.006  1.00  0.00    -0.398 OA
ATOM     56  H4  UNL     1     -22.894  -6.752   2.316  1.00  0.00     0.209 HD
ENDBRANCH  54  55
ENDBRANCH  51  54
ENDBRANCH  46  51
ENDBRANCH  43  46
ENDBRANCH   9  43
TORSDOF 15
ENDMDL
MODEL 4
REMARK VINA RESULT: -7.085088449      2.693      5.405
REMARK  15 active torsions:
REMARK  status: ('A' for Active; 'I' for Inactive)
REMARK       I    between atoms: C1_4  and  N3_6 
REMARK    1  A    between atoms: N3_6  and  C2_8 
REMARK    2  A    between atoms: C2_8  and  C3_9 
REMARK    3  A    between atoms: C3_9  and  C4_10 
REMARK    4  A    between atoms: C4_10  and  C5_11 
REMARK    5  A    between atoms: C5_11  and  N4_12 
REMARK    6  A    between atoms: C5_11  and  C6_16 
REMARK    7  A    between atoms: N6_24  and  C11_25 
REMARK    8  A    between atoms: C11_25  and  O2_26 
REMARK    9  A    between atoms: C11_25  and  C12_28 
REMARK   10  A    between atoms: C12_28  and  N7_29 
REMARK   11  A    between atoms: C12_28  and  C13_33 
REMARK   12  A    between atoms: C13_33  and  O3_34 
REMARK   13  A    between atoms: C13_33  and  C14_36 
REMARK   14  A    between atoms: C14_36  and  O4_37 
REMARK       I    between atoms: N8_39  and  C15_40 
REMARK   15  A    between atoms: C17_46  and  N11_47 
ROOT
HETATM    1  C6  UNL     1     -25.601  -3.620 -10.481  1.00  0.00     0.161 C 
HETATM    2  C7  UNL     1     -25.323  -4.881 -11.276  1.00  0.00     0.137 C 
HETATM    3  C8  UNL     1     -26.522  -5.745 -11.379  1.00  0.00     0.220 C 
HETATM    4  O1  UNL     1     -27.631  -5.170 -11.115  1.00  0.00    -0.274 OA
HETATM    5  N5  UNL     1     -26.570  -7.091 -11.729  1.00  0.00    -0.360 N 
ATOM      6  H5  UNL     1     -27.228  -7.335 -12.469  1.00  0.00     0.162 HD
HETATM    7  C9  UNL     1     -25.804  -8.192 -11.175  1.00  0.00     0.139 C 
HETATM    8  C10 UNL     1     -25.145  -7.835  -9.896  1.00  0.00     0.137 C 
HETATM    9  N6  UNL     1     -25.228  -8.820  -8.836  1.00  0.00    -0.187 NA
HETATM   10  N8  UNL     1     -25.424  -8.096  -7.650  1.00  0.00    -0.220 N 
HETATM   11  C15 UNL     1     -26.219  -8.673  -6.634  1.00  0.00     0.350 C 
HETATM   12  N9  UNL     1     -26.475  -8.025  -5.390  1.00  0.00    -0.038 NA
HETATM   13  O5  UNL     1     -26.729  -9.787  -6.802  1.00  0.00    -0.249 OA
HETATM   14  C16 UNL     1     -24.862  -6.803  -7.445  1.00  0.00     0.223 C 
HETATM   15  N10 UNL     1     -24.101  -6.615  -6.257  1.00  0.00    -0.184 N 
ATOM     16  H10 UNL     1     -23.957  -7.403  -5.626  1.00  0.00     0.185 HD
HETATM   17  C17 UNL     1     -23.538  -5.350  -5.932  1.00  0.00     0.708 C 
HETATM   18  N13 UNL     1     -23.248  -4.402  -6.685  1.00  0.00    -0.156 N 
ATOM     19  H13 UNL     1     -22.862  -3.652  -6.112  1.00  0.00     0.187 HD
HETATM   20  C19 UNL     1     -23.248  -3.985  -7.969  1.00  0.00     0.259 C 
HETATM   21  O6  UNL     1     -22.348  -4.327  -8.808  1.00  0.00    -0.270 OA
HETATM   22  C20 UNL     1     -24.274  -3.075  -8.610  1.00  0.00     0.271 C 
HETATM   23  O7  UNL     1     -25.323  -3.686  -9.167  1.00  0.00    -0.374 OA
ENDROOT
BRANCH   1  24
HETATM   24  C5  UNL     1     -25.126  -2.389 -11.226  1.00  0.00     0.212 C 
BRANCH  24  25
HETATM   25  C4  UNL     1     -26.303  -1.620 -11.701  1.00  0.00     0.037 C 
BRANCH  25  26
HETATM   26  C3  UNL     1     -26.445  -0.219 -11.255  1.00  0.00     0.022 C 
BRANCH  26  27
HETATM   27  C2  UNL     1     -25.906   0.854 -12.114  1.00  0.00     0.122 C 
BRANCH  27  28
HETATM   28  N3  UNL     1     -26.893   1.445 -13.000  1.00  0.00    -0.365 N 
HETATM   29  C1  UNL     1     -27.110   0.787 -14.241  1.00  0.00     0.181 C 
HETATM   30  N1  UNL     1     -26.226   0.953 -15.163  1.00  0.00    -0.374 N 
HETATM   31  N2  UNL     1     -28.235  -0.034 -14.514  1.00  0.00    -0.064 NA
ATOM     32  H12 UNL     1     -26.382   0.481 -16.054  1.00  0.00     0.158 HD
ATOM     33  H11 UNL     1     -25.418   1.543 -14.966  1.00  0.00     0.158 HD
ATOM     34  H3  UNL     1     -27.405   2.289 -12.744  1.00  0.00     0.162 HD
ENDBRANCH  27  28
ENDBRANCH  26  27
ENDBRANCH  25  26
ENDBRANCH  24  25
BRANCH  24  35
HETATM   35  N4  UNL     1     -24.407  -2.881 -12.386  1.00  0.00    -0.073 N 
ATOM     36  H43 UNL     1     -24.621  -2.356 -13.234  1.00  0.00     0.274 HD
ATOM     37  H42 UNL     1     -23.408  -2.678 -12.346  1.00  0.00     0.274 HD
ATOM     38  H41 UNL     1     -24.602  -3.878 -12.483  1.00  0.00     0.274 HD
ENDBRANCH  24  35
ENDBRANCH   1  24
BRANCH  17  39
HETATM   39  N11 UNL     1     -23.293  -5.180  -4.516  1.00  0.00    -0.079 N 
HETATM   40  C18 UNL     1     -23.514  -4.318  -3.368  1.00  0.00     0.243 A 
HETATM   41  N12 UNL     1     -22.795  -5.509  -3.255  1.00  0.00    -0.272 N 
ATOM     42  H12 UNL     1     -22.274  -6.160  -2.666  1.00  0.00     0.189 HD
ENDBRANCH  17  39
BRANCH   9  43
HETATM   43  C11 UNL     1     -23.956  -9.518  -8.667  1.00  0.00     0.245 C 
BRANCH  43  44
HETATM   44  O2  UNL     1     -23.262  -9.393  -9.898  1.00  0.00    -0.377 OA
ATOM     45  H2  UNL     1     -22.623 -10.096  -9.920  1.00  0.00     0.211 HD
ENDBRANCH  43  44
BRANCH  43  46
HETATM   46  C12 UNL     1     -24.074 -10.964  -8.385  1.00  0.00     0.258 C 
BRANCH  46  47
HETATM   47  N7  UNL     1     -24.102 -11.171  -6.925  1.00  0.00    -0.069 N 
ATOM     48  H73 UNL     1     -23.280 -11.671  -6.589  1.00  0.00     0.275 HD
ATOM     49  H72 UNL     1     -23.963 -10.303  -6.407  1.00  0.00     0.275 HD
ATOM     50  H71 UNL     1     -24.972 -11.638  -6.670  1.00  0.00     0.275 HD
ENDBRANCH  46  47
BRANCH  46  51
HETATM   51  C13 UNL     1     -25.218 -11.698  -9.005  1.00  0.00     0.176 C 
BRANCH  51  52
HETATM   52  O3  UNL     1     -25.043 -11.688 -10.424  1.00  0.00    -0.391 OA
ATOM     53  H3  UNL     1     -25.628 -12.333 -10.801  1.00  0.00     0.210 HD
ENDBRANCH  51  52
BRANCH  51  54
HETATM   54  C14 UNL     1     -25.215 -13.199  -8.676  1.00  0.00     0.198 C 
BRANCH  54  55
HETATM   55  O4  UNL     1     -23.949 -13.583  -8.326  1.00  0.00    -0.398 OA
ATOM     56  H4  UNL     1     -23.999 -14.268  -7.670  1.00  0.00     0.209 HD
ENDBRANCH  54  55
ENDBRANCH  51  54
ENDBRANCH  46  51
ENDBRANCH  43  46
ENDBRANCH   9  43
TORSDOF 15
ENDMDL
MODEL 5
REMARK VINA RESULT: -7.065226665      2.559      5.521
REMARK  15 active torsions:
REMARK  status: ('A' for Active; 'I' for Inactive)
REMARK       I    between atoms: C1_4  and  N3_6 
REMARK    1  A    between atoms: N3_6  and  C2_8 
REMARK    2  A    between atoms: C2_8  and  C3_9 
REMARK    3  A    between atoms: C3_9  and  C4_10 
REMARK    4  A    between atoms: C4_10  and  C5_11 
REMARK    5  A    between atoms: C5_11  and  N4_12 
REMARK    6  A    between atoms: C5_11  and  C6_16 
REMARK    7  A    between atoms: N6_24  and  C11_25 
REMARK    8  A    between atoms: C11_25  and  O2_26 
REMARK    9  A    between atoms: C11_25  and  C12_28 
REMARK   10  A    between atoms: C12_28  and  N7_29 
REMARK   11  A    between atoms: C12_28  and  C13_33 
REMARK   12  A    between atoms: C13_33  and  O3_34 
REMARK   13  A    between atoms: C13_33  and  C14_36 
REMARK   14  A    between atoms: C14_36  and  O4_37 
REMARK       I    between atoms: N8_39  and  C15_40 
REMARK   15  A    between atoms: C17_46  and  N11_47 
ROOT
HETATM    1  C6  UNL     1     -25.111  -2.970 -10.745  1.00  0.00     0.161 C 
HETATM    2  C7  UNL     1     -24.925  -4.147 -11.681  1.00  0.00     0.137 C 
HETATM    3  C8  UNL     1     -26.210  -4.811 -11.998  1.00  0.00     0.220 C 
HETATM    4  O1  UNL     1     -27.255  -4.122 -11.746  1.00  0.00    -0.274 OA
HETATM    5  N5  UNL     1     -26.400  -6.082 -12.533  1.00  0.00    -0.360 N 
ATOM      6  H5  UNL     1     -27.008  -6.134 -13.349  1.00  0.00     0.162 HD
HETATM    7  C9  UNL     1     -25.843  -7.342 -12.077  1.00  0.00     0.139 C 
HETATM    8  C10 UNL     1     -25.271  -7.246 -10.712  1.00  0.00     0.137 C 
HETATM    9  N6  UNL     1     -25.586  -8.334  -9.808  1.00  0.00    -0.187 NA
HETATM   10  N8  UNL     1     -25.800  -7.745  -8.553  1.00  0.00    -0.220 N 
HETATM   11  C15 UNL     1     -26.760  -8.325  -7.692  1.00  0.00     0.350 C 
HETATM   12  N9  UNL     1     -27.050  -7.808  -6.396  1.00  0.00    -0.038 NA
HETATM   13  O5  UNL     1     -27.393  -9.324  -8.053  1.00  0.00    -0.249 OA
HETATM   14  C16 UNL     1     -25.097  -6.581  -8.127  1.00  0.00     0.223 C 
HETATM   15  N10 UNL     1     -24.438  -6.654  -6.868  1.00  0.00    -0.184 N 
ATOM     16  H10 UNL     1     -24.460  -7.528  -6.342  1.00  0.00     0.185 HD
HETATM   17  C17 UNL     1     -23.748  -5.534  -6.327  1.00  0.00     0.708 C 
HETATM   18  N13 UNL     1     -23.264  -4.550  -6.917  1.00  0.00    -0.156 N 
ATOM     19  H13 UNL     1     -22.841  -3.941  -6.217  1.00  0.00     0.187 HD
HETATM   20  C19 UNL     1     -23.084  -3.979  -8.127  1.00  0.00     0.259 C 
HETATM   21  O6  UNL     1     -22.158  -4.338  -8.931  1.00  0.00    -0.270 OA
HETATM   22  C20 UNL     1     -23.914  -2.859  -8.716  1.00  0.00     0.271 C 
HETATM   23  O7  UNL     1     -24.975  -3.238  -9.434  1.00  0.00    -0.374 OA
ENDROOT
BRANCH   1  24
HETATM   24  C5  UNL     1     -24.408  -1.735 -11.272  1.00  0.00     0.212 C 
BRANCH  24  25
HETATM   25  C4  UNL     1     -25.251  -0.543 -11.009  1.00  0.00     0.037 C 
BRANCH  25  26
HETATM   26  C3  UNL     1     -26.710  -0.664 -11.205  1.00  0.00     0.022 C 
BRANCH  26  27
HETATM   27  C2  UNL     1     -27.550  -1.031 -10.048  1.00  0.00     0.122 C 
BRANCH  27  28
HETATM   28  N3  UNL     1     -28.530  -2.062 -10.341  1.00  0.00    -0.365 N 
HETATM   29  C1  UNL     1     -29.420  -2.412  -9.290  1.00  0.00     0.181 C 
HETATM   30  N1  UNL     1     -28.961  -3.159  -8.347  1.00  0.00    -0.374 N 
HETATM   31  N2  UNL     1     -30.773  -1.988  -9.226  1.00  0.00    -0.064 NA
ATOM     32  H12 UNL     1     -29.599  -3.410  -7.593  1.00  0.00     0.158 HD
ATOM     33  H11 UNL     1     -27.989  -3.464  -8.393  1.00  0.00     0.158 HD
ATOM     34  H3  UNL     1     -28.576  -2.512 -11.255  1.00  0.00     0.162 HD
ENDBRANCH  27  28
ENDBRANCH  26  27
ENDBRANCH  25  26
ENDBRANCH  24  25
BRANCH  24  35
HETATM   35  N4  UNL     1     -24.315  -1.917 -12.709  1.00  0.00    -0.073 N 
ATOM     36  H43 UNL     1     -23.904  -1.111 -13.181  1.00  0.00     0.274 HD
ATOM     37  H42 UNL     1     -23.611  -2.606 -12.973  1.00  0.00     0.274 HD
ATOM     38  H41 UNL     1     -25.244  -2.148 -13.062  1.00  0.00     0.274 HD
ENDBRANCH  24  35
ENDBRANCH   1  24
BRANCH  17  39
HETATM   39  N11 UNL     1     -23.623  -5.580  -4.887  1.00  0.00    -0.079 N 
HETATM   40  C18 UNL     1     -24.322  -5.388  -3.628  1.00  0.00     0.243 A 
HETATM   41  N12 UNL     1     -22.981  -5.772  -3.663  1.00  0.00    -0.272 N 
ATOM     42  H12 UNL     1     -22.132  -6.019  -3.154  1.00  0.00     0.189 HD
ENDBRANCH  17  39
BRANCH   9  43
HETATM   43  C11 UNL     1     -24.439  -9.222  -9.636  1.00  0.00     0.245 C 
BRANCH  43  44
HETATM   44  O2  UNL     1     -24.003  -9.573 -10.939  1.00  0.00    -0.377 OA
ATOM     45  H2  UNL     1     -23.169  -9.139 -11.071  1.00  0.00     0.211 HD
ENDBRANCH  43  44
BRANCH  43  46
HETATM   46  C12 UNL     1     -24.733 -10.485  -8.926  1.00  0.00     0.258 C 
BRANCH  46  47
HETATM   47  N7  UNL     1     -24.953 -11.556  -9.917  1.00  0.00    -0.069 N 
ATOM     48  H73 UNL     1     -24.311 -11.492 -10.706  1.00  0.00     0.275 HD
ATOM     49  H72 UNL     1     -24.663 -12.470  -9.570  1.00  0.00     0.275 HD
ATOM     50  H71 UNL     1     -25.930 -11.545 -10.210  1.00  0.00     0.275 HD
ENDBRANCH  46  47
BRANCH  46  51
HETATM   51  C13 UNL     1     -23.745 -10.953  -7.909  1.00  0.00     0.176 C 
BRANCH  51  52
HETATM   52  O3  UNL     1     -22.443 -10.531  -8.320  1.00  0.00    -0.391 OA
ATOM     53  H3  UNL     1     -21.884 -10.499  -7.553  1.00  0.00     0.210 HD
ENDBRANCH  51  52
BRANCH  51  54
HETATM   54  C14 UNL     1     -23.911 -10.261  -6.548  1.00  0.00     0.198 C 
BRANCH  54  55
HETATM   55  O4  UNL     1     -22.968  -9.277  -6.423  1.00  0.00    -0.398 OA
ATOM     56  H4  UNL     1     -23.072  -8.652  -7.130  1.00  0.00     0.209 HD
ENDBRANCH  54  55
ENDBRANCH  51  54
ENDBRANCH  46  51
ENDBRANCH  43  46
ENDBRANCH   9  43
TORSDOF 15
ENDMDL
