MODEL 1
REMARK VINA RESULT: -6.849968963      0.000      0.000
REMARK  7 active torsions:
REMARK  status: ('A' for Active; 'I' for Inactive)
REMARK    1  A    between atoms: C1_2  and  C2_3 
REMARK    2  A    between atoms: C1_2  and  O3_6 
REMARK    3  A    between atoms: C2_3  and  O2_4 
REMARK    4  A    between atoms: O3_6  and  C3_7 
REMARK    5  A    between atoms: C3_7  and  C4_9 
REMARK    6  A    between atoms: C4_9  and  O5_10 
REMARK    7  A    between atoms: O5_10  and  C5_11 
ROOT
HETATM    1  O5  UNL     1      -3.649   2.710  13.546  1.00  0.00    -0.314 OA
ENDROOT
BRANCH   1   2
HETATM    2  C4  UNL     1      -3.460   2.349  12.268  1.00  0.00     0.225 C 
BRANCH   2   3
HETATM    3  C3  UNL     1      -4.537   2.208  11.298  1.00  0.00     0.313 C 
HETATM    4  O4  UNL     1      -5.128   3.065  10.634  1.00  0.00    -0.258 OA
BRANCH   3   5
HETATM    5  O3  UNL     1      -5.000   0.877  11.061  1.00  0.00    -0.238 OA
BRANCH   5   6
HETATM    6  C1  UNL     1      -4.114  -0.141  10.784  1.00  0.00     0.290 C 
HETATM    7  O1  UNL     1      -3.493  -0.141   9.700  1.00  0.00    -0.262 OA
BRANCH   6   8
HETATM    8  C2  UNL     1      -3.871  -1.254  11.749  1.00  0.00     0.275 C 
BRANCH   8   9
HETATM    9  O2  UNL     1      -2.878  -2.094  11.275  1.00  0.00    -0.391 OA
ATOM     10  H2  UNL     1      -3.148  -3.001  11.351  1.00  0.00     0.210 HD
ENDBRANCH   8   9
ENDBRANCH   6   8
ENDBRANCH   5   6
ENDBRANCH   3   5
ENDBRANCH   2   3
ENDBRANCH   1   2
BRANCH   1  11
HETATM   11  C5  UNL     1      -4.631   2.937  14.422  1.00  0.00     0.116 A 
HETATM   12  C6  UNL     1      -5.219   4.215  14.461  1.00  0.00     0.069 A 
HETATM   13 CL1  UNL     1      -4.649   5.474  13.356  1.00  0.00    -0.081 Cl
HETATM   14  C7  UNL     1      -6.222   4.461  15.357  1.00  0.00     0.028 A 
HETATM   15  C8  UNL     1      -6.663   3.478  16.218  1.00  0.00     0.027 A 
HETATM   16  C9  UNL     1      -6.107   2.218  16.205  1.00  0.00     0.054 A 
HETATM   17 CL2  UNL     1      -6.673   0.981  17.299  1.00  0.00    -0.083 Cl
HETATM   18  C10 UNL     1      -5.083   1.981  15.288  1.00  0.00     0.068 A 
HETATM   19 BR1  UNL     1      -4.293   0.234  15.429  1.00  0.00    -0.046 Br
ENDBRANCH   1  11
TORSDOF 7
ENDMDL
MODEL 2
REMARK VINA RESULT: -6.804206769      3.397      6.215
REMARK  7 active torsions:
REMARK  status: ('A' for Active; 'I' for Inactive)
REMARK    1  A    between atoms: C1_2  and  C2_3 
REMARK    2  A    between atoms: C1_2  and  O3_6 
REMARK    3  A    between atoms: C2_3  and  O2_4 
REMARK    4  A    between atoms: O3_6  and  C3_7 
REMARK    5  A    between atoms: C3_7  and  C4_9 
REMARK    6  A    between atoms: C4_9  and  O5_10 
REMARK    7  A    between atoms: O5_10  and  C5_11 
ROOT
HETATM    1  O5  UNL     1      -4.354   1.939  13.047  1.00  0.00    -0.314 OA
ENDROOT
BRANCH   1   2
HETATM    2  C4  UNL     1      -4.671   1.828  14.345  1.00  0.00     0.225 C 
BRANCH   2   3
HETATM    3  C3  UNL     1      -4.466   0.617  15.129  1.00  0.00     0.313 C 
HETATM    4  O4  UNL     1      -4.325  -0.553  14.762  1.00  0.00    -0.258 OA
BRANCH   3   5
HETATM    5  O3  UNL     1      -4.418   0.785  16.547  1.00  0.00    -0.238 OA
BRANCH   5   6
HETATM    6  C1  UNL     1      -5.549   0.622  17.317  1.00  0.00     0.290 C 
HETATM    7  O1  UNL     1      -6.015  -0.524  17.493  1.00  0.00    -0.262 OA
BRANCH   6   8
HETATM    8  C2  UNL     1      -6.241   1.782  17.952  1.00  0.00     0.275 C 
BRANCH   8   9
HETATM    9  O2  UNL     1      -6.870   2.553  16.991  1.00  0.00    -0.391 OA
ATOM     10  H2  UNL     1      -7.063   2.030  16.222  1.00  0.00     0.210 HD
ENDBRANCH   8   9
ENDBRANCH   6   8
ENDBRANCH   5   6
ENDBRANCH   3   5
ENDBRANCH   2   3
ENDBRANCH   1   2
BRANCH   1  11
HETATM   11  C5  UNL     1      -3.289   1.982  12.242  1.00  0.00     0.116 A 
HETATM   12  C6  UNL     1      -2.997   0.855  11.450  1.00  0.00     0.069 A 
HETATM   13 CL1  UNL     1      -4.039  -0.572  11.540  1.00  0.00    -0.081 Cl
HETATM   14  C7  UNL     1      -1.908   0.885  10.624  1.00  0.00     0.028 A 
HETATM   15  C8  UNL     1      -1.096   1.999  10.557  1.00  0.00     0.027 A 
HETATM   16  C9  UNL     1      -1.356   3.116  11.320  1.00  0.00     0.054 A 
HETATM   17 CL2  UNL     1      -0.324   4.520  11.226  1.00  0.00    -0.083 Cl
HETATM   18  C10 UNL     1      -2.469   3.071  12.159  1.00  0.00     0.068 A 
HETATM   19 BR1  UNL     1      -2.677   4.628  13.269  1.00  0.00    -0.046 Br
ENDBRANCH   1  11
TORSDOF 7
ENDMDL
MODEL 3
REMARK VINA RESULT: -6.734082081      3.239      5.934
REMARK  7 active torsions:
REMARK  status: ('A' for Active; 'I' for Inactive)
REMARK    1  A    between atoms: C1_2  and  C2_3 
REMARK    2  A    between atoms: C1_2  and  O3_6 
REMARK    3  A    between atoms: C2_3  and  O2_4 
REMARK    4  A    between atoms: O3_6  and  C3_7 
REMARK    5  A    between atoms: C3_7  and  C4_9 
REMARK    6  A    between atoms: C4_9  and  O5_10 
REMARK    7  A    between atoms: O5_10  and  C5_11 
ROOT
HETATM    1  O5  UNL     1      -4.486   2.259  12.754  1.00  0.00    -0.314 OA
ENDROOT
BRANCH   1   2
HETATM    2  C4  UNL     1      -4.783   2.450  14.047  1.00  0.00     0.225 C 
BRANCH   2   3
HETATM    3  C3  UNL     1      -3.784   2.568  15.100  1.00  0.00     0.313 C 
HETATM    4  O4  UNL     1      -3.013   3.495  15.365  1.00  0.00    -0.258 OA
BRANCH   3   5
HETATM    5  O3  UNL     1      -3.657   1.446  15.976  1.00  0.00    -0.238 OA
BRANCH   5   6
HETATM    6  C1  UNL     1      -4.712   0.583  16.178  1.00  0.00     0.290 C 
HETATM    7  O1  UNL     1      -4.742  -0.507  15.567  1.00  0.00    -0.262 OA
BRANCH   6   8
HETATM    8  C2  UNL     1      -5.828   0.913  17.112  1.00  0.00     0.275 C 
BRANCH   8   9
HETATM    9  O2  UNL     1      -6.997   0.297  16.701  1.00  0.00    -0.391 OA
ATOM     10  H2  UNL     1      -7.479   0.864  16.110  1.00  0.00     0.210 HD
ENDBRANCH   8   9
ENDBRANCH   6   8
ENDBRANCH   5   6
ENDBRANCH   3   5
ENDBRANCH   2   3
ENDBRANCH   1   2
BRANCH   1  11
HETATM   11  C5  UNL     1      -3.433   2.101  11.947  1.00  0.00     0.116 A 
HETATM   12  C6  UNL     1      -3.032   0.796  11.607  1.00  0.00     0.069 A 
HETATM   13 CL1  UNL     1      -3.927  -0.590  12.251  1.00  0.00    -0.081 Cl
HETATM   14  C7  UNL     1      -1.955   0.621  10.785  1.00  0.00     0.028 A 
HETATM   15  C8  UNL     1      -1.259   1.703  10.285  1.00  0.00     0.027 A 
HETATM   16  C9  UNL     1      -1.626   2.993  10.600  1.00  0.00     0.054 A 
HETATM   17 CL2  UNL     1      -0.739   4.354   9.962  1.00  0.00    -0.083 Cl
HETATM   18  C10 UNL     1      -2.726   3.156  11.442  1.00  0.00     0.068 A 
HETATM   19 BR1  UNL     1      -3.085   4.984  11.917  1.00  0.00    -0.046 Br
ENDBRANCH   1  11
TORSDOF 7
ENDMDL
MODEL 4
REMARK VINA RESULT: -6.704520899      0.849      1.034
REMARK  7 active torsions:
REMARK  status: ('A' for Active; 'I' for Inactive)
REMARK    1  A    between atoms: C1_2  and  C2_3 
REMARK    2  A    between atoms: C1_2  and  O3_6 
REMARK    3  A    between atoms: C2_3  and  O2_4 
REMARK    4  A    between atoms: O3_6  and  C3_7 
REMARK    5  A    between atoms: C3_7  and  C4_9 
REMARK    6  A    between atoms: C4_9  and  O5_10 
REMARK    7  A    between atoms: O5_10  and  C5_11 
ROOT
HETATM    1  O5  UNL     1      -3.625   2.571  13.378  1.00  0.00    -0.314 OA
ENDROOT
BRANCH   1   2
HETATM    2  C4  UNL     1      -3.488   1.987  12.178  1.00  0.00     0.225 C 
BRANCH   2   3
HETATM    3  C3  UNL     1      -4.606   1.507  11.378  1.00  0.00     0.313 C 
HETATM    4  O4  UNL     1      -5.682   2.048  11.109  1.00  0.00    -0.258 OA
BRANCH   3   5
HETATM    5  O3  UNL     1      -4.457   0.207  10.804  1.00  0.00    -0.238 OA
BRANCH   5   6
HETATM    6  C1  UNL     1      -3.864  -0.816  11.513  1.00  0.00     0.290 C 
HETATM    7  O1  UNL     1      -4.356  -1.174  12.604  1.00  0.00    -0.262 OA
BRANCH   6   8
HETATM    8  C2  UNL     1      -2.644  -1.514  11.013  1.00  0.00     0.275 C 
BRANCH   8   9
HETATM    9  O2  UNL     1      -2.657  -2.843  11.399  1.00  0.00    -0.391 OA
ATOM     10  H2  UNL     1      -2.081  -2.976  12.143  1.00  0.00     0.210 HD
ENDBRANCH   8   9
ENDBRANCH   6   8
ENDBRANCH   5   6
ENDBRANCH   3   5
ENDBRANCH   2   3
ENDBRANCH   1   2
BRANCH   1  11
HETATM   11  C5  UNL     1      -4.571   2.999  14.218  1.00  0.00     0.116 A 
HETATM   12  C6  UNL     1      -5.063   4.309  14.068  1.00  0.00     0.069 A 
HETATM   13 CL1  UNL     1      -4.424   5.342  12.780  1.00  0.00    -0.081 Cl
HETATM   14  C7  UNL     1      -6.029   4.761  14.923  1.00  0.00     0.028 A 
HETATM   15  C8  UNL     1      -6.525   3.954  15.927  1.00  0.00     0.027 A 
HETATM   16  C9  UNL     1      -6.062   2.668  16.099  1.00  0.00     0.054 A 
HETATM   17 CL2  UNL     1      -6.696   1.655  17.371  1.00  0.00    -0.083 Cl
HETATM   18  C10 UNL     1      -5.076   2.221  15.221  1.00  0.00     0.068 A 
HETATM   19 BR1  UNL     1      -4.412   0.460  15.618  1.00  0.00    -0.046 Br
ENDBRANCH   1  11
TORSDOF 7
ENDMDL
MODEL 5
REMARK VINA RESULT: -6.703525971      3.454      5.919
REMARK  7 active torsions:
REMARK  status: ('A' for Active; 'I' for Inactive)
REMARK    1  A    between atoms: C1_2  and  C2_3 
REMARK    2  A    between atoms: C1_2  and  O3_6 
REMARK    3  A    between atoms: C2_3  and  O2_4 
REMARK    4  A    between atoms: O3_6  and  C3_7 
REMARK    5  A    between atoms: C3_7  and  C4_9 
REMARK    6  A    between atoms: C4_9  and  O5_10 
REMARK    7  A    between atoms: O5_10  and  C5_11 
ROOT
HETATM    1  O5  UNL     1      -3.270   2.155  12.824  1.00  0.00    -0.314 OA
ENDROOT
BRANCH   1   2
HETATM    2  C4  UNL     1      -4.583   2.311  13.050  1.00  0.00     0.225 C 
BRANCH   2   3
HETATM    3  C3  UNL     1      -5.135   2.822  14.297  1.00  0.00     0.313 C 
HETATM    4  O4  UNL     1      -6.173   3.459  14.506  1.00  0.00    -0.258 OA
BRANCH   3   5
HETATM    5  O3  UNL     1      -4.376   2.557  15.477  1.00  0.00    -0.238 OA
BRANCH   5   6
HETATM    6  C1  UNL     1      -4.493   1.354  16.139  1.00  0.00     0.290 C 
HETATM    7  O1  UNL     1      -3.568   0.517  16.066  1.00  0.00    -0.262 OA
BRANCH   6   8
HETATM    8  C2  UNL     1      -5.702   1.017  16.947  1.00  0.00     0.275 C 
BRANCH   8   9
HETATM    9  O2  UNL     1      -5.822  -0.355  17.085  1.00  0.00    -0.391 OA
ATOM     10  H2  UNL     1      -4.963  -0.761  17.110  1.00  0.00     0.210 HD
ENDBRANCH   8   9
ENDBRANCH   6   8
ENDBRANCH   5   6
ENDBRANCH   3   5
ENDBRANCH   2   3
ENDBRANCH   1   2
BRANCH   1  11
HETATM   11  C5  UNL     1      -2.298   2.600  12.024  1.00  0.00     0.116 A 
HETATM   12  C6  UNL     1      -1.948   1.834  10.897  1.00  0.00     0.069 A 
HETATM   13 CL1  UNL     1      -2.800   0.316  10.571  1.00  0.00    -0.081 Cl
HETATM   14  C7  UNL     1      -0.951   2.276  10.072  1.00  0.00     0.028 A 
HETATM   15  C8  UNL     1      -0.289   3.459  10.329  1.00  0.00     0.027 A 
HETATM   16  C9  UNL     1      -0.608   4.230  11.425  1.00  0.00     0.054 A 
HETATM   17 CL2  UNL     1       0.236   5.725  11.740  1.00  0.00    -0.083 Cl
HETATM   18  C10 UNL     1      -1.625   3.766  12.258  1.00  0.00     0.068 A 
HETATM   19 BR1  UNL     1      -1.913   4.849  13.821  1.00  0.00    -0.046 Br
ENDBRANCH   1  11
TORSDOF 7
ENDMDL
