MODEL 1
REMARK VINA RESULT: -7.856664762      0.000      0.000
REMARK  4 active torsions:
REMARK  status: ('A' for Active; 'I' for Inactive)
REMARK    1  A    between atoms: C1_2  and  C2_3 
REMARK    2  A    between atoms: C1_2  and  C14_22 
REMARK    3  A    between atoms: C5_6  and  N1_7 
REMARK       I    between atoms: N1_7  and  C6_9 
REMARK    4  A    between atoms: C6_9  and  C7_11 
ROOT
HETATM    1  N1  UNL     1      -1.865  -7.978  19.278  1.00  0.00    -0.318 N 
ATOM      2  H1  UNL     1      -1.516  -8.178  20.216  1.00  0.00     0.169 HD
HETATM    3  C6  UNL     1      -3.204  -7.560  19.102  1.00  0.00     0.265 C 
HETATM    4  O2  UNL     1      -3.693  -7.299  17.968  1.00  0.00    -0.269 OA
ENDROOT
BRANCH   1   5
HETATM    5  C5  UNL     1      -0.987  -8.124  18.139  1.00  0.00     0.077 A 
HETATM    6  C4  UNL     1       0.081  -7.342  17.804  1.00  0.00     0.039 A 
HETATM    7  C3  UNL     1       0.760  -7.667  16.693  1.00  0.00     0.026 A 
HETATM    8  C2  UNL     1       0.322  -8.758  15.988  1.00  0.00     0.062 A 
HETATM    9  S1  UNL     1      -1.015  -9.292  16.896  1.00  0.00    -0.069 SA
BRANCH   8  10
HETATM   10  C1  UNL     1       0.902  -9.308  14.740  1.00  0.00     0.272 C 
HETATM   11  O1  UNL     1       0.170  -9.321  13.730  1.00  0.00    -0.282 OA
BRANCH  10  12
HETATM   12  C14 UNL     1       2.273  -9.812  14.701  1.00  0.00     0.456 C 
HETATM   13  F2  UNL     1       2.463 -10.780  13.741  1.00  0.00    -0.163 F 
HETATM   14  F3  UNL     1       3.170  -8.782  14.422  1.00  0.00    -0.163 F 
HETATM   15  F4  UNL     1       2.584 -10.406  15.926  1.00  0.00    -0.163 F 
ENDBRANCH  10  12
ENDBRANCH   8  10
ENDBRANCH   1   5
BRANCH   3  16
HETATM   16  C7  UNL     1      -4.061  -7.425  20.278  1.00  0.00     0.216 C 
HETATM   17  F1  UNL     1      -3.414  -7.567  21.467  1.00  0.00    -0.230 F 
HETATM   18  C8  UNL     1      -5.205  -8.448  20.272  1.00  0.00     0.086 C 
HETATM   19  C9  UNL     1      -6.147  -7.796  21.268  1.00  0.00     0.279 C 
HETATM   20  N2  UNL     1      -5.949  -6.385  21.181  1.00  0.00     0.119 N 
HETATM   21  C10 UNL     1      -5.743  -5.770  22.469  1.00  0.00     0.441 C 
HETATM   22  C13 UNL     1      -4.846  -6.132  20.294  1.00  0.00     0.276 C 
HETATM   23  O3  UNL     1      -5.652  -4.403  22.362  1.00  0.00    -0.362 OA
HETATM   24  C11 UNL     1      -4.666  -3.953  21.522  1.00  0.00     0.172 C 
HETATM   25  C12 UNL     1      -3.952  -5.027  20.765  1.00  0.00     0.066 C 
ENDBRANCH   3  16
TORSDOF 4
ENDMDL
MODEL 2
REMARK VINA RESULT: -7.751066869      4.615      5.787
REMARK  4 active torsions:
REMARK  status: ('A' for Active; 'I' for Inactive)
REMARK    1  A    between atoms: C1_2  and  C2_3 
REMARK    2  A    between atoms: C1_2  and  C14_22 
REMARK    3  A    between atoms: C5_6  and  N1_7 
REMARK       I    between atoms: N1_7  and  C6_9 
REMARK    4  A    between atoms: C6_9  and  C7_11 
ROOT
HETATM    1  N1  UNL     1       0.208  -8.858  19.741  1.00  0.00    -0.318 N 
ATOM      2  H1  UNL     1      -0.725  -9.004  20.128  1.00  0.00     0.169 HD
HETATM    3  C6  UNL     1       1.328  -8.827  20.604  1.00  0.00     0.265 C 
HETATM    4  O2  UNL     1       2.505  -8.649  20.185  1.00  0.00    -0.269 OA
ENDROOT
BRANCH   1   5
HETATM    5  C5  UNL     1       0.375  -8.685  18.316  1.00  0.00     0.077 A 
HETATM    6  C4  UNL     1       0.406  -7.513  17.617  1.00  0.00     0.039 A 
HETATM    7  C3  UNL     1       0.574  -7.591  16.288  1.00  0.00     0.026 A 
HETATM    8  C2  UNL     1       0.698  -8.844  15.744  1.00  0.00     0.062 A 
HETATM    9  S1  UNL     1       0.579  -9.864  17.101  1.00  0.00    -0.069 SA
BRANCH   8  10
HETATM   10  C1  UNL     1       0.889  -9.183  14.315  1.00  0.00     0.272 C 
HETATM   11  O1  UNL     1      -0.132  -9.227  13.599  1.00  0.00    -0.282 OA
BRANCH  10  12
HETATM   12  C14 UNL     1       2.219  -9.452  13.772  1.00  0.00     0.456 C 
HETATM   13  F2  UNL     1       3.206  -8.700  14.368  1.00  0.00    -0.163 F 
HETATM   14  F3  UNL     1       2.564 -10.790  13.952  1.00  0.00    -0.163 F 
HETATM   15  F4  UNL     1       2.240  -9.125  12.415  1.00  0.00    -0.163 F 
ENDBRANCH  10  12
ENDBRANCH   8  10
ENDBRANCH   1   5
BRANCH   3  16
HETATM   16  C7  UNL     1       1.119  -9.005  22.039  1.00  0.00     0.216 C 
HETATM   17  F1  UNL     1      -0.182  -9.173  22.402  1.00  0.00    -0.230 F 
HETATM   18  C8  UNL     1       1.654  -7.816  22.846  1.00  0.00     0.086 C 
HETATM   19  C9  UNL     1       1.750  -8.453  24.221  1.00  0.00     0.279 C 
HETATM   20  N2  UNL     1       2.010  -9.843  24.030  1.00  0.00     0.119 N 
HETATM   21  C10 UNL     1       1.118 -10.687  24.785  1.00  0.00     0.441 C 
HETATM   22  C13 UNL     1       1.944 -10.131  22.623  1.00  0.00     0.276 C 
HETATM   23  O3  UNL     1       1.454 -12.014  24.656  1.00  0.00    -0.362 OA
HETATM   24  C11 UNL     1       1.481 -12.481  23.366  1.00  0.00     0.172 C 
HETATM   25  C12 UNL     1       1.272 -11.435  22.318  1.00  0.00     0.066 C 
ENDBRANCH   3  16
TORSDOF 4
ENDMDL
MODEL 3
REMARK VINA RESULT: -7.726929189      0.990      1.275
REMARK  4 active torsions:
REMARK  status: ('A' for Active; 'I' for Inactive)
REMARK    1  A    between atoms: C1_2  and  C2_3 
REMARK    2  A    between atoms: C1_2  and  C14_22 
REMARK    3  A    between atoms: C5_6  and  N1_7 
REMARK       I    between atoms: N1_7  and  C6_9 
REMARK    4  A    between atoms: C6_9  and  C7_11 
ROOT
HETATM    1  N1  UNL     1      -1.295  -8.174  18.968  1.00  0.00    -0.318 N 
ATOM      2  H1  UNL     1      -0.900  -8.388  19.884  1.00  0.00     0.169 HD
HETATM    3  C6  UNL     1      -2.647  -7.774  18.864  1.00  0.00     0.265 C 
HETATM    4  O2  UNL     1      -3.193  -7.496  17.761  1.00  0.00    -0.269 OA
ENDROOT
BRANCH   1   5
HETATM    5  C5  UNL     1      -0.470  -8.282  17.786  1.00  0.00     0.077 A 
HETATM    6  C4  UNL     1       0.260  -7.297  17.186  1.00  0.00     0.039 A 
HETATM    7  C3  UNL     1       0.959  -7.627  16.089  1.00  0.00     0.026 A 
HETATM    8  C2  UNL     1       0.879  -8.928  15.664  1.00  0.00     0.062 A 
HETATM    9  S1  UNL     1      -0.162  -9.643  16.805  1.00  0.00    -0.069 SA
BRANCH   8  10
HETATM   10  C1  UNL     1       1.555  -9.527  14.488  1.00  0.00     0.272 C 
HETATM   11  O1  UNL     1       0.946  -9.484  13.400  1.00  0.00    -0.282 OA
BRANCH  10  12
HETATM   12  C14 UNL     1       2.876 -10.139  14.605  1.00  0.00     0.456 C 
HETATM   13  F2  UNL     1       3.902  -9.260  14.339  1.00  0.00    -0.163 F 
HETATM   14  F3  UNL     1       3.083 -10.625  15.894  1.00  0.00    -0.163 F 
HETATM   15  F4  UNL     1       2.991 -11.173  13.674  1.00  0.00    -0.163 F 
ENDBRANCH  10  12
ENDBRANCH   8  10
ENDBRANCH   1   5
BRANCH   3  16
HETATM   16  C7  UNL     1      -3.450  -7.677  20.081  1.00  0.00     0.216 C 
HETATM   17  F1  UNL     1      -2.948  -8.364  21.144  1.00  0.00    -0.230 F 
HETATM   18  C8  UNL     1      -4.881  -8.182  19.863  1.00  0.00     0.086 C 
HETATM   19  C9  UNL     1      -5.571  -7.544  21.056  1.00  0.00     0.279 C 
HETATM   20  N2  UNL     1      -4.879  -6.331  21.349  1.00  0.00     0.119 N 
HETATM   21  C10 UNL     1      -4.524  -6.214  22.742  1.00  0.00     0.441 C 
HETATM   22  C13 UNL     1      -3.721  -6.249  20.501  1.00  0.00     0.276 C 
HETATM   23  O3  UNL     1      -3.946  -4.997  23.011  1.00  0.00    -0.362 OA
HETATM   24  C11 UNL     1      -2.829  -4.710  22.269  1.00  0.00     0.172 C 
HETATM   25  C12 UNL     1      -2.513  -5.711  21.203  1.00  0.00     0.066 C 
ENDBRANCH   3  16
TORSDOF 4
ENDMDL
MODEL 4
REMARK VINA RESULT: -7.661080501      1.300      1.696
REMARK  4 active torsions:
REMARK  status: ('A' for Active; 'I' for Inactive)
REMARK    1  A    between atoms: C1_2  and  C2_3 
REMARK    2  A    between atoms: C1_2  and  C14_22 
REMARK    3  A    between atoms: C5_6  and  N1_7 
REMARK       I    between atoms: N1_7  and  C6_9 
REMARK    4  A    between atoms: C6_9  and  C7_11 
ROOT
HETATM    1  N1  UNL     1      -1.026  -8.401  19.064  1.00  0.00    -0.318 N 
ATOM      2  H1  UNL     1      -0.537  -8.205  19.938  1.00  0.00     0.169 HD
HETATM    3  C6  UNL     1      -2.422  -8.625  19.076  1.00  0.00     0.265 C 
HETATM    4  O2  UNL     1      -3.081  -8.871  18.029  1.00  0.00    -0.269 OA
ENDROOT
BRANCH   1   5
HETATM    5  C5  UNL     1      -0.286  -8.446  17.823  1.00  0.00     0.077 A 
HETATM    6  C4  UNL     1       0.197  -7.394  17.100  1.00  0.00     0.039 A 
HETATM    7  C3  UNL     1       0.860  -7.674  15.968  1.00  0.00     0.026 A 
HETATM    8  C2  UNL     1       0.995  -8.996  15.632  1.00  0.00     0.062 A 
HETATM    9  S1  UNL     1       0.198  -9.799  16.903  1.00  0.00    -0.069 SA
BRANCH   8  10
HETATM   10  C1  UNL     1       1.681  -9.551  14.441  1.00  0.00     0.272 C 
HETATM   11  O1  UNL     1       1.085  -9.458  13.348  1.00  0.00    -0.282 OA
BRANCH  10  12
HETATM   12  C14 UNL     1       2.996 -10.176  14.547  1.00  0.00     0.456 C 
HETATM   13  F2  UNL     1       3.260 -10.665  15.807  1.00  0.00    -0.163 F 
HETATM   14  F3  UNL     1       3.106 -11.249  13.665  1.00  0.00    -0.163 F 
HETATM   15  F4  UNL     1       3.984  -9.226  14.279  1.00  0.00    -0.163 F 
ENDBRANCH  10  12
ENDBRANCH   8  10
ENDBRANCH   1   5
BRANCH   3  16
HETATM   16  C7  UNL     1      -3.134  -8.570  20.351  1.00  0.00     0.216 C 
HETATM   17  F1  UNL     1      -2.476  -7.901  21.336  1.00  0.00    -0.230 F 
HETATM   18  C8  UNL     1      -3.438  -9.972  20.895  1.00  0.00     0.086 C 
HETATM   19  C9  UNL     1      -4.535  -9.636  21.889  1.00  0.00     0.279 C 
HETATM   20  N2  UNL     1      -5.225  -8.489  21.392  1.00  0.00     0.119 N 
HETATM   21  C10 UNL     1      -5.367  -7.451  22.383  1.00  0.00     0.441 C 
HETATM   22  C13 UNL     1      -4.534  -8.012  20.225  1.00  0.00     0.276 C 
HETATM   23  O3  UNL     1      -6.116  -6.403  21.905  1.00  0.00    -0.362 OA
HETATM   24  C11 UNL     1      -5.636  -5.823  20.759  1.00  0.00     0.172 C 
HETATM   25  C12 UNL     1      -4.457  -6.518  20.154  1.00  0.00     0.066 C 
ENDBRANCH   3  16
TORSDOF 4
ENDMDL
MODEL 5
REMARK VINA RESULT: -7.651784853      4.914      6.162
REMARK  4 active torsions:
REMARK  status: ('A' for Active; 'I' for Inactive)
REMARK    1  A    between atoms: C1_2  and  C2_3 
REMARK    2  A    between atoms: C1_2  and  C14_22 
REMARK    3  A    between atoms: C5_6  and  N1_7 
REMARK       I    between atoms: N1_7  and  C6_9 
REMARK    4  A    between atoms: C6_9  and  C7_11 
ROOT
HETATM    1  N1  UNL     1       1.287  -9.864  20.140  1.00  0.00    -0.318 N 
ATOM      2  H1  UNL     1       2.165  -9.650  20.612  1.00  0.00     0.169 HD
HETATM    3  C6  UNL     1       0.241 -10.492  20.854  1.00  0.00     0.265 C 
HETATM    4  O2  UNL     1      -0.868 -10.782  20.325  1.00  0.00    -0.269 OA
ENDROOT
BRANCH   1   5
HETATM    5  C5  UNL     1       1.120  -9.523  18.745  1.00  0.00     0.077 A 
HETATM    6  C4  UNL     1       0.606  -8.371  18.224  1.00  0.00     0.039 A 
HETATM    7  C3  UNL     1       0.547  -8.270  16.887  1.00  0.00     0.026 A 
HETATM    8  C2  UNL     1       1.009  -9.335  16.158  1.00  0.00     0.062 A 
HETATM    9  S1  UNL     1       1.508 -10.435  17.356  1.00  0.00    -0.069 SA
BRANCH   8  10
HETATM   10  C1  UNL     1       1.047  -9.458  14.681  1.00  0.00     0.272 C 
HETATM   11  O1  UNL     1      -0.041  -9.373  14.075  1.00  0.00    -0.282 OA
BRANCH  10  12
HETATM   12  C14 UNL     1       2.306  -9.669  13.971  1.00  0.00     0.456 C 
HETATM   13  F2  UNL     1       3.375  -9.043  14.574  1.00  0.00    -0.163 F 
HETATM   14  F3  UNL     1       2.615 -11.026  13.906  1.00  0.00    -0.163 F 
HETATM   15  F4  UNL     1       2.210  -9.131  12.686  1.00  0.00    -0.163 F 
ENDBRANCH  10  12
ENDBRANCH   8  10
ENDBRANCH   1   5
BRANCH   3  16
HETATM   16  C7  UNL     1       0.447 -10.822  22.263  1.00  0.00     0.216 C 
HETATM   17  F1  UNL     1      -0.611 -10.533  23.070  1.00  0.00    -0.230 F 
HETATM   18  C8  UNL     1       1.662 -10.092  22.848  1.00  0.00     0.086 C 
HETATM   19  C9  UNL     1       1.913 -10.943  24.080  1.00  0.00     0.279 C 
HETATM   20  N2  UNL     1       1.484 -12.270  23.775  1.00  0.00     0.119 N 
HETATM   21  C10 UNL     1       0.612 -12.820  24.782  1.00  0.00     0.441 C 
HETATM   22  C13 UNL     1       0.856 -12.261  22.482  1.00  0.00     0.276 C 
HETATM   23  O3  UNL     1       0.294 -14.128  24.510  1.00  0.00    -0.362 OA
HETATM   24  C11 UNL     1      -0.294 -14.339  23.288  1.00  0.00     0.172 C 
HETATM   25  C12 UNL     1      -0.362 -13.129  22.412  1.00  0.00     0.066 C 
ENDBRANCH   3  16
TORSDOF 4
ENDMDL
