MODEL 1
REMARK VINA RESULT: -6.511862923      0.000      0.000
REMARK  7 active torsions:
REMARK  status: ('A' for Active; 'I' for Inactive)
REMARK    1  A    between atoms: O1_2  and  C2_3 
REMARK    2  A    between atoms: C2_3  and  N1_5 
REMARK    3  A    between atoms: N1_5  and  C3_7 
REMARK    4  A    between atoms: C3_7  and  C4_8 
REMARK    5  A    between atoms: C3_7  and  N2_16 
REMARK    6  A    between atoms: C4_8  and  C5_10 
REMARK    7  A    between atoms: C5_10  and  C6_13 
ROOT
HETATM    1  C3  UNL     1     -36.550 -35.719  23.993  1.00  0.00     0.402 C 
ENDROOT
BRANCH   1   2
HETATM    2  N1  UNL     1     -37.876 -35.987  24.633  1.00  0.00    -0.325 N 
ATOM      3  H1  UNL     1     -38.398 -36.816  24.344  1.00  0.00     0.165 HD
BRANCH   2   4
HETATM    4  C2  UNL     1     -38.432 -35.153  25.609  1.00  0.00     0.211 C 
HETATM    5  S1  UNL     1     -39.412 -33.930  25.203  1.00  0.00    -0.033 SA
BRANCH   4   6
HETATM    6  O1  UNL     1     -38.148 -35.371  26.943  1.00  0.00    -0.332 OA
HETATM    7  C1  UNL     1     -39.018 -34.957  27.985  1.00  0.00     0.212 C 
ENDBRANCH   4   6
ENDBRANCH   2   4
ENDBRANCH   1   2
BRANCH   1   8
HETATM    8  C4  UNL     1     -35.654 -36.781  24.404  1.00  0.00     0.256 C 
HETATM    9  O2  UNL     1     -36.197 -37.666  25.140  1.00  0.00    -0.287 OA
BRANCH   8  10
HETATM   10  C5  UNL     1     -34.223 -36.985  24.108  1.00  0.00     0.364 C 
HETATM   11  F1  UNL     1     -33.403 -35.898  24.213  1.00  0.00    -0.191 F 
HETATM   12  F2  UNL     1     -33.695 -37.985  24.941  1.00  0.00    -0.191 F 
BRANCH  10  13
HETATM   13  C6  UNL     1     -34.023 -37.506  22.684  1.00  0.00     0.432 C 
HETATM   14  F3  UNL     1     -34.018 -36.490  21.768  1.00  0.00    -0.207 F 
HETATM   15  F4  UNL     1     -32.846 -38.221  22.594  1.00  0.00    -0.207 F 
ENDBRANCH  10  13
ENDBRANCH   8  10
ENDBRANCH   1   8
BRANCH   1  16
HETATM   16  N2  UNL     1     -36.893 -35.564  22.608  1.00  0.00     0.131 N 
HETATM   17  C7  UNL     1     -37.495 -34.389  22.237  1.00  0.00     0.289 C 
HETATM   18  C8  UNL     1     -38.305 -34.584  20.930  1.00  0.00     0.141 C 
HETATM   19  S2  UNL     1     -39.084 -36.126  21.361  1.00  0.00     0.045 S 
HETATM   20  O3  UNL     1     -40.319 -35.763  22.443  1.00  0.00    -0.256 OA
HETATM   21  C9  UNL     1     -37.714 -36.751  22.315  1.00  0.00     0.383 C 
ENDBRANCH   1  16
TORSDOF 7
ENDMDL
MODEL 2
REMARK VINA RESULT: -6.293344825      4.139      5.184
REMARK  7 active torsions:
REMARK  status: ('A' for Active; 'I' for Inactive)
REMARK    1  A    between atoms: O1_2  and  C2_3 
REMARK    2  A    between atoms: C2_3  and  N1_5 
REMARK    3  A    between atoms: N1_5  and  C3_7 
REMARK    4  A    between atoms: C3_7  and  C4_8 
REMARK    5  A    between atoms: C3_7  and  N2_16 
REMARK    6  A    between atoms: C4_8  and  C5_10 
REMARK    7  A    between atoms: C5_10  and  C6_13 
ROOT
HETATM    1  C3  UNL     1     -38.704 -34.511  24.221  1.00  0.00     0.402 C 
ENDROOT
BRANCH   1   2
HETATM    2  N1  UNL     1     -40.062 -34.802  23.665  1.00  0.00    -0.325 N 
ATOM      3  H1  UNL     1     -40.298 -35.769  23.437  1.00  0.00     0.165 HD
BRANCH   2   4
HETATM    4  C2  UNL     1     -41.023 -33.810  23.444  1.00  0.00     0.211 C 
HETATM    5  S1  UNL     1     -42.526 -33.956  24.030  1.00  0.00    -0.033 SA
BRANCH   4   6
HETATM    6  O1  UNL     1     -40.694 -32.683  22.717  1.00  0.00    -0.332 OA
HETATM    7  C1  UNL     1     -41.340 -32.347  21.498  1.00  0.00     0.212 C 
ENDBRANCH   4   6
ENDBRANCH   2   4
ENDBRANCH   1   2
BRANCH   1   8
HETATM    8  C4  UNL     1     -38.676 -35.022  25.576  1.00  0.00     0.256 C 
HETATM    9  O2  UNL     1     -37.645 -35.716  25.850  1.00  0.00    -0.287 OA
BRANCH   8  10
HETATM   10  C5  UNL     1     -39.653 -34.869  26.670  1.00  0.00     0.364 C 
HETATM   11  F1  UNL     1     -40.230 -33.641  26.824  1.00  0.00    -0.191 F 
HETATM   12  F2  UNL     1     -40.694 -35.801  26.524  1.00  0.00    -0.191 F 
BRANCH  10  13
HETATM   13  C6  UNL     1     -39.018 -35.189  28.025  1.00  0.00     0.432 C 
HETATM   14  F3  UNL     1     -38.559 -34.063  28.649  1.00  0.00    -0.207 F 
HETATM   15  F4  UNL     1     -39.925 -35.838  28.839  1.00  0.00    -0.207 F 
ENDBRANCH  10  13
ENDBRANCH   8  10
ENDBRANCH   1   8
BRANCH   1  16
HETATM   16  N2  UNL     1     -37.830 -35.064  23.226  1.00  0.00     0.131 N 
HETATM   17  C7  UNL     1     -37.329 -34.205  22.282  1.00  0.00     0.289 C 
HETATM   18  C8  UNL     1     -36.920 -34.983  21.004  1.00  0.00     0.141 C 
HETATM   19  S2  UNL     1     -38.362 -36.021  20.888  1.00  0.00     0.045 S 
HETATM   20  O3  UNL     1     -39.605 -35.062  20.286  1.00  0.00    -0.256 OA
HETATM   21  C9  UNL     1     -38.613 -36.167  22.646  1.00  0.00     0.383 C 
ENDBRANCH   1  16
TORSDOF 7
ENDMDL
MODEL 3
REMARK VINA RESULT: -6.176523088      1.415      2.022
REMARK  7 active torsions:
REMARK  status: ('A' for Active; 'I' for Inactive)
REMARK    1  A    between atoms: O1_2  and  C2_3 
REMARK    2  A    between atoms: C2_3  and  N1_5 
REMARK    3  A    between atoms: N1_5  and  C3_7 
REMARK    4  A    between atoms: C3_7  and  C4_8 
REMARK    5  A    between atoms: C3_7  and  N2_16 
REMARK    6  A    between atoms: C4_8  and  C5_10 
REMARK    7  A    between atoms: C5_10  and  C6_13 
ROOT
HETATM    1  C3  UNL     1     -37.153 -35.430  22.992  1.00  0.00     0.402 C 
ENDROOT
BRANCH   1   2
HETATM    2  N1  UNL     1     -38.313 -35.667  23.906  1.00  0.00    -0.325 N 
ATOM      3  H1  UNL     1     -38.715 -36.604  23.951  1.00  0.00     0.165 HD
BRANCH   2   4
HETATM    4  C2  UNL     1     -38.872 -34.661  24.703  1.00  0.00     0.211 C 
HETATM    5  S1  UNL     1     -38.914 -34.799  26.315  1.00  0.00    -0.033 SA
BRANCH   4   6
HETATM    6  O1  UNL     1     -39.398 -33.529  24.112  1.00  0.00    -0.332 OA
HETATM    7  C1  UNL     1     -40.739 -33.463  23.651  1.00  0.00     0.212 C 
ENDBRANCH   4   6
ENDBRANCH   2   4
ENDBRANCH   1   2
BRANCH   1   8
HETATM    8  C4  UNL     1     -36.019 -36.143  23.544  1.00  0.00     0.256 C 
HETATM    9  O2  UNL     1     -36.251 -36.700  24.666  1.00  0.00    -0.287 OA
BRANCH   8  10
HETATM   10  C5  UNL     1     -34.653 -36.312  23.016  1.00  0.00     0.364 C 
HETATM   11  F1  UNL     1     -34.468 -36.087  21.682  1.00  0.00    -0.191 F 
HETATM   12  F2  UNL     1     -33.760 -35.476  23.706  1.00  0.00    -0.191 F 
BRANCH  10  13
HETATM   13  C6  UNL     1     -34.139 -37.732  23.261  1.00  0.00     0.432 C 
HETATM   14  F3  UNL     1     -33.173 -38.085  22.360  1.00  0.00    -0.207 F 
HETATM   15  F4  UNL     1     -33.646 -37.850  24.545  1.00  0.00    -0.207 F 
ENDBRANCH  10  13
ENDBRANCH   8  10
ENDBRANCH   1   8
BRANCH   1  16
HETATM   16  N2  UNL     1     -37.680 -35.802  21.710  1.00  0.00     0.131 N 
HETATM   17  C7  UNL     1     -38.563 -34.935  21.117  1.00  0.00     0.289 C 
HETATM   18  C8  UNL     1     -39.457 -35.686  20.097  1.00  0.00     0.141 C 
HETATM   19  S2  UNL     1     -39.825 -37.107  21.105  1.00  0.00     0.045 S 
HETATM   20  O3  UNL     1     -40.975 -36.621  22.231  1.00  0.00    -0.256 OA
HETATM   21  C9  UNL     1     -38.250 -37.139  21.940  1.00  0.00     0.383 C 
ENDBRANCH   1  16
TORSDOF 7
ENDMDL
MODEL 4
REMARK VINA RESULT: -6.154738643      3.867      5.296
REMARK  7 active torsions:
REMARK  status: ('A' for Active; 'I' for Inactive)
REMARK    1  A    between atoms: O1_2  and  C2_3 
REMARK    2  A    between atoms: C2_3  and  N1_5 
REMARK    3  A    between atoms: N1_5  and  C3_7 
REMARK    4  A    between atoms: C3_7  and  C4_8 
REMARK    5  A    between atoms: C3_7  and  N2_16 
REMARK    6  A    between atoms: C4_8  and  C5_10 
REMARK    7  A    between atoms: C5_10  and  C6_13 
ROOT
HETATM    1  C3  UNL     1     -38.807 -35.430  23.855  1.00  0.00     0.402 C 
ENDROOT
BRANCH   1   2
HETATM    2  N1  UNL     1     -37.372 -35.168  23.520  1.00  0.00    -0.325 N 
ATOM      3  H1  UNL     1     -37.110 -34.236  23.198  1.00  0.00     0.165 HD
BRANCH   2   4
HETATM    4  C2  UNL     1     -36.374 -36.142  23.631  1.00  0.00     0.211 C 
HETATM    5  S1  UNL     1     -36.305 -37.125  24.915  1.00  0.00    -0.033 SA
BRANCH   4   6
HETATM    6  O1  UNL     1     -35.430 -36.276  22.631  1.00  0.00    -0.332 OA
HETATM    7  C1  UNL     1     -34.123 -36.769  22.880  1.00  0.00     0.212 C 
ENDBRANCH   4   6
ENDBRANCH   2   4
ENDBRANCH   1   2
BRANCH   1   8
HETATM    8  C4  UNL     1     -39.187 -34.486  24.886  1.00  0.00     0.256 C 
HETATM    9  O2  UNL     1     -38.701 -33.319  24.728  1.00  0.00    -0.287 OA
BRANCH   8  10
HETATM   10  C5  UNL     1     -40.033 -34.671  26.079  1.00  0.00     0.364 C 
HETATM   11  F1  UNL     1     -40.972 -33.713  26.332  1.00  0.00    -0.191 F 
HETATM   12  F2  UNL     1     -40.704 -35.902  26.011  1.00  0.00    -0.191 F 
BRANCH  10  13
HETATM   13  C6  UNL     1     -39.184 -34.750  27.350  1.00  0.00     0.432 C 
HETATM   14  F3  UNL     1     -39.844 -35.389  28.362  1.00  0.00    -0.207 F 
HETATM   15  F4  UNL     1     -37.990 -35.393  27.091  1.00  0.00    -0.207 F 
ENDBRANCH  10  13
ENDBRANCH   8  10
ENDBRANCH   1   8
BRANCH   1  16
HETATM   16  N2  UNL     1     -39.444 -35.386  22.570  1.00  0.00     0.131 N 
HETATM   17  C7  UNL     1     -38.881 -34.577  21.616  1.00  0.00     0.289 C 
HETATM   18  C8  UNL     1     -39.935 -34.181  20.551  1.00  0.00     0.141 C 
HETATM   19  S2  UNL     1     -41.267 -33.795  21.668  1.00  0.00     0.045 S 
HETATM   20  O3  UNL     1     -40.921 -32.293  22.340  1.00  0.00    -0.256 OA
HETATM   21  C9  UNL     1     -40.837 -35.027  22.882  1.00  0.00     0.383 C 
ENDBRANCH   1  16
TORSDOF 7
ENDMDL
MODEL 5
REMARK VINA RESULT: -6.130191280      2.016      3.907
REMARK  7 active torsions:
REMARK  status: ('A' for Active; 'I' for Inactive)
REMARK    1  A    between atoms: O1_2  and  C2_3 
REMARK    2  A    between atoms: C2_3  and  N1_5 
REMARK    3  A    between atoms: N1_5  and  C3_7 
REMARK    4  A    between atoms: C3_7  and  C4_8 
REMARK    5  A    between atoms: C3_7  and  N2_16 
REMARK    6  A    between atoms: C4_8  and  C5_10 
REMARK    7  A    between atoms: C5_10  and  C6_13 
ROOT
HETATM    1  C3  UNL     1     -38.166 -35.603  23.636  1.00  0.00     0.402 C 
ENDROOT
BRANCH   1   2
HETATM    2  N1  UNL     1     -38.739 -34.948  22.419  1.00  0.00    -0.325 N 
ATOM      3  H1  UNL     1     -38.631 -33.938  22.313  1.00  0.00     0.165 HD
BRANCH   2   4
HETATM    4  C2  UNL     1     -39.415 -35.656  21.419  1.00  0.00     0.211 C 
HETATM    5  S1  UNL     1     -40.317 -34.887  20.316  1.00  0.00    -0.033 SA
BRANCH   4   6
HETATM    6  O1  UNL     1     -39.316 -37.032  21.365  1.00  0.00    -0.332 OA
HETATM    7  C1  UNL     1     -40.447 -37.870  21.177  1.00  0.00     0.212 C 
ENDBRANCH   4   6
ENDBRANCH   2   4
ENDBRANCH   1   2
BRANCH   1   8
HETATM    8  C4  UNL     1     -36.766 -35.859  23.366  1.00  0.00     0.256 C 
HETATM    9  O2  UNL     1     -36.270 -35.129  22.448  1.00  0.00    -0.287 OA
BRANCH   8  10
HETATM   10  C5  UNL     1     -35.841 -36.831  23.980  1.00  0.00     0.364 C 
HETATM   11  F1  UNL     1     -35.696 -36.782  25.336  1.00  0.00    -0.191 F 
HETATM   12  F2  UNL     1     -36.227 -38.140  23.650  1.00  0.00    -0.191 F 
BRANCH  10  13
HETATM   13  C6  UNL     1     -34.427 -36.677  23.416  1.00  0.00     0.432 C 
HETATM   14  F3  UNL     1     -33.595 -36.047  24.299  1.00  0.00    -0.207 F 
HETATM   15  F4  UNL     1     -33.906 -37.911  23.083  1.00  0.00    -0.207 F 
ENDBRANCH  10  13
ENDBRANCH   8  10
ENDBRANCH   1   8
BRANCH   1  16
HETATM   16  N2  UNL     1     -38.543 -34.703  24.687  1.00  0.00     0.131 N 
HETATM   17  C7  UNL     1     -38.468 -35.172  25.974  1.00  0.00     0.289 C 
HETATM   18  C8  UNL     1     -39.413 -34.364  26.900  1.00  0.00     0.141 C 
HETATM   19  S2  UNL     1     -40.832 -34.334  25.825  1.00  0.00     0.045 S 
HETATM   20  O3  UNL     1     -41.539 -35.857  25.908  1.00  0.00    -0.256 OA
HETATM   21  C9  UNL     1     -39.897 -34.269  24.308  1.00  0.00     0.383 C 
ENDBRANCH   1  16
TORSDOF 7
ENDMDL
