MODEL 1
REMARK VINA RESULT: -4.882433057      0.000      0.000
REMARK  10 active torsions:
REMARK  status: ('A' for Active; 'I' for Inactive)
REMARK    1  A    between atoms: N1_2  and  C2_4 
REMARK    2  A    between atoms: C2_4  and  N2_6 
REMARK    3  A    between atoms: N3_8  and  C3_10 
REMARK    4  A    between atoms: C9_19  and  C10_20 
REMARK    5  A    between atoms: C10_20  and  C11_22 
REMARK    6  A    between atoms: C11_22  and  N5_23 
REMARK    7  A    between atoms: N5_23  and  C12_24 
REMARK    8  A    between atoms: N5_23  and  C16_29 
REMARK    9  A    between atoms: C12_24  and  C13_25 
REMARK   10  A    between atoms: C13_25  and  N6_26 
ROOT
HETATM    1  C3  UNL     1     -10.670 -32.170  15.839  1.00  0.00     0.075 A 
HETATM    2  C4  UNL     1     -11.559 -31.549  16.681  1.00  0.00    -0.011 A 
HETATM    3  C5  UNL     1     -11.866 -32.134  18.000  1.00  0.00     0.052 C 
HETATM    4  C6  UNL     1     -12.167 -30.375  16.319  1.00  0.00     0.016 A 
HETATM    5  C7  UNL     1     -13.146 -29.676  17.221  1.00  0.00     0.069 C 
HETATM    6  N4  UNL     1     -11.867 -29.853  15.114  1.00  0.00    -0.326 N 
ATOM      7  H4  UNL     1     -12.314 -28.981  14.830  1.00  0.00     0.169 HD
HETATM    8  C8  UNL     1     -11.005 -30.438  14.278  1.00  0.00     0.262 A 
HETATM    9  O1  UNL     1     -10.767 -29.905  13.175  1.00  0.00    -0.267 OA
HETATM   10  C9  UNL     1     -10.362 -31.616  14.583  1.00  0.00     0.112 A 
ENDROOT
BRANCH  10  11
HETATM   11  C10 UNL     1      -9.421 -32.268  13.686  1.00  0.00     0.205 C 
HETATM   12  O2  UNL     1      -8.199 -32.061  13.888  1.00  0.00    -0.286 OA
BRANCH  11  13
HETATM   13  C11 UNL     1      -9.804 -33.138  12.577  1.00  0.00     0.142 C 
BRANCH  13  14
HETATM   14  N5  UNL     1     -10.161 -34.449  12.890  1.00  0.00    -0.380 N 
BRANCH  14  15
HETATM   15  C12 UNL     1      -9.182 -35.350  13.336  1.00  0.00     0.153 C 
BRANCH  15  16
HETATM   16  C13 UNL     1      -8.620 -36.228  12.210  1.00  0.00     0.291 C 
BRANCH  16  17
HETATM   17  N6  UNL     1      -7.198 -36.125  12.107  1.00  0.00     0.081 N 
HETATM   18  C14 UNL     1      -6.510 -37.370  12.136  1.00  0.00     0.309 C 
HETATM   19  C15 UNL     1      -6.615 -35.096  12.904  1.00  0.00     0.309 C 
ENDBRANCH  16  17
ENDBRANCH  15  16
ENDBRANCH  14  15
BRANCH  14  20
HETATM   20  C16 UNL     1     -11.505 -34.857  12.835  1.00  0.00     0.084 A 
HETATM   21  C17 UNL     1     -12.628 -33.950  13.251  1.00  0.00     0.027 A 
HETATM   22  C18 UNL     1     -12.282 -35.211  14.062  1.00  0.00     0.027 A 
ENDBRANCH  14  20
ENDBRANCH  13  14
ENDBRANCH  11  13
ENDBRANCH  10  11
BRANCH   1  23
HETATM   23  N3  UNL     1     -10.002 -33.377  16.145  1.00  0.00    -0.297 N 
HETATM   24  N2  UNL     1      -8.935 -33.496  16.714  1.00  0.00    -0.276 N 
ATOM     25  H2  UNL     1      -8.666 -34.474  16.815  1.00  0.00     0.189 HD
ATOM     26  H3  UNL     1     -10.465 -34.239  15.859  1.00  0.00     0.187 HD
BRANCH  24  27
HETATM   27  C2  UNL     1      -7.996 -32.647  17.255  1.00  0.00     0.186 C 
HETATM   28  S1  UNL     1      -8.222 -32.086  18.789  1.00  0.00    -0.040 SA
BRANCH  27  29
HETATM   29  N1  UNL     1      -6.824 -32.196  16.601  1.00  0.00    -0.370 N 
HETATM   30  C1  UNL     1      -5.588 -31.887  17.283  1.00  0.00     0.148 C 
ATOM     31  H1  UNL     1      -6.854 -32.084  15.588  1.00  0.00     0.161 HD
ENDBRANCH  27  29
ENDBRANCH  24  27
ENDBRANCH   1  23
TORSDOF 10
ENDMDL
MODEL 2
REMARK VINA RESULT: -4.850705607      1.360      3.206
REMARK  10 active torsions:
REMARK  status: ('A' for Active; 'I' for Inactive)
REMARK    1  A    between atoms: N1_2  and  C2_4 
REMARK    2  A    between atoms: C2_4  and  N2_6 
REMARK    3  A    between atoms: N3_8  and  C3_10 
REMARK    4  A    between atoms: C9_19  and  C10_20 
REMARK    5  A    between atoms: C10_20  and  C11_22 
REMARK    6  A    between atoms: C11_22  and  N5_23 
REMARK    7  A    between atoms: N5_23  and  C12_24 
REMARK    8  A    between atoms: N5_23  and  C16_29 
REMARK    9  A    between atoms: C12_24  and  C13_25 
REMARK   10  A    between atoms: C13_25  and  N6_26 
ROOT
HETATM    1  C3  UNL     1     -11.312 -31.758  15.623  1.00  0.00     0.075 A 
HETATM    2  C4  UNL     1     -12.144 -31.023  16.431  1.00  0.00    -0.011 A 
HETATM    3  C5  UNL     1     -12.600 -31.570  17.723  1.00  0.00     0.052 C 
HETATM    4  C6  UNL     1     -12.558 -29.770  16.059  1.00  0.00     0.016 A 
HETATM    5  C7  UNL     1     -13.471 -28.945  16.923  1.00  0.00     0.069 C 
HETATM    6  N4  UNL     1     -12.124 -29.285  14.879  1.00  0.00    -0.326 N 
ATOM      7  H4  UNL     1     -12.425 -28.355  14.589  1.00  0.00     0.169 HD
HETATM    8  C8  UNL     1     -11.313 -29.981  14.077  1.00  0.00     0.262 A 
HETATM    9  O1  UNL     1     -10.944 -29.477  12.997  1.00  0.00    -0.267 OA
HETATM   10  C9  UNL     1     -10.863 -31.243  14.393  1.00  0.00     0.112 A 
ENDROOT
BRANCH  10  11
HETATM   11  C10 UNL     1      -9.981 -32.015  13.533  1.00  0.00     0.205 C 
HETATM   12  O2  UNL     1      -8.757 -32.013  13.816  1.00  0.00    -0.286 OA
BRANCH  11  13
HETATM   13  C11 UNL     1     -10.425 -32.785  12.373  1.00  0.00     0.142 C 
BRANCH  13  14
HETATM   14  N5  UNL     1     -11.022 -34.020  12.619  1.00  0.00    -0.380 N 
BRANCH  14  15
HETATM   15  C12 UNL     1     -12.375 -34.079  12.985  1.00  0.00     0.153 C 
BRANCH  15  16
HETATM   16  C13 UNL     1     -12.693 -35.263  13.908  1.00  0.00     0.291 C 
BRANCH  16  17
HETATM   17  N6  UNL     1     -13.945 -35.101  14.579  1.00  0.00     0.081 N 
HETATM   18  C14 UNL     1     -13.839 -34.754  15.955  1.00  0.00     0.309 C 
HETATM   19  C15 UNL     1     -14.914 -36.106  14.285  1.00  0.00     0.309 C 
ENDBRANCH  16  17
ENDBRANCH  15  16
ENDBRANCH  14  15
BRANCH  14  20
HETATM   20  C16 UNL     1     -10.302 -35.213  12.429  1.00  0.00     0.084 A 
HETATM   21  C17 UNL     1      -8.826 -35.214  12.148  1.00  0.00     0.027 A 
HETATM   22  C18 UNL     1      -9.840 -35.659  11.079  1.00  0.00     0.027 A 
ENDBRANCH  14  20
ENDBRANCH  13  14
ENDBRANCH  11  13
ENDBRANCH  10  11
BRANCH   1  23
HETATM   23  N3  UNL     1     -10.842 -33.052  15.941  1.00  0.00    -0.297 N 
HETATM   24  N2  UNL     1      -9.836 -33.330  16.563  1.00  0.00    -0.276 N 
ATOM     25  H2  UNL     1      -9.715 -34.338  16.661  1.00  0.00     0.189 HD
ATOM     26  H3  UNL     1     -11.407 -33.835  15.615  1.00  0.00     0.187 HD
BRANCH  24  27
HETATM   27  C2  UNL     1      -8.817 -32.631  17.170  1.00  0.00     0.186 C 
HETATM   28  S1  UNL     1      -9.014 -32.128  18.728  1.00  0.00    -0.040 SA
BRANCH  27  29
HETATM   29  N1  UNL     1      -7.581 -32.293  16.566  1.00  0.00    -0.370 N 
HETATM   30  C1  UNL     1      -6.322 -32.247  17.274  1.00  0.00     0.148 C 
ATOM     31  H1  UNL     1      -7.581 -32.067  15.571  1.00  0.00     0.161 HD
ENDBRANCH  27  29
ENDBRANCH  24  27
ENDBRANCH   1  23
TORSDOF 10
ENDMDL
MODEL 3
REMARK VINA RESULT: -4.801067694      4.326      7.272
REMARK  10 active torsions:
REMARK  status: ('A' for Active; 'I' for Inactive)
REMARK    1  A    between atoms: N1_2  and  C2_4 
REMARK    2  A    between atoms: C2_4  and  N2_6 
REMARK    3  A    between atoms: N3_8  and  C3_10 
REMARK    4  A    between atoms: C9_19  and  C10_20 
REMARK    5  A    between atoms: C10_20  and  C11_22 
REMARK    6  A    between atoms: C11_22  and  N5_23 
REMARK    7  A    between atoms: N5_23  and  C12_24 
REMARK    8  A    between atoms: N5_23  and  C16_29 
REMARK    9  A    between atoms: C12_24  and  C13_25 
REMARK   10  A    between atoms: C13_25  and  N6_26 
ROOT
HETATM    1  C3  UNL     1      -4.798 -31.313  20.943  1.00  0.00     0.075 A 
HETATM    2  C4  UNL     1      -3.809 -31.083  21.868  1.00  0.00    -0.011 A 
HETATM    3  C5  UNL     1      -3.873 -31.719  23.198  1.00  0.00     0.052 C 
HETATM    4  C6  UNL     1      -2.745 -30.271  21.572  1.00  0.00     0.016 A 
HETATM    5  C7  UNL     1      -1.650 -30.000  22.567  1.00  0.00     0.069 C 
HETATM    6  N4  UNL     1      -2.701 -29.707  20.349  1.00  0.00    -0.326 N 
ATOM      7  H4  UNL     1      -1.917 -29.099  20.115  1.00  0.00     0.169 HD
HETATM    8  C8  UNL     1      -3.651 -29.916  19.432  1.00  0.00     0.262 A 
HETATM    9  O1  UNL     1      -3.554 -29.366  18.317  1.00  0.00    -0.267 OA
HETATM   10  C9  UNL     1      -4.743 -30.720  19.668  1.00  0.00     0.112 A 
ENDROOT
BRANCH  10  11
HETATM   11  C10 UNL     1      -5.786 -30.960  18.683  1.00  0.00     0.205 C 
HETATM   12  O2  UNL     1      -6.905 -30.432  18.892  1.00  0.00    -0.286 OA
BRANCH  11  13
HETATM   13  C11 UNL     1      -5.612 -31.769  17.479  1.00  0.00     0.142 C 
BRANCH  13  14
HETATM   14  N5  UNL     1      -6.545 -32.779  17.249  1.00  0.00    -0.380 N 
BRANCH  14  15
HETATM   15  C12 UNL     1      -7.370 -32.721  16.116  1.00  0.00     0.153 C 
BRANCH  15  16
HETATM   16  C13 UNL     1      -6.579 -32.693  14.801  1.00  0.00     0.291 C 
BRANCH  16  17
HETATM   17  N6  UNL     1      -7.399 -33.004  13.673  1.00  0.00     0.081 N 
HETATM   18  C14 UNL     1      -8.733 -32.514  13.758  1.00  0.00     0.309 C 
HETATM   19  C15 UNL     1      -7.278 -34.343  13.199  1.00  0.00     0.309 C 
ENDBRANCH  16  17
ENDBRANCH  15  16
ENDBRANCH  14  15
BRANCH  14  20
HETATM   20  C16 UNL     1      -6.616 -33.895  18.102  1.00  0.00     0.084 A 
HETATM   21  C17 UNL     1      -7.312 -35.162  17.695  1.00  0.00     0.027 A 
HETATM   22  C18 UNL     1      -7.872 -34.272  18.819  1.00  0.00     0.027 A 
ENDBRANCH  14  20
ENDBRANCH  13  14
ENDBRANCH  11  13
ENDBRANCH  10  11
BRANCH   1  23
HETATM   23  N3  UNL     1      -5.919 -32.140  21.175  1.00  0.00    -0.297 N 
HETATM   24  N2  UNL     1      -6.947 -31.833  21.746  1.00  0.00    -0.276 N 
ATOM     25  H2  UNL     1      -7.607 -32.609  21.785  1.00  0.00     0.189 HD
ATOM     26  H3  UNL     1      -5.860 -33.096  20.825  1.00  0.00     0.187 HD
BRANCH  24  27
HETATM   27  C2  UNL     1      -7.447 -30.705  22.355  1.00  0.00     0.186 C 
HETATM   28  S1  UNL     1      -7.821 -30.765  23.960  1.00  0.00    -0.040 SA
BRANCH  27  29
HETATM   29  N1  UNL     1      -7.680 -29.463  21.715  1.00  0.00    -0.370 N 
HETATM   30  C1  UNL     1      -6.802 -28.320  21.828  1.00  0.00     0.148 C 
ATOM     31  H1  UNL     1      -8.516 -29.369  21.140  1.00  0.00     0.161 HD
ENDBRANCH  27  29
ENDBRANCH  24  27
ENDBRANCH   1  23
TORSDOF 10
ENDMDL
MODEL 4
REMARK VINA RESULT: -4.723663984      2.011      5.357
REMARK  10 active torsions:
REMARK  status: ('A' for Active; 'I' for Inactive)
REMARK    1  A    between atoms: N1_2  and  C2_4 
REMARK    2  A    between atoms: C2_4  and  N2_6 
REMARK    3  A    between atoms: N3_8  and  C3_10 
REMARK    4  A    between atoms: C9_19  and  C10_20 
REMARK    5  A    between atoms: C10_20  and  C11_22 
REMARK    6  A    between atoms: C11_22  and  N5_23 
REMARK    7  A    between atoms: N5_23  and  C12_24 
REMARK    8  A    between atoms: N5_23  and  C16_29 
REMARK    9  A    between atoms: C12_24  and  C13_25 
REMARK   10  A    between atoms: C13_25  and  N6_26 
ROOT
HETATM    1  C3  UNL     1      -8.273 -34.520  15.937  1.00  0.00     0.075 A 
HETATM    2  C4  UNL     1      -8.048 -35.789  16.410  1.00  0.00    -0.011 A 
HETATM    3  C5  UNL     1      -8.309 -36.111  17.826  1.00  0.00     0.052 C 
HETATM    4  C6  UNL     1      -7.589 -36.778  15.579  1.00  0.00     0.016 A 
HETATM    5  C7  UNL     1      -7.331 -38.175  16.072  1.00  0.00     0.069 C 
HETATM    6  N4  UNL     1      -7.365 -36.465  14.288  1.00  0.00    -0.326 N 
ATOM      7  H4  UNL     1      -7.021 -37.190  13.658  1.00  0.00     0.169 HD
HETATM    8  C8  UNL     1      -7.577 -35.238  13.804  1.00  0.00     0.262 A 
HETATM    9  O1  UNL     1      -7.352 -35.010  12.598  1.00  0.00    -0.267 OA
HETATM   10  C9  UNL     1      -8.038 -34.203  14.586  1.00  0.00     0.112 A 
ENDROOT
BRANCH  10  11
HETATM   11  C10 UNL     1      -8.276 -32.862  14.077  1.00  0.00     0.205 C 
HETATM   12  O2  UNL     1      -7.380 -32.005  14.278  1.00  0.00    -0.286 OA
BRANCH  11  13
HETATM   13  C11 UNL     1      -9.478 -32.455  13.355  1.00  0.00     0.142 C 
BRANCH  13  14
HETATM   14  N5  UNL     1     -10.664 -32.378  14.084  1.00  0.00    -0.380 N 
BRANCH  14  15
HETATM   15  C12 UNL     1     -10.917 -31.256  14.887  1.00  0.00     0.153 C 
BRANCH  15  16
HETATM   16  C13 UNL     1     -12.404 -31.087  15.227  1.00  0.00     0.291 C 
BRANCH  16  17
HETATM   17  N6  UNL     1     -12.861 -29.753  14.995  1.00  0.00     0.081 N 
HETATM   18  C14 UNL     1     -12.019 -28.978  14.147  1.00  0.00     0.309 C 
HETATM   19  C15 UNL     1     -13.334 -29.074  16.156  1.00  0.00     0.309 C 
ENDBRANCH  16  17
ENDBRANCH  15  16
ENDBRANCH  14  15
BRANCH  14  20
HETATM   20  C16 UNL     1     -11.644 -33.380  13.963  1.00  0.00     0.084 A 
HETATM   21  C17 UNL     1     -11.416 -34.619  13.145  1.00  0.00     0.027 A 
HETATM   22  C18 UNL     1     -12.448 -33.561  12.716  1.00  0.00     0.027 A 
ENDBRANCH  14  20
ENDBRANCH  13  14
ENDBRANCH  11  13
ENDBRANCH  10  11
BRANCH   1  23
HETATM   23  N3  UNL     1      -8.750 -33.453  16.731  1.00  0.00    -0.297 N 
HETATM   24  N2  UNL     1      -8.086 -32.694  17.409  1.00  0.00    -0.276 N 
ATOM     25  H2  UNL     1      -8.666 -32.007  17.890  1.00  0.00     0.189 HD
ATOM     26  H3  UNL     1      -9.759 -33.305  16.736  1.00  0.00     0.187 HD
BRANCH  24  27
HETATM   27  C2  UNL     1      -6.750 -32.525  17.692  1.00  0.00     0.186 C 
HETATM   28  S1  UNL     1      -6.069 -33.431  18.890  1.00  0.00    -0.040 SA
BRANCH  27  29
HETATM   29  N1  UNL     1      -5.880 -31.620  17.035  1.00  0.00    -0.370 N 
HETATM   30  C1  UNL     1      -5.106 -30.607  17.716  1.00  0.00     0.148 C 
ATOM     31  H1  UNL     1      -5.796 -31.687  16.021  1.00  0.00     0.161 HD
ENDBRANCH  27  29
ENDBRANCH  24  27
ENDBRANCH   1  23
TORSDOF 10
ENDMDL
MODEL 5
REMARK VINA RESULT: -4.719784708      2.104      4.380
REMARK  10 active torsions:
REMARK  status: ('A' for Active; 'I' for Inactive)
REMARK    1  A    between atoms: N1_2  and  C2_4 
REMARK    2  A    between atoms: C2_4  and  N2_6 
REMARK    3  A    between atoms: N3_8  and  C3_10 
REMARK    4  A    between atoms: C9_19  and  C10_20 
REMARK    5  A    between atoms: C10_20  and  C11_22 
REMARK    6  A    between atoms: C11_22  and  N5_23 
REMARK    7  A    between atoms: N5_23  and  C12_24 
REMARK    8  A    between atoms: N5_23  and  C16_29 
REMARK    9  A    between atoms: C12_24  and  C13_25 
REMARK   10  A    between atoms: C13_25  and  N6_26 
ROOT
HETATM    1  C3  UNL     1     -12.217 -31.634  15.032  1.00  0.00     0.075 A 
HETATM    2  C4  UNL     1     -12.372 -30.302  14.736  1.00  0.00    -0.011 A 
HETATM    3  C5  UNL     1     -13.402 -29.502  15.426  1.00  0.00     0.052 C 
HETATM    4  C6  UNL     1     -11.572 -29.691  13.806  1.00  0.00     0.016 A 
HETATM    5  C7  UNL     1     -11.723 -28.235  13.460  1.00  0.00     0.069 C 
HETATM    6  N4  UNL     1     -10.632 -30.437  13.193  1.00  0.00    -0.326 N 
ATOM      7  H4  UNL     1     -10.031 -29.996  12.497  1.00  0.00     0.169 HD
HETATM    8  C8  UNL     1     -10.462 -31.734  13.465  1.00  0.00     0.262 A 
HETATM    9  O1  UNL     1      -9.573 -32.372  12.865  1.00  0.00    -0.267 OA
HETATM   10  C9  UNL     1     -11.232 -32.404  14.388  1.00  0.00     0.112 A 
ENDROOT
BRANCH  10  11
HETATM   11  C10 UNL     1     -11.061 -33.815  14.698  1.00  0.00     0.205 C 
HETATM   12  O2  UNL     1     -11.822 -34.627  14.117  1.00  0.00    -0.286 OA
BRANCH  11  13
HETATM   13  C11 UNL     1     -10.068 -34.339  15.632  1.00  0.00     0.142 C 
BRANCH  13  14
HETATM   14  N5  UNL     1      -8.816 -34.667  15.115  1.00  0.00    -0.380 N 
BRANCH  14  15
HETATM   15  C12 UNL     1      -7.655 -34.282  15.802  1.00  0.00     0.153 C 
BRANCH  15  16
HETATM   16  C13 UNL     1      -7.583 -32.770  16.054  1.00  0.00     0.291 C 
BRANCH  16  17
HETATM   17  N6  UNL     1      -7.030 -32.464  17.336  1.00  0.00     0.081 N 
HETATM   18  C14 UNL     1      -5.798 -31.752  17.293  1.00  0.00     0.309 C 
HETATM   19  C15 UNL     1      -7.074 -33.535  18.276  1.00  0.00     0.309 C 
ENDBRANCH  16  17
ENDBRANCH  15  16
ENDBRANCH  14  15
BRANCH  14  20
HETATM   20  C16 UNL     1      -8.706 -35.447  13.949  1.00  0.00     0.084 A 
HETATM   21  C17 UNL     1      -7.703 -36.559  13.830  1.00  0.00     0.027 A 
HETATM   22  C18 UNL     1      -7.577 -35.280  12.983  1.00  0.00     0.027 A 
ENDBRANCH  14  20
ENDBRANCH  13  14
ENDBRANCH  11  13
ENDBRANCH  10  11
BRANCH   1  23
HETATM   23  N3  UNL     1     -13.000 -32.328  15.981  1.00  0.00    -0.297 N 
HETATM   24  N2  UNL     1     -12.941 -32.227  17.191  1.00  0.00    -0.276 N 
ATOM     25  H2  UNL     1     -13.613 -32.837  17.656  1.00  0.00     0.189 HD
ATOM     26  H3  UNL     1     -13.688 -32.985  15.612  1.00  0.00     0.187 HD
BRANCH  24  27
HETATM   27  C2  UNL     1     -12.199 -31.499  18.092  1.00  0.00     0.186 C 
HETATM   28  S1  UNL     1     -10.639 -31.946  18.385  1.00  0.00    -0.040 SA
BRANCH  27  29
HETATM   29  N1  UNL     1     -12.662 -30.371  18.814  1.00  0.00    -0.370 N 
HETATM   30  C1  UNL     1     -14.052 -30.127  19.126  1.00  0.00     0.148 C 
ATOM     31  H1  UNL     1     -11.973 -29.691  19.133  1.00  0.00     0.161 HD
ENDBRANCH  27  29
ENDBRANCH  24  27
ENDBRANCH   1  23
TORSDOF 10
ENDMDL
