MODEL 1
REMARK VINA RESULT: -6.266151601      0.000      0.000
REMARK  9 active torsions:
REMARK  status: ('A' for Active; 'I' for Inactive)
REMARK    1  A    between atoms: C2_3  and  C3_4 
REMARK    2  A    between atoms: C3_4  and  C4_5 
REMARK    3  A    between atoms: C5_8  and  N3_9 
REMARK    4  A    between atoms: N3_9  and  C6_11 
REMARK    5  A    between atoms: C12_18  and  S2_19 
REMARK    6  A    between atoms: S2_19  and  C13_20 
REMARK    7  A    between atoms: C13_20  and  C14_21 
REMARK       I    between atoms: C14_21  and  N4_23 
REMARK    8  A    between atoms: N4_23  and  C15_25 
REMARK    9  A    between atoms: C15_25  and  C16_26 
ROOT
HETATM    1  N1  UNL     1      -7.179 -35.701  12.774  1.00  0.00    -0.197 NA
HETATM    2  C1  UNL     1      -6.874 -34.628  13.087  1.00  0.00     0.059 C 
HETATM    3  C2  UNL     1      -6.451 -33.272  13.476  1.00  0.00     0.130 C 
ENDROOT
BRANCH   3   4
HETATM    4  C3  UNL     1      -7.429 -32.626  14.434  1.00  0.00     0.073 C 
BRANCH   4   5
HETATM    5  C4  UNL     1      -6.881 -32.792  15.866  1.00  0.00     0.036 A 
HETATM    6  N2  UNL     1      -6.008 -31.909  16.351  1.00  0.00    -0.339 N 
HETATM    7  C5  UNL     1      -5.631 -32.016  17.609  1.00  0.00     0.146 A 
ATOM      8  H2  UNL     1      -5.638 -31.164  15.759  1.00  0.00     0.168 HD
HETATM    9  S1  UNL     1      -6.483 -33.361  18.180  1.00  0.00    -0.045 SA
HETATM   10  C12 UNL     1      -7.340 -33.761  16.691  1.00  0.00     0.067 A 
BRANCH   7  11
HETATM   11  N3  UNL     1      -4.789 -31.307  18.312  1.00  0.00    -0.366 N 
ATOM     12  H3  UNL     1      -4.018 -31.824  18.736  1.00  0.00     0.162 HD
BRANCH  11  13
HETATM   13  C6  UNL     1      -4.810 -29.923  18.559  1.00  0.00     0.083 C 
HETATM   14  C7  UNL     1      -6.079 -29.383  19.168  1.00  0.00     0.025 C 
HETATM   15  C8  UNL     1      -6.424 -30.194  20.397  1.00  0.00     0.002 C 
HETATM   16  C9  UNL     1      -5.356 -29.917  21.435  1.00  0.00     0.000 C 
HETATM   17  C10 UNL     1      -4.200 -29.133  20.883  1.00  0.00     0.002 C 
HETATM   18  C11 UNL     1      -3.693 -29.621  19.558  1.00  0.00     0.025 C 
ENDBRANCH  11  13
ENDBRANCH   7  11
BRANCH  10  19
HETATM   19  S2  UNL     1      -8.362 -35.204  16.505  1.00  0.00    -0.111 SA
BRANCH  19  20
HETATM   20  C13 UNL     1     -10.094 -35.075  16.662  1.00  0.00     0.182 C 
BRANCH  20  21
HETATM   21  C14 UNL     1     -10.671 -34.266  15.498  1.00  0.00     0.227 C 
HETATM   22  O1  UNL     1     -10.341 -34.610  14.365  1.00  0.00    -0.273 OA
HETATM   23  N4  UNL     1     -11.525 -33.203  15.815  1.00  0.00    -0.358 N 
ATOM     24  H4  UNL     1     -11.686 -33.080  16.815  1.00  0.00     0.162 HD
BRANCH  23  25
HETATM   25  C15 UNL     1     -12.204 -32.270  14.996  1.00  0.00     0.154 C 
BRANCH  25  26
HETATM   26  C16 UNL     1     -11.620 -30.927  14.766  1.00  0.00     0.139 C 
HETATM   27  C17 UNL     1     -10.841 -30.750  13.505  1.00  0.00     0.035 C 
HETATM   28  C18 UNL     1     -11.045 -29.273  13.135  1.00  0.00     0.029 C 
HETATM   29  C19 UNL     1     -12.088 -28.858  14.121  1.00  0.00     0.168 C 
HETATM   30  O2  UNL     1     -12.709 -30.022  14.532  1.00  0.00    -0.384 OA
ENDBRANCH  25  26
ENDBRANCH  23  25
ENDBRANCH  20  21
ENDBRANCH  19  20
ENDBRANCH  10  19
ENDBRANCH   4   5
ENDBRANCH   3   4
TORSDOF 9
ENDMDL
MODEL 2
REMARK VINA RESULT: -6.146021167      2.788      6.954
REMARK  9 active torsions:
REMARK  status: ('A' for Active; 'I' for Inactive)
REMARK    1  A    between atoms: C2_3  and  C3_4 
REMARK    2  A    between atoms: C3_4  and  C4_5 
REMARK    3  A    between atoms: C5_8  and  N3_9 
REMARK    4  A    between atoms: N3_9  and  C6_11 
REMARK    5  A    between atoms: C12_18  and  S2_19 
REMARK    6  A    between atoms: S2_19  and  C13_20 
REMARK    7  A    between atoms: C13_20  and  C14_21 
REMARK       I    between atoms: C14_21  and  N4_23 
REMARK    8  A    between atoms: N4_23  and  C15_25 
REMARK    9  A    between atoms: C15_25  and  C16_26 
ROOT
HETATM    1  N1  UNL     1      -5.129 -33.057  13.198  1.00  0.00    -0.197 NA
HETATM    2  C1  UNL     1      -6.128 -33.640  13.261  1.00  0.00     0.059 C 
HETATM    3  C2  UNL     1      -7.410 -34.363  13.312  1.00  0.00     0.130 C 
ENDROOT
BRANCH   3   4
HETATM    4  C3  UNL     1      -7.642 -35.012  14.660  1.00  0.00     0.073 C 
BRANCH   4   5
HETATM    5  C4  UNL     1      -8.356 -33.991  15.570  1.00  0.00     0.036 A 
HETATM    6  N2  UNL     1      -9.278 -33.175  15.058  1.00  0.00    -0.339 N 
HETATM    7  C5  UNL     1      -9.942 -32.381  15.874  1.00  0.00     0.146 A 
ATOM      8  H2  UNL     1      -9.465 -33.164  14.055  1.00  0.00     0.168 HD
HETATM    9  S1  UNL     1      -9.311 -32.739  17.401  1.00  0.00    -0.045 SA
HETATM   10  C12 UNL     1      -8.144 -33.965  16.905  1.00  0.00     0.067 A 
BRANCH   7  11
HETATM   11  N3  UNL     1     -10.866 -31.489  15.634  1.00  0.00    -0.366 N 
ATOM     12  H3  UNL     1     -11.069 -30.843  16.396  1.00  0.00     0.162 HD
BRANCH  11  13
HETATM   13  C6  UNL     1     -11.616 -31.307  14.459  1.00  0.00     0.083 C 
HETATM   14  C7  UNL     1     -12.931 -30.587  14.622  1.00  0.00     0.025 C 
HETATM   15  C8  UNL     1     -12.696 -29.290  15.365  1.00  0.00     0.002 C 
HETATM   16  C9  UNL     1     -11.880 -28.392  14.458  1.00  0.00     0.000 C 
HETATM   17  C10 UNL     1     -11.375 -29.106  13.237  1.00  0.00     0.002 C 
HETATM   18  C11 UNL     1     -10.776 -30.455  13.508  1.00  0.00     0.025 C 
ENDBRANCH  11  13
ENDBRANCH   7  11
BRANCH  10  19
HETATM   19  S2  UNL     1      -6.980 -34.719  18.019  1.00  0.00    -0.111 SA
BRANCH  19  20
HETATM   20  C13 UNL     1      -6.202 -33.761  19.251  1.00  0.00     0.182 C 
BRANCH  20  21
HETATM   21  C14 UNL     1      -5.782 -32.405  18.678  1.00  0.00     0.227 C 
HETATM   22  O1  UNL     1      -5.036 -32.422  17.702  1.00  0.00    -0.273 OA
HETATM   23  N4  UNL     1      -6.280 -31.260  19.309  1.00  0.00    -0.358 N 
ATOM     24  H4  UNL     1      -6.895 -31.451  20.100  1.00  0.00     0.162 HD
BRANCH  23  25
HETATM   25  C15 UNL     1      -6.084 -29.883  19.044  1.00  0.00     0.154 C 
BRANCH  25  26
HETATM   26  C16 UNL     1      -5.354 -29.040  20.021  1.00  0.00     0.139 C 
HETATM   27  C17 UNL     1      -6.152 -27.984  20.712  1.00  0.00     0.035 C 
HETATM   28  C18 UNL     1      -5.487 -27.844  22.089  1.00  0.00     0.029 C 
HETATM   29  C19 UNL     1      -4.529 -28.991  22.079  1.00  0.00     0.168 C 
HETATM   30  O2  UNL     1      -5.008 -29.877  21.134  1.00  0.00    -0.384 OA
ENDBRANCH  25  26
ENDBRANCH  23  25
ENDBRANCH  20  21
ENDBRANCH  19  20
ENDBRANCH  10  19
ENDBRANCH   4   5
ENDBRANCH   3   4
TORSDOF 9
ENDMDL
MODEL 3
REMARK VINA RESULT: -6.095374390      0.866      1.050
REMARK  9 active torsions:
REMARK  status: ('A' for Active; 'I' for Inactive)
REMARK    1  A    between atoms: C2_3  and  C3_4 
REMARK    2  A    between atoms: C3_4  and  C4_5 
REMARK    3  A    between atoms: C5_8  and  N3_9 
REMARK    4  A    between atoms: N3_9  and  C6_11 
REMARK    5  A    between atoms: C12_18  and  S2_19 
REMARK    6  A    between atoms: S2_19  and  C13_20 
REMARK    7  A    between atoms: C13_20  and  C14_21 
REMARK       I    between atoms: C14_21  and  N4_23 
REMARK    8  A    between atoms: N4_23  and  C15_25 
REMARK    9  A    between atoms: C15_25  and  C16_26 
ROOT
HETATM    1  N1  UNL     1      -7.906 -35.488  12.428  1.00  0.00    -0.197 NA
HETATM    2  C1  UNL     1      -7.354 -34.585  12.899  1.00  0.00     0.059 C 
HETATM    3  C2  UNL     1      -6.620 -33.453  13.489  1.00  0.00     0.130 C 
ENDROOT
BRANCH   3   4
HETATM    4  C3  UNL     1      -7.485 -32.647  14.435  1.00  0.00     0.073 C 
BRANCH   4   5
HETATM    5  C4  UNL     1      -6.928 -32.822  15.863  1.00  0.00     0.036 A 
HETATM    6  N2  UNL     1      -6.072 -31.927  16.357  1.00  0.00    -0.339 N 
HETATM    7  C5  UNL     1      -5.687 -32.045  17.612  1.00  0.00     0.146 A 
ATOM      8  H2  UNL     1      -5.721 -31.166  15.775  1.00  0.00     0.168 HD
HETATM    9  S1  UNL     1      -6.508 -33.416  18.167  1.00  0.00    -0.045 SA
HETATM   10  C12 UNL     1      -7.361 -33.813  16.675  1.00  0.00     0.067 A 
BRANCH   7  11
HETATM   11  N3  UNL     1      -4.859 -31.328  18.323  1.00  0.00    -0.366 N 
ATOM     12  H3  UNL     1      -4.105 -31.841  18.780  1.00  0.00     0.162 HD
BRANCH  11  13
HETATM   13  C6  UNL     1      -4.873 -29.938  18.538  1.00  0.00     0.083 C 
HETATM   14  C7  UNL     1      -6.133 -29.380  19.151  1.00  0.00     0.025 C 
HETATM   15  C8  UNL     1      -6.462 -30.162  20.404  1.00  0.00     0.002 C 
HETATM   16  C9  UNL     1      -5.379 -29.864  21.420  1.00  0.00     0.000 C 
HETATM   17  C10 UNL     1      -4.229 -29.096  20.834  1.00  0.00     0.002 C 
HETATM   18  C11 UNL     1      -3.742 -29.615  19.514  1.00  0.00     0.025 C 
ENDBRANCH  11  13
ENDBRANCH   7  11
BRANCH  10  19
HETATM   19  S2  UNL     1      -8.352 -35.276  16.471  1.00  0.00    -0.111 SA
BRANCH  19  20
HETATM   20  C13 UNL     1      -9.913 -35.174  15.700  1.00  0.00     0.182 C 
BRANCH  20  21
HETATM   21  C14 UNL     1     -10.732 -34.036  16.314  1.00  0.00     0.227 C 
HETATM   22  O1  UNL     1     -10.799 -33.999  17.540  1.00  0.00    -0.273 OA
HETATM   23  N4  UNL     1     -11.334 -33.131  15.432  1.00  0.00    -0.358 N 
ATOM     24  H4  UNL     1     -11.155 -33.323  14.446  1.00  0.00     0.162 HD
BRANCH  23  25
HETATM   25  C15 UNL     1     -12.149 -31.997  15.665  1.00  0.00     0.154 C 
BRANCH  25  26
HETATM   26  C16 UNL     1     -12.280 -30.956  14.618  1.00  0.00     0.139 C 
HETATM   27  C17 UNL     1     -12.679 -29.595  15.084  1.00  0.00     0.035 C 
HETATM   28  C18 UNL     1     -12.005 -28.638  14.088  1.00  0.00     0.029 C 
HETATM   29  C19 UNL     1     -11.137 -29.576  13.312  1.00  0.00     0.168 C 
HETATM   30  O2  UNL     1     -10.964 -30.686  14.115  1.00  0.00    -0.384 OA
ENDBRANCH  25  26
ENDBRANCH  23  25
ENDBRANCH  20  21
ENDBRANCH  19  20
ENDBRANCH  10  19
ENDBRANCH   4   5
ENDBRANCH   3   4
TORSDOF 9
ENDMDL
MODEL 4
REMARK VINA RESULT: -5.991288147      4.440      7.857
REMARK  9 active torsions:
REMARK  status: ('A' for Active; 'I' for Inactive)
REMARK    1  A    between atoms: C2_3  and  C3_4 
REMARK    2  A    between atoms: C3_4  and  C4_5 
REMARK    3  A    between atoms: C5_8  and  N3_9 
REMARK    4  A    between atoms: N3_9  and  C6_11 
REMARK    5  A    between atoms: C12_18  and  S2_19 
REMARK    6  A    between atoms: S2_19  and  C13_20 
REMARK    7  A    between atoms: C13_20  and  C14_21 
REMARK       I    between atoms: C14_21  and  N4_23 
REMARK    8  A    between atoms: N4_23  and  C15_25 
REMARK    9  A    between atoms: C15_25  and  C16_26 
ROOT
HETATM    1  N1  UNL     1     -12.117 -27.448  12.202  1.00  0.00    -0.197 NA
HETATM    2  C1  UNL     1     -11.812 -28.277  12.952  1.00  0.00     0.059 C 
HETATM    3  C2  UNL     1     -11.390 -29.327  13.893  1.00  0.00     0.130 C 
ENDROOT
BRANCH   3   4
HETATM    4  C3  UNL     1     -12.553 -30.186  14.344  1.00  0.00     0.073 C 
BRANCH   4   5
HETATM    5  C4  UNL     1     -12.401 -30.448  15.856  1.00  0.00     0.036 A 
HETATM    6  N2  UNL     1     -13.197 -29.823  16.723  1.00  0.00    -0.339 N 
HETATM    7  C5  UNL     1     -13.114 -30.137  18.000  1.00  0.00     0.146 A 
ATOM      8  H2  UNL     1     -13.859 -29.114  16.404  1.00  0.00     0.168 HD
HETATM    9  S1  UNL     1     -11.915 -31.328  18.053  1.00  0.00    -0.045 SA
HETATM   10  C12 UNL     1     -11.539 -31.377  16.330  1.00  0.00     0.067 A 
BRANCH   7  11
HETATM   11  N3  UNL     1     -13.754 -29.671  19.039  1.00  0.00    -0.366 N 
ATOM     12  H3  UNL     1     -13.225 -29.637  19.910  1.00  0.00     0.162 HD
BRANCH  11  13
HETATM   13  C6  UNL     1     -15.081 -29.209  19.109  1.00  0.00     0.083 C 
HETATM   14  C7  UNL     1     -15.688 -29.161  20.488  1.00  0.00     0.025 C 
HETATM   15  C8  UNL     1     -14.762 -28.400  21.411  1.00  0.00     0.002 C 
HETATM   16  C9  UNL     1     -14.750 -26.957  20.949  1.00  0.00     0.000 C 
HETATM   17  C10 UNL     1     -15.450 -26.763  19.634  1.00  0.00     0.002 C 
HETATM   18  C11 UNL     1     -15.094 -27.774  18.584  1.00  0.00     0.025 C 
ENDBRANCH  11  13
ENDBRANCH   7  11
BRANCH  10  19
HETATM   19  S2  UNL     1     -10.220 -32.352  15.640  1.00  0.00    -0.111 SA
BRANCH  19  20
HETATM   20  C13 UNL     1      -9.063 -33.124  16.691  1.00  0.00     0.182 C 
BRANCH  20  21
HETATM   21  C14 UNL     1      -7.646 -32.657  16.350  1.00  0.00     0.227 C 
HETATM   22  O1  UNL     1      -7.317 -32.701  15.167  1.00  0.00    -0.273 OA
HETATM   23  N4  UNL     1      -6.842 -32.218  17.408  1.00  0.00    -0.358 N 
ATOM     24  H4  UNL     1      -7.298 -32.247  18.320  1.00  0.00     0.162 HD
BRANCH  23  25
HETATM   25  C15 UNL     1      -5.510 -31.741  17.438  1.00  0.00     0.154 C 
BRANCH  25  26
HETATM   26  C16 UNL     1      -5.213 -30.418  18.036  1.00  0.00     0.139 C 
HETATM   27  C17 UNL     1      -5.952 -30.075  19.287  1.00  0.00     0.035 C 
HETATM   28  C18 UNL     1      -4.985 -29.171  20.066  1.00  0.00     0.029 C 
HETATM   29  C19 UNL     1      -3.739 -29.292  19.250  1.00  0.00     0.168 C 
HETATM   30  O2  UNL     1      -3.867 -30.464  18.531  1.00  0.00    -0.384 OA
ENDBRANCH  25  26
ENDBRANCH  23  25
ENDBRANCH  20  21
ENDBRANCH  19  20
ENDBRANCH  10  19
ENDBRANCH   4   5
ENDBRANCH   3   4
TORSDOF 9
ENDMDL
MODEL 5
REMARK VINA RESULT: -5.966508940      4.360      9.321
REMARK  9 active torsions:
REMARK  status: ('A' for Active; 'I' for Inactive)
REMARK    1  A    between atoms: C2_3  and  C3_4 
REMARK    2  A    between atoms: C3_4  and  C4_5 
REMARK    3  A    between atoms: C5_8  and  N3_9 
REMARK    4  A    between atoms: N3_9  and  C6_11 
REMARK    5  A    between atoms: C12_18  and  S2_19 
REMARK    6  A    between atoms: S2_19  and  C13_20 
REMARK    7  A    between atoms: C13_20  and  C14_21 
REMARK       I    between atoms: C14_21  and  N4_23 
REMARK    8  A    between atoms: N4_23  and  C15_25 
REMARK    9  A    between atoms: C15_25  and  C16_26 
ROOT
HETATM    1  N1  UNL     1     -12.160 -28.646  15.222  1.00  0.00    -0.197 NA
HETATM    2  C1  UNL     1     -11.939 -29.658  14.703  1.00  0.00     0.059 C 
HETATM    3  C2  UNL     1     -11.687 -30.958  14.059  1.00  0.00     0.130 C 
ENDROOT
BRANCH   3   4
HETATM    4  C3  UNL     1     -10.260 -31.082  13.568  1.00  0.00     0.073 C 
BRANCH   4   5
HETATM    5  C4  UNL     1     -10.108 -32.450  12.871  1.00  0.00     0.036 A 
HETATM    6  N2  UNL     1     -10.717 -32.674  11.707  1.00  0.00    -0.339 N 
HETATM    7  C5  UNL     1     -10.491 -33.814  11.084  1.00  0.00     0.146 A 
ATOM      8  H2  UNL     1     -11.345 -31.978  11.305  1.00  0.00     0.168 HD
HETATM    9  S1  UNL     1      -9.412 -34.630  12.098  1.00  0.00    -0.045 SA
HETATM   10  C12 UNL     1      -9.287 -33.406  13.362  1.00  0.00     0.067 A 
BRANCH   7  11
HETATM   11  N3  UNL     1     -10.966 -34.282   9.961  1.00  0.00    -0.366 N 
ATOM     12  H3  UNL     1     -11.775 -34.898  10.042  1.00  0.00     0.162 HD
BRANCH  11  13
HETATM   13  C6  UNL     1     -10.504 -34.046   8.654  1.00  0.00     0.083 C 
HETATM   14  C7  UNL     1     -10.137 -35.270   7.854  1.00  0.00     0.025 C 
HETATM   15  C8  UNL     1     -11.290 -36.250   7.891  1.00  0.00     0.002 C 
HETATM   16  C9  UNL     1     -12.438 -35.625   7.126  1.00  0.00     0.000 C 
HETATM   17  C10 UNL     1     -12.183 -34.188   6.768  1.00  0.00     0.002 C 
HETATM   18  C11 UNL     1     -11.633 -33.356   7.889  1.00  0.00     0.025 C 
ENDBRANCH  11  13
ENDBRANCH   7  11
BRANCH  10  19
HETATM   19  S2  UNL     1      -8.386 -33.648  14.877  1.00  0.00    -0.111 SA
BRANCH  19  20
HETATM   20  C13 UNL     1      -8.873 -32.811  16.327  1.00  0.00     0.182 C 
BRANCH  20  21
HETATM   21  C14 UNL     1      -7.701 -32.732  17.309  1.00  0.00     0.227 C 
HETATM   22  O1  UNL     1      -7.874 -33.223  18.421  1.00  0.00    -0.273 OA
HETATM   23  N4  UNL     1      -6.530 -32.108  16.861  1.00  0.00    -0.358 N 
ATOM     24  H4  UNL     1      -6.576 -31.771  15.900  1.00  0.00     0.162 HD
BRANCH  23  25
HETATM   25  C15 UNL     1      -5.294 -31.864  17.506  1.00  0.00     0.154 C 
BRANCH  25  26
HETATM   26  C16 UNL     1      -4.982 -30.506  18.013  1.00  0.00     0.139 C 
HETATM   27  C17 UNL     1      -5.886 -29.971  19.074  1.00  0.00     0.035 C 
HETATM   28  C18 UNL     1      -4.985 -29.057  19.918  1.00  0.00     0.029 C 
HETATM   29  C19 UNL     1      -3.636 -29.361  19.351  1.00  0.00     0.168 C 
HETATM   30  O2  UNL     1      -3.749 -30.594  18.740  1.00  0.00    -0.384 OA
ENDBRANCH  25  26
ENDBRANCH  23  25
ENDBRANCH  20  21
ENDBRANCH  19  20
ENDBRANCH  10  19
ENDBRANCH   4   5
ENDBRANCH   3   4
TORSDOF 9
ENDMDL
