MODEL 1
REMARK VINA RESULT: -6.207329626      0.000      0.000
REMARK  10 active torsions:
REMARK  status: ('A' for Active; 'I' for Inactive)
REMARK    1  A    between atoms: C2_2  and  O1_3 
REMARK    2  A    between atoms: O1_3  and  C3_4 
REMARK    3  A    between atoms: C3_4  and  C4_6 
REMARK    4  A    between atoms: C8_12  and  S1_13 
REMARK    5  A    between atoms: S1_13  and  C9_14 
REMARK    6  A    between atoms: C9_14  and  C10_15 
REMARK       I    between atoms: C10_15  and  N2_17 
REMARK    7  A    between atoms: N2_17  and  C11_19 
REMARK    8  A    between atoms: C11_19  and  C12_20 
REMARK    9  A    between atoms: C12_20  and  C13_21 
REMARK   10  A    between atoms: C16_28  and  C17_29 
ROOT
HETATM    1  C4  UNL     1      -5.393 -31.270  18.623  1.00  0.00     0.124 A 
HETATM    2  C5  UNL     1      -5.736 -32.014  17.416  1.00  0.00     0.013 A 
HETATM    3  C6  UNL     1      -6.949 -32.358  17.078  1.00  0.00     0.003 A 
HETATM    4  C7  UNL     1      -7.153 -33.124  15.796  1.00  0.00     0.068 C 
HETATM    5  N1  UNL     1      -7.989 -32.017  17.950  1.00  0.00    -0.358 N 
ATOM      6  H1  UNL     1      -8.940 -32.279  17.690  1.00  0.00     0.166 HD
HETATM    7  C8  UNL     1      -7.815 -31.395  19.058  1.00  0.00     0.056 A 
HETATM    8  C16 UNL     1      -6.499 -31.004  19.553  1.00  0.00     0.082 A 
ENDROOT
BRANCH   7   9
HETATM    9  S1  UNL     1      -9.314 -31.056  20.022  1.00  0.00    -0.107 SA
BRANCH   9  10
HETATM   10  C9  UNL     1     -10.704 -32.068  19.467  1.00  0.00     0.183 C 
BRANCH  10  11
HETATM   11  C10 UNL     1     -11.322 -31.549  18.205  1.00  0.00     0.230 C 
HETATM   12  O3  UNL     1     -10.844 -32.031  17.155  1.00  0.00    -0.272 OA
HETATM   13  N2  UNL     1     -12.346 -30.607  18.181  1.00  0.00    -0.340 N 
ATOM     14  H2  UNL     1     -12.651 -30.311  19.108  1.00  0.00     0.167 HD
BRANCH  13  15
HETATM   15  C11 UNL     1     -13.041 -29.982  17.134  1.00  0.00     0.070 C 
BRANCH  15  16
HETATM   16  C12 UNL     1     -12.460 -29.008  16.224  1.00  0.00     0.103 C 
BRANCH  16  17
HETATM   17  C13 UNL     1     -11.867 -29.424  14.956  1.00  0.00     0.030 A 
HETATM   18  C14 UNL     1     -11.719 -28.734  13.743  1.00  0.00     0.114 A 
HETATM   19  N3  UNL     1     -11.116 -29.531  12.850  1.00  0.00    -0.360 N 
HETATM   20  C15 UNL     1     -10.867 -30.711  13.435  1.00  0.00     0.180 A 
ATOM     21  H3  UNL     1     -10.886 -29.282  11.888  1.00  0.00     0.166 HD
HETATM   22  N4  UNL     1     -11.315 -30.649  14.697  1.00  0.00    -0.354 N 
ATOM     23  H4  UNL     1     -11.253 -31.412  15.371  1.00  0.00     0.166 HD
ENDBRANCH  16  17
ENDBRANCH  15  16
ENDBRANCH  13  15
ENDBRANCH  10  11
ENDBRANCH   9  10
ENDBRANCH   7   9
BRANCH   8  24
HETATM   24  C17 UNL     1      -6.506 -29.577  20.042  1.00  0.00    -0.012 C 
HETATM   25  C18 UNL     1      -6.181 -29.211  21.266  1.00  0.00    -0.091 C 
HETATM   26  C19 UNL     1      -5.769 -30.215  22.296  1.00  0.00     0.042 C 
HETATM   27  C20 UNL     1      -6.204 -27.781  21.703  1.00  0.00     0.042 C 
ENDBRANCH   8  24
BRANCH   1  28
HETATM   28  C3  UNL     1      -4.197 -31.864  19.289  1.00  0.00     0.267 C 
HETATM   29  O2  UNL     1      -4.310 -32.945  19.879  1.00  0.00    -0.264 OA
BRANCH  28  30
HETATM   30  O1  UNL     1      -2.993 -31.213  19.241  1.00  0.00    -0.321 OA
BRANCH  30  31
HETATM   31  C2  UNL     1      -2.820 -30.025  19.995  1.00  0.00     0.174 C 
HETATM   32  C1  UNL     1      -2.086 -30.296  21.292  1.00  0.00     0.034 C 
ENDBRANCH  30  31
ENDBRANCH  28  30
ENDBRANCH   1  28
TORSDOF 10
ENDMDL
MODEL 2
REMARK VINA RESULT: -6.040121632      2.947      8.668
REMARK  10 active torsions:
REMARK  status: ('A' for Active; 'I' for Inactive)
REMARK    1  A    between atoms: C2_2  and  O1_3 
REMARK    2  A    between atoms: O1_3  and  C3_4 
REMARK    3  A    between atoms: C3_4  and  C4_6 
REMARK    4  A    between atoms: C8_12  and  S1_13 
REMARK    5  A    between atoms: S1_13  and  C9_14 
REMARK    6  A    between atoms: C9_14  and  C10_15 
REMARK       I    between atoms: C10_15  and  N2_17 
REMARK    7  A    between atoms: N2_17  and  C11_19 
REMARK    8  A    between atoms: C11_19  and  C12_20 
REMARK    9  A    between atoms: C12_20  and  C13_21 
REMARK   10  A    between atoms: C16_28  and  C17_29 
ROOT
HETATM    1  C4  UNL     1     -12.713 -30.030  15.058  1.00  0.00     0.124 A 
HETATM    2  C5  UNL     1     -12.415 -28.959  14.115  1.00  0.00     0.013 A 
HETATM    3  C6  UNL     1     -11.478 -29.011  13.207  1.00  0.00     0.003 A 
HETATM    4  C7  UNL     1     -11.288 -27.826  12.296  1.00  0.00     0.068 C 
HETATM    5  N1  UNL     1     -10.684 -30.162  13.157  1.00  0.00    -0.358 N 
ATOM      6  H1  UNL     1      -9.953 -30.211  12.447  1.00  0.00     0.166 HD
HETATM    7  C8  UNL     1     -10.822 -31.157  13.953  1.00  0.00     0.056 A 
HETATM    8  C16 UNL     1     -11.806 -31.185  15.031  1.00  0.00     0.082 A 
ENDROOT
BRANCH   7   9
HETATM    9  S1  UNL     1      -9.680 -32.543  13.695  1.00  0.00    -0.107 SA
BRANCH   9  10
HETATM   10  C9  UNL     1      -8.909 -33.067  15.243  1.00  0.00     0.183 C 
BRANCH  10  11
HETATM   11  C10 UNL     1      -7.507 -32.560  15.384  1.00  0.00     0.230 C 
HETATM   12  O3  UNL     1      -6.933 -32.309  14.303  1.00  0.00    -0.272 OA
HETATM   13  N2  UNL     1      -6.876 -32.377  16.612  1.00  0.00    -0.340 N 
ATOM     14  H2  UNL     1      -7.465 -32.606  17.413  1.00  0.00     0.167 HD
BRANCH  13  15
HETATM   15  C11 UNL     1      -5.589 -31.940  16.965  1.00  0.00     0.070 C 
BRANCH  15  16
HETATM   16  C12 UNL     1      -4.990 -32.117  18.278  1.00  0.00     0.103 C 
BRANCH  16  17
HETATM   17  C13 UNL     1      -4.235 -31.040  18.911  1.00  0.00     0.030 A 
HETATM   18  C14 UNL     1      -4.299 -29.649  18.734  1.00  0.00     0.114 A 
HETATM   19  N3  UNL     1      -3.399 -29.058  19.533  1.00  0.00    -0.360 N 
HETATM   20  C15 UNL     1      -2.754 -30.010  20.221  1.00  0.00     0.180 A 
ATOM     21  H3  UNL     1      -3.234 -28.054  19.605  1.00  0.00     0.166 HD
HETATM   22  N4  UNL     1      -3.252 -31.198  19.851  1.00  0.00    -0.354 N 
ATOM     23  H4  UNL     1      -2.942 -32.097  20.219  1.00  0.00     0.166 HD
ENDBRANCH  16  17
ENDBRANCH  15  16
ENDBRANCH  13  15
ENDBRANCH  10  11
ENDBRANCH   9  10
ENDBRANCH   7   9
BRANCH   8  24
HETATM   24  C17 UNL     1     -12.548 -32.498  15.053  1.00  0.00    -0.012 C 
HETATM   25  C18 UNL     1     -12.572 -33.319  16.084  1.00  0.00    -0.091 C 
HETATM   26  C19 UNL     1     -11.840 -33.000  17.351  1.00  0.00     0.042 C 
HETATM   27  C20 UNL     1     -13.323 -34.611  16.058  1.00  0.00     0.042 C 
ENDBRANCH   8  24
BRANCH   1  28
HETATM   28  C3  UNL     1     -12.924 -29.484  16.431  1.00  0.00     0.267 C 
HETATM   29  O2  UNL     1     -12.190 -29.865  17.352  1.00  0.00    -0.264 OA
BRANCH  28  30
HETATM   30  O1  UNL     1     -13.919 -28.571  16.658  1.00  0.00    -0.321 OA
BRANCH  30  31
HETATM   31  C2  UNL     1     -14.581 -28.570  17.912  1.00  0.00     0.174 C 
HETATM   32  C1  UNL     1     -15.897 -27.822  17.842  1.00  0.00     0.034 C 
ENDBRANCH  30  31
ENDBRANCH  28  30
ENDBRANCH   1  28
TORSDOF 10
ENDMDL
MODEL 3
REMARK VINA RESULT: -5.999640883      2.742      7.890
REMARK  10 active torsions:
REMARK  status: ('A' for Active; 'I' for Inactive)
REMARK    1  A    between atoms: C2_2  and  O1_3 
REMARK    2  A    between atoms: O1_3  and  C3_4 
REMARK    3  A    between atoms: C3_4  and  C4_6 
REMARK    4  A    between atoms: C8_12  and  S1_13 
REMARK    5  A    between atoms: S1_13  and  C9_14 
REMARK    6  A    between atoms: C9_14  and  C10_15 
REMARK       I    between atoms: C10_15  and  N2_17 
REMARK    7  A    between atoms: N2_17  and  C11_19 
REMARK    8  A    between atoms: C11_19  and  C12_20 
REMARK    9  A    between atoms: C12_20  and  C13_21 
REMARK   10  A    between atoms: C16_28  and  C17_29 
ROOT
HETATM    1  C4  UNL     1      -9.797 -32.663  14.211  1.00  0.00     0.124 A 
HETATM    2  C5  UNL     1      -8.505 -32.836  13.556  1.00  0.00     0.013 A 
HETATM    3  C6  UNL     1      -7.364 -32.930  14.183  1.00  0.00     0.003 A 
HETATM    4  C7  UNL     1      -6.106 -33.111  13.373  1.00  0.00     0.068 C 
HETATM    5  N1  UNL     1      -7.378 -32.825  15.578  1.00  0.00    -0.358 N 
ATOM      6  H1  UNL     1      -6.490 -32.902  16.075  1.00  0.00     0.166 HD
HETATM    7  C8  UNL     1      -8.442 -32.637  16.268  1.00  0.00     0.056 A 
HETATM    8  C16 UNL     1      -9.761 -32.473  15.667  1.00  0.00     0.082 A 
ENDROOT
BRANCH   7   9
HETATM    9  S1  UNL     1      -8.216 -32.540  18.065  1.00  0.00    -0.107 SA
BRANCH   9  10
HETATM   10  C9  UNL     1      -6.644 -33.269  18.578  1.00  0.00     0.183 C 
BRANCH  10  11
HETATM   11  C10 UNL     1      -5.510 -32.293  18.506  1.00  0.00     0.230 C 
HETATM   12  O3  UNL     1      -5.286 -31.839  17.363  1.00  0.00    -0.272 OA
HETATM   13  N2  UNL     1      -4.754 -31.909  19.610  1.00  0.00    -0.340 N 
ATOM     14  H2  UNL     1      -5.055 -32.343  20.483  1.00  0.00     0.167 HD
BRANCH  13  15
HETATM   15  C11 UNL     1      -3.660 -31.043  19.761  1.00  0.00     0.070 C 
BRANCH  15  16
HETATM   16  C12 UNL     1      -3.734 -29.594  19.657  1.00  0.00     0.103 C 
BRANCH  16  17
HETATM   17  C13 UNL     1      -4.653 -28.827  20.494  1.00  0.00     0.030 A 
HETATM   18  C14 UNL     1      -6.001 -28.487  20.301  1.00  0.00     0.114 A 
HETATM   19  N3  UNL     1      -6.427 -27.758  21.343  1.00  0.00    -0.360 N 
HETATM   20  C15 UNL     1      -5.410 -27.612  22.203  1.00  0.00     0.180 A 
ATOM     21  H3  UNL     1      -7.367 -27.380  21.460  1.00  0.00     0.166 HD
HETATM   22  N4  UNL     1      -4.346 -28.252  21.698  1.00  0.00    -0.354 N 
ATOM     23  H4  UNL     1      -3.433 -28.303  22.148  1.00  0.00     0.166 HD
ENDBRANCH  16  17
ENDBRANCH  15  16
ENDBRANCH  13  15
ENDBRANCH  10  11
ENDBRANCH   9  10
ENDBRANCH   7   9
BRANCH   8  24
HETATM   24  C17 UNL     1     -10.790 -33.316  16.379  1.00  0.00    -0.012 C 
HETATM   25  C18 UNL     1     -11.886 -32.837  16.933  1.00  0.00    -0.091 C 
HETATM   26  C19 UNL     1     -12.204 -31.375  16.895  1.00  0.00     0.042 C 
HETATM   27  C20 UNL     1     -12.877 -33.714  17.629  1.00  0.00     0.042 C 
ENDBRANCH   8  24
BRANCH   1  28
HETATM   28  C3  UNL     1     -10.614 -31.633  13.505  1.00  0.00     0.267 C 
HETATM   29  O2  UNL     1     -11.630 -31.984  12.893  1.00  0.00    -0.264 OA
BRANCH  28  30
HETATM   30  O1  UNL     1     -10.235 -30.317  13.540  1.00  0.00    -0.321 OA
BRANCH  30  31
HETATM   31  C2  UNL     1     -11.171 -29.320  13.167  1.00  0.00     0.174 C 
HETATM   32  C1  UNL     1     -11.926 -28.792  14.369  1.00  0.00     0.034 C 
ENDBRANCH  30  31
ENDBRANCH  28  30
ENDBRANCH   1  28
TORSDOF 10
ENDMDL
MODEL 4
REMARK VINA RESULT: -5.947984202      2.870      8.097
REMARK  10 active torsions:
REMARK  status: ('A' for Active; 'I' for Inactive)
REMARK    1  A    between atoms: C2_2  and  O1_3 
REMARK    2  A    between atoms: O1_3  and  C3_4 
REMARK    3  A    between atoms: C3_4  and  C4_6 
REMARK    4  A    between atoms: C8_12  and  S1_13 
REMARK    5  A    between atoms: S1_13  and  C9_14 
REMARK    6  A    between atoms: C9_14  and  C10_15 
REMARK       I    between atoms: C10_15  and  N2_17 
REMARK    7  A    between atoms: N2_17  and  C11_19 
REMARK    8  A    between atoms: C11_19  and  C12_20 
REMARK    9  A    between atoms: C12_20  and  C13_21 
REMARK   10  A    between atoms: C16_28  and  C17_29 
ROOT
HETATM    1  C4  UNL     1      -9.855 -32.599  14.048  1.00  0.00     0.124 A 
HETATM    2  C5  UNL     1      -8.494 -32.735  13.542  1.00  0.00     0.013 A 
HETATM    3  C6  UNL     1      -7.433 -32.851  14.294  1.00  0.00     0.003 A 
HETATM    4  C7  UNL     1      -6.087 -32.988  13.629  1.00  0.00     0.068 C 
HETATM    5  N1  UNL     1      -7.611 -32.811  15.681  1.00  0.00    -0.358 N 
ATOM      6  H1  UNL     1      -6.786 -32.906  16.275  1.00  0.00     0.166 HD
HETATM    7  C8  UNL     1      -8.750 -32.661  16.249  1.00  0.00     0.056 A 
HETATM    8  C16 UNL     1      -9.992 -32.477  15.506  1.00  0.00     0.082 A 
ENDROOT
BRANCH   7   9
HETATM    9  S1  UNL     1      -8.737 -32.645  18.063  1.00  0.00    -0.107 SA
BRANCH   9  10
HETATM   10  C9  UNL     1      -7.054 -32.536  18.715  1.00  0.00     0.183 C 
BRANCH  10  11
HETATM   11  C10 UNL     1      -6.521 -31.137  18.690  1.00  0.00     0.230 C 
HETATM   12  O3  UNL     1      -5.776 -30.880  17.720  1.00  0.00    -0.272 OA
HETATM   13  N2  UNL     1      -6.818 -30.184  19.661  1.00  0.00    -0.340 N 
ATOM     14  H2  UNL     1      -7.450 -30.523  20.387  1.00  0.00     0.167 HD
BRANCH  13  15
HETATM   15  C11 UNL     1      -6.420 -28.850  19.839  1.00  0.00     0.070 C 
BRANCH  15  16
HETATM   16  C12 UNL     1      -5.493 -28.395  20.862  1.00  0.00     0.103 C 
BRANCH  16  17
HETATM   17  C13 UNL     1      -4.193 -29.037  21.038  1.00  0.00     0.030 A 
HETATM   18  C14 UNL     1      -3.295 -29.560  20.094  1.00  0.00     0.114 A 
HETATM   19  N3  UNL     1      -2.226 -30.061  20.731  1.00  0.00    -0.360 N 
HETATM   20  C15 UNL     1      -2.395 -29.885  22.048  1.00  0.00     0.180 A 
ATOM     21  H3  UNL     1      -1.421 -30.502  20.286  1.00  0.00     0.166 HD
HETATM   22  N4  UNL     1      -3.573 -29.271  22.235  1.00  0.00    -0.354 N 
ATOM     23  H4  UNL     1      -3.954 -29.014  23.145  1.00  0.00     0.166 HD
ENDBRANCH  16  17
ENDBRANCH  15  16
ENDBRANCH  13  15
ENDBRANCH  10  11
ENDBRANCH   9  10
ENDBRANCH   7   9
BRANCH   8  24
HETATM   24  C17 UNL     1     -11.088 -33.357  16.054  1.00  0.00    -0.012 C 
HETATM   25  C18 UNL     1     -12.240 -32.909  16.512  1.00  0.00    -0.091 C 
HETATM   26  C19 UNL     1     -12.558 -31.446  16.523  1.00  0.00     0.042 C 
HETATM   27  C20 UNL     1     -13.296 -33.823  17.046  1.00  0.00     0.042 C 
ENDBRANCH   8  24
BRANCH   1  28
HETATM   28  C3  UNL     1     -10.595 -31.542  13.299  1.00  0.00     0.267 C 
HETATM   29  O2  UNL     1     -11.457 -31.877  12.476  1.00  0.00    -0.264 OA
BRANCH  28  30
HETATM   30  O1  UNL     1     -10.318 -30.220  13.527  1.00  0.00    -0.321 OA
BRANCH  30  31
HETATM   31  C2  UNL     1     -11.390 -29.299  13.633  1.00  0.00     0.174 C 
HETATM   32  C1  UNL     1     -11.363 -28.287  12.506  1.00  0.00     0.034 C 
ENDBRANCH  30  31
ENDBRANCH  28  30
ENDBRANCH   1  28
TORSDOF 10
ENDMDL
MODEL 5
REMARK VINA RESULT: -5.799480208      2.769      8.455
REMARK  10 active torsions:
REMARK  status: ('A' for Active; 'I' for Inactive)
REMARK    1  A    between atoms: C2_2  and  O1_3 
REMARK    2  A    between atoms: O1_3  and  C3_4 
REMARK    3  A    between atoms: C3_4  and  C4_6 
REMARK    4  A    between atoms: C8_12  and  S1_13 
REMARK    5  A    between atoms: S1_13  and  C9_14 
REMARK    6  A    between atoms: C9_14  and  C10_15 
REMARK       I    between atoms: C10_15  and  N2_17 
REMARK    7  A    between atoms: N2_17  and  C11_19 
REMARK    8  A    between atoms: C11_19  and  C12_20 
REMARK    9  A    between atoms: C12_20  and  C13_21 
REMARK   10  A    between atoms: C16_28  and  C17_29 
ROOT
HETATM    1  C4  UNL     1     -12.777 -30.045  15.239  1.00  0.00     0.124 A 
HETATM    2  C5  UNL     1     -12.437 -29.044  14.234  1.00  0.00     0.013 A 
HETATM    3  C6  UNL     1     -11.444 -29.147  13.392  1.00  0.00     0.003 A 
HETATM    4  C7  UNL     1     -11.216 -28.032  12.404  1.00  0.00     0.068 C 
HETATM    5  N1  UNL     1     -10.631 -30.282  13.481  1.00  0.00    -0.358 N 
ATOM      6  H1  UNL     1      -9.857 -30.371  12.823  1.00  0.00     0.166 HD
HETATM    7  C8  UNL     1     -10.804 -31.216  14.342  1.00  0.00     0.056 A 
HETATM    8  C16 UNL     1     -11.852 -31.180  15.357  1.00  0.00     0.082 A 
ENDROOT
BRANCH   7   9
HETATM    9  S1  UNL     1      -9.627 -32.594  14.264  1.00  0.00    -0.107 SA
BRANCH   9  10
HETATM   10  C9  UNL     1      -9.052 -33.072  15.909  1.00  0.00     0.183 C 
BRANCH  10  11
HETATM   11  C10 UNL     1      -7.608 -32.738  16.130  1.00  0.00     0.230 C 
HETATM   12  O3  UNL     1      -6.898 -32.795  15.103  1.00  0.00    -0.272 OA
HETATM   13  N2  UNL     1      -7.081 -32.390  17.371  1.00  0.00    -0.340 N 
ATOM     14  H2  UNL     1      -7.775 -32.368  18.118  1.00  0.00     0.167 HD
BRANCH  13  15
HETATM   15  C11 UNL     1      -5.784 -32.065  17.797  1.00  0.00     0.070 C 
BRANCH  15  16
HETATM   16  C12 UNL     1      -5.166 -30.758  17.635  1.00  0.00     0.103 C 
BRANCH  16  17
HETATM   17  C13 UNL     1      -4.924 -29.894  18.787  1.00  0.00     0.030 A 
HETATM   18  C14 UNL     1      -3.723 -29.433  19.350  1.00  0.00     0.114 A 
HETATM   19  N3  UNL     1      -3.999 -28.664  20.413  1.00  0.00    -0.360 N 
HETATM   20  C15 UNL     1      -5.330 -28.609  20.563  1.00  0.00     0.180 A 
ATOM     21  H3  UNL     1      -3.312 -28.200  21.007  1.00  0.00     0.166 HD
HETATM   22  N4  UNL     1      -5.886 -29.344  19.590  1.00  0.00    -0.354 N 
ATOM     23  H4  UNL     1      -6.890 -29.476  19.465  1.00  0.00     0.166 HD
ENDBRANCH  16  17
ENDBRANCH  15  16
ENDBRANCH  13  15
ENDBRANCH  10  11
ENDBRANCH   9  10
ENDBRANCH   7   9
BRANCH   8  24
HETATM   24  C17 UNL     1     -12.574 -32.502  15.437  1.00  0.00    -0.012 C 
HETATM   25  C18 UNL     1     -12.702 -33.211  16.541  1.00  0.00    -0.091 C 
HETATM   26  C19 UNL     1     -12.120 -32.745  17.839  1.00  0.00     0.042 C 
HETATM   27  C20 UNL     1     -13.428 -34.518  16.569  1.00  0.00     0.042 C 
ENDBRANCH   8  24
BRANCH   1  28
HETATM   28  C3  UNL     1     -13.081 -29.398  16.549  1.00  0.00     0.267 C 
HETATM   29  O2  UNL     1     -12.372 -29.658  17.529  1.00  0.00    -0.264 OA
BRANCH  28  30
HETATM   30  O1  UNL     1     -14.133 -28.527  16.654  1.00  0.00    -0.321 OA
BRANCH  30  31
HETATM   31  C2  UNL     1     -14.810 -28.410  17.894  1.00  0.00     0.174 C 
HETATM   32  C1  UNL     1     -16.121 -27.666  17.740  1.00  0.00     0.034 C 
ENDBRANCH  30  31
ENDBRANCH  28  30
ENDBRANCH   1  28
TORSDOF 10
ENDMDL
