MODEL 1
REMARK VINA RESULT: -8.543107547      0.000      0.000
REMARK  7 active torsions:
REMARK  status: ('A' for Active; 'I' for Inactive)
REMARK    1  A    between atoms: O1_1  and  C1_3 
REMARK    2  A    between atoms: C1_3  and  C2_4 
REMARK    3  A    between atoms: C1_3  and  C9_15 
REMARK    4  A    between atoms: C5_7  and  C6_8 
REMARK    5  A    between atoms: C9_15  and  C10_16 
REMARK    6  A    between atoms: C9_15  and  C17_23 
REMARK    7  A    between atoms: C10_16  and  C11_17 
ROOT
HETATM    1  C9  UNL     1      37.438  -9.405  24.783  1.00  0.00     0.054 C 
ENDROOT
BRANCH   1   2
HETATM    2  C1  UNL     1      38.059  -9.808  23.497  1.00  0.00     0.177 C 
BRANCH   2   3
HETATM    3  O1  UNL     1      37.985 -11.230  23.474  1.00  0.00    -0.389 OA
ATOM      4  H1  UNL     1      37.977 -11.499  24.385  1.00  0.00     0.210 HD
ENDBRANCH   2   3
BRANCH   2   5
HETATM    5  C2  UNL     1      37.425  -9.364  22.264  1.00  0.00     0.055 A 
HETATM    6  C3  UNL     1      37.632  -8.020  21.917  1.00  0.00     0.031 A 
HETATM    7  C4  UNL     1      37.085  -7.487  20.769  1.00  0.00     0.029 A 
HETATM    8  C5  UNL     1      36.316  -8.278  19.940  1.00  0.00     0.030 A 
HETATM    9  N1  UNL     1      36.141  -9.559  20.310  1.00  0.00    -0.304 N 
HETATM   10  N2  UNL     1      36.672 -10.062  21.414  1.00  0.00    -0.302 N 
ATOM     11  H1  UNL     1      35.578 -10.168  19.717  1.00  0.00     0.186 HD
ATOM     12  H2  UNL     1      36.494 -11.043  21.626  1.00  0.00     0.186 HD
BRANCH   8  13
HETATM   13  C6  UNL     1      35.703  -7.733  18.685  1.00  0.00     0.037 A 
HETATM   14  C7  UNL     1      34.276  -7.337  18.715  1.00  0.00     0.011 A 
HETATM   15  C8  UNL     1      35.341  -6.293  18.754  1.00  0.00     0.011 A 
ENDBRANCH   8  13
ENDBRANCH   2   5
ENDBRANCH   1   2
BRANCH   1  16
HETATM   16  C10 UNL     1      36.917  -8.010  24.859  1.00  0.00     0.017 C 
BRANCH  16  17
HETATM   17  C11 UNL     1      35.396  -8.035  25.096  1.00  0.00    -0.014 C 
HETATM   18  C12 UNL     1      34.738  -7.568  23.872  1.00  0.00     0.005 C 
HETATM   19  C13 UNL     1      33.616  -6.584  24.035  1.00  0.00     0.000 C 
HETATM   20  C14 UNL     1      33.080  -6.481  25.426  1.00  0.00     0.000 C 
HETATM   21  C15 UNL     1      34.283  -6.116  26.308  1.00  0.00     0.000 C 
HETATM   22  C16 UNL     1      35.147  -7.330  26.367  1.00  0.00     0.005 C 
ENDBRANCH  16  17
ENDBRANCH   1  16
BRANCH   1  23
HETATM   23  C17 UNL     1      38.515  -9.512  25.814  1.00  0.00    -0.051 A 
HETATM   24  C18 UNL     1      39.656  -8.770  25.593  1.00  0.00     0.009 A 
HETATM   25  C19 UNL     1      40.716  -8.800  26.485  1.00  0.00     0.024 A 
HETATM   26  C20 UNL     1      40.648  -9.577  27.617  1.00  0.00     0.034 A 
HETATM   27 CL1  UNL     1      41.999  -9.614  28.755  1.00  0.00    -0.084 Cl
HETATM   28  C21 UNL     1      39.500 -10.322  27.837  1.00  0.00     0.024 A 
HETATM   29  C22 UNL     1      38.431 -10.292  26.936  1.00  0.00     0.009 A 
ENDBRANCH   1  23
TORSDOF 7
ENDMDL
MODEL 2
REMARK VINA RESULT: -8.521987478      0.991      1.405
REMARK  7 active torsions:
REMARK  status: ('A' for Active; 'I' for Inactive)
REMARK    1  A    between atoms: O1_1  and  C1_3 
REMARK    2  A    between atoms: C1_3  and  C2_4 
REMARK    3  A    between atoms: C1_3  and  C9_15 
REMARK    4  A    between atoms: C5_7  and  C6_8 
REMARK    5  A    between atoms: C9_15  and  C10_16 
REMARK    6  A    between atoms: C9_15  and  C17_23 
REMARK    7  A    between atoms: C10_16  and  C11_17 
ROOT
HETATM    1  C9  UNL     1      37.238  -9.048  24.288  1.00  0.00     0.054 C 
ENDROOT
BRANCH   1   2
HETATM    2  C1  UNL     1      37.938  -9.343  23.013  1.00  0.00     0.177 C 
BRANCH   2   3
HETATM    3  O1  UNL     1      37.811 -10.750  22.832  1.00  0.00    -0.389 OA
ATOM      4  H1  UNL     1      38.323 -11.143  23.528  1.00  0.00     0.210 HD
ENDBRANCH   2   3
BRANCH   2   5
HETATM    5  C2  UNL     1      37.416  -8.743  21.793  1.00  0.00     0.055 A 
HETATM    6  C3  UNL     1      36.043  -8.920  21.562  1.00  0.00     0.031 A 
HETATM    7  C4  UNL     1      35.435  -8.394  20.441  1.00  0.00     0.029 A 
HETATM    8  C5  UNL     1      36.179  -7.681  19.523  1.00  0.00     0.030 A 
HETATM    9  N1  UNL     1      37.491  -7.537  19.783  1.00  0.00    -0.304 N 
HETATM   10  N2  UNL     1      38.065  -8.045  20.862  1.00  0.00    -0.302 N 
ATOM     11  H1  UNL     1      38.066  -7.014  19.123  1.00  0.00     0.186 HD
ATOM     12  H2  UNL     1      39.066  -7.892  20.988  1.00  0.00     0.186 HD
BRANCH   8  13
HETATM   13  C6  UNL     1      35.554  -7.095  18.294  1.00  0.00     0.037 A 
HETATM   14  C7  UNL     1      34.079  -6.963  18.251  1.00  0.00     0.011 A 
HETATM   15  C8  UNL     1      34.929  -5.762  18.499  1.00  0.00     0.011 A 
ENDBRANCH   8  13
ENDBRANCH   2   5
ENDBRANCH   1   2
BRANCH   1  16
HETATM   16  C10 UNL     1      36.743  -7.654  24.465  1.00  0.00     0.017 C 
BRANCH  16  17
HETATM   17  C11 UNL     1      35.248  -7.676  24.833  1.00  0.00    -0.014 C 
HETATM   18  C12 UNL     1      34.519  -6.912  23.817  1.00  0.00     0.005 C 
HETATM   19  C13 UNL     1      33.474  -5.951  24.307  1.00  0.00     0.000 C 
HETATM   20  C14 UNL     1      33.063  -6.155  25.729  1.00  0.00     0.000 C 
HETATM   21  C15 UNL     1      34.354  -6.052  26.552  1.00  0.00     0.000 C 
HETATM   22  C16 UNL     1      35.148  -7.278  26.250  1.00  0.00     0.005 C 
ENDBRANCH  16  17
ENDBRANCH   1  16
BRANCH   1  23
HETATM   23  C17 UNL     1      38.238  -9.284  25.373  1.00  0.00    -0.051 A 
HETATM   24  C18 UNL     1      37.843 -10.103  26.409  1.00  0.00     0.009 A 
HETATM   25  C19 UNL     1      38.693 -10.384  27.467  1.00  0.00     0.024 A 
HETATM   26  C20 UNL     1      39.958  -9.847  27.502  1.00  0.00     0.034 A 
HETATM   27 CL1  UNL     1      41.042 -10.206  28.850  1.00  0.00    -0.084 Cl
HETATM   28  C21 UNL     1      40.354  -9.024  26.459  1.00  0.00     0.024 A 
HETATM   29  C22 UNL     1      39.495  -8.740  25.392  1.00  0.00     0.009 A 
ENDBRANCH   1  23
TORSDOF 7
ENDMDL
MODEL 3
REMARK VINA RESULT: -8.381524552      1.426      1.866
REMARK  7 active torsions:
REMARK  status: ('A' for Active; 'I' for Inactive)
REMARK    1  A    between atoms: O1_1  and  C1_3 
REMARK    2  A    between atoms: C1_3  and  C2_4 
REMARK    3  A    between atoms: C1_3  and  C9_15 
REMARK    4  A    between atoms: C5_7  and  C6_8 
REMARK    5  A    between atoms: C9_15  and  C10_16 
REMARK    6  A    between atoms: C9_15  and  C17_23 
REMARK    7  A    between atoms: C10_16  and  C11_17 
ROOT
HETATM    1  C9  UNL     1      36.731  -9.048  24.605  1.00  0.00     0.054 C 
ENDROOT
BRANCH   1   2
HETATM    2  C1  UNL     1      37.709  -9.094  23.489  1.00  0.00     0.177 C 
BRANCH   2   3
HETATM    3  O1  UNL     1      37.952 -10.478  23.259  1.00  0.00    -0.389 OA
ATOM      4  H1  UNL     1      37.886 -10.892  24.111  1.00  0.00     0.210 HD
ENDBRANCH   2   3
BRANCH   2   5
HETATM    5  C2  UNL     1      37.300  -8.549  22.202  1.00  0.00     0.055 A 
HETATM    6  C3  UNL     1      35.962  -8.137  22.107  1.00  0.00     0.031 A 
HETATM    7  C4  UNL     1      35.461  -7.602  20.939  1.00  0.00     0.029 A 
HETATM    8  C5  UNL     1      36.280  -7.466  19.837  1.00  0.00     0.030 A 
HETATM    9  N1  UNL     1      37.555  -7.874  19.970  1.00  0.00    -0.304 N 
HETATM   10  N2  UNL     1      38.026  -8.386  21.096  1.00  0.00    -0.302 N 
ATOM     11  H1  UNL     1      38.184  -7.786  19.172  1.00  0.00     0.186 HD
ATOM     12  H2  UNL     1      39.005  -8.673  21.119  1.00  0.00     0.186 HD
BRANCH   8  13
HETATM   13  C6  UNL     1      35.772  -6.890  18.549  1.00  0.00     0.037 A 
HETATM   14  C7  UNL     1      34.336  -7.057  18.224  1.00  0.00     0.011 A 
HETATM   15  C8  UNL     1      34.842  -5.742  18.716  1.00  0.00     0.011 A 
ENDBRANCH   8  13
ENDBRANCH   2   5
ENDBRANCH   1   2
BRANCH   1  16
HETATM   16  C10 UNL     1      36.378  -7.696  25.122  1.00  0.00     0.017 C 
BRANCH  16  17
HETATM   17  C11 UNL     1      34.960  -7.723  25.721  1.00  0.00    -0.014 C 
HETATM   18  C12 UNL     1      34.065  -8.349  24.743  1.00  0.00     0.005 C 
HETATM   19  C13 UNL     1      32.740  -7.684  24.508  1.00  0.00     0.000 C 
HETATM   20  C14 UNL     1      32.356  -6.683  25.551  1.00  0.00     0.000 C 
HETATM   21  C15 UNL     1      33.501  -5.662  25.587  1.00  0.00     0.000 C 
HETATM   22  C16 UNL     1      34.669  -6.358  26.200  1.00  0.00     0.005 C 
ENDBRANCH  16  17
ENDBRANCH   1  16
BRANCH   1  23
HETATM   23  C17 UNL     1      37.367  -9.783  25.741  1.00  0.00    -0.051 A 
HETATM   24  C18 UNL     1      36.595 -10.740  26.366  1.00  0.00     0.009 A 
HETATM   25  C19 UNL     1      37.087 -11.476  27.432  1.00  0.00     0.024 A 
HETATM   26  C20 UNL     1      38.366 -11.265  27.888  1.00  0.00     0.034 A 
HETATM   27 CL1  UNL     1      38.994 -12.204  29.247  1.00  0.00    -0.084 Cl
HETATM   28  C21 UNL     1      39.141 -10.303  27.259  1.00  0.00     0.024 A 
HETATM   29  C22 UNL     1      38.644  -9.560  26.184  1.00  0.00     0.009 A 
ENDBRANCH   1  23
TORSDOF 7
ENDMDL
MODEL 4
REMARK VINA RESULT: -8.174000646      2.241      4.627
REMARK  7 active torsions:
REMARK  status: ('A' for Active; 'I' for Inactive)
REMARK    1  A    between atoms: O1_1  and  C1_3 
REMARK    2  A    between atoms: C1_3  and  C2_4 
REMARK    3  A    between atoms: C1_3  and  C9_15 
REMARK    4  A    between atoms: C5_7  and  C6_8 
REMARK    5  A    between atoms: C9_15  and  C10_16 
REMARK    6  A    between atoms: C9_15  and  C17_23 
REMARK    7  A    between atoms: C10_16  and  C11_17 
ROOT
HETATM    1  C9  UNL     1      38.712  -9.425  24.240  1.00  0.00     0.054 C 
ENDROOT
BRANCH   1   2
HETATM    2  C1  UNL     1      38.462 -10.080  22.932  1.00  0.00     0.177 C 
BRANCH   2   3
HETATM    3  O1  UNL     1      37.550 -11.137  23.210  1.00  0.00    -0.389 OA
ATOM      4  H1  UNL     1      37.050 -10.850  23.965  1.00  0.00     0.210 HD
ENDBRANCH   2   3
BRANCH   2   5
HETATM    5  C2  UNL     1      37.836  -9.289  21.882  1.00  0.00     0.055 A 
HETATM    6  C3  UNL     1      36.477  -9.548  21.647  1.00  0.00     0.031 A 
HETATM    7  C4  UNL     1      35.776  -8.859  20.679  1.00  0.00     0.029 A 
HETATM    8  C5  UNL     1      36.411  -7.897  19.922  1.00  0.00     0.030 A 
HETATM    9  N1  UNL     1      37.714  -7.680  20.179  1.00  0.00    -0.304 N 
HETATM   10  N2  UNL     1      38.377  -8.347  21.111  1.00  0.00    -0.302 N 
ATOM     11  H1  UNL     1      38.210  -6.974  19.636  1.00  0.00     0.186 HD
ATOM     12  H2  UNL     1      39.364  -8.125  21.246  1.00  0.00     0.186 HD
BRANCH   8  13
HETATM   13  C6  UNL     1      35.683  -7.128  18.861  1.00  0.00     0.037 A 
HETATM   14  C7  UNL     1      34.294  -7.527  18.533  1.00  0.00     0.011 A 
HETATM   15  C8  UNL     1      34.546  -6.314  19.365  1.00  0.00     0.011 A 
ENDBRANCH   8  13
ENDBRANCH   2   5
ENDBRANCH   1   2
BRANCH   1  16
HETATM   16  C10 UNL     1      39.021 -10.328  25.386  1.00  0.00     0.017 C 
BRANCH  16  17
HETATM   17  C11 UNL     1      39.358  -9.490  26.632  1.00  0.00    -0.014 C 
HETATM   18  C12 UNL     1      40.763  -9.084  26.540  1.00  0.00     0.005 C 
HETATM   19  C13 UNL     1      41.593  -9.215  27.785  1.00  0.00     0.000 C 
HETATM   20  C14 UNL     1      40.802  -9.401  29.039  1.00  0.00     0.000 C 
HETATM   21  C15 UNL     1      39.937 -10.647  28.804  1.00  0.00     0.000 C 
HETATM   22  C16 UNL     1      38.900 -10.259  27.804  1.00  0.00     0.005 C 
ENDBRANCH  16  17
ENDBRANCH   1  16
BRANCH   1  23
HETATM   23  C17 UNL     1      37.447  -8.711  24.593  1.00  0.00    -0.051 A 
HETATM   24  C18 UNL     1      37.369  -7.381  24.234  1.00  0.00     0.009 A 
HETATM   25  C19 UNL     1      36.241  -6.627  24.517  1.00  0.00     0.024 A 
HETATM   26  C20 UNL     1      35.171  -7.195  25.165  1.00  0.00     0.034 A 
HETATM   27 CL1  UNL     1      33.734  -6.232  25.525  1.00  0.00    -0.084 Cl
HETATM   28  C21 UNL     1      35.252  -8.531  25.526  1.00  0.00     0.024 A 
HETATM   29  C22 UNL     1      36.390  -9.292  25.240  1.00  0.00     0.009 A 
ENDBRANCH   1  23
TORSDOF 7
ENDMDL
MODEL 5
REMARK VINA RESULT: -8.095773842      3.380      6.958
REMARK  7 active torsions:
REMARK  status: ('A' for Active; 'I' for Inactive)
REMARK    1  A    between atoms: O1_1  and  C1_3 
REMARK    2  A    between atoms: C1_3  and  C2_4 
REMARK    3  A    between atoms: C1_3  and  C9_15 
REMARK    4  A    between atoms: C5_7  and  C6_8 
REMARK    5  A    between atoms: C9_15  and  C10_16 
REMARK    6  A    between atoms: C9_15  and  C17_23 
REMARK    7  A    between atoms: C10_16  and  C11_17 
ROOT
HETATM    1  C9  UNL     1      35.942  -7.669  21.590  1.00  0.00     0.054 C 
ENDROOT
BRANCH   1   2
HETATM    2  C1  UNL     1      37.094  -8.596  21.459  1.00  0.00     0.177 C 
BRANCH   2   3
HETATM    3  O1  UNL     1      38.152  -7.807  20.927  1.00  0.00    -0.389 OA
ATOM      4  H1  UNL     1      37.910  -7.630  20.026  1.00  0.00     0.210 HD
ENDBRANCH   2   3
BRANCH   2   5
HETATM    5  C2  UNL     1      37.627  -9.197  22.673  1.00  0.00     0.055 A 
HETATM    6  C3  UNL     1      38.168  -8.306  23.613  1.00  0.00     0.031 A 
HETATM    7  C4  UNL     1      38.699  -8.758  24.802  1.00  0.00     0.029 A 
HETATM    8  C5  UNL     1      38.707 -10.109  25.084  1.00  0.00     0.030 A 
HETATM    9  N1  UNL     1      38.180 -10.928  24.156  1.00  0.00    -0.304 N 
HETATM   10  N2  UNL     1      37.671 -10.484  23.018  1.00  0.00    -0.302 N 
ATOM     11  H1  UNL     1      38.171 -11.932  24.338  1.00  0.00     0.186 HD
ATOM     12  H2  UNL     1      37.290 -11.168  22.365  1.00  0.00     0.186 HD
BRANCH   8  13
HETATM   13  C6  UNL     1      39.276 -10.639  26.366  1.00  0.00     0.037 A 
HETATM   14  C7  UNL     1      39.668  -9.668  27.414  1.00  0.00     0.011 A 
HETATM   15  C8  UNL     1      38.402 -10.445  27.552  1.00  0.00     0.011 A 
ENDBRANCH   8  13
ENDBRANCH   2   5
ENDBRANCH   1   2
BRANCH   1  16
HETATM   16  C10 UNL     1      34.923  -8.018  22.621  1.00  0.00     0.017 C 
BRANCH  16  17
HETATM   17  C11 UNL     1      34.652  -6.798  23.519  1.00  0.00    -0.014 C 
HETATM   18  C12 UNL     1      35.470  -6.933  24.727  1.00  0.00     0.005 C 
HETATM   19  C13 UNL     1      34.802  -6.636  26.039  1.00  0.00     0.000 C 
HETATM   20  C14 UNL     1      33.505  -5.902  25.921  1.00  0.00     0.000 C 
HETATM   21  C15 UNL     1      32.618  -6.770  25.019  1.00  0.00     0.000 C 
HETATM   22  C16 UNL     1      33.188  -6.673  23.644  1.00  0.00     0.005 C 
ENDBRANCH  16  17
ENDBRANCH   1  16
BRANCH   1  23
HETATM   23  C17 UNL     1      35.238  -7.696  20.272  1.00  0.00    -0.051 A 
HETATM   24  C18 UNL     1      34.531  -8.842  19.974  1.00  0.00     0.009 A 
HETATM   25  C19 UNL     1      33.845  -8.971  18.776  1.00  0.00     0.024 A 
HETATM   26  C20 UNL     1      33.857  -7.949  17.856  1.00  0.00     0.034 A 
HETATM   27 CL1  UNL     1      32.982  -8.114  16.331  1.00  0.00    -0.084 Cl
HETATM   28  C21 UNL     1      34.569  -6.799  18.158  1.00  0.00     0.024 A 
HETATM   29  C22 UNL     1      35.261  -6.669  19.366  1.00  0.00     0.009 A 
ENDBRANCH   1  23
TORSDOF 7
ENDMDL
