MODEL 1
REMARK VINA RESULT: -8.949179485      0.000      0.000
REMARK  6 active torsions:
REMARK  status: ('A' for Active; 'I' for Inactive)
REMARK    1  A    between atoms: C2_2  and  C3_3 
REMARK    2  A    between atoms: C3_3  and  C4_4 
REMARK    3  A    between atoms: C14_16  and  N1_17 
REMARK    4  A    between atoms: N1_17  and  C15_20 
REMARK    5  A    between atoms: C15_20  and  C16_21 
REMARK    6  A    between atoms: C16_21  and  C17_22 
ROOT
HETATM    1  C4  UNL     1      36.207  -8.722  24.462  1.00  0.00     0.051 C 
HETATM    2  C5  UNL     1      36.419  -9.174  25.915  1.00  0.00     0.050 C 
HETATM    3  C6  UNL     1      37.491 -10.244  25.952  1.00  0.00     0.097 C 
HETATM    4  C7  UNL     1      36.982 -11.539  26.476  1.00  0.00     0.041 C 
HETATM    5  C8  UNL     1      36.158 -11.508  27.713  1.00  0.00     0.003 C 
HETATM    6  C9  UNL     1      36.783 -10.880  28.909  1.00  0.00     0.000 C 
HETATM    7  C10 UNL     1      38.122 -11.544  29.161  1.00  0.00     0.000 C 
HETATM    8  C11 UNL     1      39.178 -10.512  28.841  1.00  0.00     0.000 C 
HETATM    9  C12 UNL     1      39.567 -10.586  27.356  1.00  0.00     0.003 C 
HETATM   10  C13 UNL     1      38.707  -9.687  26.564  1.00  0.00     0.041 C 
HETATM   11  O1  UNL     1      37.789 -10.488  24.583  1.00  0.00    -0.228 OA
HETATM   12  O2  UNL     1      38.379  -9.470  24.030  1.00  0.00    -0.206 OA
HETATM   13  C14 UNL     1      37.553  -8.359  23.945  1.00  0.00     0.362 C 
ENDROOT
BRANCH  13  14
HETATM   14  N1  UNL     1      37.594  -7.730  22.654  1.00  0.00    -0.045 N 
ATOM     15  H12 UNL     1      36.713  -7.255  22.460  1.00  0.00     0.280 HD
ATOM     16  H11 UNL     1      38.224  -6.929  22.666  1.00  0.00     0.280 HD
BRANCH  14  17
HETATM   17  C15 UNL     1      37.931  -8.617  21.583  1.00  0.00     0.240 C 
BRANCH  17  18
HETATM   18  C16 UNL     1      36.695  -9.115  20.891  1.00  0.00     0.066 C 
BRANCH  18  19
HETATM   19  C17 UNL     1      35.768  -8.088  20.417  1.00  0.00    -0.057 A 
HETATM   20  C18 UNL     1      34.541  -7.831  21.019  1.00  0.00     0.009 A 
HETATM   21  C19 UNL     1      33.726  -6.842  20.532  1.00  0.00     0.024 A 
HETATM   22  C20 UNL     1      34.051  -6.056  19.448  1.00  0.00     0.034 A 
HETATM   23 CL1  UNL     1      32.979  -4.793  18.852  1.00  0.00    -0.084 Cl
HETATM   24  C21 UNL     1      35.266  -6.306  18.847  1.00  0.00     0.024 A 
HETATM   25  C22 UNL     1      36.091  -7.292  19.322  1.00  0.00     0.009 A 
ENDBRANCH  18  19
ENDBRANCH  17  18
ENDBRANCH  14  17
ENDBRANCH  13  14
BRANCH   1  26
HETATM   26  C3  UNL     1      35.255  -7.547  24.515  1.00  0.00     0.035 C 
BRANCH  26  27
HETATM   27  C2  UNL     1      35.218  -6.971  25.890  1.00  0.00    -0.036 C 
HETATM   28  C1  UNL     1      34.223  -6.208  26.295  1.00  0.00     0.007 C 
ENDBRANCH  26  27
ENDBRANCH   1  26
TORSDOF 6
ENDMDL
MODEL 2
REMARK VINA RESULT: -8.853979047      1.173      1.315
REMARK  6 active torsions:
REMARK  status: ('A' for Active; 'I' for Inactive)
REMARK    1  A    between atoms: C2_2  and  C3_3 
REMARK    2  A    between atoms: C3_3  and  C4_4 
REMARK    3  A    between atoms: C14_16  and  N1_17 
REMARK    4  A    between atoms: N1_17  and  C15_20 
REMARK    5  A    between atoms: C15_20  and  C16_21 
REMARK    6  A    between atoms: C16_21  and  C17_22 
ROOT
HETATM    1  C4  UNL     1      36.389  -8.827  24.609  1.00  0.00     0.051 C 
HETATM    2  C5  UNL     1      36.474  -9.292  26.071  1.00  0.00     0.050 C 
HETATM    3  C6  UNL     1      37.520 -10.383  26.185  1.00  0.00     0.097 C 
HETATM    4  C7  UNL     1      36.947 -11.671  26.656  1.00  0.00     0.041 C 
HETATM    5  C8  UNL     1      36.027 -11.633  27.823  1.00  0.00     0.003 C 
HETATM    6  C9  UNL     1      36.564 -11.025  29.071  1.00  0.00     0.000 C 
HETATM    7  C10 UNL     1      37.866 -11.716  29.424  1.00  0.00     0.000 C 
HETATM    8  C11 UNL     1      38.964 -10.702  29.198  1.00  0.00     0.000 C 
HETATM    9  C12 UNL     1      39.469 -10.774  27.749  1.00  0.00     0.003 C 
HETATM   10  C13 UNL     1      38.693  -9.853  26.897  1.00  0.00     0.041 C 
HETATM   11  O1  UNL     1      37.923 -10.623  24.843  1.00  0.00    -0.228 OA
HETATM   12  O2  UNL     1      38.575  -9.612  24.348  1.00  0.00    -0.206 OA
HETATM   13  C14 UNL     1      37.778  -8.485  24.205  1.00  0.00     0.362 C 
ENDROOT
BRANCH  13  14
HETATM   14  N1  UNL     1      37.935  -7.849  22.927  1.00  0.00    -0.045 N 
ATOM     15  H12 UNL     1      37.233  -7.120  22.802  1.00  0.00     0.280 HD
ATOM     16  H11 UNL     1      38.780  -7.280  22.912  1.00  0.00     0.280 HD
BRANCH  14  17
HETATM   17  C15 UNL     1      37.920  -8.753  21.818  1.00  0.00     0.240 C 
BRANCH  17  18
HETATM   18  C16 UNL     1      37.308  -8.107  20.609  1.00  0.00     0.066 C 
BRANCH  18  19
HETATM   19  C17 UNL     1      35.851  -8.182  20.510  1.00  0.00    -0.057 A 
HETATM   20  C18 UNL     1      34.995  -7.310  21.173  1.00  0.00     0.009 A 
HETATM   21  C19 UNL     1      33.637  -7.426  21.024  1.00  0.00     0.024 A 
HETATM   22  C20 UNL     1      33.041  -8.383  20.233  1.00  0.00     0.034 A 
HETATM   23 CL1  UNL     1      31.293  -8.502  20.063  1.00  0.00    -0.084 Cl
HETATM   24  C21 UNL     1      33.884  -9.252  19.573  1.00  0.00     0.024 A 
HETATM   25  C22 UNL     1      35.243  -9.147  19.712  1.00  0.00     0.009 A 
ENDBRANCH  18  19
ENDBRANCH  17  18
ENDBRANCH  14  17
ENDBRANCH  13  14
BRANCH   1  26
HETATM   26  C3  UNL     1      35.457  -7.634  24.596  1.00  0.00     0.035 C 
BRANCH  26  27
HETATM   27  C2  UNL     1      35.269  -7.107  25.977  1.00  0.00    -0.036 C 
HETATM   28  C1  UNL     1      34.274  -6.298  26.281  1.00  0.00     0.007 C 
ENDBRANCH  26  27
ENDBRANCH   1  26
TORSDOF 6
ENDMDL
MODEL 3
REMARK VINA RESULT: -8.772747525      3.770      7.878
REMARK  6 active torsions:
REMARK  status: ('A' for Active; 'I' for Inactive)
REMARK    1  A    between atoms: C2_2  and  C3_3 
REMARK    2  A    between atoms: C3_3  and  C4_4 
REMARK    3  A    between atoms: C14_16  and  N1_17 
REMARK    4  A    between atoms: N1_17  and  C15_20 
REMARK    5  A    between atoms: C15_20  and  C16_21 
REMARK    6  A    between atoms: C16_21  and  C17_22 
ROOT
HETATM    1  C4  UNL     1      36.499  -9.028  25.710  1.00  0.00     0.051 C 
HETATM    2  C5  UNL     1      35.080  -8.628  25.277  1.00  0.00     0.050 C 
HETATM    3  C6  UNL     1      35.129  -7.271  24.605  1.00  0.00     0.097 C 
HETATM    4  C7  UNL     1      34.323  -6.251  25.327  1.00  0.00     0.041 C 
HETATM    5  C8  UNL     1      32.951  -6.631  25.754  1.00  0.00     0.003 C 
HETATM    6  C9  UNL     1      32.028  -7.097  24.684  1.00  0.00     0.000 C 
HETATM    7  C10 UNL     1      31.989  -6.050  23.589  1.00  0.00     0.000 C 
HETATM    8  C11 UNL     1      32.683  -6.656  22.391  1.00  0.00     0.000 C 
HETATM    9  C12 UNL     1      34.190  -6.361  22.440  1.00  0.00     0.003 C 
HETATM   10  C13 UNL     1      34.892  -7.438  23.163  1.00  0.00     0.041 C 
HETATM   11  O1  UNL     1      36.480  -6.855  24.758  1.00  0.00    -0.228 OA
HETATM   12  O2  UNL     1      37.292  -7.585  24.052  1.00  0.00    -0.206 OA
HETATM   13  C14 UNL     1      37.350  -8.897  24.499  1.00  0.00     0.362 C 
ENDROOT
BRANCH  13  14
HETATM   14  N1  UNL     1      38.695  -9.391  24.605  1.00  0.00    -0.045 N 
ATOM     15  H12 UNL     1      38.695 -10.361  24.921  1.00  0.00     0.280 HD
ATOM     16  H11 UNL     1      39.106  -9.511  23.680  1.00  0.00     0.280 HD
BRANCH  14  17
HETATM   17  C15 UNL     1      39.547  -8.594  25.432  1.00  0.00     0.240 C 
BRANCH  17  18
HETATM   18  C16 UNL     1      40.601  -9.440  26.086  1.00  0.00     0.066 C 
BRANCH  18  19
HETATM   19  C17 UNL     1      40.644  -9.397  27.548  1.00  0.00    -0.057 A 
HETATM   20  C18 UNL     1      41.440  -8.508  28.261  1.00  0.00     0.009 A 
HETATM   21  C19 UNL     1      41.422  -8.509  29.631  1.00  0.00     0.024 A 
HETATM   22  C20 UNL     1      40.638  -9.362  30.378  1.00  0.00     0.034 A 
HETATM   23 CL1  UNL     1      40.638  -9.334  32.138  1.00  0.00    -0.084 Cl
HETATM   24  C21 UNL     1      39.847 -10.246  29.677  1.00  0.00     0.024 A 
HETATM   25  C22 UNL     1      39.855 -10.256  28.306  1.00  0.00     0.009 A 
ENDBRANCH  18  19
ENDBRANCH  17  18
ENDBRANCH  14  17
ENDBRANCH  13  14
BRANCH   1  26
HETATM   26  C3  UNL     1      36.404 -10.452  26.217  1.00  0.00     0.035 C 
BRANCH  26  27
HETATM   27  C2  UNL     1      36.425 -10.475  27.707  1.00  0.00    -0.036 C 
HETATM   28  C1  UNL     1      36.391 -11.605  28.384  1.00  0.00     0.007 C 
ENDBRANCH  26  27
ENDBRANCH   1  26
TORSDOF 6
ENDMDL
MODEL 4
REMARK VINA RESULT: -8.666166800      3.305      7.864
REMARK  6 active torsions:
REMARK  status: ('A' for Active; 'I' for Inactive)
REMARK    1  A    between atoms: C2_2  and  C3_3 
REMARK    2  A    between atoms: C3_3  and  C4_4 
REMARK    3  A    between atoms: C14_16  and  N1_17 
REMARK    4  A    between atoms: N1_17  and  C15_20 
REMARK    5  A    between atoms: C15_20  and  C16_21 
REMARK    6  A    between atoms: C16_21  and  C17_22 
ROOT
HETATM    1  C4  UNL     1      37.201  -7.731  22.217  1.00  0.00     0.051 C 
HETATM    2  C5  UNL     1      35.832  -7.342  21.638  1.00  0.00     0.050 C 
HETATM    3  C6  UNL     1      35.669  -7.983  20.274  1.00  0.00     0.097 C 
HETATM    4  C7  UNL     1      35.507  -6.978  19.191  1.00  0.00     0.041 C 
HETATM    5  C8  UNL     1      34.552  -5.862  19.419  1.00  0.00     0.003 C 
HETATM    6  C9  UNL     1      33.149  -6.246  19.737  1.00  0.00     0.000 C 
HETATM    7  C10 UNL     1      32.647  -7.184  18.657  1.00  0.00     0.000 C 
HETATM    8  C11 UNL     1      32.506  -8.543  19.301  1.00  0.00     0.000 C 
HETATM    9  C12 UNL     1      33.822  -9.328  19.188  1.00  0.00     0.003 C 
HETATM   10  C13 UNL     1      34.671  -9.060  20.364  1.00  0.00     0.041 C 
HETATM   11  O1  UNL     1      36.925  -8.600  20.026  1.00  0.00    -0.228 OA
HETATM   12  O2  UNL     1      37.134  -9.606  20.823  1.00  0.00    -0.206 OA
HETATM   13  C14 UNL     1      37.271  -9.214  22.147  1.00  0.00     0.362 C 
ENDROOT
BRANCH  13  14
HETATM   14  N1  UNL     1      38.390  -9.834  22.800  1.00  0.00    -0.045 N 
ATOM     15  H12 UNL     1      39.065 -10.167  22.112  1.00  0.00     0.280 HD
ATOM     16  H11 UNL     1      38.959  -9.134  23.275  1.00  0.00     0.280 HD
BRANCH  14  17
HETATM   17  C15 UNL     1      38.032 -10.884  23.702  1.00  0.00     0.240 C 
BRANCH  17  18
HETATM   18  C16 UNL     1      37.522 -10.324  24.999  1.00  0.00     0.066 C 
BRANCH  18  19
HETATM   19  C17 UNL     1      38.526 -10.092  26.036  1.00  0.00    -0.057 A 
HETATM   20  C18 UNL     1      38.466 -10.671  27.299  1.00  0.00     0.009 A 
HETATM   21  C19 UNL     1      39.450 -10.423  28.221  1.00  0.00     0.024 A 
HETATM   22  C20 UNL     1      40.534  -9.609  27.973  1.00  0.00     0.034 A 
HETATM   23 CL1  UNL     1      41.780  -9.314  29.180  1.00  0.00    -0.084 Cl
HETATM   24  C21 UNL     1      40.598  -9.031  26.723  1.00  0.00     0.024 A 
HETATM   25  C22 UNL     1      39.622  -9.270  25.791  1.00  0.00     0.009 A 
ENDBRANCH  18  19
ENDBRANCH  17  18
ENDBRANCH  14  17
ENDBRANCH  13  14
BRANCH   1  26
HETATM   26  C3  UNL     1      37.229  -7.202  23.635  1.00  0.00     0.035 C 
BRANCH  26  27
HETATM   27  C2  UNL     1      35.847  -7.112  24.183  1.00  0.00    -0.036 C 
HETATM   28  C1  UNL     1      35.612  -7.123  25.480  1.00  0.00     0.007 C 
ENDBRANCH  26  27
ENDBRANCH   1  26
TORSDOF 6
ENDMDL
MODEL 5
REMARK VINA RESULT: -8.621992245      1.146      1.576
REMARK  6 active torsions:
REMARK  status: ('A' for Active; 'I' for Inactive)
REMARK    1  A    between atoms: C2_2  and  C3_3 
REMARK    2  A    between atoms: C3_3  and  C4_4 
REMARK    3  A    between atoms: C14_16  and  N1_17 
REMARK    4  A    between atoms: N1_17  and  C15_20 
REMARK    5  A    between atoms: C15_20  and  C16_21 
REMARK    6  A    between atoms: C16_21  and  C17_22 
ROOT
HETATM    1  C4  UNL     1      36.275  -8.704  24.645  1.00  0.00     0.051 C 
HETATM    2  C5  UNL     1      36.437  -9.188  26.095  1.00  0.00     0.050 C 
HETATM    3  C6  UNL     1      37.455 -10.309  26.134  1.00  0.00     0.097 C 
HETATM    4  C7  UNL     1      36.875 -11.586  26.627  1.00  0.00     0.041 C 
HETATM    5  C8  UNL     1      36.030 -11.535  27.848  1.00  0.00     0.003 C 
HETATM    6  C9  UNL     1      36.659 -10.956  29.066  1.00  0.00     0.000 C 
HETATM    7  C10 UNL     1      37.961 -11.688  29.332  1.00  0.00     0.000 C 
HETATM    8  C11 UNL     1      39.071 -10.702  29.049  1.00  0.00     0.000 C 
HETATM    9  C12 UNL     1      39.485 -10.772  27.571  1.00  0.00     0.003 C 
HETATM   10  C13 UNL     1      38.684  -9.821  26.778  1.00  0.00     0.041 C 
HETATM   11  O1  UNL     1      37.768 -10.544  24.767  1.00  0.00    -0.228 OA
HETATM   12  O2  UNL     1      38.418  -9.547  24.242  1.00  0.00    -0.206 OA
HETATM   13  C14 UNL     1      37.646  -8.397  24.160  1.00  0.00     0.362 C 
ENDROOT
BRANCH  13  14
HETATM   14  N1  UNL     1      37.743  -7.751  22.881  1.00  0.00    -0.045 N 
ATOM     15  H12 UNL     1      36.990  -7.073  22.765  1.00  0.00     0.280 HD
ATOM     16  H11 UNL     1      38.546  -7.123  22.857  1.00  0.00     0.280 HD
BRANCH  14  17
HETATM   17  C15 UNL     1      37.780  -8.654  21.771  1.00  0.00     0.240 C 
BRANCH  17  18
HETATM   18  C16 UNL     1      37.574  -7.919  20.478  1.00  0.00     0.066 C 
BRANCH  18  19
HETATM   19  C17 UNL     1      36.220  -7.958  19.926  1.00  0.00    -0.057 A 
HETATM   20  C18 UNL     1      35.659  -6.908  19.209  1.00  0.00     0.009 A 
HETATM   21  C19 UNL     1      34.389  -7.015  18.705  1.00  0.00     0.024 A 
HETATM   22  C20 UNL     1      33.601  -8.134  18.867  1.00  0.00     0.034 A 
HETATM   23 CL1  UNL     1      31.974  -8.237  18.204  1.00  0.00    -0.084 Cl
HETATM   24  C21 UNL     1      34.152  -9.178  19.578  1.00  0.00     0.024 A 
HETATM   25  C22 UNL     1      35.421  -9.085  20.087  1.00  0.00     0.009 A 
ENDBRANCH  18  19
ENDBRANCH  17  18
ENDBRANCH  14  17
ENDBRANCH  13  14
BRANCH   1  26
HETATM   26  C3  UNL     1      35.379  -7.485  24.700  1.00  0.00     0.035 C 
BRANCH  26  27
HETATM   27  C2  UNL     1      34.410  -7.501  23.569  1.00  0.00    -0.036 C 
HETATM   28  C1  UNL     1      34.321  -6.500  22.716  1.00  0.00     0.007 C 
ENDBRANCH  26  27
ENDBRANCH   1  26
TORSDOF 6
ENDMDL
