MODEL 1
REMARK VINA RESULT: -8.470781266      0.000      0.000
REMARK  6 active torsions:
REMARK  status: ('A' for Active; 'I' for Inactive)
REMARK    1  A    between atoms: C4_5  and  N1_6 
REMARK    2  A    between atoms: N1_6  and  C5_8 
REMARK    3  A    between atoms: N2_11  and  C8_12 
REMARK    4  A    between atoms: C8_12  and  C9_13 
REMARK    5  A    between atoms: C9_13  and  C10_14 
REMARK    6  A    between atoms: C10_14  and  C11_15 
ROOT
HETATM    1  C5  UNL     1      37.185 -10.670  25.290  1.00  0.00     0.085 C 
HETATM    2  C6  UNL     1      38.334 -10.904  24.357  1.00  0.00     0.055 C 
HETATM    3  C7  UNL     1      38.109 -10.085  23.100  1.00  0.00     0.274 C 
HETATM    4  N2  UNL     1      38.124  -8.689  23.415  1.00  0.00     0.088 N 
HETATM    5  C19 UNL     1      37.995  -8.386  24.803  1.00  0.00     0.274 C 
HETATM    6  C20 UNL     1      36.859  -9.190  25.441  1.00  0.00     0.055 C 
ENDROOT
BRANCH   4   7
HETATM    7  C8  UNL     1      37.212  -7.923  22.595  1.00  0.00     0.272 C 
BRANCH   7   8
HETATM    8  C9  UNL     1      36.698  -8.802  21.460  1.00  0.00     0.033 C 
BRANCH   8   9
HETATM    9  C10 UNL     1      36.417  -7.854  20.286  1.00  0.00     0.042 C 
BRANCH   9  10
HETATM   10  C11 UNL     1      34.998  -8.007  19.875  1.00  0.00     0.087 A 
HETATM   11  C12 UNL     1      33.918  -8.047  20.907  1.00  0.00     0.041 C 
HETATM   12  C13 UNL     1      32.978  -6.886  20.913  1.00  0.00     0.003 C 
HETATM   13  C14 UNL     1      33.637  -5.540  20.731  1.00  0.00     0.000 C 
HETATM   14  C15 UNL     1      33.267  -4.889  19.418  1.00  0.00     0.000 C 
HETATM   15  C16 UNL     1      34.372  -4.831  18.422  1.00  0.00     0.002 C 
HETATM   16  C17 UNL     1      35.275  -6.072  18.438  1.00  0.00     0.035 C 
HETATM   17  C18 UNL     1      34.446  -7.259  18.693  1.00  0.00     0.157 A 
HETATM   18  O1  UNL     1      34.846  -8.558  18.624  1.00  0.00    -0.369 OA
ENDBRANCH   9  10
ENDBRANCH   8   9
ENDBRANCH   7   8
ENDBRANCH   4   7
BRANCH   1  19
HETATM   19  N1  UNL     1      37.389 -11.263  26.589  1.00  0.00    -0.385 N 
ATOM     20  H1  UNL     1      36.849 -12.102  26.799  1.00  0.00     0.160 HD
BRANCH  19  21
HETATM   21  C4  UNL     1      38.258 -10.802  27.593  1.00  0.00     0.028 A 
HETATM   22  C3  UNL     1      37.921 -10.945  28.944  1.00  0.00     0.031 A 
HETATM   23  C2  UNL     1      38.793 -10.503  29.881  1.00  0.00     0.026 A 
HETATM   24  C1  UNL     1      40.001  -9.918  29.584  1.00  0.00     0.034 A 
HETATM   25 CL1  UNL     1      41.084  -9.366  30.849  1.00  0.00    -0.084 Cl
HETATM   26  C22 UNL     1      40.320  -9.782  28.254  1.00  0.00     0.026 A 
HETATM   27  C21 UNL     1      39.452 -10.224  27.277  1.00  0.00     0.031 A 
ENDBRANCH  19  21
ENDBRANCH   1  19
TORSDOF 6
ENDMDL
MODEL 2
REMARK VINA RESULT: -8.363571752      2.277      3.244
REMARK  6 active torsions:
REMARK  status: ('A' for Active; 'I' for Inactive)
REMARK    1  A    between atoms: C4_5  and  N1_6 
REMARK    2  A    between atoms: N1_6  and  C5_8 
REMARK    3  A    between atoms: N2_11  and  C8_12 
REMARK    4  A    between atoms: C8_12  and  C9_13 
REMARK    5  A    between atoms: C9_13  and  C10_14 
REMARK    6  A    between atoms: C10_14  and  C11_15 
ROOT
HETATM    1  C5  UNL     1      37.446 -10.478  25.471  1.00  0.00     0.085 C 
HETATM    2  C6  UNL     1      38.081 -10.934  24.193  1.00  0.00     0.055 C 
HETATM    3  C7  UNL     1      37.739  -9.937  23.102  1.00  0.00     0.274 C 
HETATM    4  N2  UNL     1      38.314  -8.663  23.404  1.00  0.00     0.088 N 
HETATM    5  C19 UNL     1      38.754  -8.507  24.753  1.00  0.00     0.274 C 
HETATM    6  C20 UNL     1      37.693  -8.999  25.740  1.00  0.00     0.055 C 
ENDROOT
BRANCH   4   7
HETATM    7  C8  UNL     1      37.488  -7.559  22.962  1.00  0.00     0.272 C 
BRANCH   7   8
HETATM    8  C9  UNL     1      36.058  -8.051  22.766  1.00  0.00     0.033 C 
BRANCH   8   9
HETATM    9  C10 UNL     1      35.196  -7.240  23.744  1.00  0.00     0.042 C 
BRANCH   9  10
HETATM   10  C11 UNL     1      34.006  -6.725  23.020  1.00  0.00     0.087 A 
HETATM   11  C12 UNL     1      33.325  -7.576  21.996  1.00  0.00     0.041 C 
HETATM   12  C13 UNL     1      31.947  -8.037  22.343  1.00  0.00     0.003 C 
HETATM   13  C14 UNL     1      31.776  -8.499  23.769  1.00  0.00     0.000 C 
HETATM   14  C15 UNL     1      30.875  -7.584  24.568  1.00  0.00     0.000 C 
HETATM   15  C16 UNL     1      31.575  -6.777  25.605  1.00  0.00     0.002 C 
HETATM   16  C17 UNL     1      32.967  -6.298  25.171  1.00  0.00     0.035 C 
HETATM   17  C18 UNL     1      32.928  -5.962  23.740  1.00  0.00     0.157 A 
HETATM   18  O1  UNL     1      33.912  -5.354  23.023  1.00  0.00    -0.369 OA
ENDBRANCH   9  10
ENDBRANCH   8   9
ENDBRANCH   7   8
ENDBRANCH   4   7
BRANCH   1  19
HETATM   19  N1  UNL     1      37.857 -11.260  26.611  1.00  0.00    -0.385 N 
ATOM     20  H1  UNL     1      37.613 -12.250  26.599  1.00  0.00     0.160 HD
BRANCH  19  21
HETATM   21  C4  UNL     1      38.561 -10.795  27.736  1.00  0.00     0.028 A 
HETATM   22  C3  UNL     1      38.033 -10.960  29.021  1.00  0.00     0.031 A 
HETATM   23  C2  UNL     1      38.749 -10.513  30.080  1.00  0.00     0.026 A 
HETATM   24  C1  UNL     1      39.976  -9.903  29.968  1.00  0.00     0.034 A 
HETATM   25 CL1  UNL     1      40.852  -9.347  31.383  1.00  0.00    -0.084 Cl
HETATM   26  C22 UNL     1      40.484  -9.746  28.701  1.00  0.00     0.026 A 
HETATM   27  C21 UNL     1      39.777 -10.191  27.603  1.00  0.00     0.031 A 
ENDBRANCH  19  21
ENDBRANCH   1  19
TORSDOF 6
ENDMDL
MODEL 3
REMARK VINA RESULT: -8.220707240      1.279      2.261
REMARK  6 active torsions:
REMARK  status: ('A' for Active; 'I' for Inactive)
REMARK    1  A    between atoms: C4_5  and  N1_6 
REMARK    2  A    between atoms: N1_6  and  C5_8 
REMARK    3  A    between atoms: N2_11  and  C8_12 
REMARK    4  A    between atoms: C8_12  and  C9_13 
REMARK    5  A    between atoms: C9_13  and  C10_14 
REMARK    6  A    between atoms: C10_14  and  C11_15 
ROOT
HETATM    1  C5  UNL     1      37.279 -10.524  25.224  1.00  0.00     0.085 C 
HETATM    2  C6  UNL     1      38.181 -10.876  24.081  1.00  0.00     0.055 C 
HETATM    3  C7  UNL     1      37.915  -9.910  22.941  1.00  0.00     0.274 C 
HETATM    4  N2  UNL     1      38.266  -8.581  23.335  1.00  0.00     0.088 N 
HETATM    5  C19 UNL     1      38.439  -8.396  24.739  1.00  0.00     0.274 C 
HETATM    6  C20 UNL     1      37.289  -9.031  25.525  1.00  0.00     0.055 C 
ENDROOT
BRANCH   4   7
HETATM    7  C8  UNL     1      37.401  -7.580  22.748  1.00  0.00     0.272 C 
BRANCH   7   8
HETATM    8  C9  UNL     1      36.285  -8.273  21.974  1.00  0.00     0.033 C 
BRANCH   8   9
HETATM    9  C10 UNL     1      35.001  -7.497  22.302  1.00  0.00     0.042 C 
BRANCH   9  10
HETATM   10  C11 UNL     1      34.438  -6.948  21.042  1.00  0.00     0.087 A 
HETATM   11  C12 UNL     1      35.158  -7.151  19.748  1.00  0.00     0.041 C 
HETATM   12  C13 UNL     1      34.476  -8.032  18.753  1.00  0.00     0.003 C 
HETATM   13  C14 UNL     1      33.852  -9.276  19.336  1.00  0.00     0.000 C 
HETATM   14  C15 UNL     1      32.342  -9.258  19.253  1.00  0.00     0.000 C 
HETATM   15  C16 UNL     1      31.651  -9.091  20.561  1.00  0.00     0.002 C 
HETATM   16  C17 UNL     1      32.380  -8.141  21.520  1.00  0.00     0.035 C 
HETATM   17  C18 UNL     1      32.967  -7.039  20.743  1.00  0.00     0.157 A 
HETATM   18  O1  UNL     1      33.551  -5.916  21.242  1.00  0.00    -0.369 OA
ENDBRANCH   9  10
ENDBRANCH   8   9
ENDBRANCH   7   8
ENDBRANCH   4   7
BRANCH   1  19
HETATM   19  N1  UNL     1      37.576 -11.269  26.422  1.00  0.00    -0.385 N 
ATOM     20  H1  UNL     1      37.194 -12.213  26.482  1.00  0.00     0.160 HD
BRANCH  19  21
HETATM   21  C4  UNL     1      38.339 -10.826  27.517  1.00  0.00     0.028 A 
HETATM   22  C3  UNL     1      37.858 -10.969  28.823  1.00  0.00     0.031 A 
HETATM   23  C2  UNL     1      38.631 -10.545  29.850  1.00  0.00     0.026 A 
HETATM   24  C1  UNL     1      39.872  -9.977  29.687  1.00  0.00     0.034 A 
HETATM   25 CL1  UNL     1      40.822  -9.448  31.064  1.00  0.00    -0.084 Cl
HETATM   26  C22 UNL     1      40.334  -9.841  28.400  1.00  0.00     0.026 A 
HETATM   27  C21 UNL     1      39.569 -10.264  27.333  1.00  0.00     0.031 A 
ENDBRANCH  19  21
ENDBRANCH   1  19
TORSDOF 6
ENDMDL
MODEL 4
REMARK VINA RESULT: -8.187569242      2.186      3.221
REMARK  6 active torsions:
REMARK  status: ('A' for Active; 'I' for Inactive)
REMARK    1  A    between atoms: C4_5  and  N1_6 
REMARK    2  A    between atoms: N1_6  and  C5_8 
REMARK    3  A    between atoms: N2_11  and  C8_12 
REMARK    4  A    between atoms: C8_12  and  C9_13 
REMARK    5  A    between atoms: C9_13  and  C10_14 
REMARK    6  A    between atoms: C10_14  and  C11_15 
ROOT
HETATM    1  C5  UNL     1      37.289 -10.910  25.556  1.00  0.00     0.085 C 
HETATM    2  C6  UNL     1      38.292 -10.842  24.445  1.00  0.00     0.055 C 
HETATM    3  C7  UNL     1      37.725  -9.973  23.337  1.00  0.00     0.274 C 
HETATM    4  N2  UNL     1      37.552  -8.633  23.806  1.00  0.00     0.088 N 
HETATM    5  C19 UNL     1      37.602  -8.481  25.223  1.00  0.00     0.274 C 
HETATM    6  C20 UNL     1      36.742  -9.537  25.922  1.00  0.00     0.055 C 
ENDROOT
BRANCH   4   7
HETATM    7  C8  UNL     1      36.399  -7.983  23.221  1.00  0.00     0.272 C 
BRANCH   7   8
HETATM    8  C9  UNL     1      36.098  -6.704  23.994  1.00  0.00     0.033 C 
BRANCH   8   9
HETATM    9  C10 UNL     1      34.784  -6.964  24.744  1.00  0.00     0.042 C 
BRANCH   9  10
HETATM   10  C11 UNL     1      33.716  -6.125  24.144  1.00  0.00     0.087 A 
HETATM   11  C12 UNL     1      33.981  -5.357  22.889  1.00  0.00     0.041 C 
HETATM   12  C13 UNL     1      33.230  -5.806  21.679  1.00  0.00     0.003 C 
HETATM   13  C14 UNL     1      33.151  -7.303  21.504  1.00  0.00     0.000 C 
HETATM   14  C15 UNL     1      31.742  -7.829  21.667  1.00  0.00     0.000 C 
HETATM   15  C16 UNL     1      31.517  -8.621  22.908  1.00  0.00     0.002 C 
HETATM   16  C17 UNL     1      32.282  -8.083  24.124  1.00  0.00     0.035 C 
HETATM   17  C18 UNL     1      32.295  -6.614  24.065  1.00  0.00     0.157 A 
HETATM   18  O1  UNL     1      32.733  -5.767  25.036  1.00  0.00    -0.369 OA
ENDBRANCH   9  10
ENDBRANCH   8   9
ENDBRANCH   7   8
ENDBRANCH   4   7
BRANCH   1  19
HETATM   19  N1  UNL     1      37.803 -11.565  26.734  1.00  0.00    -0.385 N 
ATOM     20  H1  UNL     1      37.605 -12.561  26.828  1.00  0.00     0.160 HD
BRANCH  19  21
HETATM   21  C4  UNL     1      38.548 -10.969  27.766  1.00  0.00     0.028 A 
HETATM   22  C3  UNL     1      38.127 -11.073  29.097  1.00  0.00     0.031 A 
HETATM   23  C2  UNL     1      38.882 -10.498  30.064  1.00  0.00     0.026 A 
HETATM   24  C1  UNL     1      40.048  -9.813  29.815  1.00  0.00     0.034 A 
HETATM   25 CL1  UNL     1      40.978  -9.093  31.116  1.00  0.00    -0.084 Cl
HETATM   26  C22 UNL     1      40.450  -9.717  28.505  1.00  0.00     0.026 A 
HETATM   27  C21 UNL     1      39.702 -10.292  27.498  1.00  0.00     0.031 A 
ENDBRANCH  19  21
ENDBRANCH   1  19
TORSDOF 6
ENDMDL
MODEL 5
REMARK VINA RESULT: -8.167087394      1.828      2.944
REMARK  6 active torsions:
REMARK  status: ('A' for Active; 'I' for Inactive)
REMARK    1  A    between atoms: C4_5  and  N1_6 
REMARK    2  A    between atoms: N1_6  and  C5_8 
REMARK    3  A    between atoms: N2_11  and  C8_12 
REMARK    4  A    between atoms: C8_12  and  C9_13 
REMARK    5  A    between atoms: C9_13  and  C10_14 
REMARK    6  A    between atoms: C10_14  and  C11_15 
ROOT
HETATM    1  C5  UNL     1      37.293  -9.154  24.440  1.00  0.00     0.085 C 
HETATM    2  C6  UNL     1      37.868  -7.775  24.336  1.00  0.00     0.055 C 
HETATM    3  C7  UNL     1      36.751  -6.813  23.972  1.00  0.00     0.274 C 
HETATM    4  N2  UNL     1      35.783  -6.767  25.024  1.00  0.00     0.088 N 
HETATM    5  C19 UNL     1      35.873  -7.830  25.970  1.00  0.00     0.274 C 
HETATM    6  C20 UNL     1      36.015  -9.183  25.269  1.00  0.00     0.055 C 
ENDROOT
BRANCH   4   7
HETATM    7  C8  UNL     1      34.435  -6.577  24.532  1.00  0.00     0.272 C 
BRANCH   7   8
HETATM    8  C9  UNL     1      34.455  -6.564  23.007  1.00  0.00     0.033 C 
BRANCH   8   9
HETATM    9  C10 UNL     1      33.240  -7.393  22.564  1.00  0.00     0.042 C 
BRANCH   9  10
HETATM   10  C11 UNL     1      32.654  -6.770  21.350  1.00  0.00     0.087 A 
HETATM   11  C12 UNL     1      33.245  -5.517  20.789  1.00  0.00     0.041 C 
HETATM   12  C13 UNL     1      33.904  -5.647  19.454  1.00  0.00     0.003 C 
HETATM   13  C14 UNL     1      34.754  -6.883  19.288  1.00  0.00     0.000 C 
HETATM   14  C15 UNL     1      34.177  -7.848  18.276  1.00  0.00     0.000 C 
HETATM   15  C16 UNL     1      33.628  -9.103  18.860  1.00  0.00     0.002 C 
HETATM   16  C17 UNL     1      32.928  -8.893  20.209  1.00  0.00     0.035 C 
HETATM   17  C18 UNL     1      32.215  -7.608  20.181  1.00  0.00     0.157 A 
HETATM   18  O1  UNL     1      31.349  -7.139  21.120  1.00  0.00    -0.369 OA
ENDBRANCH   9  10
ENDBRANCH   8   9
ENDBRANCH   7   8
ENDBRANCH   4   7
BRANCH   1  19
HETATM   19  N1  UNL     1      38.235 -10.116  24.956  1.00  0.00    -0.385 N 
ATOM     20  H1  UNL     1      38.408 -10.941  24.382  1.00  0.00     0.160 HD
BRANCH  19  21
HETATM   21  C4  UNL     1      38.939 -10.030  26.169  1.00  0.00     0.028 A 
HETATM   22  C3  UNL     1      40.133  -9.304  26.248  1.00  0.00     0.031 A 
HETATM   23  C2  UNL     1      40.772  -9.232  27.439  1.00  0.00     0.026 A 
HETATM   24  C1  UNL     1      40.315  -9.834  28.588  1.00  0.00     0.034 A 
HETATM   25 CL1  UNL     1      41.195  -9.700  30.101  1.00  0.00    -0.084 Cl
HETATM   26  C22 UNL     1      39.143 -10.545  28.498  1.00  0.00     0.026 A 
HETATM   27  C21 UNL     1      38.469 -10.636  27.298  1.00  0.00     0.031 A 
ENDBRANCH  19  21
ENDBRANCH   1  19
TORSDOF 6
ENDMDL
