MODEL 1
REMARK VINA RESULT: -7.303250926      0.000      0.000
REMARK  6 active torsions:
REMARK  status: ('A' for Active; 'I' for Inactive)
REMARK    1  A    between atoms: C1_2  and  C2_3 
REMARK    2  A    between atoms: C2_3  and  C3_4 
REMARK    3  A    between atoms: C4_6  and  C5_7 
REMARK    4  A    between atoms: C5_7  and  O3_8 
REMARK    5  A    between atoms: C9_14  and  C10_15 
REMARK    6  A    between atoms: C12_22  and  O5_23 
ROOT
HETATM    1  C3  UNL     1     -15.888 -42.757  15.547  1.00  0.00     0.366 C 
HETATM    2  O2  UNL     1     -15.160 -42.979  14.430  1.00  0.00    -0.348 OA
HETATM    3  C4  UNL     1     -14.977 -41.985  13.541  1.00  0.00     0.163 C 
HETATM    4  C6  UNL     1     -15.207 -40.593  14.052  1.00  0.00     0.112 C 
HETATM    5  S1  UNL     1     -17.011 -40.293  13.899  1.00  0.00    -0.147 SA
HETATM    6  C7  UNL     1     -17.480 -39.784  15.597  1.00  0.00     0.039 C 
HETATM    7  C8  UNL     1     -18.969 -39.560  15.703  1.00  0.00     0.029 C 
HETATM    8  C9  UNL     1     -19.067 -38.449  16.694  1.00  0.00     0.014 C 
HETATM    9  C13 UNL     1     -17.881 -37.573  16.328  1.00  0.00     0.013 C 
HETATM   10  C14 UNL     1     -16.801 -38.485  15.853  1.00  0.00     0.006 C 
HETATM   11  C15 UNL     1     -15.648 -38.621  16.807  1.00  0.00     0.008 C 
HETATM   12  C16 UNL     1     -14.547 -39.341  16.127  1.00  0.00     0.037 C 
HETATM   13  C17 UNL     1     -14.832 -40.646  15.542  1.00  0.00     0.242 C 
HETATM   14  N3  UNL     1     -15.783 -41.479  16.168  1.00  0.00     0.125 N 
HETATM   15  C18 UNL     1     -17.041 -40.904  16.493  1.00  0.00     0.297 C 
ENDROOT
BRANCH   8  16
HETATM   16  C10 UNL     1     -20.368 -37.688  16.604  1.00  0.00     0.139 C 
HETATM   17  N1  UNL     1     -21.057 -37.597  17.849  1.00  0.00    -0.334 N 
HETATM   18  C11 UNL     1     -22.451 -37.610  17.570  1.00  0.00     0.318 C 
ATOM     19  H1  UNL     1     -20.628 -37.535  18.772  1.00  0.00     0.164 HD
HETATM   20  O4  UNL     1     -23.400 -37.330  18.365  1.00  0.00    -0.247 OA
HETATM   21  N2  UNL     1     -22.647 -37.998  16.216  1.00  0.00    -0.315 N 
HETATM   22  C12 UNL     1     -21.356 -38.363  15.694  1.00  0.00     0.244 C 
ATOM     23  H2  UNL     1     -23.532 -38.015  15.711  1.00  0.00     0.166 HD
BRANCH  22  24
HETATM   24  O5  UNL     1     -21.193 -38.005  14.356  1.00  0.00    -0.375 OA
ATOM     25  H5  UNL     1     -21.143 -38.756  13.777  1.00  0.00     0.212 HD
ENDBRANCH  22  24
ENDBRANCH   8  16
BRANCH   3  26
HETATM   26  C5  UNL     1     -13.534 -42.050  13.046  1.00  0.00     0.197 C 
BRANCH  26  27
HETATM   27  O3  UNL     1     -12.778 -42.903  13.866  1.00  0.00    -0.398 OA
ATOM     28  H3  UNL     1     -12.655 -42.511  14.723  1.00  0.00     0.209 HD
ENDBRANCH  26  27
ENDBRANCH   3  26
BRANCH   1  29
HETATM   29  C2  UNL     1     -15.514 -43.811  16.571  1.00  0.00     0.133 C 
BRANCH  29  30
HETATM   30  C1  UNL     1     -14.562 -44.807  16.006  1.00  0.00     0.235 C 
HETATM   31  O1  UNL     1     -13.368 -44.642  16.222  1.00  0.00    -0.307 OA
ENDBRANCH  29  30
ENDBRANCH   1  29
TORSDOF 6
ENDMDL
MODEL 2
REMARK VINA RESULT: -7.161456843      4.218      5.933
REMARK  6 active torsions:
REMARK  status: ('A' for Active; 'I' for Inactive)
REMARK    1  A    between atoms: C1_2  and  C2_3 
REMARK    2  A    between atoms: C2_3  and  C3_4 
REMARK    3  A    between atoms: C4_6  and  C5_7 
REMARK    4  A    between atoms: C5_7  and  O3_8 
REMARK    5  A    between atoms: C9_14  and  C10_15 
REMARK    6  A    between atoms: C12_22  and  O5_23 
ROOT
HETATM    1  C3  UNL     1     -17.560 -43.313  15.807  1.00  0.00     0.366 C 
HETATM    2  O2  UNL     1     -18.504 -43.531  14.866  1.00  0.00    -0.348 OA
HETATM    3  C4  UNL     1     -18.519 -42.786  13.745  1.00  0.00     0.163 C 
HETATM    4  C6  UNL     1     -17.241 -42.075  13.409  1.00  0.00     0.112 C 
HETATM    5  S1  UNL     1     -17.273 -40.506  14.360  1.00  0.00    -0.147 SA
HETATM    6  C7  UNL     1     -15.685 -40.559  15.276  1.00  0.00     0.039 C 
HETATM    7  C8  UNL     1     -15.551 -39.368  16.194  1.00  0.00     0.029 C 
HETATM    8  C9  UNL     1     -14.085 -39.097  16.172  1.00  0.00     0.014 C 
HETATM    9  C13 UNL     1     -13.718 -39.372  14.724  1.00  0.00     0.013 C 
HETATM   10  C14 UNL     1     -14.605 -40.476  14.257  1.00  0.00     0.006 C 
HETATM   11  C15 UNL     1     -13.900 -41.789  14.063  1.00  0.00     0.008 C 
HETATM   12  C16 UNL     1     -14.815 -42.726  13.372  1.00  0.00     0.037 C 
HETATM   13  C17 UNL     1     -16.125 -42.976  13.963  1.00  0.00     0.242 C 
HETATM   14  N3  UNL     1     -16.251 -42.956  15.368  1.00  0.00     0.125 N 
HETATM   15  C18 UNL     1     -15.709 -41.839  16.057  1.00  0.00     0.297 C 
ENDROOT
BRANCH   8  16
HETATM   16  C10 UNL     1     -13.738 -37.684  16.573  1.00  0.00     0.139 C 
HETATM   17  N1  UNL     1     -12.634 -37.144  15.848  1.00  0.00    -0.334 N 
HETATM   18  C11 UNL     1     -11.930 -36.272  16.722  1.00  0.00     0.318 C 
ATOM     19  H1  UNL     1     -12.394 -37.348  14.877  1.00  0.00     0.164 HD
HETATM   20  O4  UNL     1     -11.030 -35.431  16.413  1.00  0.00    -0.247 OA
HETATM   21  N2  UNL     1     -12.393 -36.478  18.050  1.00  0.00    -0.315 N 
HETATM   22  C12 UNL     1     -13.301 -37.594  18.009  1.00  0.00     0.244 C 
ATOM     23  H2  UNL     1     -12.132 -35.938  18.874  1.00  0.00     0.166 HD
BRANCH  22  24
HETATM   24  O5  UNL     1     -14.370 -37.454  18.893  1.00  0.00    -0.375 OA
ATOM     25  H5  UNL     1     -14.131 -37.639  19.793  1.00  0.00     0.212 HD
ENDBRANCH  22  24
ENDBRANCH   8  16
BRANCH   3  26
HETATM   26  C5  UNL     1     -18.848 -43.703  12.569  1.00  0.00     0.197 C 
BRANCH  26  27
HETATM   27  O3  UNL     1     -19.661 -43.031  11.642  1.00  0.00    -0.398 OA
ATOM     28  H3  UNL     1     -20.572 -43.078  11.909  1.00  0.00     0.209 HD
ENDBRANCH  26  27
ENDBRANCH   3  26
BRANCH   1  29
HETATM   29  C2  UNL     1     -17.447 -44.559  16.662  1.00  0.00     0.133 C 
BRANCH  29  30
HETATM   30  C1  UNL     1     -18.716 -44.838  17.390  1.00  0.00     0.235 C 
HETATM   31  O1  UNL     1     -18.839 -44.380  18.519  1.00  0.00    -0.307 OA
ENDBRANCH  29  30
ENDBRANCH   1  29
TORSDOF 6
ENDMDL
MODEL 3
REMARK VINA RESULT: -7.078471411      5.397      7.542
REMARK  6 active torsions:
REMARK  status: ('A' for Active; 'I' for Inactive)
REMARK    1  A    between atoms: C1_2  and  C2_3 
REMARK    2  A    between atoms: C2_3  and  C3_4 
REMARK    3  A    between atoms: C4_6  and  C5_7 
REMARK    4  A    between atoms: C5_7  and  O3_8 
REMARK    5  A    between atoms: C9_14  and  C10_15 
REMARK    6  A    between atoms: C12_22  and  O5_23 
ROOT
HETATM    1  C3  UNL     1      -9.983 -41.134  10.146  1.00  0.00     0.366 C 
HETATM    2  O2  UNL     1      -9.725 -42.437   9.898  1.00  0.00    -0.348 OA
HETATM    3  C4  UNL     1     -10.347 -43.392  10.615  1.00  0.00     0.163 C 
HETATM    4  C6  UNL     1     -11.600 -42.972  11.325  1.00  0.00     0.112 C 
HETATM    5  S1  UNL     1     -11.054 -42.240  12.917  1.00  0.00    -0.147 SA
HETATM    6  C7  UNL     1     -11.856 -40.590  12.898  1.00  0.00     0.039 C 
HETATM    7  C8  UNL     1     -11.463 -39.784  14.112  1.00  0.00     0.029 C 
HETATM    8  C9  UNL     1     -12.693 -38.988  14.391  1.00  0.00     0.014 C 
HETATM    9  C13 UNL     1     -13.805 -39.975  14.084  1.00  0.00     0.013 C 
HETATM   10  C14 UNL     1     -13.323 -40.832  12.962  1.00  0.00     0.006 C 
HETATM   11  C15 UNL     1     -14.003 -40.566  11.649  1.00  0.00     0.008 C 
HETATM   12  C16 UNL     1     -13.625 -41.628  10.689  1.00  0.00     0.037 C 
HETATM   13  C17 UNL     1     -12.206 -41.866  10.446  1.00  0.00     0.242 C 
HETATM   14  N3  UNL     1     -11.315 -40.773  10.499  1.00  0.00     0.125 N 
HETATM   15  C18 UNL     1     -11.388 -39.926  11.637  1.00  0.00     0.297 C 
ENDROOT
BRANCH   8  16
HETATM   16  C10 UNL     1     -12.768 -38.495  15.817  1.00  0.00     0.139 C 
HETATM   17  N1  UNL     1     -14.094 -38.478  16.341  1.00  0.00    -0.334 N 
HETATM   18  C11 UNL     1     -14.187 -37.380  17.239  1.00  0.00     0.318 C 
ATOM     19  H1  UNL     1     -14.841 -39.134  16.112  1.00  0.00     0.164 HD
HETATM   20  O4  UNL     1     -15.114 -37.143  18.074  1.00  0.00    -0.247 OA
HETATM   21  N2  UNL     1     -13.049 -36.547  17.068  1.00  0.00    -0.315 N 
HETATM   22  C12 UNL     1     -12.312 -37.069  15.947  1.00  0.00     0.244 C 
ATOM     23  H2  UNL     1     -12.802 -35.733  17.631  1.00  0.00     0.166 HD
BRANCH  22  24
HETATM   24  O5  UNL     1     -10.932 -36.953  16.107  1.00  0.00    -0.375 OA
ATOM     25  H5  UNL     1     -10.683 -36.666  16.977  1.00  0.00     0.212 HD
ENDBRANCH  22  24
ENDBRANCH   8  16
BRANCH   3  26
HETATM   26  C5  UNL     1     -10.725 -44.528   9.667  1.00  0.00     0.197 C 
BRANCH  26  27
HETATM   27  O3  UNL     1      -9.944 -44.467   8.501  1.00  0.00    -0.398 OA
ATOM     28  H3  UNL     1     -10.260 -43.775   7.930  1.00  0.00     0.209 HD
ENDBRANCH  26  27
ENDBRANCH   3  26
BRANCH   1  29
HETATM   29  C2  UNL     1      -9.586 -40.333   8.922  1.00  0.00     0.133 C 
BRANCH  29  30
HETATM   30  C1  UNL     1      -9.508 -41.193   7.709  1.00  0.00     0.235 C 
HETATM   31  O1  UNL     1     -10.550 -41.675   7.282  1.00  0.00    -0.307 OA
ENDBRANCH  29  30
ENDBRANCH   1  29
TORSDOF 6
ENDMDL
MODEL 4
REMARK VINA RESULT: -6.938052138      1.853      3.320
REMARK  6 active torsions:
REMARK  status: ('A' for Active; 'I' for Inactive)
REMARK    1  A    between atoms: C1_2  and  C2_3 
REMARK    2  A    between atoms: C2_3  and  C3_4 
REMARK    3  A    between atoms: C4_6  and  C5_7 
REMARK    4  A    between atoms: C5_7  and  O3_8 
REMARK    5  A    between atoms: C9_14  and  C10_15 
REMARK    6  A    between atoms: C12_22  and  O5_23 
ROOT
HETATM    1  C3  UNL     1     -14.344 -41.358  14.073  1.00  0.00     0.366 C 
HETATM    2  O2  UNL     1     -13.799 -42.384  14.764  1.00  0.00    -0.348 OA
HETATM    3  C4  UNL     1     -14.575 -43.147  15.557  1.00  0.00     0.163 C 
HETATM    4  C6  UNL     1     -16.049 -43.094  15.283  1.00  0.00     0.112 C 
HETATM    5  S1  UNL     1     -16.680 -41.635  16.200  1.00  0.00    -0.147 SA
HETATM    6  C7  UNL     1     -17.546 -40.683  14.893  1.00  0.00     0.039 C 
HETATM    7  C8  UNL     1     -18.082 -39.381  15.439  1.00  0.00     0.029 C 
HETATM    8  C9  UNL     1     -19.337 -39.187  14.656  1.00  0.00     0.014 C 
HETATM    9  C13 UNL     1     -19.882 -40.600  14.546  1.00  0.00     0.013 C 
HETATM   10  C14 UNL     1     -18.704 -41.511  14.462  1.00  0.00     0.006 C 
HETATM   11  C15 UNL     1     -18.495 -42.122  13.106  1.00  0.00     0.008 C 
HETATM   12  C16 UNL     1     -17.465 -43.181  13.210  1.00  0.00     0.037 C 
HETATM   13  C17 UNL     1     -16.167 -42.828  13.774  1.00  0.00     0.242 C 
HETATM   14  N3  UNL     1     -15.660 -41.530  13.552  1.00  0.00     0.125 N 
HETATM   15  C18 UNL     1     -16.523 -40.436  13.825  1.00  0.00     0.297 C 
ENDROOT
BRANCH   8  16
HETATM   16  C10 UNL     1     -20.321 -38.265  15.335  1.00  0.00     0.139 C 
HETATM   17  N1  UNL     1     -20.110 -38.147  16.740  1.00  0.00    -0.334 N 
HETATM   18  C11 UNL     1     -21.381 -37.972  17.353  1.00  0.00     0.318 C 
ATOM     19  H1  UNL     1     -19.210 -38.183  17.219  1.00  0.00     0.164 HD
HETATM   20  O4  UNL     1     -21.619 -37.612  18.547  1.00  0.00    -0.247 OA
HETATM   21  N2  UNL     1     -22.395 -38.267  16.402  1.00  0.00    -0.315 N 
HETATM   22  C12 UNL     1     -21.734 -38.765  15.225  1.00  0.00     0.244 C 
ATOM     23  H2  UNL     1     -23.400 -38.148  16.529  1.00  0.00     0.166 HD
BRANCH  22  24
HETATM   24  O5  UNL     1     -22.360 -38.368  14.044  1.00  0.00    -0.375 OA
ATOM     25  H5  UNL     1     -22.329 -39.034  13.367  1.00  0.00     0.212 HD
ENDBRANCH  22  24
ENDBRANCH   8  16
BRANCH   3  26
HETATM   26  C5  UNL     1     -14.137 -44.600  15.394  1.00  0.00     0.197 C 
BRANCH  26  27
HETATM   27  O3  UNL     1     -12.865 -44.789  15.958  1.00  0.00    -0.398 OA
ATOM     28  H3  UNL     1     -12.477 -45.593  15.631  1.00  0.00     0.209 HD
ENDBRANCH  26  27
ENDBRANCH   3  26
BRANCH   1  29
HETATM   29  C2  UNL     1     -13.420 -41.020  12.921  1.00  0.00     0.133 C 
BRANCH  29  30
HETATM   30  C1  UNL     1     -12.673 -39.757  13.173  1.00  0.00     0.235 C 
HETATM   31  O1  UNL     1     -13.281 -38.700  13.057  1.00  0.00    -0.307 OA
ENDBRANCH  29  30
ENDBRANCH   1  29
TORSDOF 6
ENDMDL
MODEL 5
REMARK VINA RESULT: -6.711836530      3.374      8.244
REMARK  6 active torsions:
REMARK  status: ('A' for Active; 'I' for Inactive)
REMARK    1  A    between atoms: C1_2  and  C2_3 
REMARK    2  A    between atoms: C2_3  and  C3_4 
REMARK    3  A    between atoms: C4_6  and  C5_7 
REMARK    4  A    between atoms: C5_7  and  O3_8 
REMARK    5  A    between atoms: C9_14  and  C10_15 
REMARK    6  A    between atoms: C12_22  and  O5_23 
ROOT
HETATM    1  C3  UNL     1     -17.243 -42.446  15.715  1.00  0.00     0.366 C 
HETATM    2  O2  UNL     1     -17.766 -41.377  16.354  1.00  0.00    -0.348 OA
HETATM    3  C4  UNL     1     -17.387 -40.133  16.004  1.00  0.00     0.163 C 
HETATM    4  C6  UNL     1     -16.759 -39.993  14.648  1.00  0.00     0.112 C 
HETATM    5  S1  UNL     1     -14.981 -40.389  14.875  1.00  0.00    -0.147 SA
HETATM    6  C7  UNL     1     -14.699 -41.703  13.627  1.00  0.00     0.039 C 
HETATM    7  C8  UNL     1     -13.286 -42.228  13.705  1.00  0.00     0.029 C 
HETATM    8  C9  UNL     1     -12.978 -42.558  12.283  1.00  0.00     0.014 C 
HETATM    9  C13 UNL     1     -13.654 -41.429  11.526  1.00  0.00     0.013 C 
HETATM   10  C14 UNL     1     -14.880 -41.068  12.294  1.00  0.00     0.006 C 
HETATM   11  C15 UNL     1     -16.163 -41.484  11.633  1.00  0.00     0.008 C 
HETATM   12  C16 UNL     1     -17.298 -40.862  12.354  1.00  0.00     0.037 C 
HETATM   13  C17 UNL     1     -17.411 -41.089  13.790  1.00  0.00     0.242 C 
HETATM   14  N3  UNL     1     -16.982 -42.325  14.319  1.00  0.00     0.125 N 
HETATM   15  C18 UNL     1     -15.691 -42.783  13.944  1.00  0.00     0.297 C 
ENDROOT
BRANCH   8  16
HETATM   16  C10 UNL     1     -11.496 -42.609  11.995  1.00  0.00     0.139 C 
HETATM   17  N1  UNL     1     -11.022 -41.480  11.265  1.00  0.00    -0.334 N 
HETATM   18  C11 UNL     1      -9.967 -41.924  10.423  1.00  0.00     0.318 C 
ATOM     19  H1  UNL     1     -11.376 -40.525  11.335  1.00  0.00     0.164 HD
HETATM   20  O4  UNL     1      -9.137 -41.208   9.781  1.00  0.00    -0.247 OA
HETATM   21  N2  UNL     1      -9.967 -43.345  10.395  1.00  0.00    -0.315 N 
HETATM   22  C12 UNL     1     -11.129 -43.779  11.125  1.00  0.00     0.244 C 
ATOM     23  H2  UNL     1      -9.276 -43.944   9.944  1.00  0.00     0.166 HD
BRANCH  22  24
HETATM   24  O5  UNL     1     -10.906 -44.947  11.852  1.00  0.00    -0.375 OA
ATOM     25  H5  UNL     1     -10.298 -44.824  12.571  1.00  0.00     0.212 HD
ENDBRANCH  22  24
ENDBRANCH   8  16
BRANCH   3  26
HETATM   26  C5  UNL     1     -18.623 -39.237  16.023  1.00  0.00     0.197 C 
BRANCH  26  27
HETATM   27  O3  UNL     1     -18.857 -38.761  17.324  1.00  0.00    -0.398 OA
ATOM     28  H3  UNL     1     -18.423 -37.926  17.451  1.00  0.00     0.209 HD
ENDBRANCH  26  27
ENDBRANCH   3  26
BRANCH   1  29
HETATM   29  C2  UNL     1     -18.175 -43.623  15.921  1.00  0.00     0.133 C 
BRANCH  29  30
HETATM   30  C1  UNL     1     -17.831 -44.381  17.156  1.00  0.00     0.235 C 
HETATM   31  O1  UNL     1     -18.619 -44.335  18.092  1.00  0.00    -0.307 OA
ENDBRANCH  29  30
ENDBRANCH   1  29
TORSDOF 6
ENDMDL
