MODEL 1
REMARK VINA RESULT: -6.196835118      0.000      0.000
REMARK  8 active torsions:
REMARK  status: ('A' for Active; 'I' for Inactive)
REMARK    1  A    between atoms: C2_2  and  C3_3 
REMARK    2  A    between atoms: C8_9  and  C9_10 
REMARK    3  A    between atoms: C10_12  and  C11_13 
REMARK    4  A    between atoms: C11_13  and  O3_14 
REMARK    5  A    between atoms: C18_23  and  C19_24 
REMARK    6  A    between atoms: C20_27  and  O7_28 
REMARK    7  A    between atoms: C20_27  and  C21_30 
REMARK    8  A    between atoms: C21_30  and  O8_31 
ROOT
HETATM    1  C3  UNL     1     -14.950 -41.494  13.024  1.00  0.00    -0.022 C 
HETATM    2  C4  UNL     1     -13.633 -40.894  13.654  1.00  0.00     0.020 C 
HETATM    3  C5  UNL     1     -15.485 -40.223  12.307  1.00  0.00     0.016 C 
HETATM    4  C6  UNL     1     -16.966 -40.297  12.105  1.00  0.00     0.034 C 
HETATM    5  C7  UNL     1     -17.738 -40.643  13.340  1.00  0.00     0.139 C 
HETATM    6  O1  UNL     1     -17.384 -39.707  14.337  1.00  0.00    -0.376 OA
HETATM    7  C8  UNL     1     -17.800 -39.941  15.632  1.00  0.00     0.164 C 
HETATM    8  C12 UNL     1     -17.591 -41.301  16.186  1.00  0.00     0.088 C 
HETATM    9  C13 UNL     1     -16.364 -42.012  16.377  1.00  0.00     0.023 C 
HETATM   10  C14 UNL     1     -15.752 -42.734  15.159  1.00  0.00     0.030 C 
HETATM   11  C15 UNL     1     -15.842 -41.728  14.099  1.00  0.00     0.024 C 
HETATM   12  C16 UNL     1     -17.344 -41.914  13.830  1.00  0.00     0.068 C 
HETATM   13  C17 UNL     1     -18.196 -42.031  15.035  1.00  0.00     0.146 C 
HETATM   14  O4  UNL     1     -19.202 -42.576  15.181  1.00  0.00    -0.296 OA
HETATM   15  C18 UNL     1     -17.358 -43.297  13.433  1.00  0.00     0.142 C 
HETATM   16  C20 UNL     1     -16.606 -43.867  14.589  1.00  0.00     0.097 C 
ENDROOT
BRANCH   7  17
HETATM   17  C9  UNL     1     -17.290 -38.810  16.476  1.00  0.00     0.183 A 
HETATM   18  O2  UNL     1     -17.605 -37.524  15.902  1.00  0.00    -0.370 OA
HETATM   19  C10 UNL     1     -18.132 -37.864  17.221  1.00  0.00     0.177 A 
BRANCH  19  20
HETATM   20  C11 UNL     1     -19.614 -37.970  17.249  1.00  0.00     0.198 C 
BRANCH  20  21
HETATM   21  O3  UNL     1     -19.988 -38.176  18.601  1.00  0.00    -0.398 OA
ATOM     22  H3  UNL     1     -19.918 -37.336  19.039  1.00  0.00     0.209 HD
ENDBRANCH  20  21
ENDBRANCH  19  20
ENDBRANCH   7  17
BRANCH  15  23
HETATM   23  C19 UNL     1     -18.561 -43.925  12.932  1.00  0.00     0.181 C 
HETATM   24  O5  UNL     1     -18.868 -45.085  13.256  1.00  0.00    -0.648 OA
HETATM   25  O6  UNL     1     -19.433 -43.291  12.088  1.00  0.00    -0.648 OA
ENDBRANCH  15  23
BRANCH  16  26
HETATM   26  O7  UNL     1     -15.566 -44.670  13.961  1.00  0.00    -0.386 OA
ATOM     27  H7  UNL     1     -15.183 -44.018  13.386  1.00  0.00     0.210 HD
ENDBRANCH  16  26
BRANCH  16  28
HETATM   28  C21 UNL     1     -17.132 -44.781  15.582  1.00  0.00     0.203 C 
BRANCH  28  29
HETATM   29  O8  UNL     1     -16.325 -45.085  16.676  1.00  0.00    -0.398 OA
ATOM     30  H8  UNL     1     -16.704 -45.605  17.374  1.00  0.00     0.209 HD
ENDBRANCH  28  29
ENDBRANCH  16  28
BRANCH   1  31
HETATM   31  C2  UNL     1     -14.423 -42.346  12.008  1.00  0.00    -0.027 C 
HETATM   32  C1  UNL     1     -13.199 -42.879  11.955  1.00  0.00     0.007 C 
ENDBRANCH   1  31
TORSDOF 8
ENDMDL
MODEL 2
REMARK VINA RESULT: -6.128180368      2.340      3.880
REMARK  8 active torsions:
REMARK  status: ('A' for Active; 'I' for Inactive)
REMARK    1  A    between atoms: C2_2  and  C3_3 
REMARK    2  A    between atoms: C8_9  and  C9_10 
REMARK    3  A    between atoms: C10_12  and  C11_13 
REMARK    4  A    between atoms: C11_13  and  O3_14 
REMARK    5  A    between atoms: C18_23  and  C19_24 
REMARK    6  A    between atoms: C20_27  and  O7_28 
REMARK    7  A    between atoms: C20_27  and  C21_30 
REMARK    8  A    between atoms: C21_30  and  O8_31 
ROOT
HETATM    1  C3  UNL     1     -16.484 -42.413  10.837  1.00  0.00    -0.022 C 
HETATM    2  C4  UNL     1     -15.287 -42.919   9.940  1.00  0.00     0.020 C 
HETATM    3  C5  UNL     1     -16.575 -40.948  10.326  1.00  0.00     0.016 C 
HETATM    4  C6  UNL     1     -17.204 -40.055  11.349  1.00  0.00     0.034 C 
HETATM    5  C7  UNL     1     -16.600 -40.164  12.715  1.00  0.00     0.139 C 
HETATM    6  O1  UNL     1     -15.214 -39.928  12.585  1.00  0.00    -0.376 OA
HETATM    7  C8  UNL     1     -14.401 -40.184  13.671  1.00  0.00     0.164 C 
HETATM    8  C12 UNL     1     -14.582 -41.477  14.375  1.00  0.00     0.088 C 
HETATM    9  C13 UNL     1     -14.434 -42.805  13.862  1.00  0.00     0.023 C 
HETATM   10  C14 UNL     1     -15.612 -43.408  13.070  1.00  0.00     0.030 C 
HETATM   11  C15 UNL     1     -15.987 -42.324  12.160  1.00  0.00     0.024 C 
HETATM   12  C16 UNL     1     -16.733 -41.486  13.210  1.00  0.00     0.068 C 
HETATM   13  C17 UNL     1     -16.061 -41.367  14.524  1.00  0.00     0.146 C 
HETATM   14  O4  UNL     1     -16.510 -41.205  15.574  1.00  0.00    -0.296 OA
HETATM   15  C18 UNL     1     -17.762 -42.418  13.590  1.00  0.00     0.142 C 
HETATM   16  C20 UNL     1     -16.895 -43.599  13.877  1.00  0.00     0.097 C 
ENDROOT
BRANCH   7  17
HETATM   17  C9  UNL     1     -12.994 -39.857  13.264  1.00  0.00     0.183 A 
HETATM   18  O2  UNL     1     -12.855 -38.474  12.874  1.00  0.00    -0.370 OA
HETATM   19  C10 UNL     1     -12.082 -38.976  14.007  1.00  0.00     0.177 A 
BRANCH  19  20
HETATM   20  C11 UNL     1     -12.461 -38.347  15.299  1.00  0.00     0.198 C 
BRANCH  20  21
HETATM   21  O3  UNL     1     -11.423 -38.636  16.219  1.00  0.00    -0.398 OA
ATOM     22  H3  UNL     1     -10.826 -37.897  16.206  1.00  0.00     0.209 HD
ENDBRANCH  20  21
ENDBRANCH  19  20
ENDBRANCH   7  17
BRANCH  15  23
HETATM   23  C19 UNL     1     -18.835 -42.035  14.481  1.00  0.00     0.181 C 
HETATM   24  O5  UNL     1     -19.309 -42.836  15.305  1.00  0.00    -0.648 OA
HETATM   25  O6  UNL     1     -19.386 -40.781  14.484  1.00  0.00    -0.648 OA
ENDBRANCH  15  23
BRANCH  16  26
HETATM   26  O7  UNL     1     -17.513 -44.673  13.111  1.00  0.00    -0.386 OA
ATOM     27  H7  UNL     1     -16.936 -44.686  12.357  1.00  0.00     0.210 HD
ENDBRANCH  16  26
BRANCH  16  28
HETATM   28  C21 UNL     1     -16.706 -44.223  15.170  1.00  0.00     0.203 C 
BRANCH  28  29
HETATM   29  O8  UNL     1     -17.706 -45.077  15.631  1.00  0.00    -0.398 OA
ATOM     30  H8  UNL     1     -18.477 -45.188  15.088  1.00  0.00     0.209 HD
ENDBRANCH  28  29
ENDBRANCH  16  28
BRANCH   1  31
HETATM   31  C2  UNL     1     -17.588 -43.114  10.268  1.00  0.00    -0.027 C 
HETATM   32  C1  UNL     1     -18.165 -42.891   9.084  1.00  0.00     0.007 C 
ENDBRANCH   1  31
TORSDOF 8
ENDMDL
MODEL 3
REMARK VINA RESULT: -6.079501473      2.253      5.344
REMARK  8 active torsions:
REMARK  status: ('A' for Active; 'I' for Inactive)
REMARK    1  A    between atoms: C2_2  and  C3_3 
REMARK    2  A    between atoms: C8_9  and  C9_10 
REMARK    3  A    between atoms: C10_12  and  C11_13 
REMARK    4  A    between atoms: C11_13  and  O3_14 
REMARK    5  A    between atoms: C18_23  and  C19_24 
REMARK    6  A    between atoms: C20_27  and  O7_28 
REMARK    7  A    between atoms: C20_27  and  C21_30 
REMARK    8  A    between atoms: C21_30  and  O8_31 
ROOT
HETATM    1  C3  UNL     1     -17.907 -43.288  11.428  1.00  0.00    -0.022 C 
HETATM    2  C4  UNL     1     -17.619 -44.668  10.718  1.00  0.00     0.020 C 
HETATM    3  C5  UNL     1     -17.464 -42.325  10.292  1.00  0.00     0.016 C 
HETATM    4  C6  UNL     1     -17.076 -40.986  10.836  1.00  0.00     0.034 C 
HETATM    5  C7  UNL     1     -16.102 -41.043  11.971  1.00  0.00     0.139 C 
HETATM    6  O1  UNL     1     -14.981 -41.781  11.531  1.00  0.00    -0.376 OA
HETATM    7  C8  UNL     1     -14.036 -42.157  12.464  1.00  0.00     0.164 C 
HETATM    8  C12 UNL     1     -14.521 -42.769  13.725  1.00  0.00     0.088 C 
HETATM    9  C13 UNL     1     -15.279 -43.969  13.905  1.00  0.00     0.023 C 
HETATM   10  C14 UNL     1     -16.806 -43.897  13.699  1.00  0.00     0.030 C 
HETATM   11  C15 UNL     1     -16.934 -43.147  12.448  1.00  0.00     0.024 C 
HETATM   12  C16 UNL     1     -16.651 -41.766  13.060  1.00  0.00     0.068 C 
HETATM   13  C17 UNL     1     -15.533 -41.717  14.028  1.00  0.00     0.146 C 
HETATM   14  O4  UNL     1     -15.359 -41.010  14.923  1.00  0.00    -0.296 OA
HETATM   15  C18 UNL     1     -17.740 -41.680  13.998  1.00  0.00     0.142 C 
HETATM   16  C20 UNL     1     -17.543 -42.991  14.684  1.00  0.00     0.097 C 
ENDROOT
BRANCH   7  17
HETATM   17  C9  UNL     1     -12.971 -42.924  11.737  1.00  0.00     0.183 A 
HETATM   18  O2  UNL     1     -12.362 -42.140  10.690  1.00  0.00    -0.370 OA
HETATM   19  C10 UNL     1     -11.532 -42.628  11.788  1.00  0.00     0.177 A 
BRANCH  19  20
HETATM   20  C11 UNL     1     -10.974 -41.538  12.629  1.00  0.00     0.198 C 
BRANCH  20  21
HETATM   21  O3  UNL     1     -10.306 -42.155  13.716  1.00  0.00    -0.398 OA
ATOM     22  H3  UNL     1      -9.605 -41.569  13.979  1.00  0.00     0.209 HD
ENDBRANCH  20  21
ENDBRANCH  19  20
ENDBRANCH   7  17
BRANCH  15  23
HETATM   23  C19 UNL     1     -17.997 -40.469  14.744  1.00  0.00     0.181 C 
HETATM   24  O5  UNL     1     -18.336 -40.505  15.940  1.00  0.00    -0.648 OA
HETATM   25  O6  UNL     1     -17.878 -39.219  14.196  1.00  0.00    -0.648 OA
ENDBRANCH  15  23
BRANCH  16  26
HETATM   26  O7  UNL     1     -18.865 -43.602  14.641  1.00  0.00    -0.386 OA
ATOM     27  H7  UNL     1     -19.215 -43.288  15.466  1.00  0.00     0.210 HD
ENDBRANCH  16  26
BRANCH  16  28
HETATM   28  C21 UNL     1     -17.170 -43.180  16.070  1.00  0.00     0.203 C 
BRANCH  28  29
HETATM   29  O8  UNL     1     -18.194 -43.312  17.006  1.00  0.00    -0.398 OA
ATOM     30  H8  UNL     1     -18.462 -44.191  17.247  1.00  0.00     0.209 HD
ENDBRANCH  28  29
ENDBRANCH  16  28
BRANCH   1  31
HETATM   31  C2  UNL     1     -19.334 -43.267  11.450  1.00  0.00    -0.027 C 
HETATM   32  C1  UNL     1     -20.165 -44.046  10.751  1.00  0.00     0.007 C 
ENDBRANCH   1  31
TORSDOF 8
ENDMDL
MODEL 4
REMARK VINA RESULT: -6.009900924      1.989      5.267
REMARK  8 active torsions:
REMARK  status: ('A' for Active; 'I' for Inactive)
REMARK    1  A    between atoms: C2_2  and  C3_3 
REMARK    2  A    between atoms: C8_9  and  C9_10 
REMARK    3  A    between atoms: C10_12  and  C11_13 
REMARK    4  A    between atoms: C11_13  and  O3_14 
REMARK    5  A    between atoms: C18_23  and  C19_24 
REMARK    6  A    between atoms: C20_27  and  O7_28 
REMARK    7  A    between atoms: C20_27  and  C21_30 
REMARK    8  A    between atoms: C21_30  and  O8_31 
ROOT
HETATM    1  C3  UNL     1     -18.266 -39.020  15.520  1.00  0.00    -0.022 C 
HETATM    2  C4  UNL     1     -18.187 -37.627  14.783  1.00  0.00     0.020 C 
HETATM    3  C5  UNL     1     -17.360 -38.706  16.744  1.00  0.00     0.016 C 
HETATM    4  C6  UNL     1     -16.775 -39.955  17.321  1.00  0.00     0.034 C 
HETATM    5  C7  UNL     1     -16.114 -40.846  16.315  1.00  0.00     0.139 C 
HETATM    6  O1  UNL     1     -15.148 -40.073  15.635  1.00  0.00    -0.376 OA
HETATM    7  C8  UNL     1     -14.552 -40.609  14.512  1.00  0.00     0.164 C 
HETATM    8  C12 UNL     1     -15.435 -41.234  13.497  1.00  0.00     0.088 C 
HETATM    9  C13 UNL     1     -16.491 -40.637  12.738  1.00  0.00     0.023 C 
HETATM   10  C14 UNL     1     -17.869 -40.484  13.414  1.00  0.00     0.030 C 
HETATM   11  C15 UNL     1     -17.532 -39.938  14.730  1.00  0.00     0.024 C 
HETATM   12  C16 UNL     1     -17.049 -41.265  15.335  1.00  0.00     0.068 C 
HETATM   13  C17 UNL     1     -16.190 -42.090  14.456  1.00  0.00     0.146 C 
HETATM   14  O4  UNL     1     -16.040 -43.233  14.428  1.00  0.00    -0.296 OA
HETATM   15  C18 UNL     1     -18.257 -42.042  15.231  1.00  0.00     0.142 C 
HETATM   16  C20 UNL     1     -18.549 -41.801  13.787  1.00  0.00     0.097 C 
ENDROOT
BRANCH   7  17
HETATM   17  C9  UNL     1     -13.583 -39.589  13.989  1.00  0.00     0.183 A 
HETATM   18  O2  UNL     1     -12.338 -39.605  14.720  1.00  0.00    -0.370 OA
HETATM   19  C10 UNL     1     -12.327 -39.896  13.289  1.00  0.00     0.177 A 
BRANCH  19  20
HETATM   20  C11 UNL     1     -11.910 -41.288  12.978  1.00  0.00     0.198 C 
BRANCH  20  21
HETATM   21  O3  UNL     1     -10.686 -41.514  13.655  1.00  0.00    -0.398 OA
ATOM     22  H3  UNL     1     -10.282 -40.664  13.791  1.00  0.00     0.209 HD
ENDBRANCH  20  21
ENDBRANCH  19  20
ENDBRANCH   7  17
BRANCH  15  23
HETATM   23  C19 UNL     1     -18.355 -43.363  15.811  1.00  0.00     0.181 C 
HETATM   24  O5  UNL     1     -18.228 -43.542  17.035  1.00  0.00    -0.648 OA
HETATM   25  O6  UNL     1     -18.601 -44.485  15.067  1.00  0.00    -0.648 OA
ENDBRANCH  15  23
BRANCH  16  26
HETATM   26  O7  UNL     1     -19.941 -41.371  13.786  1.00  0.00    -0.386 OA
ATOM     27  H7  UNL     1     -20.311 -42.019  14.373  1.00  0.00     0.210 HD
ENDBRANCH  16  26
BRANCH  16  28
HETATM   28  C21 UNL     1     -18.543 -42.800  12.738  1.00  0.00     0.203 C 
BRANCH  28  29
HETATM   29  O8  UNL     1     -19.623 -42.823  11.858  1.00  0.00    -0.398 OA
ATOM     30  H8  UNL     1     -20.060 -43.654  11.717  1.00  0.00     0.209 HD
ENDBRANCH  28  29
ENDBRANCH  16  28
BRANCH   1  31
HETATM   31  C2  UNL     1     -19.611 -39.020  15.996  1.00  0.00    -0.027 C 
HETATM   32  C1  UNL     1     -20.333 -37.964  16.380  1.00  0.00     0.007 C 
ENDBRANCH   1  31
TORSDOF 8
ENDMDL
MODEL 5
REMARK VINA RESULT: -5.913023746      2.319      5.477
REMARK  8 active torsions:
REMARK  status: ('A' for Active; 'I' for Inactive)
REMARK    1  A    between atoms: C2_2  and  C3_3 
REMARK    2  A    between atoms: C8_9  and  C9_10 
REMARK    3  A    between atoms: C10_12  and  C11_13 
REMARK    4  A    between atoms: C11_13  and  O3_14 
REMARK    5  A    between atoms: C18_23  and  C19_24 
REMARK    6  A    between atoms: C20_27  and  O7_28 
REMARK    7  A    between atoms: C20_27  and  C21_30 
REMARK    8  A    between atoms: C21_30  and  O8_31 
ROOT
HETATM    1  C3  UNL     1     -15.436 -44.115  15.216  1.00  0.00    -0.022 C 
HETATM    2  C4  UNL     1     -14.024 -44.459  15.831  1.00  0.00     0.020 C 
HETATM    3  C5  UNL     1     -15.349 -44.950  13.908  1.00  0.00     0.016 C 
HETATM    4  C6  UNL     1     -16.258 -44.404  12.853  1.00  0.00     0.034 C 
HETATM    5  C7  UNL     1     -16.115 -42.932  12.620  1.00  0.00     0.139 C 
HETATM    6  O1  UNL     1     -14.755 -42.679  12.332  1.00  0.00    -0.376 OA
HETATM    7  C8  UNL     1     -14.327 -41.368  12.290  1.00  0.00     0.164 C 
HETATM    8  C12 UNL     1     -14.731 -40.477  13.404  1.00  0.00     0.088 C 
HETATM    9  C13 UNL     1     -14.442 -40.601  14.800  1.00  0.00     0.023 C 
HETATM   10  C14 UNL     1     -15.318 -41.556  15.637  1.00  0.00     0.030 C 
HETATM   11  C15 UNL     1     -15.379 -42.760  14.806  1.00  0.00     0.024 C 
HETATM   12  C16 UNL     1     -16.409 -42.212  13.805  1.00  0.00     0.068 C 
HETATM   13  C17 UNL     1     -16.182 -40.820  13.357  1.00  0.00     0.146 C 
HETATM   14  O4  UNL     1     -16.935 -40.025  12.997  1.00  0.00    -0.296 OA
HETATM   15  C18 UNL     1     -17.514 -41.964  14.694  1.00  0.00     0.142 C 
HETATM   16  C20 UNL     1     -16.792 -41.161  15.725  1.00  0.00     0.097 C 
ENDROOT
BRANCH   7  17
HETATM   17  C9  UNL     1     -12.860 -41.387  11.973  1.00  0.00     0.183 A 
HETATM   18  O2  UNL     1     -12.454 -42.636  11.373  1.00  0.00    -0.370 OA
HETATM   19  C10 UNL     1     -12.288 -41.397  10.619  1.00  0.00     0.177 A 
BRANCH  19  20
HETATM   20  C11 UNL     1     -13.132 -41.336   9.398  1.00  0.00     0.198 C 
BRANCH  20  21
HETATM   21  O3  UNL     1     -12.277 -40.992   8.321  1.00  0.00    -0.398 OA
ATOM     22  H3  UNL     1     -12.835 -40.790   7.578  1.00  0.00     0.209 HD
ENDBRANCH  20  21
ENDBRANCH  19  20
ENDBRANCH   7  17
BRANCH  15  23
HETATM   23  C19 UNL     1     -18.808 -41.559  14.192  1.00  0.00     0.181 C 
HETATM   24  O5  UNL     1     -19.313 -42.102  13.193  1.00  0.00    -0.648 OA
HETATM   25  O6  UNL     1     -19.558 -40.573  14.777  1.00  0.00    -0.648 OA
ENDBRANCH  15  23
BRANCH  16  26
HETATM   26  O7  UNL     1     -17.149 -41.813  16.979  1.00  0.00    -0.386 OA
ATOM     27  H7  UNL     1     -16.733 -42.656  16.846  1.00  0.00     0.210 HD
ENDBRANCH  16  26
BRANCH  16  28
HETATM   28  C21 UNL     1     -17.024 -39.766  16.035  1.00  0.00     0.203 C 
BRANCH  28  29
HETATM   29  O8  UNL     1     -18.043 -39.462  16.936  1.00  0.00    -0.398 OA
ATOM     30  H8  UNL     1     -18.099 -39.979  17.731  1.00  0.00     0.209 HD
ENDBRANCH  28  29
ENDBRANCH  16  28
BRANCH   1  31
HETATM   31  C2  UNL     1     -16.313 -44.819  16.094  1.00  0.00    -0.027 C 
HETATM   32  C1  UNL     1     -16.119 -45.085  17.389  1.00  0.00     0.007 C 
ENDBRANCH   1  31
TORSDOF 8
ENDMDL
