MODEL 1
REMARK VINA RESULT: -8.410036024      0.000      0.000
REMARK  11 active torsions:
REMARK  status: ('A' for Active; 'I' for Inactive)
REMARK    1  A    between atoms: C2_2  and  C3_3 
REMARK    2  A    between atoms: C6_6  and  O1_7 
REMARK    3  A    between atoms: O1_7  and  C7_8 
REMARK       I    between atoms: C7_8  and  N1_10 
REMARK    4  A    between atoms: N1_10  and  C8_12 
REMARK    5  A    between atoms: C8_12  and  C9_13 
REMARK    6  A    between atoms: C11_17  and  O4_18 
REMARK    7  A    between atoms: C12_20  and  N3_21 
REMARK    8  A    between atoms: N3_21  and  N4_23 
REMARK    9  A    between atoms: N4_23  and  N5_24 
REMARK   10  A    between atoms: C13_27  and  O5_28 
REMARK   11  A    between atoms: C14_30  and  O6_31 
ROOT
HETATM    1  C9  UNL     1     -15.329 -41.046  15.220  1.00  0.00     0.121 C 
HETATM    2  C10 UNL     1     -16.546 -41.564  15.893  1.00  0.00     0.230 C 
HETATM    3  O3  UNL     1     -16.730 -41.973  17.087  1.00  0.00    -0.273 OA
HETATM    4  N2  UNL     1     -17.288 -41.393  14.705  1.00  0.00    -0.315 N 
HETATM    5  C11 UNL     1     -18.459 -41.662  13.913  1.00  0.00     0.251 C 
HETATM    6  C12 UNL     1     -17.976 -42.214  12.580  1.00  0.00     0.194 C 
HETATM    7  C13 UNL     1     -17.147 -41.151  11.900  1.00  0.00     0.178 C 
HETATM    8  C14 UNL     1     -15.884 -40.935  12.741  1.00  0.00     0.173 C 
HETATM    9  C15 UNL     1     -16.266 -40.540  14.145  1.00  0.00     0.136 C 
ENDROOT
BRANCH   1  10
HETATM   10  C8  UNL     1     -14.686 -39.865  15.919  1.00  0.00     0.141 C 
BRANCH  10  11
HETATM   11  N1  UNL     1     -15.567 -39.213  16.848  1.00  0.00    -0.336 N 
HETATM   12  C7  UNL     1     -15.493 -37.798  16.963  1.00  0.00     0.360 C 
HETATM   13  O2  UNL     1     -14.681 -37.131  16.275  1.00  0.00    -0.239 OA
ATOM     14  H1  UNL     1     -16.228 -39.750  17.408  1.00  0.00     0.164 HD
BRANCH  12  15
HETATM   15  O1  UNL     1     -16.312 -37.107  17.837  1.00  0.00    -0.299 OA
BRANCH  15  16
HETATM   16  C6  UNL     1     -17.698 -37.114  17.619  1.00  0.00     0.133 C 
HETATM   17  C5  UNL     1     -18.364 -37.218  18.974  1.00  0.00     0.033 C 
HETATM   18  C4  UNL     1     -19.692 -37.885  18.803  1.00  0.00     0.007 C 
HETATM   19  C3  UNL     1     -20.340 -37.384  17.519  1.00  0.00    -0.015 C 
HETATM   20  C17 UNL     1     -19.591 -37.949  16.329  1.00  0.00     0.007 C 
HETATM   21  C16 UNL     1     -18.132 -38.230  16.697  1.00  0.00     0.033 C 
BRANCH  19  22
HETATM   22  C2  UNL     1     -21.771 -37.893  17.539  1.00  0.00     0.000 C 
HETATM   23  C1  UNL     1     -22.389 -37.955  16.181  1.00  0.00     0.005 C 
ENDBRANCH  19  22
ENDBRANCH  15  16
ENDBRANCH  12  15
ENDBRANCH  10  11
ENDBRANCH   1  10
BRANCH   8  24
HETATM   24  O6  UNL     1     -15.238 -39.827  12.164  1.00  0.00    -0.391 OA
ATOM     25  H6  UNL     1     -14.310 -40.029  12.203  1.00  0.00     0.210 HD
ENDBRANCH   8  24
BRANCH   5  26
HETATM   26  O4  UNL     1     -19.257 -42.631  14.524  1.00  0.00    -0.374 OA
ATOM     27  H4  UNL     1     -20.160 -42.552  14.240  1.00  0.00     0.212 HD
ENDBRANCH   5  26
BRANCH   7  28
HETATM   28  O5  UNL     1     -17.906 -39.977  11.877  1.00  0.00    -0.391 OA
ATOM     29  H5  UNL     1     -17.636 -39.447  12.617  1.00  0.00     0.210 HD
ENDBRANCH   7  28
BRANCH   6  30
HETATM   30  N3  UNL     1     -19.054 -42.671  11.757  1.00  0.00    -0.241 N 
ATOM     31  H3  UNL     1     -19.519 -42.051  11.094  1.00  0.00     0.197 HD
BRANCH  30  32
HETATM   32  N4  UNL     1     -19.397 -43.863  11.888  1.00  0.00    -0.248 NA
BRANCH  32  33
HETATM   33  N5  UNL     1     -19.361 -45.051  12.207  1.00  0.00    -0.261 N 
ATOM     34  H52 UNL     1     -19.203 -44.899  13.203  1.00  0.00     0.193 HD
ATOM     35  H51 UNL     1     -19.387 -46.067  12.129  1.00  0.00     0.193 HD
ENDBRANCH  32  33
ENDBRANCH  30  32
ENDBRANCH   6  30
TORSDOF 11
ENDMDL
MODEL 2
REMARK VINA RESULT: -8.124537985      3.908      5.042
REMARK  11 active torsions:
REMARK  status: ('A' for Active; 'I' for Inactive)
REMARK    1  A    between atoms: C2_2  and  C3_3 
REMARK    2  A    between atoms: C6_6  and  O1_7 
REMARK    3  A    between atoms: O1_7  and  C7_8 
REMARK       I    between atoms: C7_8  and  N1_10 
REMARK    4  A    between atoms: N1_10  and  C8_12 
REMARK    5  A    between atoms: C8_12  and  C9_13 
REMARK    6  A    between atoms: C11_17  and  O4_18 
REMARK    7  A    between atoms: C12_20  and  N3_21 
REMARK    8  A    between atoms: N3_21  and  N4_23 
REMARK    9  A    between atoms: N4_23  and  N5_24 
REMARK   10  A    between atoms: C13_27  and  O5_28 
REMARK   11  A    between atoms: C14_30  and  O6_31 
ROOT
HETATM    1  C9  UNL     1     -14.746 -42.059  13.869  1.00  0.00     0.121 C 
HETATM    2  C10 UNL     1     -14.735 -41.005  12.824  1.00  0.00     0.230 C 
HETATM    3  O3  UNL     1     -15.583 -40.093  12.549  1.00  0.00    -0.273 OA
HETATM    4  N2  UNL     1     -13.484 -41.464  12.361  1.00  0.00    -0.315 N 
HETATM    5  C11 UNL     1     -12.465 -41.501  11.346  1.00  0.00     0.251 C 
HETATM    6  C12 UNL     1     -12.219 -42.967  11.017  1.00  0.00     0.194 C 
HETATM    7  C13 UNL     1     -11.709 -43.651  12.262  1.00  0.00     0.178 C 
HETATM    8  C14 UNL     1     -12.840 -43.642  13.296  1.00  0.00     0.173 C 
HETATM    9  C15 UNL     1     -13.272 -42.224  13.570  1.00  0.00     0.136 C 
ENDROOT
BRANCH   1  10
HETATM   10  C8  UNL     1     -14.914 -41.535  15.281  1.00  0.00     0.141 C 
BRANCH  10  11
HETATM   11  N1  UNL     1     -15.514 -40.230  15.328  1.00  0.00    -0.336 N 
HETATM   12  C7  UNL     1     -16.378 -39.928  16.416  1.00  0.00     0.360 C 
HETATM   13  O2  UNL     1     -16.614 -40.774  17.313  1.00  0.00    -0.239 OA
ATOM     14  H1  UNL     1     -15.326 -39.540  14.602  1.00  0.00     0.164 HD
BRANCH  12  15
HETATM   15  O1  UNL     1     -16.989 -38.692  16.522  1.00  0.00    -0.299 OA
BRANCH  15  16
HETATM   16  C6  UNL     1     -18.384 -38.634  16.667  1.00  0.00     0.133 C 
HETATM   17  C5  UNL     1     -18.983 -38.746  15.283  1.00  0.00     0.033 C 
HETATM   18  C4  UNL     1     -20.304 -38.043  15.276  1.00  0.00     0.007 C 
HETATM   19  C3  UNL     1     -21.021 -38.318  16.591  1.00  0.00    -0.015 C 
HETATM   20  C17 UNL     1     -20.318 -37.575  17.708  1.00  0.00     0.007 C 
HETATM   21  C16 UNL     1     -18.838 -37.376  17.372  1.00  0.00     0.033 C 
BRANCH  19  22
HETATM   22  C2  UNL     1     -22.439 -37.803  16.417  1.00  0.00     0.000 C 
HETATM   23  C1  UNL     1     -23.133 -37.549  17.714  1.00  0.00     0.005 C 
ENDBRANCH  19  22
ENDBRANCH  15  16
ENDBRANCH  12  15
ENDBRANCH  10  11
ENDBRANCH   1  10
BRANCH   8  24
HETATM   24  O6  UNL     1     -12.264 -44.132  14.482  1.00  0.00    -0.391 OA
ATOM     25  H6  UNL     1     -12.979 -44.532  14.963  1.00  0.00     0.210 HD
ENDBRANCH   8  24
BRANCH   5  26
HETATM   26  O4  UNL     1     -12.900 -40.860  10.183  1.00  0.00    -0.374 OA
ATOM     27  H4  UNL     1     -12.169 -40.677   9.605  1.00  0.00     0.212 HD
ENDBRANCH   5  26
BRANCH   7  28
HETATM   28  O5  UNL     1     -10.627 -42.905  12.739  1.00  0.00    -0.391 OA
ATOM     29  H5  UNL     1      -9.919 -43.512  12.922  1.00  0.00     0.210 HD
ENDBRANCH   7  28
BRANCH   6  30
HETATM   30  N3  UNL     1     -11.335 -43.135   9.904  1.00  0.00    -0.241 N 
ATOM     31  H3  UNL     1     -11.549 -43.781   9.145  1.00  0.00     0.197 HD
BRANCH  30  32
HETATM   32  N4  UNL     1     -10.290 -42.454   9.908  1.00  0.00    -0.248 NA
BRANCH  32  33
HETATM   33  N5  UNL     1      -9.117 -42.132  10.096  1.00  0.00    -0.261 N 
ATOM     34  H52 UNL     1      -8.748 -43.079  10.178  1.00  0.00     0.193 HD
ATOM     35  H51 UNL     1      -8.289 -41.550  10.221  1.00  0.00     0.193 HD
ENDBRANCH  32  33
ENDBRANCH  30  32
ENDBRANCH   6  30
TORSDOF 11
ENDMDL
MODEL 3
REMARK VINA RESULT: -8.018606299      3.456      4.582
REMARK  11 active torsions:
REMARK  status: ('A' for Active; 'I' for Inactive)
REMARK    1  A    between atoms: C2_2  and  C3_3 
REMARK    2  A    between atoms: C6_6  and  O1_7 
REMARK    3  A    between atoms: O1_7  and  C7_8 
REMARK       I    between atoms: C7_8  and  N1_10 
REMARK    4  A    between atoms: N1_10  and  C8_12 
REMARK    5  A    between atoms: C8_12  and  C9_13 
REMARK    6  A    between atoms: C11_17  and  O4_18 
REMARK    7  A    between atoms: C12_20  and  N3_21 
REMARK    8  A    between atoms: N3_21  and  N4_23 
REMARK    9  A    between atoms: N4_23  and  N5_24 
REMARK   10  A    between atoms: C13_27  and  O5_28 
REMARK   11  A    between atoms: C14_30  and  O6_31 
ROOT
HETATM    1  C9  UNL     1     -12.580 -38.491  14.283  1.00  0.00     0.121 C 
HETATM    2  C10 UNL     1     -11.222 -38.767  13.751  1.00  0.00     0.230 C 
HETATM    3  O3  UNL     1     -10.202 -38.011  13.632  1.00  0.00    -0.273 OA
HETATM    4  N2  UNL     1     -11.589 -40.104  13.485  1.00  0.00    -0.315 N 
HETATM    5  C11 UNL     1     -11.343 -41.359  12.827  1.00  0.00     0.251 C 
HETATM    6  C12 UNL     1     -12.603 -41.705  12.047  1.00  0.00     0.194 C 
HETATM    7  C13 UNL     1     -13.737 -41.871  13.029  1.00  0.00     0.178 C 
HETATM    8  C14 UNL     1     -14.007 -40.502  13.665  1.00  0.00     0.173 C 
HETATM    9  C15 UNL     1     -12.754 -39.992  14.331  1.00  0.00     0.136 C 
ENDROOT
BRANCH   1  10
HETATM   10  C8  UNL     1     -12.595 -37.940  15.696  1.00  0.00     0.141 C 
BRANCH  10  11
HETATM   11  N1  UNL     1     -13.590 -38.556  16.529  1.00  0.00    -0.336 N 
HETATM   12  C7  UNL     1     -14.740 -37.796  16.875  1.00  0.00     0.360 C 
HETATM   13  O2  UNL     1     -14.887 -36.618  16.467  1.00  0.00    -0.239 OA
ATOM     14  H1  UNL     1     -13.474 -39.513  16.862  1.00  0.00     0.164 HD
BRANCH  12  15
HETATM   15  O1  UNL     1     -15.735 -38.328  17.674  1.00  0.00    -0.299 OA
BRANCH  15  16
HETATM   16  C6  UNL     1     -17.071 -37.976  17.422  1.00  0.00     0.133 C 
HETATM   17  C5  UNL     1     -17.707 -37.650  18.755  1.00  0.00     0.033 C 
HETATM   18  C4  UNL     1     -19.174 -37.929  18.665  1.00  0.00     0.007 C 
HETATM   19  C3  UNL     1     -19.681 -37.494  17.296  1.00  0.00    -0.015 C 
HETATM   20  C17 UNL     1     -19.152 -38.445  16.242  1.00  0.00     0.007 C 
HETATM   21  C16 UNL     1     -17.826 -39.063  16.693  1.00  0.00     0.033 C 
BRANCH  19  22
HETATM   22  C2  UNL     1     -21.196 -37.561  17.364  1.00  0.00     0.000 C 
HETATM   23  C1  UNL     1     -21.820 -38.009  16.083  1.00  0.00     0.005 C 
ENDBRANCH  19  22
ENDBRANCH  15  16
ENDBRANCH  12  15
ENDBRANCH  10  11
ENDBRANCH   1  10
BRANCH   8  24
HETATM   24  O6  UNL     1     -14.945 -40.744  14.685  1.00  0.00    -0.391 OA
ATOM     25  H6  UNL     1     -14.910 -39.978  15.245  1.00  0.00     0.210 HD
ENDBRANCH   8  24
BRANCH   5  26
HETATM   26  O4  UNL     1     -10.286 -41.245  11.921  1.00  0.00    -0.374 OA
ATOM     27  H4  UNL     1     -10.611 -41.129  11.036  1.00  0.00     0.212 HD
ENDBRANCH   5  26
BRANCH   7  28
HETATM   28  O5  UNL     1     -13.315 -42.773  14.011  1.00  0.00    -0.391 OA
ATOM     29  H5  UNL     1     -13.707 -42.505  14.833  1.00  0.00     0.210 HD
ENDBRANCH   7  28
BRANCH   6  30
HETATM   30  N3  UNL     1     -12.431 -42.859  11.218  1.00  0.00    -0.241 N 
ATOM     31  H3  UNL     1     -12.818 -42.902  10.275  1.00  0.00     0.197 HD
BRANCH  30  32
HETATM   32  N4  UNL     1     -11.785 -43.810  11.703  1.00  0.00    -0.248 NA
BRANCH  32  33
HETATM   33  N5  UNL     1     -11.479 -44.747  12.439  1.00  0.00    -0.261 N 
ATOM     34  H52 UNL     1     -12.122 -45.427  12.034  1.00  0.00     0.193 HD
ATOM     35  H51 UNL     1     -11.013 -45.279  13.174  1.00  0.00     0.193 HD
ENDBRANCH  32  33
ENDBRANCH  30  32
ENDBRANCH   6  30
TORSDOF 11
ENDMDL
MODEL 4
REMARK VINA RESULT: -7.970648560      4.413      5.669
REMARK  11 active torsions:
REMARK  status: ('A' for Active; 'I' for Inactive)
REMARK    1  A    between atoms: C2_2  and  C3_3 
REMARK    2  A    between atoms: C6_6  and  O1_7 
REMARK    3  A    between atoms: O1_7  and  C7_8 
REMARK       I    between atoms: C7_8  and  N1_10 
REMARK    4  A    between atoms: N1_10  and  C8_12 
REMARK    5  A    between atoms: C8_12  and  C9_13 
REMARK    6  A    between atoms: C11_17  and  O4_18 
REMARK    7  A    between atoms: C12_20  and  N3_21 
REMARK    8  A    between atoms: N3_21  and  N4_23 
REMARK    9  A    between atoms: N4_23  and  N5_24 
REMARK   10  A    between atoms: C13_27  and  O5_28 
REMARK   11  A    between atoms: C14_30  and  O6_31 
ROOT
HETATM    1  C9  UNL     1     -13.908 -40.854  12.982  1.00  0.00     0.121 C 
HETATM    2  C10 UNL     1     -12.990 -39.689  12.932  1.00  0.00     0.230 C 
HETATM    3  O3  UNL     1     -13.189 -38.457  13.190  1.00  0.00    -0.273 OA
HETATM    4  N2  UNL     1     -11.935 -40.528  12.513  1.00  0.00    -0.315 N 
HETATM    5  C11 UNL     1     -10.629 -40.698  11.934  1.00  0.00     0.251 C 
HETATM    6  C12 UNL     1     -10.783 -41.657  10.762  1.00  0.00     0.194 C 
HETATM    7  C13 UNL     1     -11.269 -42.983  11.297  1.00  0.00     0.178 C 
HETATM    8  C14 UNL     1     -12.683 -42.773  11.850  1.00  0.00     0.173 C 
HETATM    9  C15 UNL     1     -12.662 -41.708  12.918  1.00  0.00     0.136 C 
ENDROOT
BRANCH   1  10
HETATM   10  C8  UNL     1     -14.585 -41.056  14.324  1.00  0.00     0.141 C 
BRANCH  10  11
HETATM   11  N1  UNL     1     -14.972 -39.822  14.949  1.00  0.00    -0.336 N 
HETATM   12  C7  UNL     1     -15.634 -39.885  16.206  1.00  0.00     0.360 C 
HETATM   13  O2  UNL     1     -15.876 -40.986  16.758  1.00  0.00    -0.239 OA
ATOM     14  H1  UNL     1     -14.778 -38.925  14.504  1.00  0.00     0.164 HD
BRANCH  12  15
HETATM   15  O1  UNL     1     -16.035 -38.736  16.862  1.00  0.00    -0.299 OA
BRANCH  15  16
HETATM   16  C6  UNL     1     -17.395 -38.566  17.167  1.00  0.00     0.133 C 
HETATM   17  C5  UNL     1     -18.170 -38.774  15.885  1.00  0.00     0.033 C 
HETATM   18  C4  UNL     1     -19.439 -37.985  15.962  1.00  0.00     0.007 C 
HETATM   19  C3  UNL     1     -19.998 -38.078  17.376  1.00  0.00    -0.015 C 
HETATM   20  C17 UNL     1     -19.118 -37.278  18.314  1.00  0.00     0.007 C 
HETATM   21  C16 UNL     1     -17.683 -37.216  17.782  1.00  0.00     0.033 C 
BRANCH  19  22
HETATM   22  C2  UNL     1     -21.395 -37.485  17.320  1.00  0.00     0.000 C 
HETATM   23  C1  UNL     1     -22.216 -38.027  16.195  1.00  0.00     0.005 C 
ENDBRANCH  19  22
ENDBRANCH  15  16
ENDBRANCH  12  15
ENDBRANCH  10  11
ENDBRANCH   1  10
BRANCH   8  24
HETATM   24  O6  UNL     1     -13.018 -43.983  12.484  1.00  0.00    -0.391 OA
ATOM     25  H6  UNL     1     -13.936 -43.901  12.713  1.00  0.00     0.210 HD
ENDBRANCH   8  24
BRANCH   5  26
HETATM   26  O4  UNL     1     -10.142 -39.484  11.444  1.00  0.00    -0.374 OA
ATOM     27  H4  UNL     1      -9.547 -39.628  10.718  1.00  0.00     0.212 HD
ENDBRANCH   5  26
BRANCH   7  28
HETATM   28  O5  UNL     1     -10.407 -43.360  12.332  1.00  0.00    -0.391 OA
ATOM     29  H5  UNL     1     -10.898 -43.917  12.924  1.00  0.00     0.210 HD
ENDBRANCH   7  28
BRANCH   6  30
HETATM   30  N3  UNL     1      -9.578 -41.788  10.002  1.00  0.00    -0.241 N 
ATOM     31  H3  UNL     1      -8.923 -42.551  10.168  1.00  0.00     0.197 HD
BRANCH  30  32
HETATM   32  N4  UNL     1      -9.367 -40.923   9.128  1.00  0.00    -0.248 NA
BRANCH  32  33
HETATM   33  N5  UNL     1      -9.572 -40.020   8.318  1.00  0.00    -0.261 N 
ATOM     34  H52 UNL     1      -9.991 -39.365   8.978  1.00  0.00     0.193 HD
ATOM     35  H51 UNL     1      -9.596 -39.507   7.437  1.00  0.00     0.193 HD
ENDBRANCH  32  33
ENDBRANCH  30  32
ENDBRANCH   6  30
TORSDOF 11
ENDMDL
MODEL 5
REMARK VINA RESULT: -7.938519204      1.481      1.916
REMARK  11 active torsions:
REMARK  status: ('A' for Active; 'I' for Inactive)
REMARK    1  A    between atoms: C2_2  and  C3_3 
REMARK    2  A    between atoms: C6_6  and  O1_7 
REMARK    3  A    between atoms: O1_7  and  C7_8 
REMARK       I    between atoms: C7_8  and  N1_10 
REMARK    4  A    between atoms: N1_10  and  C8_12 
REMARK    5  A    between atoms: C8_12  and  C9_13 
REMARK    6  A    between atoms: C11_17  and  O4_18 
REMARK    7  A    between atoms: C12_20  and  N3_21 
REMARK    8  A    between atoms: N3_21  and  N4_23 
REMARK    9  A    between atoms: N4_23  and  N5_24 
REMARK   10  A    between atoms: C13_27  and  O5_28 
REMARK   11  A    between atoms: C14_30  and  O6_31 
ROOT
HETATM    1  C9  UNL     1     -15.681 -41.522  15.179  1.00  0.00     0.121 C 
HETATM    2  C10 UNL     1     -17.112 -41.895  15.306  1.00  0.00     0.230 C 
HETATM    3  O3  UNL     1     -17.751 -42.439  16.266  1.00  0.00    -0.273 OA
HETATM    4  N2  UNL     1     -17.364 -41.407  14.006  1.00  0.00    -0.315 N 
HETATM    5  C11 UNL     1     -18.210 -41.325  12.845  1.00  0.00     0.251 C 
HETATM    6  C12 UNL     1     -17.366 -41.749  11.651  1.00  0.00     0.194 C 
HETATM    7  C13 UNL     1     -16.225 -40.772  11.507  1.00  0.00     0.178 C 
HETATM    8  C14 UNL     1     -15.317 -40.931  12.733  1.00  0.00     0.173 C 
HETATM    9  C15 UNL     1     -16.111 -40.689  13.991  1.00  0.00     0.136 C 
ENDROOT
BRANCH   1  10
HETATM   10  C8  UNL     1     -15.177 -40.605  16.276  1.00  0.00     0.141 C 
BRANCH  10  11
HETATM   11  N1  UNL     1     -15.774 -39.299  16.235  1.00  0.00    -0.336 N 
HETATM   12  C7  UNL     1     -16.543 -38.876  17.355  1.00  0.00     0.360 C 
HETATM   13  O2  UNL     1     -16.699 -39.622  18.353  1.00  0.00    -0.239 OA
ATOM     14  H1  UNL     1     -15.649 -38.691  15.426  1.00  0.00     0.164 HD
BRANCH  12  15
HETATM   15  O1  UNL     1     -17.144 -37.633  17.381  1.00  0.00    -0.299 OA
BRANCH  15  16
HETATM   16  C6  UNL     1     -18.485 -37.517  16.980  1.00  0.00     0.133 C 
HETATM   17  C5  UNL     1     -19.316 -37.374  18.236  1.00  0.00     0.033 C 
HETATM   18  C4  UNL     1     -20.686 -37.910  17.965  1.00  0.00     0.007 C 
HETATM   19  C3  UNL     1     -21.108 -37.512  16.557  1.00  0.00    -0.015 C 
HETATM   20  C17 UNL     1     -20.297 -38.302  15.550  1.00  0.00     0.007 C 
HETATM   21  C16 UNL     1     -18.938 -38.689  16.140  1.00  0.00     0.033 C 
BRANCH  19  22
HETATM   22  C2  UNL     1     -22.583 -37.856  16.442  1.00  0.00     0.000 C 
HETATM   23  C1  UNL     1     -23.357 -37.535  17.678  1.00  0.00     0.005 C 
ENDBRANCH  19  22
ENDBRANCH  15  16
ENDBRANCH  12  15
ENDBRANCH  10  11
ENDBRANCH   1  10
BRANCH   8  24
HETATM   24  O6  UNL     1     -14.375 -39.892  12.635  1.00  0.00    -0.391 OA
ATOM     25  H6  UNL     1     -14.057 -39.757  13.520  1.00  0.00     0.210 HD
ENDBRANCH   8  24
BRANCH   5  26
HETATM   26  O4  UNL     1     -19.288 -42.206  12.953  1.00  0.00    -0.374 OA
ATOM     27  H4  UNL     1     -19.616 -42.229  13.844  1.00  0.00     0.212 HD
ENDBRANCH   5  26
BRANCH   7  28
HETATM   28  O5  UNL     1     -16.772 -39.485  11.488  1.00  0.00    -0.391 OA
ATOM     29  H5  UNL     1     -16.104 -38.886  11.801  1.00  0.00     0.210 HD
ENDBRANCH   7  28
BRANCH   6  30
HETATM   30  N3  UNL     1     -18.138 -41.861  10.451  1.00  0.00    -0.241 N 
ATOM     31  H3  UNL     1     -18.938 -42.491  10.387  1.00  0.00     0.197 HD
BRANCH  30  32
HETATM   32  N4  UNL     1     -17.786 -41.153   9.487  1.00  0.00    -0.248 NA
BRANCH  32  33
HETATM   33  N5  UNL     1     -17.844 -40.347   8.558  1.00  0.00    -0.261 N 
ATOM     34  H52 UNL     1     -17.983 -41.034   7.817  1.00  0.00     0.193 HD
ATOM     35  H51 UNL     1     -17.844 -39.460   8.055  1.00  0.00     0.193 HD
ENDBRANCH  32  33
ENDBRANCH  30  32
ENDBRANCH   6  30
TORSDOF 11
ENDMDL
