MODEL 1
REMARK VINA RESULT: -7.609316649      0.000      0.000
REMARK  5 active torsions:
REMARK  status: ('A' for Active; 'I' for Inactive)
REMARK    1  A    between atoms: C2_2  and  N1_3 
REMARK       I    between atoms: N1_3  and  C3_5 
REMARK       I    between atoms: C3_5  and  N2_7 
REMARK    2  A    between atoms: N2_7  and  C4_9 
REMARK    3  A    between atoms: C4_9  and  C5_10 
REMARK    4  A    between atoms: C16_28  and  C17_29 
REMARK    5  A    between atoms: C17_29  and  N5_30 
ROOT
HETATM    1  C5  UNL     1     -15.768 -40.421  15.007  1.00  0.00     0.035 C 
HETATM    2  C6  UNL     1     -16.315 -40.803  16.340  1.00  0.00     0.009 C 
HETATM    3  C7  UNL     1     -16.524 -39.571  17.234  1.00  0.00     0.002 C 
HETATM    4  C8  UNL     1     -17.905 -39.063  16.915  1.00  0.00     0.027 C 
HETATM    5  C9  UNL     1     -18.230 -37.754  17.561  1.00  0.00     0.232 C 
HETATM    6  N3  UNL     1     -19.680 -37.605  17.768  1.00  0.00    -0.075 N 
ATOM      7  H31 UNL     1     -19.947 -36.729  18.217  1.00  0.00     0.277 HD
ATOM      8  H32 UNL     1     -20.062 -38.223  18.484  1.00  0.00     0.277 HD
HETATM    9  C10 UNL     1     -20.271 -37.797  16.438  1.00  0.00     0.234 C 
HETATM   10  C11 UNL     1     -21.779 -37.833  16.497  1.00  0.00     0.046 C 
HETATM   11  C12 UNL     1     -22.268 -38.826  15.464  1.00  0.00     0.115 C 
HETATM   12  N4  UNL     1     -21.396 -38.955  14.339  1.00  0.00    -0.421 N 
ATOM     13  H4  UNL     1     -21.087 -38.154  13.788  1.00  0.00     0.153 HD
HETATM   14  C13 UNL     1     -20.990 -40.297  14.044  1.00  0.00     0.123 C 
HETATM   15  C14 UNL     1     -19.615 -40.327  13.379  1.00  0.00     0.130 C 
HETATM   16  C15 UNL     1     -18.921 -41.611  13.670  1.00  0.00     0.260 C 
HETATM   17  O2  UNL     1     -19.572 -42.635  13.328  1.00  0.00    -0.265 OA
HETATM   18  O3  UNL     1     -17.699 -41.571  14.254  1.00  0.00    -0.314 OA
HETATM   19  C16 UNL     1     -16.469 -41.129  13.848  1.00  0.00     0.165 C 
ENDROOT
BRANCH   1  20
HETATM   20  C4  UNL     1     -14.273 -40.611  14.934  1.00  0.00     0.131 C 
BRANCH  20  21
HETATM   21  N2  UNL     1     -13.588 -39.368  14.662  1.00  0.00    -0.343 N 
HETATM   22  C3  UNL     1     -13.078 -38.562  15.712  1.00  0.00     0.316 C 
HETATM   23  N1  UNL     1     -12.412 -37.351  15.446  1.00  0.00    -0.344 N 
HETATM   24  O1  UNL     1     -13.228 -38.939  16.886  1.00  0.00    -0.247 OA
ATOM     25  H1  UNL     1     -12.289 -37.038  14.483  1.00  0.00     0.164 HD
ATOM     26  H2  UNL     1     -13.469 -39.064  13.695  1.00  0.00     0.164 HD
BRANCH  23  27
HETATM   27  C2  UNL     1     -11.903 -36.552  16.534  1.00  0.00     0.120 C 
HETATM   28  C1  UNL     1     -12.047 -35.070  16.228  1.00  0.00     0.026 C 
ENDBRANCH  23  27
ENDBRANCH  20  21
ENDBRANCH   1  20
BRANCH  19  29
HETATM   29  C17 UNL     1     -16.401 -40.237  12.673  1.00  0.00     0.305 C 
BRANCH  29  30
HETATM   30  N5  UNL     1     -16.219 -40.890  11.409  1.00  0.00     0.095 N 
HETATM   31  C18 UNL     1     -17.303 -40.430  10.542  1.00  0.00     0.298 C 
HETATM   32  C19 UNL     1     -16.951 -39.129   9.879  1.00  0.00     0.198 C 
HETATM   33  O4  UNL     1     -16.017 -39.407   8.879  1.00  0.00    -0.388 OA
HETATM   34  C20 UNL     1     -15.136 -40.409   9.262  1.00  0.00     0.198 C 
HETATM   35  C21 UNL     1     -14.992 -40.494  10.771  1.00  0.00     0.298 C 
ENDBRANCH  29  30
ENDBRANCH  19  29
TORSDOF 5
ENDMDL
MODEL 2
REMARK VINA RESULT: -7.519410288      2.701      5.689
REMARK  5 active torsions:
REMARK  status: ('A' for Active; 'I' for Inactive)
REMARK    1  A    between atoms: C2_2  and  N1_3 
REMARK       I    between atoms: N1_3  and  C3_5 
REMARK       I    between atoms: C3_5  and  N2_7 
REMARK    2  A    between atoms: N2_7  and  C4_9 
REMARK    3  A    between atoms: C4_9  and  C5_10 
REMARK    4  A    between atoms: C16_28  and  C17_29 
REMARK    5  A    between atoms: C17_29  and  N5_30 
ROOT
HETATM    1  C5  UNL     1     -16.763 -39.301  16.288  1.00  0.00     0.035 C 
HETATM    2  C6  UNL     1     -15.572 -39.708  15.490  1.00  0.00     0.009 C 
HETATM    3  C7  UNL     1     -15.051 -41.088  15.923  1.00  0.00     0.002 C 
HETATM    4  C8  UNL     1     -15.824 -42.092  15.109  1.00  0.00     0.027 C 
HETATM    5  C9  UNL     1     -15.585 -43.510  15.515  1.00  0.00     0.232 C 
HETATM    6  N3  UNL     1     -15.804 -44.433  14.390  1.00  0.00    -0.075 N 
ATOM      7  H31 UNL     1     -15.641 -45.414  14.621  1.00  0.00     0.277 HD
ATOM      8  H32 UNL     1     -15.098 -44.368  13.657  1.00  0.00     0.277 HD
HETATM    9  C10 UNL     1     -17.170 -44.149  13.932  1.00  0.00     0.234 C 
HETATM   10  C11 UNL     1     -17.503 -44.905  12.669  1.00  0.00     0.046 C 
HETATM   11  C12 UNL     1     -18.389 -44.026  11.812  1.00  0.00     0.115 C 
HETATM   12  N4  UNL     1     -19.190 -43.114  12.567  1.00  0.00    -0.421 N 
ATOM     13  H4  UNL     1     -19.799 -43.417  13.328  1.00  0.00     0.153 HD
HETATM   14  C13 UNL     1     -19.071 -41.742  12.173  1.00  0.00     0.123 C 
HETATM   15  C14 UNL     1     -19.327 -40.803  13.351  1.00  0.00     0.130 C 
HETATM   16  C15 UNL     1     -18.595 -39.521  13.167  1.00  0.00     0.260 C 
HETATM   17  O2  UNL     1     -18.867 -38.924  12.090  1.00  0.00    -0.265 OA
HETATM   18  O3  UNL     1     -17.732 -39.122  14.132  1.00  0.00    -0.314 OA
HETATM   19  C16 UNL     1     -17.885 -38.717  15.430  1.00  0.00     0.165 C 
ENDROOT
BRANCH   1  20
HETATM   20  C4  UNL     1     -16.397 -38.367  17.414  1.00  0.00     0.131 C 
BRANCH  20  21
HETATM   21  N2  UNL     1     -15.040 -37.885  17.291  1.00  0.00    -0.343 N 
HETATM   22  C3  UNL     1     -14.478 -37.012  18.259  1.00  0.00     0.316 C 
HETATM   23  N1  UNL     1     -13.156 -36.543  18.138  1.00  0.00    -0.344 N 
HETATM   24  O1  UNL     1     -15.172 -36.660  19.226  1.00  0.00    -0.247 OA
ATOM     25  H1  UNL     1     -12.584 -36.829  17.343  1.00  0.00     0.164 HD
ATOM     26  H2  UNL     1     -14.476 -38.178  16.494  1.00  0.00     0.164 HD
BRANCH  23  27
HETATM   27  C2  UNL     1     -12.610 -35.657  19.137  1.00  0.00     0.120 C 
HETATM   28  C1  UNL     1     -11.553 -34.749  18.531  1.00  0.00     0.026 C 
ENDBRANCH  23  27
ENDBRANCH  20  21
ENDBRANCH   1  20
BRANCH  19  29
HETATM   29  C17 UNL     1     -19.164 -39.012  16.108  1.00  0.00     0.305 C 
BRANCH  29  30
HETATM   30  N5  UNL     1     -20.059 -37.900  16.253  1.00  0.00     0.095 N 
HETATM   31  C18 UNL     1     -21.021 -37.993  15.157  1.00  0.00     0.298 C 
HETATM   32  C19 UNL     1     -22.159 -38.907  15.511  1.00  0.00     0.198 C 
HETATM   33  O4  UNL     1     -22.974 -38.230  16.419  1.00  0.00    -0.388 OA
HETATM   34  C20 UNL     1     -22.232 -37.449  17.295  1.00  0.00     0.198 C 
HETATM   35  C21 UNL     1     -20.820 -37.978  17.471  1.00  0.00     0.298 C 
ENDBRANCH  29  30
ENDBRANCH  19  29
TORSDOF 5
ENDMDL
MODEL 3
REMARK VINA RESULT: -7.511626049      2.188      2.238
REMARK  5 active torsions:
REMARK  status: ('A' for Active; 'I' for Inactive)
REMARK    1  A    between atoms: C2_2  and  N1_3 
REMARK       I    between atoms: N1_3  and  C3_5 
REMARK       I    between atoms: C3_5  and  N2_7 
REMARK    2  A    between atoms: N2_7  and  C4_9 
REMARK    3  A    between atoms: C4_9  and  C5_10 
REMARK    4  A    between atoms: C16_28  and  C17_29 
REMARK    5  A    between atoms: C17_29  and  N5_30 
ROOT
HETATM    1  C5  UNL     1     -15.863 -41.375  14.293  1.00  0.00     0.035 C 
HETATM    2  C6  UNL     1     -16.502 -41.853  15.551  1.00  0.00     0.009 C 
HETATM    3  C7  UNL     1     -16.476 -40.768  16.640  1.00  0.00     0.002 C 
HETATM    4  C8  UNL     1     -17.720 -39.946  16.429  1.00  0.00     0.027 C 
HETATM    5  C9  UNL     1     -17.787 -38.724  17.287  1.00  0.00     0.232 C 
HETATM    6  N3  UNL     1     -19.180 -38.321  17.536  1.00  0.00    -0.075 N 
ATOM      7  H31 UNL     1     -19.273 -37.495  18.128  1.00  0.00     0.277 HD
ATOM      8  H32 UNL     1     -19.693 -38.958  18.146  1.00  0.00     0.277 HD
HETATM    9  C10 UNL     1     -19.772 -38.167  16.201  1.00  0.00     0.234 C 
HETATM   10  C11 UNL     1     -21.257 -37.907  16.276  1.00  0.00     0.046 C 
HETATM   11  C12 UNL     1     -21.916 -38.597  15.100  1.00  0.00     0.115 C 
HETATM   12  N4  UNL     1     -21.066 -38.713  13.956  1.00  0.00    -0.421 N 
ATOM     13  H4  UNL     1     -20.591 -37.910  13.541  1.00  0.00     0.153 HD
HETATM   14  C13 UNL     1     -20.933 -40.041  13.438  1.00  0.00     0.123 C 
HETATM   15  C14 UNL     1     -19.579 -40.238  12.758  1.00  0.00     0.130 C 
HETATM   16  C15 UNL     1     -19.164 -41.666  12.822  1.00  0.00     0.260 C 
HETATM   17  O2  UNL     1     -20.002 -42.467  12.325  1.00  0.00    -0.265 OA
HETATM   18  O3  UNL     1     -17.971 -41.971  13.387  1.00  0.00    -0.314 OA
HETATM   19  C16 UNL     1     -16.670 -41.726  13.043  1.00  0.00     0.165 C 
ENDROOT
BRANCH   1  20
HETATM   20  C4  UNL     1     -14.436 -41.848  14.168  1.00  0.00     0.131 C 
BRANCH  20  21
HETATM   21  N2  UNL     1     -13.520 -40.746  13.983  1.00  0.00    -0.343 N 
HETATM   22  C3  UNL     1     -12.543 -40.764  12.954  1.00  0.00     0.316 C 
HETATM   23  N1  UNL     1     -11.651 -39.690  12.776  1.00  0.00    -0.344 N 
HETATM   24  O1  UNL     1     -12.480 -41.751  12.203  1.00  0.00    -0.247 OA
ATOM     25  H1  UNL     1     -11.699 -38.879  13.392  1.00  0.00     0.164 HD
ATOM     26  H2  UNL     1     -13.578 -39.939  14.604  1.00  0.00     0.164 HD
BRANCH  23  27
HETATM   27  C2  UNL     1     -10.667 -39.736  11.721  1.00  0.00     0.120 C 
HETATM   28  C1  UNL     1     -10.082 -38.356  11.470  1.00  0.00     0.026 C 
ENDBRANCH  23  27
ENDBRANCH  20  21
ENDBRANCH   1  20
BRANCH  19  29
HETATM   29  C17 UNL     1     -16.400 -40.684  12.030  1.00  0.00     0.305 C 
BRANCH  29  30
HETATM   30  N5  UNL     1     -16.150 -41.163  10.701  1.00  0.00     0.095 N 
HETATM   31  C18 UNL     1     -17.255 -40.686   9.872  1.00  0.00     0.298 C 
HETATM   32  C19 UNL     1     -16.999 -39.291   9.378  1.00  0.00     0.198 C 
HETATM   33  O4  UNL     1     -16.032 -39.372   8.374  1.00  0.00    -0.388 OA
HETATM   34  C20 UNL     1     -15.079 -40.342   8.654  1.00  0.00     0.198 C 
HETATM   35  C21 UNL     1     -14.949 -40.599  10.144  1.00  0.00     0.298 C 
ENDBRANCH  29  30
ENDBRANCH  19  29
TORSDOF 5
ENDMDL
MODEL 4
REMARK VINA RESULT: -7.505185599      2.322      3.522
REMARK  5 active torsions:
REMARK  status: ('A' for Active; 'I' for Inactive)
REMARK    1  A    between atoms: C2_2  and  N1_3 
REMARK       I    between atoms: N1_3  and  C3_5 
REMARK       I    between atoms: C3_5  and  N2_7 
REMARK    2  A    between atoms: N2_7  and  C4_9 
REMARK    3  A    between atoms: C4_9  and  C5_10 
REMARK    4  A    between atoms: C16_28  and  C17_29 
REMARK    5  A    between atoms: C17_29  and  N5_30 
ROOT
HETATM    1  C5  UNL     1     -15.923 -40.496  13.296  1.00  0.00     0.035 C 
HETATM    2  C6  UNL     1     -15.617 -41.078  14.633  1.00  0.00     0.009 C 
HETATM    3  C7  UNL     1     -14.775 -40.114  15.484  1.00  0.00     0.002 C 
HETATM    4  C8  UNL     1     -15.762 -39.229  16.198  1.00  0.00     0.027 C 
HETATM    5  C9  UNL     1     -15.129 -38.100  16.947  1.00  0.00     0.232 C 
HETATM    6  N3  UNL     1     -15.966 -37.674  18.080  1.00  0.00    -0.075 N 
ATOM      7  H31 UNL     1     -15.565 -36.911  18.627  1.00  0.00     0.277 HD
ATOM      8  H32 UNL     1     -16.008 -38.352  18.842  1.00  0.00     0.277 HD
HETATM    9  C10 UNL     1     -17.271 -37.361  17.487  1.00  0.00     0.234 C 
HETATM   10  C11 UNL     1     -18.305 -37.055  18.544  1.00  0.00     0.046 C 
HETATM   11  C12 UNL     1     -19.638 -37.594  18.069  1.00  0.00     0.115 C 
HETATM   12  N4  UNL     1     -19.769 -37.622  16.646  1.00  0.00    -0.421 N 
ATOM     13  H4  UNL     1     -19.610 -36.799  16.063  1.00  0.00     0.153 HD
HETATM   14  C13 UNL     1     -20.140 -38.894  16.101  1.00  0.00     0.123 C 
HETATM   15  C14 UNL     1     -19.597 -39.069  14.683  1.00  0.00     0.130 C 
HETATM   16  C15 UNL     1     -19.383 -40.510  14.380  1.00  0.00     0.260 C 
HETATM   17  O2  UNL     1     -20.413 -41.224  14.524  1.00  0.00    -0.265 OA
HETATM   18  O3  UNL     1     -18.150 -40.916  13.991  1.00  0.00    -0.314 OA
HETATM   19  C16 UNL     1     -17.382 -40.685  12.883  1.00  0.00     0.165 C 
ENDROOT
BRANCH   1  20
HETATM   20  C4  UNL     1     -14.987 -41.006  12.229  1.00  0.00     0.131 C 
BRANCH  20  21
HETATM   21  N2  UNL     1     -13.801 -40.187  12.121  1.00  0.00    -0.343 N 
HETATM   22  C3  UNL     1     -12.598 -40.702  11.571  1.00  0.00     0.316 C 
HETATM   23  N1  UNL     1     -11.443 -39.903  11.468  1.00  0.00    -0.344 N 
HETATM   24  O1  UNL     1     -12.572 -41.879  11.179  1.00  0.00    -0.247 OA
ATOM     25  H1  UNL     1     -11.461 -38.936  11.792  1.00  0.00     0.164 HD
ATOM     26  H2  UNL     1     -13.829 -39.221  12.447  1.00  0.00     0.164 HD
BRANCH  23  27
HETATM   27  C2  UNL     1     -10.233 -40.452  10.904  1.00  0.00     0.120 C 
HETATM   28  C1  UNL     1      -9.996 -39.909   9.505  1.00  0.00     0.026 C 
ENDBRANCH  23  27
ENDBRANCH  20  21
ENDBRANCH   1  20
BRANCH  19  29
HETATM   29  C17 UNL     1     -17.748 -39.554  12.004  1.00  0.00     0.305 C 
BRANCH  29  30
HETATM   30  N5  UNL     1     -18.408 -39.909  10.781  1.00  0.00     0.095 N 
HETATM   31  C18 UNL     1     -17.890 -39.009   9.752  1.00  0.00     0.298 C 
HETATM   32  C19 UNL     1     -16.609 -39.532   9.169  1.00  0.00     0.198 C 
HETATM   33  O4  UNL     1     -16.935 -40.604   8.335  1.00  0.00    -0.388 OA
HETATM   34  C20 UNL     1     -17.983 -41.356   8.848  1.00  0.00     0.198 C 
HETATM   35  C21 UNL     1     -18.077 -41.244  10.358  1.00  0.00     0.298 C 
ENDBRANCH  29  30
ENDBRANCH  19  29
TORSDOF 5
ENDMDL
MODEL 5
REMARK VINA RESULT: -7.498596640      1.603      2.059
REMARK  5 active torsions:
REMARK  status: ('A' for Active; 'I' for Inactive)
REMARK    1  A    between atoms: C2_2  and  N1_3 
REMARK       I    between atoms: N1_3  and  C3_5 
REMARK       I    between atoms: C3_5  and  N2_7 
REMARK    2  A    between atoms: N2_7  and  C4_9 
REMARK    3  A    between atoms: C4_9  and  C5_10 
REMARK    4  A    between atoms: C16_28  and  C17_29 
REMARK    5  A    between atoms: C17_29  and  N5_30 
ROOT
HETATM    1  C5  UNL     1     -16.074 -40.568  13.205  1.00  0.00     0.035 C 
HETATM    2  C6  UNL     1     -16.248 -41.276  14.504  1.00  0.00     0.009 C 
HETATM    3  C7  UNL     1     -15.815 -40.394  15.686  1.00  0.00     0.002 C 
HETATM    4  C8  UNL     1     -17.032 -39.592  16.065  1.00  0.00     0.027 C 
HETATM    5  C9  UNL     1     -16.764 -38.537  17.090  1.00  0.00     0.232 C 
HETATM    6  N3  UNL     1     -17.972 -38.231  17.872  1.00  0.00    -0.075 N 
ATOM      7  H31 UNL     1     -17.831 -37.523  18.593  1.00  0.00     0.277 HD
ATOM      8  H32 UNL     1     -18.258 -38.981  18.502  1.00  0.00     0.277 HD
HETATM    9  C10 UNL     1     -18.986 -37.872  16.873  1.00  0.00     0.234 C 
HETATM   10  C11 UNL     1     -20.345 -37.681  17.502  1.00  0.00     0.046 C 
HETATM   11  C12 UNL     1     -21.390 -38.181  16.527  1.00  0.00     0.115 C 
HETATM   12  N4  UNL     1     -20.994 -38.070  15.158  1.00  0.00    -0.421 N 
ATOM     13  H4  UNL     1     -20.671 -37.192  14.749  1.00  0.00     0.153 HD
HETATM   14  C13 UNL     1     -21.086 -39.285  14.404  1.00  0.00     0.123 C 
HETATM   15  C14 UNL     1     -20.058 -39.315  13.274  1.00  0.00     0.130 C 
HETATM   16  C15 UNL     1     -19.686 -40.718  12.943  1.00  0.00     0.260 C 
HETATM   17  O2  UNL     1     -20.666 -41.450  12.638  1.00  0.00    -0.265 OA
HETATM   18  O3  UNL     1     -18.380 -41.073  12.998  1.00  0.00    -0.314 OA
HETATM   19  C16 UNL     1     -17.273 -40.727  12.272  1.00  0.00     0.165 C 
ENDROOT
BRANCH   1  20
HETATM   20  C4  UNL     1     -14.792 -40.963  12.513  1.00  0.00     0.131 C 
BRANCH  20  21
HETATM   21  N2  UNL     1     -13.867 -39.856  12.426  1.00  0.00    -0.343 N 
HETATM   22  C3  UNL     1     -12.846 -39.671  13.393  1.00  0.00     0.316 C 
HETATM   23  N1  UNL     1     -11.946 -38.591  13.307  1.00  0.00    -0.344 N 
HETATM   24  O1  UNL     1     -12.753 -40.480  14.331  1.00  0.00    -0.247 OA
ATOM     25  H1  UNL     1     -12.022 -37.924  12.539  1.00  0.00     0.164 HD
ATOM     26  H2  UNL     1     -13.951 -39.195  11.653  1.00  0.00     0.164 HD
BRANCH  23  27
HETATM   27  C2  UNL     1     -10.917 -38.428  14.305  1.00  0.00     0.120 C 
HETATM   28  C1  UNL     1     -11.449 -37.666  15.508  1.00  0.00     0.026 C 
ENDBRANCH  23  27
ENDBRANCH  20  21
ENDBRANCH   1  20
BRANCH  19  29
HETATM   29  C17 UNL     1     -17.344 -39.519  11.424  1.00  0.00     0.305 C 
BRANCH  29  30
HETATM   30  N5  UNL     1     -17.786 -39.733  10.077  1.00  0.00     0.095 N 
HETATM   31  C18 UNL     1     -16.772 -39.141   9.206  1.00  0.00     0.298 C 
HETATM   32  C19 UNL     1     -15.648 -40.104   8.951  1.00  0.00     0.198 C 
HETATM   33  O4  UNL     1     -16.119 -41.071   8.060  1.00  0.00    -0.388 OA
HETATM   34  C20 UNL     1     -17.448 -41.390   8.302  1.00  0.00     0.198 C 
HETATM   35  C21 UNL     1     -17.843 -41.132   9.744  1.00  0.00     0.298 C 
ENDBRANCH  29  30
ENDBRANCH  19  29
TORSDOF 5
ENDMDL
