MODEL 1
REMARK VINA RESULT: -7.630779476      0.000      0.000
REMARK  8 active torsions:
REMARK  status: ('A' for Active; 'I' for Inactive)
REMARK    1  A    between atoms: C2_2  and  C3_3 
REMARK       I    between atoms: C3_3  and  N1_5 
REMARK    2  A    between atoms: C4_7  and  C5_8 
REMARK    3  A    between atoms: C5_8  and  N2_9 
REMARK    4  A    between atoms: C11_16  and  O3_17 
REMARK    5  A    between atoms: C12_19  and  O4_20 
REMARK    6  A    between atoms: C13_22  and  C14_23 
REMARK    7  A    between atoms: C17_27  and  O6_28 
REMARK    8  A    between atoms: C19_31  and  O7_32 
ROOT
HETATM    1  N2  UNL     1     -16.825 -38.971  16.751  1.00  0.00    -0.386 N 
HETATM    2  C6  UNL     1     -18.177 -38.846  16.971  1.00  0.00     0.091 C 
HETATM    3  C7  UNL     1     -19.147 -39.186  15.904  1.00  0.00     0.175 C 
HETATM    4  O2  UNL     1     -19.263 -38.178  14.911  1.00  0.00    -0.366 OA
HETATM    5  C8  UNL     1     -19.585 -38.789  13.712  1.00  0.00     0.087 C 
HETATM    6  C9  UNL     1     -20.983 -38.263  13.355  1.00  0.00     0.049 C 
HETATM    7  C10 UNL     1     -18.636 -38.636  12.586  1.00  0.00     0.075 C 
HETATM    8  C11 UNL     1     -17.795 -39.805  12.202  1.00  0.00     0.156 C 
HETATM    9  C12 UNL     1     -16.994 -40.463  13.313  1.00  0.00     0.100 C 
HETATM   10  C13 UNL     1     -17.215 -41.966  13.328  1.00  0.00     0.095 C 
HETATM   11  C16 UNL     1     -18.245 -42.422  14.259  1.00  0.00     0.163 C 
HETATM   12  O5  UNL     1     -18.845 -43.454  14.024  1.00  0.00    -0.295 OA
HETATM   13  C17 UNL     1     -18.622 -41.671  15.523  1.00  0.00     0.202 C 
HETATM   14  C18 UNL     1     -18.626 -40.289  15.079  1.00  0.00     0.060 C 
HETATM   15  C19 UNL     1     -19.731 -40.236  14.005  1.00  0.00     0.167 C 
HETATM   16  C20 UNL     1     -17.301 -39.778  14.565  1.00  0.00     0.058 C 
HETATM   17  C21 UNL     1     -16.324 -39.775  15.681  1.00  0.00     0.131 C 
ENDROOT
BRANCH   1  18
HETATM   18  C5  UNL     1     -15.977 -37.894  17.169  1.00  0.00     0.166 C 
BRANCH  18  19
HETATM   19  C4  UNL     1     -14.557 -38.095  16.861  1.00  0.00     0.083 C 
HETATM   20  N1  UNL     1     -13.550 -37.528  17.387  1.00  0.00    -0.339 N 
HETATM   21  C3  UNL     1     -13.467 -36.569  18.383  1.00  0.00     0.220 C 
ATOM     22  H1  UNL     1     -12.650 -37.829  17.012  1.00  0.00     0.167 HD
HETATM   23  O1  UNL     1     -14.301 -36.535  19.318  1.00  0.00    -0.273 OA
BRANCH  21  24
HETATM   24  C2  UNL     1     -12.399 -35.511  18.432  1.00  0.00     0.098 C 
HETATM   25  C1  UNL     1     -12.430 -34.735  19.715  1.00  0.00     0.014 C 
ENDBRANCH  21  24
ENDBRANCH  18  19
ENDBRANCH   1  18
BRANCH   9  26
HETATM   26  O4  UNL     1     -15.636 -40.327  12.941  1.00  0.00    -0.386 OA
ATOM     27  H4  UNL     1     -15.132 -40.551  13.714  1.00  0.00     0.210 HD
ENDBRANCH   9  26
BRANCH  13  28
HETATM   28  O6  UNL     1     -17.871 -42.037  16.600  1.00  0.00    -0.387 OA
ATOM     29  H6  UNL     1     -18.267 -41.789  17.427  1.00  0.00     0.210 HD
ENDBRANCH  13  28
BRANCH  15  30
HETATM   30  O7  UNL     1     -20.933 -40.478  14.696  1.00  0.00    -0.392 OA
ATOM     31  H7  UNL     1     -21.083 -41.412  14.782  1.00  0.00     0.210 HD
ENDBRANCH  15  30
BRANCH   8  32
HETATM   32  O3  UNL     1     -16.944 -39.297  11.185  1.00  0.00    -0.392 OA
ATOM     33  H3  UNL     1     -16.284 -39.972  11.079  1.00  0.00     0.210 HD
ENDBRANCH   8  32
BRANCH  10  34
HETATM   34  C14 UNL     1     -15.977 -42.770  13.550  1.00  0.00     0.011 C 
HETATM   35  C15 UNL     1     -15.770 -43.748  12.411  1.00  0.00     0.006 C 
ENDBRANCH  10  34
TORSDOF 8
ENDMDL
MODEL 2
REMARK VINA RESULT: -7.624142462      1.227      1.373
REMARK  8 active torsions:
REMARK  status: ('A' for Active; 'I' for Inactive)
REMARK    1  A    between atoms: C2_2  and  C3_3 
REMARK       I    between atoms: C3_3  and  N1_5 
REMARK    2  A    between atoms: C4_7  and  C5_8 
REMARK    3  A    between atoms: C5_8  and  N2_9 
REMARK    4  A    between atoms: C11_16  and  O3_17 
REMARK    5  A    between atoms: C12_19  and  O4_20 
REMARK    6  A    between atoms: C13_22  and  C14_23 
REMARK    7  A    between atoms: C17_27  and  O6_28 
REMARK    8  A    between atoms: C19_31  and  O7_32 
ROOT
HETATM    1  N2  UNL     1     -15.693 -38.489  16.819  1.00  0.00    -0.386 N 
HETATM    2  C6  UNL     1     -17.031 -38.204  16.971  1.00  0.00     0.091 C 
HETATM    3  C7  UNL     1     -18.034 -38.795  16.056  1.00  0.00     0.175 C 
HETATM    4  O2  UNL     1     -18.090 -38.148  14.793  1.00  0.00    -0.366 OA
HETATM    5  C8  UNL     1     -18.469 -39.082  13.846  1.00  0.00     0.087 C 
HETATM    6  C9  UNL     1     -19.829 -38.598  13.324  1.00  0.00     0.049 C 
HETATM    7  C10 UNL     1     -17.524 -39.363  12.741  1.00  0.00     0.075 C 
HETATM    8  C11 UNL     1     -16.773 -40.650  12.758  1.00  0.00     0.156 C 
HETATM    9  C12 UNL     1     -16.008 -40.977  14.029  1.00  0.00     0.100 C 
HETATM   10  C13 UNL     1     -16.336 -42.378  14.516  1.00  0.00     0.095 C 
HETATM   11  C16 UNL     1     -17.385 -42.441  15.532  1.00  0.00     0.163 C 
HETATM   12  O5  UNL     1     -18.061 -43.449  15.629  1.00  0.00    -0.295 OA
HETATM   13  C17 UNL     1     -17.693 -41.304  16.488  1.00  0.00     0.202 C 
HETATM   14  C18 UNL     1     -17.603 -40.137  15.629  1.00  0.00     0.060 C 
HETATM   15  C19 UNL     1     -18.714 -40.348  14.581  1.00  0.00     0.167 C 
HETATM   16  C20 UNL     1     -16.251 -39.911  14.996  1.00  0.00     0.058 C 
HETATM   17  C21 UNL     1     -15.264 -39.624  16.065  1.00  0.00     0.131 C 
ENDROOT
BRANCH   1  18
HETATM   18  C5  UNL     1     -14.766 -37.399  16.884  1.00  0.00     0.166 C 
BRANCH  18  19
HETATM   19  C4  UNL     1     -13.381 -37.805  17.144  1.00  0.00     0.083 C 
HETATM   20  N1  UNL     1     -12.491 -37.188  17.808  1.00  0.00    -0.339 N 
HETATM   21  C3  UNL     1     -12.537 -35.976  18.476  1.00  0.00     0.220 C 
ATOM     22  H1  UNL     1     -11.591 -37.666  17.856  1.00  0.00     0.167 HD
HETATM   23  O1  UNL     1     -13.591 -35.580  19.026  1.00  0.00    -0.273 OA
BRANCH  21  24
HETATM   24  C2  UNL     1     -11.358 -35.049  18.600  1.00  0.00     0.098 C 
HETATM   25  C1  UNL     1     -10.990 -34.790  20.030  1.00  0.00     0.014 C 
ENDBRANCH  21  24
ENDBRANCH  18  19
ENDBRANCH   1  18
BRANCH   9  26
HETATM   26  O4  UNL     1     -14.649 -41.064  13.649  1.00  0.00    -0.386 OA
ATOM     27  H4  UNL     1     -14.149 -40.817  14.418  1.00  0.00     0.210 HD
ENDBRANCH   9  26
BRANCH  13  28
HETATM   28  O6  UNL     1     -16.958 -41.362  17.634  1.00  0.00    -0.387 OA
ATOM     29  H6  UNL     1     -16.136 -40.891  17.570  1.00  0.00     0.210 HD
ENDBRANCH  13  28
BRANCH  15  30
HETATM   30  O7  UNL     1     -19.923 -40.272  15.298  1.00  0.00    -0.392 OA
ATOM     31  H7  UNL     1     -19.771 -39.909  16.163  1.00  0.00     0.210 HD
ENDBRANCH  15  30
BRANCH   8  32
HETATM   32  O3  UNL     1     -15.899 -40.552  11.642  1.00  0.00    -0.392 OA
ATOM     33  H3  UNL     1     -15.595 -41.442  11.510  1.00  0.00     0.210 HD
ENDBRANCH   8  32
BRANCH  10  34
HETATM   34  C14 UNL     1     -15.157 -43.157  14.997  1.00  0.00     0.011 C 
HETATM   35  C15 UNL     1     -15.038 -44.461  14.235  1.00  0.00     0.006 C 
ENDBRANCH  10  34
TORSDOF 8
ENDMDL
MODEL 3
REMARK VINA RESULT: -7.537225106      2.997      3.731
REMARK  8 active torsions:
REMARK  status: ('A' for Active; 'I' for Inactive)
REMARK    1  A    between atoms: C2_2  and  C3_3 
REMARK       I    between atoms: C3_3  and  N1_5 
REMARK    2  A    between atoms: C4_7  and  C5_8 
REMARK    3  A    between atoms: C5_8  and  N2_9 
REMARK    4  A    between atoms: C11_16  and  O3_17 
REMARK    5  A    between atoms: C12_19  and  O4_20 
REMARK    6  A    between atoms: C13_22  and  C14_23 
REMARK    7  A    between atoms: C17_27  and  O6_28 
REMARK    8  A    between atoms: C19_31  and  O7_32 
ROOT
HETATM    1  N2  UNL     1     -19.681 -39.254  15.044  1.00  0.00    -0.386 N 
HETATM    2  C6  UNL     1     -20.446 -39.695  13.988  1.00  0.00     0.091 C 
HETATM    3  C7  UNL     1     -19.817 -40.399  12.847  1.00  0.00     0.175 C 
HETATM    4  O2  UNL     1     -19.160 -39.524  11.943  1.00  0.00    -0.366 OA
HETATM    5  C8  UNL     1     -18.102 -40.210  11.372  1.00  0.00     0.087 C 
HETATM    6  C9  UNL     1     -18.442 -40.302   9.877  1.00  0.00     0.049 C 
HETATM    7  C10 UNL     1     -16.738 -39.678  11.594  1.00  0.00     0.075 C 
HETATM    8  C11 UNL     1     -15.840 -40.397  12.540  1.00  0.00     0.156 C 
HETATM    9  C12 UNL     1     -16.392 -40.673  13.929  1.00  0.00     0.100 C 
HETATM   10  C13 UNL     1     -16.217 -42.134  14.305  1.00  0.00     0.095 C 
HETATM   11  C16 UNL     1     -17.383 -42.976  14.042  1.00  0.00     0.163 C 
HETATM   12  O5  UNL     1     -17.224 -44.162  13.824  1.00  0.00    -0.295 OA
HETATM   13  C17 UNL     1     -18.806 -42.450  14.018  1.00  0.00     0.202 C 
HETATM   14  C18 UNL     1     -18.665 -41.189  13.312  1.00  0.00     0.060 C 
HETATM   15  C19 UNL     1     -18.156 -41.590  11.912  1.00  0.00     0.167 C 
HETATM   16  C20 UNL     1     -17.765 -40.178  13.982  1.00  0.00     0.058 C 
HETATM   17  C21 UNL     1     -18.372 -39.779  15.273  1.00  0.00     0.131 C 
ENDROOT
BRANCH   1  18
HETATM   18  C5  UNL     1     -19.913 -37.926  15.528  1.00  0.00     0.166 C 
BRANCH  18  19
HETATM   19  C4  UNL     1     -20.781 -37.861  16.708  1.00  0.00     0.083 C 
HETATM   20  N1  UNL     1     -20.443 -37.800  17.931  1.00  0.00    -0.339 N 
HETATM   21  C3  UNL     1     -19.192 -37.776  18.526  1.00  0.00     0.220 C 
ATOM     22  H1  UNL     1     -21.225 -37.762  18.586  1.00  0.00     0.167 HD
HETATM   23  O1  UNL     1     -18.217 -37.228  17.960  1.00  0.00    -0.273 OA
BRANCH  21  24
HETATM   24  C2  UNL     1     -18.897 -38.390  19.867  1.00  0.00     0.098 C 
HETATM   25  C1  UNL     1     -17.428 -38.601  20.082  1.00  0.00     0.014 C 
ENDBRANCH  21  24
ENDBRANCH  18  19
ENDBRANCH   1  18
BRANCH   9  26
HETATM   26  O4  UNL     1     -15.536 -39.991  14.825  1.00  0.00    -0.386 OA
ATOM     27  H4  UNL     1     -14.917 -40.641  15.136  1.00  0.00     0.210 HD
ENDBRANCH   9  26
BRANCH  13  28
HETATM   28  O6  UNL     1     -19.402 -42.479  15.243  1.00  0.00    -0.387 OA
ATOM     29  H6  UNL     1     -19.369 -41.642  15.690  1.00  0.00     0.210 HD
ENDBRANCH  13  28
BRANCH  15  30
HETATM   30  O7  UNL     1     -19.216 -42.306  11.323  1.00  0.00    -0.392 OA
ATOM     31  H7  UNL     1     -19.590 -42.915  11.948  1.00  0.00     0.210 HD
ENDBRANCH  15  30
BRANCH   8  32
HETATM   32  O3  UNL     1     -14.679 -39.582  12.600  1.00  0.00    -0.392 OA
ATOM     33  H3  UNL     1     -15.018 -38.695  12.565  1.00  0.00     0.210 HD
ENDBRANCH   8  32
BRANCH  10  34
HETATM   34  C14 UNL     1     -15.770 -42.361  15.711  1.00  0.00     0.011 C 
HETATM   35  C15 UNL     1     -14.628 -43.357  15.748  1.00  0.00     0.006 C 
ENDBRANCH  10  34
TORSDOF 8
ENDMDL
MODEL 4
REMARK VINA RESULT: -7.511122322      2.220      3.500
REMARK  8 active torsions:
REMARK  status: ('A' for Active; 'I' for Inactive)
REMARK    1  A    between atoms: C2_2  and  C3_3 
REMARK       I    between atoms: C3_3  and  N1_5 
REMARK    2  A    between atoms: C4_7  and  C5_8 
REMARK    3  A    between atoms: C5_8  and  N2_9 
REMARK    4  A    between atoms: C11_16  and  O3_17 
REMARK    5  A    between atoms: C12_19  and  O4_20 
REMARK    6  A    between atoms: C13_22  and  C14_23 
REMARK    7  A    between atoms: C17_27  and  O6_28 
REMARK    8  A    between atoms: C19_31  and  O7_32 
ROOT
HETATM    1  N2  UNL     1     -18.714 -39.189  15.449  1.00  0.00    -0.386 N 
HETATM    2  C6  UNL     1     -19.145 -39.253  14.144  1.00  0.00     0.091 C 
HETATM    3  C7  UNL     1     -18.423 -40.085  13.154  1.00  0.00     0.175 C 
HETATM    4  O2  UNL     1     -17.229 -39.481  12.680  1.00  0.00    -0.366 OA
HETATM    5  C8  UNL     1     -16.335 -40.487  12.359  1.00  0.00     0.087 C 
HETATM    6  C9  UNL     1     -16.120 -40.368  10.843  1.00  0.00     0.049 C 
HETATM    7  C10 UNL     1     -15.051 -40.525  13.096  1.00  0.00     0.075 C 
HETATM    8  C11 UNL     1     -14.856 -41.579  14.131  1.00  0.00     0.156 C 
HETATM    9  C12 UNL     1     -15.931 -41.693  15.199  1.00  0.00     0.100 C 
HETATM   10  C13 UNL     1     -16.409 -43.128  15.340  1.00  0.00     0.095 C 
HETATM   11  C16 UNL     1     -17.611 -43.450  14.572  1.00  0.00     0.163 C 
HETATM   12  O5  UNL     1     -17.795 -44.595  14.205  1.00  0.00    -0.295 OA
HETATM   13  C17 UNL     1     -18.661 -42.422  14.194  1.00  0.00     0.202 C 
HETATM   14  C18 UNL     1     -17.857 -41.276  13.810  1.00  0.00     0.060 C 
HETATM   15  C19 UNL     1     -17.044 -41.769  12.595  1.00  0.00     0.167 C 
HETATM   16  C20 UNL     1     -16.976 -40.717  14.902  1.00  0.00     0.058 C 
HETATM   17  C21 UNL     1     -17.836 -40.183  15.984  1.00  0.00     0.131 C 
ENDROOT
BRANCH   1  18
HETATM   18  C5  UNL     1     -18.641 -37.898  16.067  1.00  0.00     0.166 C 
BRANCH  18  19
HETATM   19  C4  UNL     1     -19.165 -37.860  17.437  1.00  0.00     0.083 C 
HETATM   20  N1  UNL     1     -18.539 -37.602  18.512  1.00  0.00    -0.339 N 
HETATM   21  C3  UNL     1     -17.209 -37.286  18.732  1.00  0.00     0.220 C 
ATOM     22  H1  UNL     1     -19.114 -37.632  19.354  1.00  0.00     0.167 HD
HETATM   23  O1  UNL     1     -16.549 -36.637  17.887  1.00  0.00    -0.273 OA
BRANCH  21  24
HETATM   24  C2  UNL     1     -16.455 -37.681  19.972  1.00  0.00     0.098 C 
HETATM   25  C1  UNL     1     -15.263 -36.805  20.213  1.00  0.00     0.014 C 
ENDBRANCH  21  24
ENDBRANCH  18  19
ENDBRANCH   1  18
BRANCH   9  26
HETATM   26  O4  UNL     1     -15.282 -41.434  16.428  1.00  0.00    -0.386 OA
ATOM     27  H4  UNL     1     -15.930 -41.598  17.103  1.00  0.00     0.210 HD
ENDBRANCH   9  26
BRANCH  13  28
HETATM   28  O6  UNL     1     -19.632 -42.284  15.139  1.00  0.00    -0.387 OA
ATOM     29  H6  UNL     1     -19.341 -41.795  15.899  1.00  0.00     0.210 HD
ENDBRANCH  13  28
BRANCH  15  30
HETATM   30  O7  UNL     1     -17.993 -41.998  11.581  1.00  0.00    -0.392 OA
ATOM     31  H7  UNL     1     -17.713 -42.714  11.023  1.00  0.00     0.210 HD
ENDBRANCH  15  30
BRANCH   8  32
HETATM   32  O3  UNL     1     -13.593 -41.270  14.703  1.00  0.00    -0.392 OA
ATOM     33  H3  UNL     1     -13.104 -40.886  13.986  1.00  0.00     0.210 HD
ENDBRANCH   8  32
BRANCH  10  34
HETATM   34  C14 UNL     1     -16.606 -43.579  16.749  1.00  0.00     0.011 C 
HETATM   35  C15 UNL     1     -15.779 -44.817  17.029  1.00  0.00     0.006 C 
ENDBRANCH  10  34
TORSDOF 8
ENDMDL
MODEL 5
REMARK VINA RESULT: -7.277470550      1.955      2.600
REMARK  8 active torsions:
REMARK  status: ('A' for Active; 'I' for Inactive)
REMARK    1  A    between atoms: C2_2  and  C3_3 
REMARK       I    between atoms: C3_3  and  N1_5 
REMARK    2  A    between atoms: C4_7  and  C5_8 
REMARK    3  A    between atoms: C5_8  and  N2_9 
REMARK    4  A    between atoms: C11_16  and  O3_17 
REMARK    5  A    between atoms: C12_19  and  O4_20 
REMARK    6  A    between atoms: C13_22  and  C14_23 
REMARK    7  A    between atoms: C17_27  and  O6_28 
REMARK    8  A    between atoms: C19_31  and  O7_32 
ROOT
HETATM    1  N2  UNL     1     -13.684 -39.423  15.121  1.00  0.00    -0.386 N 
HETATM    2  C6  UNL     1     -14.467 -39.202  16.231  1.00  0.00     0.091 C 
HETATM    3  C7  UNL     1     -15.889 -39.616  16.242  1.00  0.00     0.175 C 
HETATM    4  O2  UNL     1     -16.735 -38.728  15.527  1.00  0.00    -0.366 OA
HETATM    5  C8  UNL     1     -17.792 -39.459  15.014  1.00  0.00     0.087 C 
HETATM    6  C9  UNL     1     -19.042 -38.907  15.714  1.00  0.00     0.049 C 
HETATM    7  C10 UNL     1     -17.955 -39.491  13.542  1.00  0.00     0.075 C 
HETATM    8  C11 UNL     1     -17.592 -40.739  12.814  1.00  0.00     0.156 C 
HETATM    9  C12 UNL     1     -16.205 -41.302  13.074  1.00  0.00     0.100 C 
HETATM   10  C13 UNL     1     -16.271 -42.779  13.423  1.00  0.00     0.095 C 
HETATM   11  C16 UNL     1     -16.289 -43.067  14.856  1.00  0.00     0.163 C 
HETATM   12  O5  UNL     1     -16.823 -44.087  15.251  1.00  0.00    -0.295 OA
HETATM   13  C17 UNL     1     -15.676 -42.153  15.900  1.00  0.00     0.202 C 
HETATM   14  C18 UNL     1     -16.068 -40.835  15.435  1.00  0.00     0.060 C 
HETATM   15  C19 UNL     1     -17.609 -40.852  15.491  1.00  0.00     0.167 C 
HETATM   16  C20 UNL     1     -15.548 -40.458  14.068  1.00  0.00     0.058 C 
HETATM   17  C21 UNL     1     -14.069 -40.373  14.126  1.00  0.00     0.131 C 
ENDROOT
BRANCH   1  18
HETATM   18  C5  UNL     1     -12.850 -38.350  14.667  1.00  0.00     0.166 C 
BRANCH  18  19
HETATM   19  C4  UNL     1     -11.678 -38.103  15.512  1.00  0.00     0.083 C 
HETATM   20  N1  UNL     1     -11.427 -37.086  16.232  1.00  0.00    -0.339 N 
HETATM   21  C3  UNL     1     -12.150 -35.925  16.444  1.00  0.00     0.220 C 
ATOM     22  H1  UNL     1     -10.543 -37.135  16.740  1.00  0.00     0.167 HD
HETATM   23  O1  UNL     1     -13.404 -35.933  16.436  1.00  0.00    -0.273 OA
BRANCH  21  24
HETATM   24  C2  UNL     1     -11.516 -34.584  16.696  1.00  0.00     0.098 C 
HETATM   25  C1  UNL     1     -10.997 -34.458  18.097  1.00  0.00     0.014 C 
ENDBRANCH  21  24
ENDBRANCH  18  19
ENDBRANCH   1  18
BRANCH   9  26
HETATM   26  O4  UNL     1     -15.541 -41.282  11.825  1.00  0.00    -0.386 OA
ATOM     27  H4  UNL     1     -15.040 -42.088  11.785  1.00  0.00     0.210 HD
ENDBRANCH   9  26
BRANCH  13  28
HETATM   28  O6  UNL     1     -14.363 -42.427  16.139  1.00  0.00    -0.387 OA
ATOM     29  H6  UNL     1     -14.181 -42.589  17.057  1.00  0.00     0.210 HD
ENDBRANCH  13  28
BRANCH  15  30
HETATM   30  O7  UNL     1     -17.931 -40.947  16.859  1.00  0.00    -0.392 OA
ATOM     31  H7  UNL     1     -17.198 -41.303  17.346  1.00  0.00     0.210 HD
ENDBRANCH  15  30
BRANCH   8  32
HETATM   32  O3  UNL     1     -17.762 -40.401  11.445  1.00  0.00    -0.392 OA
ATOM     33  H3  UNL     1     -18.164 -41.173  11.065  1.00  0.00     0.210 HD
ENDBRANCH   8  32
BRANCH  10  34
HETATM   34  C14 UNL     1     -15.216 -43.614  12.779  1.00  0.00     0.011 C 
HETATM   35  C15 UNL     1     -15.844 -44.734  11.974  1.00  0.00     0.006 C 
ENDBRANCH  10  34
TORSDOF 8
ENDMDL
