MODEL 1
REMARK VINA RESULT: -7.660150587      0.000      0.000
REMARK  7 active torsions:
REMARK  status: ('A' for Active; 'I' for Inactive)
REMARK       I    between atoms: C2_2  and  N1_4 
REMARK    1  A    between atoms: N1_4  and  C3_6 
REMARK    2  A    between atoms: C5_8  and  C6_9 
REMARK    3  A    between atoms: C6_9  and  C7_11 
REMARK    4  A    between atoms: C10_14  and  O3_15 
REMARK    5  A    between atoms: C11_17  and  O4_18 
REMARK    6  A    between atoms: C12_20  and  N2_21 
REMARK    7  A    between atoms: C19_29  and  C20_30 
ROOT
HETATM    1  C3  UNL     1     -16.601 -41.853  15.659  1.00  0.00     0.124 C 
HETATM    2  C4  UNL     1     -17.497 -42.458  14.583  1.00  0.00     0.045 C 
HETATM    3  C5  UNL     1     -18.671 -41.583  14.240  1.00  0.00     0.117 C 
HETATM    4  C12 UNL     1     -18.555 -40.309  15.059  1.00  0.00     0.371 C 
HETATM    5  O5  UNL     1     -17.333 -39.682  14.928  1.00  0.00    -0.338 OA
HETATM    6  C19 UNL     1     -16.237 -40.474  15.167  1.00  0.00     0.247 C 
ENDROOT
BRANCH   3   7
HETATM    7  C6  UNL     1     -18.863 -41.325  12.809  1.00  0.00     0.142 C 
HETATM    8  O2  UNL     1     -19.937 -41.791  12.350  1.00  0.00    -0.297 OA
BRANCH   7   9
HETATM    9  C7  UNL     1     -18.019 -40.630  11.872  1.00  0.00     0.087 C 
HETATM   10  C8  UNL     1     -18.606 -39.390  11.226  1.00  0.00     0.017 C 
HETATM   11  C9  UNL     1     -17.594 -39.084  10.114  1.00  0.00     0.035 C 
HETATM   12  C10 UNL     1     -16.634 -40.278  10.079  1.00  0.00     0.147 C 
HETATM   13  C11 UNL     1     -17.591 -41.371  10.627  1.00  0.00     0.158 C 
BRANCH  12  14
HETATM   14  O3  UNL     1     -16.252 -40.609   8.796  1.00  0.00    -0.393 OA
ATOM     15  H3  UNL     1     -16.402 -41.526   8.598  1.00  0.00     0.210 HD
ENDBRANCH  12  14
BRANCH  13  16
HETATM   16  O4  UNL     1     -18.619 -41.381   9.671  1.00  0.00    -0.392 OA
ATOM     17  H4  UNL     1     -18.424 -41.991   8.969  1.00  0.00     0.210 HD
ENDBRANCH  13  16
ENDBRANCH   7   9
ENDBRANCH   3   7
BRANCH   4  18
HETATM   18  N2  UNL     1     -19.577 -39.364  14.748  1.00  0.00     0.118 N 
HETATM   19  C13 UNL     1     -20.879 -39.886  14.995  1.00  0.00     0.276 C 
HETATM   20  C14 UNL     1     -21.981 -38.889  14.832  1.00  0.00     0.030 C 
HETATM   21  C15 UNL     1     -22.026 -37.785  15.809  1.00  0.00     0.002 C 
HETATM   22  C16 UNL     1     -21.169 -37.957  17.026  1.00  0.00     0.002 C 
HETATM   23  C17 UNL     1     -19.710 -38.033  16.754  1.00  0.00     0.030 C 
HETATM   24  C18 UNL     1     -19.368 -38.060  15.281  1.00  0.00     0.276 C 
ENDBRANCH   4  18
BRANCH   1  25
HETATM   25  N1  UNL     1     -15.376 -42.640  15.643  1.00  0.00    -0.354 N 
HETATM   26  C2  UNL     1     -15.266 -43.846  16.368  1.00  0.00     0.214 C 
HETATM   27  C1  UNL     1     -14.013 -44.651  16.353  1.00  0.00     0.117 C 
HETATM   28  O1  UNL     1     -16.266 -44.228  17.035  1.00  0.00    -0.274 OA
ATOM     29  H1  UNL     1     -14.581 -42.312  15.096  1.00  0.00     0.162 HD
ENDBRANCH   1  25
BRANCH   6  30
HETATM   30  C20 UNL     1     -15.319 -39.837  16.132  1.00  0.00     0.205 C 
HETATM   31  O6  UNL     1     -15.792 -38.972  16.917  1.00  0.00    -0.646 OA
HETATM   32  O7  UNL     1     -13.969 -40.123  16.239  1.00  0.00    -0.646 OA
ENDBRANCH   6  30
TORSDOF 7
ENDMDL
MODEL 2
REMARK VINA RESULT: -7.626360591      2.208      3.212
REMARK  7 active torsions:
REMARK  status: ('A' for Active; 'I' for Inactive)
REMARK       I    between atoms: C2_2  and  N1_4 
REMARK    1  A    between atoms: N1_4  and  C3_6 
REMARK    2  A    between atoms: C5_8  and  C6_9 
REMARK    3  A    between atoms: C6_9  and  C7_11 
REMARK    4  A    between atoms: C10_14  and  O3_15 
REMARK    5  A    between atoms: C11_17  and  O4_18 
REMARK    6  A    between atoms: C12_20  and  N2_21 
REMARK    7  A    between atoms: C19_29  and  C20_30 
ROOT
HETATM    1  C3  UNL     1     -15.209 -41.673  14.974  1.00  0.00     0.124 C 
HETATM    2  C4  UNL     1     -16.643 -42.181  15.085  1.00  0.00     0.045 C 
HETATM    3  C5  UNL     1     -17.575 -41.170  15.693  1.00  0.00     0.117 C 
HETATM    4  C12 UNL     1     -16.780 -39.904  15.957  1.00  0.00     0.371 C 
HETATM    5  O5  UNL     1     -16.100 -39.442  14.849  1.00  0.00    -0.338 OA
HETATM    6  C19 UNL     1     -15.291 -40.363  14.229  1.00  0.00     0.247 C 
ENDROOT
BRANCH   3   7
HETATM    7  C6  UNL     1     -18.807 -40.922  14.938  1.00  0.00     0.142 C 
HETATM    8  O2  UNL     1     -19.701 -41.786  15.128  1.00  0.00    -0.297 OA
BRANCH   7   9
HETATM    9  C7  UNL     1     -19.137 -39.856  14.029  1.00  0.00     0.087 C 
HETATM   10  C8  UNL     1     -20.335 -39.000  14.397  1.00  0.00     0.017 C 
HETATM   11  C9  UNL     1     -20.567 -38.185  13.118  1.00  0.00     0.035 C 
HETATM   12  C10 UNL     1     -19.630 -38.782  12.063  1.00  0.00     0.147 C 
HETATM   13  C11 UNL     1     -19.533 -40.229  12.619  1.00  0.00     0.158 C 
BRANCH  12  14
HETATM   14  O3  UNL     1     -20.202 -38.814  10.809  1.00  0.00    -0.393 OA
ATOM     15  H3  UNL     1     -19.998 -39.613  10.337  1.00  0.00     0.210 HD
ENDBRANCH  12  14
BRANCH  13  16
HETATM   16  O4  UNL     1     -20.867 -40.662  12.571  1.00  0.00    -0.392 OA
ATOM     17  H4  UNL     1     -20.986 -41.321  11.897  1.00  0.00     0.210 HD
ENDBRANCH  13  16
ENDBRANCH   7   9
ENDBRANCH   3   7
BRANCH   4  18
HETATM   18  N2  UNL     1     -17.590 -38.843  16.458  1.00  0.00     0.118 N 
HETATM   19  C13 UNL     1     -18.211 -39.183  17.694  1.00  0.00     0.276 C 
HETATM   20  C14 UNL     1     -18.950 -38.056  18.341  1.00  0.00     0.030 C 
HETATM   21  C15 UNL     1     -18.138 -36.929  18.836  1.00  0.00     0.002 C 
HETATM   22  C16 UNL     1     -16.663 -37.178  18.921  1.00  0.00     0.002 C 
HETATM   23  C17 UNL     1     -16.001 -37.451  17.619  1.00  0.00     0.030 C 
HETATM   24  C18 UNL     1     -16.966 -37.563  16.460  1.00  0.00     0.276 C 
ENDBRANCH   4  18
BRANCH   1  25
HETATM   25  N1  UNL     1     -14.523 -42.610  14.096  1.00  0.00    -0.354 N 
HETATM   26  C2  UNL     1     -13.679 -43.618  14.610  1.00  0.00     0.214 C 
HETATM   27  C1  UNL     1     -12.976 -44.577  13.714  1.00  0.00     0.117 C 
HETATM   28  O1  UNL     1     -13.534 -43.685  15.861  1.00  0.00    -0.274 OA
ATOM     29  H1  UNL     1     -14.656 -42.536  13.088  1.00  0.00     0.162 HD
ENDBRANCH   1  25
BRANCH   6  30
HETATM   30  C20 UNL     1     -13.930 -39.827  14.029  1.00  0.00     0.205 C 
HETATM   31  O6  UNL     1     -13.095 -39.967  14.963  1.00  0.00    -0.646 OA
HETATM   32  O7  UNL     1     -13.501 -39.179  12.883  1.00  0.00    -0.646 OA
ENDBRANCH   6  30
TORSDOF 7
ENDMDL
MODEL 3
REMARK VINA RESULT: -7.521952841      2.843      5.511
REMARK  7 active torsions:
REMARK  status: ('A' for Active; 'I' for Inactive)
REMARK       I    between atoms: C2_2  and  N1_4 
REMARK    1  A    between atoms: N1_4  and  C3_6 
REMARK    2  A    between atoms: C5_8  and  C6_9 
REMARK    3  A    between atoms: C6_9  and  C7_11 
REMARK    4  A    between atoms: C10_14  and  O3_15 
REMARK    5  A    between atoms: C11_17  and  O4_18 
REMARK    6  A    between atoms: C12_20  and  N2_21 
REMARK    7  A    between atoms: C19_29  and  C20_30 
ROOT
HETATM    1  C3  UNL     1     -16.025 -42.276  15.644  1.00  0.00     0.124 C 
HETATM    2  C4  UNL     1     -15.373 -40.904  15.781  1.00  0.00     0.045 C 
HETATM    3  C5  UNL     1     -16.315 -39.775  15.468  1.00  0.00     0.117 C 
HETATM    4  C12 UNL     1     -17.675 -40.376  15.161  1.00  0.00     0.371 C 
HETATM    5  O5  UNL     1     -18.132 -41.229  16.145  1.00  0.00    -0.338 OA
HETATM    6  C19 UNL     1     -17.265 -42.232  16.503  1.00  0.00     0.247 C 
ENDROOT
BRANCH   3   7
HETATM    7  C6  UNL     1     -16.375 -38.713  16.477  1.00  0.00     0.142 C 
HETATM    8  O2  UNL     1     -15.357 -37.975  16.498  1.00  0.00    -0.297 OA
BRANCH   7   9
HETATM    9  C7  UNL     1     -17.409 -38.396  17.427  1.00  0.00     0.087 C 
HETATM   10  C8  UNL     1     -17.526 -36.940  17.838  1.00  0.00     0.017 C 
HETATM   11  C9  UNL     1     -18.492 -37.007  19.028  1.00  0.00     0.035 C 
HETATM   12  C10 UNL     1     -18.684 -38.497  19.331  1.00  0.00     0.147 C 
HETATM   13  C11 UNL     1     -17.325 -39.027  18.797  1.00  0.00     0.158 C 
BRANCH  12  14
HETATM   14  O3  UNL     1     -18.771 -38.753  20.683  1.00  0.00    -0.393 OA
ATOM     15  H3  UNL     1     -17.920 -38.880  21.085  1.00  0.00     0.210 HD
ENDBRANCH  12  14
BRANCH  13  16
HETATM   16  O4  UNL     1     -16.398 -38.350  19.604  1.00  0.00    -0.392 OA
ATOM     17  H4  UNL     1     -16.799 -38.066  20.417  1.00  0.00     0.210 HD
ENDBRANCH  13  16
ENDBRANCH   7   9
ENDBRANCH   3   7
BRANCH   4  18
HETATM   18  N2  UNL     1     -18.673 -39.384  14.932  1.00  0.00     0.118 N 
HETATM   19  C13 UNL     1     -18.497 -38.729  13.679  1.00  0.00     0.276 C 
HETATM   20  C14 UNL     1     -19.600 -37.787  13.318  1.00  0.00     0.030 C 
HETATM   21  C15 UNL     1     -20.919 -38.386  13.040  1.00  0.00     0.002 C 
HETATM   22  C16 UNL     1     -20.930 -39.871  12.842  1.00  0.00     0.002 C 
HETATM   23  C17 UNL     1     -20.507 -40.661  14.028  1.00  0.00     0.030 C 
HETATM   24  C18 UNL     1     -20.009 -39.812  15.176  1.00  0.00     0.276 C 
ENDBRANCH   4  18
BRANCH   1  25
HETATM   25  N1  UNL     1     -15.111 -43.215  16.278  1.00  0.00    -0.354 N 
HETATM   26  C2  UNL     1     -14.165 -43.944  15.524  1.00  0.00     0.214 C 
HETATM   27  C1  UNL     1     -13.230 -44.905  16.171  1.00  0.00     0.117 C 
HETATM   28  O1  UNL     1     -14.132 -43.757  14.278  1.00  0.00    -0.274 OA
ATOM     29  H1  UNL     1     -15.155 -43.349  17.287  1.00  0.00     0.162 HD
ENDBRANCH   1  25
BRANCH   6  30
HETATM   30  C20 UNL     1     -17.931 -43.549  16.470  1.00  0.00     0.205 C 
HETATM   31  O6  UNL     1     -18.835 -43.778  17.317  1.00  0.00    -0.646 OA
HETATM   32  O7  UNL     1     -17.632 -44.558  15.569  1.00  0.00    -0.646 OA
ENDBRANCH   6  30
TORSDOF 7
ENDMDL
MODEL 4
REMARK VINA RESULT: -7.302762905      2.642      5.655
REMARK  7 active torsions:
REMARK  status: ('A' for Active; 'I' for Inactive)
REMARK       I    between atoms: C2_2  and  N1_4 
REMARK    1  A    between atoms: N1_4  and  C3_6 
REMARK    2  A    between atoms: C5_8  and  C6_9 
REMARK    3  A    between atoms: C6_9  and  C7_11 
REMARK    4  A    between atoms: C10_14  and  O3_15 
REMARK    5  A    between atoms: C11_17  and  O4_18 
REMARK    6  A    between atoms: C12_20  and  N2_21 
REMARK    7  A    between atoms: C19_29  and  C20_30 
ROOT
HETATM    1  C3  UNL     1     -15.277 -40.782  13.874  1.00  0.00     0.124 C 
HETATM    2  C4  UNL     1     -15.278 -39.932  15.140  1.00  0.00     0.045 C 
HETATM    3  C5  UNL     1     -16.660 -39.525  15.569  1.00  0.00     0.117 C 
HETATM    4  C12 UNL     1     -17.651 -40.157  14.607  1.00  0.00     0.371 C 
HETATM    5  O5  UNL     1     -17.487 -41.520  14.469  1.00  0.00    -0.338 OA
HETATM    6  C19 UNL     1     -16.217 -41.930  14.145  1.00  0.00     0.247 C 
ENDROOT
BRANCH   3   7
HETATM    7  C6  UNL     1     -16.982 -39.789  16.974  1.00  0.00     0.142 C 
HETATM    8  O2  UNL     1     -17.093 -41.011  17.248  1.00  0.00    -0.297 OA
BRANCH   7   9
HETATM    9  C7  UNL     1     -17.186 -38.873  18.066  1.00  0.00     0.087 C 
HETATM   10  C8  UNL     1     -18.499 -38.113  18.076  1.00  0.00     0.017 C 
HETATM   11  C9  UNL     1     -18.265 -37.060  19.166  1.00  0.00     0.035 C 
HETATM   12  C10 UNL     1     -16.783 -37.164  19.541  1.00  0.00     0.147 C 
HETATM   13  C11 UNL     1     -16.233 -37.708  18.195  1.00  0.00     0.158 C 
BRANCH  12  14
HETATM   14  O3  UNL     1     -16.217 -35.933  19.800  1.00  0.00    -0.393 OA
ATOM     15  H3  UNL     1     -16.353 -35.652  20.697  1.00  0.00     0.210 HD
ENDBRANCH  12  14
BRANCH  13  16
HETATM   16  O4  UNL     1     -16.567 -36.685  17.295  1.00  0.00    -0.392 OA
ATOM     17  H4  UNL     1     -15.792 -36.216  17.010  1.00  0.00     0.210 HD
ENDBRANCH  13  16
ENDBRANCH   7   9
ENDBRANCH   3   7
BRANCH   4  18
HETATM   18  N2  UNL     1     -19.006 -39.905  14.973  1.00  0.00     0.118 N 
HETATM   19  C13 UNL     1     -19.345 -38.527  14.846  1.00  0.00     0.276 C 
HETATM   20  C14 UNL     1     -20.792 -38.228  15.070  1.00  0.00     0.030 C 
HETATM   21  C15 UNL     1     -21.739 -38.753  14.069  1.00  0.00     0.002 C 
HETATM   22  C16 UNL     1     -21.130 -39.246  12.792  1.00  0.00     0.002 C 
HETATM   23  C17 UNL     1     -20.213 -40.406  12.947  1.00  0.00     0.030 C 
HETATM   24  C18 UNL     1     -19.957 -40.788  14.387  1.00  0.00     0.276 C 
ENDBRANCH   4  18
BRANCH   1  25
HETATM   25  N1  UNL     1     -13.940 -41.350  13.778  1.00  0.00    -0.354 N 
HETATM   26  C2  UNL     1     -12.927 -40.727  13.016  1.00  0.00     0.214 C 
HETATM   27  C1  UNL     1     -11.560 -41.307  12.918  1.00  0.00     0.117 C 
HETATM   28  O1  UNL     1     -13.215 -39.656  12.416  1.00  0.00    -0.274 OA
ATOM     29  H1  UNL     1     -13.730 -42.217  14.273  1.00  0.00     0.162 HD
ENDBRANCH   1  25
BRANCH   6  30
HETATM   30  C20 UNL     1     -16.231 -42.837  12.980  1.00  0.00     0.205 C 
HETATM   31  O6  UNL     1     -17.160 -42.707  12.139  1.00  0.00    -0.646 OA
HETATM   32  O7  UNL     1     -15.291 -43.826  12.743  1.00  0.00    -0.646 OA
ENDBRANCH   6  30
TORSDOF 7
ENDMDL
MODEL 5
REMARK VINA RESULT: -7.295167423      2.857      7.091
REMARK  7 active torsions:
REMARK  status: ('A' for Active; 'I' for Inactive)
REMARK       I    between atoms: C2_2  and  N1_4 
REMARK    1  A    between atoms: N1_4  and  C3_6 
REMARK    2  A    between atoms: C5_8  and  C6_9 
REMARK    3  A    between atoms: C6_9  and  C7_11 
REMARK    4  A    between atoms: C10_14  and  O3_15 
REMARK    5  A    between atoms: C11_17  and  O4_18 
REMARK    6  A    between atoms: C12_20  and  N2_21 
REMARK    7  A    between atoms: C19_29  and  C20_30 
ROOT
HETATM    1  C3  UNL     1     -19.916 -38.635  16.154  1.00  0.00     0.124 C 
HETATM    2  C4  UNL     1     -18.872 -38.195  17.175  1.00  0.00     0.045 C 
HETATM    3  C5  UNL     1     -17.515 -38.788  16.914  1.00  0.00     0.117 C 
HETATM    4  C12 UNL     1     -17.605 -39.616  15.644  1.00  0.00     0.371 C 
HETATM    5  O5  UNL     1     -18.127 -38.921  14.573  1.00  0.00    -0.338 OA
HETATM    6  C19 UNL     1     -19.335 -38.309  14.800  1.00  0.00     0.247 C 
ENDROOT
BRANCH   3   7
HETATM    7  C6  UNL     1     -16.407 -37.828  16.891  1.00  0.00     0.142 C 
HETATM    8  O2  UNL     1     -16.712 -36.714  16.395  1.00  0.00    -0.297 OA
BRANCH   7   9
HETATM    9  C7  UNL     1     -15.049 -37.970  17.346  1.00  0.00     0.087 C 
HETATM   10  C8  UNL     1     -14.613 -37.052  18.473  1.00  0.00     0.017 C 
HETATM   11  C9  UNL     1     -13.094 -37.261  18.504  1.00  0.00     0.035 C 
HETATM   12  C10 UNL     1     -12.761 -38.109  17.272  1.00  0.00     0.147 C 
HETATM   13  C11 UNL     1     -13.942 -37.680  16.359  1.00  0.00     0.158 C 
BRANCH  12  14
HETATM   14  O3  UNL     1     -11.572 -37.737  16.682  1.00  0.00    -0.393 OA
ATOM     15  H3  UNL     1     -11.617 -36.874  16.286  1.00  0.00     0.210 HD
ENDBRANCH  12  14
BRANCH  13  16
HETATM   16  O4  UNL     1     -13.736 -36.299  16.227  1.00  0.00    -0.392 OA
ATOM     17  H4  UNL     1     -14.494 -35.812  16.530  1.00  0.00     0.210 HD
ENDBRANCH  13  16
ENDBRANCH   7   9
ENDBRANCH   3   7
BRANCH   4  18
HETATM   18  N2  UNL     1     -16.345 -40.158  15.254  1.00  0.00     0.118 N 
HETATM   19  C13 UNL     1     -15.965 -41.263  16.069  1.00  0.00     0.276 C 
HETATM   20  C14 UNL     1     -14.728 -41.967  15.611  1.00  0.00     0.030 C 
HETATM   21  C15 UNL     1     -14.813 -42.691  14.329  1.00  0.00     0.002 C 
HETATM   22  C16 UNL     1     -16.196 -42.906  13.795  1.00  0.00     0.002 C 
HETATM   23  C17 UNL     1     -16.936 -41.660  13.463  1.00  0.00     0.030 C 
HETATM   24  C18 UNL     1     -16.204 -40.397  13.858  1.00  0.00     0.276 C 
ENDBRANCH   4  18
BRANCH   1  25
HETATM   25  N1  UNL     1     -21.055 -37.749  16.344  1.00  0.00    -0.354 N 
HETATM   26  C2  UNL     1     -21.855 -37.816  17.506  1.00  0.00     0.214 C 
HETATM   27  C1  UNL     1     -23.020 -36.909  17.701  1.00  0.00     0.117 C 
HETATM   28  O1  UNL     1     -21.554 -38.671  18.382  1.00  0.00    -0.274 OA
ATOM     29  H1  UNL     1     -21.280 -37.064  15.622  1.00  0.00     0.162 HD
ENDBRANCH   1  25
BRANCH   6  30
HETATM   30  C20 UNL     1     -20.314 -38.656  13.751  1.00  0.00     0.205 C 
HETATM   31  O6  UNL     1     -21.120 -39.598  13.980  1.00  0.00    -0.646 OA
HETATM   32  O7  UNL     1     -20.412 -38.017  12.526  1.00  0.00    -0.646 OA
ENDBRANCH   6  30
TORSDOF 7
ENDMDL
