MODEL 1
REMARK VINA RESULT: -7.207360937      0.000      0.000
REMARK  11 active torsions:
REMARK  status: ('A' for Active; 'I' for Inactive)
REMARK    1  A    between atoms: O1_2  and  C2_3 
REMARK    2  A    between atoms: C5_6  and  O2_7 
REMARK    3  A    between atoms: C6_9  and  C7_10 
REMARK    4  A    between atoms: C7_10  and  O3_11 
REMARK    5  A    between atoms: C7_10  and  C8_13 
REMARK    6  A    between atoms: C8_13  and  O4_14 
REMARK    7  A    between atoms: C9_16  and  C10_17 
REMARK    8  A    between atoms: C10_17  and  C11_18 
REMARK    9  A    between atoms: C11_18  and  C12_19 
REMARK   10  A    between atoms: C12_19  and  N1_20 
REMARK   11  A    between atoms: C20_29  and  O6_31 
ROOT
HETATM    1  C2  UNL     1      12.432 -41.212 -12.101  1.00  0.00     0.149 C 
HETATM    2  C3  UNL     1      12.812 -40.372 -13.235  1.00  0.00    -0.002 A 
HETATM    3  C4  UNL     1      11.987 -39.337 -13.425  1.00  0.00    -0.011 A 
HETATM    4  C5  UNL     1      12.240 -38.473 -14.523  1.00  0.00     0.086 A 
HETATM    5  C6  UNL     1      13.346 -38.752 -15.357  1.00  0.00     0.039 A 
HETATM    6  C9  UNL     1      14.193 -39.851 -15.137  1.00  0.00    -0.017 A 
HETATM    7  C17 UNL     1      13.894 -40.662 -14.031  1.00  0.00    -0.037 A 
HETATM    8  C18 UNL     1      14.767 -41.786 -13.655  1.00  0.00     0.043 C 
HETATM    9  C19 UNL     1      14.717 -42.168 -12.167  1.00  0.00     0.045 C 
HETATM   10  C20 UNL     1      13.734 -41.447 -11.341  1.00  0.00     0.093 C 
HETATM   11  C21 UNL     1      13.423 -42.317 -10.118  1.00  0.00     0.049 C 
HETATM   12  C22 UNL     1      10.952 -39.334 -12.349  1.00  0.00     0.083 C 
HETATM   13  C23 UNL     1      11.532 -40.313 -11.318  1.00  0.00     0.216 C 
HETATM   14  F1  UNL     1      10.509 -41.003 -10.737  1.00  0.00    -0.245 F 
ENDROOT
BRANCH   6  15
HETATM   15  C10 UNL     1      15.083 -40.221 -15.987  1.00  0.00    -0.012 C 
BRANCH  15  16
HETATM   16  C11 UNL     1      16.520 -40.237 -16.145  1.00  0.00     0.047 C 
BRANCH  16  17
HETATM   17  C12 UNL     1      16.978 -39.061 -17.084  1.00  0.00     0.120 C 
BRANCH  17  18
HETATM   18  N1  UNL     1      18.353 -38.769 -16.941  1.00  0.00    -0.408 N 
HETATM   19  C13 UNL     1      19.000 -39.139 -15.738  1.00  0.00     0.143 C 
HETATM   20  C14 UNL     1      19.971 -38.067 -15.289  1.00  0.00     0.187 C 
HETATM   21  O5  UNL     1      20.851 -37.673 -16.263  1.00  0.00    -0.388 OA
HETATM   22  C15 UNL     1      20.381 -37.689 -17.551  1.00  0.00     0.187 C 
HETATM   23  C16 UNL     1      18.858 -37.635 -17.632  1.00  0.00     0.143 C 
ENDBRANCH  17  18
ENDBRANCH  16  17
ENDBRANCH  15  16
ENDBRANCH   6  15
BRANCH   5  24
HETATM   24  C7  UNL     1      13.594 -37.896 -16.327  1.00  0.00     0.080 C 
BRANCH  24  25
HETATM   25  O3  UNL     1      14.521 -36.875 -16.196  1.00  0.00    -0.362 OA
ATOM     26  H3  UNL     1      15.338 -36.864 -16.681  1.00  0.00     0.217 HD
ENDBRANCH  24  25
BRANCH  24  27
HETATM   27  C8  UNL     1      12.938 -37.895 -17.674  1.00  0.00     0.229 C 
BRANCH  27  28
HETATM   28  O4  UNL     1      12.205 -39.004 -17.958  1.00  0.00    -0.394 OA
ATOM     29  H4  UNL     1      11.356 -38.835 -18.350  1.00  0.00     0.209 HD
ENDBRANCH  27  28
ENDBRANCH  24  27
ENDBRANCH   5  24
BRANCH   4  30
HETATM   30  O2  UNL     1      11.386 -37.477 -14.641  1.00  0.00    -0.359 OA
ATOM     31  H2  UNL     1      11.756 -36.685 -15.012  1.00  0.00     0.217 HD
ENDBRANCH   4  30
BRANCH   1  32
HETATM   32  O1  UNL     1      11.937 -42.438 -12.432  1.00  0.00    -0.374 OA
HETATM   33  C1  UNL     1      10.945 -42.506 -13.363  1.00  0.00     0.203 C 
ENDBRANCH   1  32
BRANCH  10  34
HETATM   34  O6  UNL     1      14.194 -40.195 -10.948  1.00  0.00    -0.387 OA
ATOM     35  H6  UNL     1      15.126 -40.180 -11.132  1.00  0.00     0.210 HD
ENDBRANCH  10  34
TORSDOF 11
ENDMDL
MODEL 2
REMARK VINA RESULT: -7.034655172      1.907      2.681
REMARK  11 active torsions:
REMARK  status: ('A' for Active; 'I' for Inactive)
REMARK    1  A    between atoms: O1_2  and  C2_3 
REMARK    2  A    between atoms: C5_6  and  O2_7 
REMARK    3  A    between atoms: C6_9  and  C7_10 
REMARK    4  A    between atoms: C7_10  and  O3_11 
REMARK    5  A    between atoms: C7_10  and  C8_13 
REMARK    6  A    between atoms: C8_13  and  O4_14 
REMARK    7  A    between atoms: C9_16  and  C10_17 
REMARK    8  A    between atoms: C10_17  and  C11_18 
REMARK    9  A    between atoms: C11_18  and  C12_19 
REMARK   10  A    between atoms: C12_19  and  N1_20 
REMARK   11  A    between atoms: C20_29  and  O6_31 
ROOT
HETATM    1  C2  UNL     1      14.585 -41.381 -12.546  1.00  0.00     0.149 C 
HETATM    2  C3  UNL     1      13.850 -40.391 -13.330  1.00  0.00    -0.002 A 
HETATM    3  C4  UNL     1      12.713 -39.994 -12.748  1.00  0.00    -0.011 A 
HETATM    4  C5  UNL     1      11.899 -39.059 -13.438  1.00  0.00     0.086 A 
HETATM    5  C6  UNL     1      12.329 -38.597 -14.702  1.00  0.00     0.039 A 
HETATM    6  C9  UNL     1      13.526 -39.035 -15.293  1.00  0.00    -0.017 A 
HETATM    7  C17 UNL     1      14.290 -39.954 -14.557  1.00  0.00    -0.037 A 
HETATM    8  C18 UNL     1      15.604 -40.410 -15.040  1.00  0.00     0.043 C 
HETATM    9  C19 UNL     1      16.571 -40.865 -13.935  1.00  0.00     0.045 C 
HETATM   10  C20 UNL     1      16.031 -40.894 -12.566  1.00  0.00     0.093 C 
HETATM   11  C21 UNL     1      16.878 -41.877 -11.750  1.00  0.00     0.049 C 
HETATM   12  C22 UNL     1      12.589 -40.662 -11.417  1.00  0.00     0.083 C 
HETATM   13  C23 UNL     1      14.002 -41.213 -11.181  1.00  0.00     0.216 C 
HETATM   14  F1  UNL     1      13.908 -42.404 -10.522  1.00  0.00    -0.245 F 
ENDROOT
BRANCH   6  15
HETATM   15  C10 UNL     1      13.835 -38.769 -16.512  1.00  0.00    -0.012 C 
BRANCH  15  16
HETATM   16  C11 UNL     1      14.453 -37.719 -17.291  1.00  0.00     0.047 C 
BRANCH  16  17
HETATM   17  C12 UNL     1      15.951 -37.527 -16.855  1.00  0.00     0.120 C 
BRANCH  17  18
HETATM   18  N1  UNL     1      16.856 -38.016 -17.824  1.00  0.00    -0.408 N 
HETATM   19  C13 UNL     1      18.207 -38.210 -17.449  1.00  0.00     0.143 C 
HETATM   20  C14 UNL     1      19.146 -37.781 -18.556  1.00  0.00     0.187 C 
HETATM   21  O5  UNL     1      18.852 -38.329 -19.777  1.00  0.00    -0.388 OA
HETATM   22  C15 UNL     1      17.526 -38.554 -20.040  1.00  0.00     0.187 C 
HETATM   23  C16 UNL     1      16.594 -37.701 -19.184  1.00  0.00     0.143 C 
ENDBRANCH  17  18
ENDBRANCH  16  17
ENDBRANCH  15  16
ENDBRANCH   6  15
BRANCH   5  24
HETATM   24  C7  UNL     1      11.587 -37.680 -15.288  1.00  0.00     0.080 C 
BRANCH  24  25
HETATM   25  O3  UNL     1      10.317 -37.951 -15.771  1.00  0.00    -0.362 OA
ATOM     26  H3  UNL     1      10.159 -38.590 -16.455  1.00  0.00     0.217 HD
ENDBRANCH  24  25
BRANCH  24  27
HETATM   27  C8  UNL     1      11.985 -36.253 -15.512  1.00  0.00     0.229 C 
BRANCH  27  28
HETATM   28  O4  UNL     1      11.221 -35.577 -16.410  1.00  0.00    -0.394 OA
ATOM     29  H4  UNL     1      11.315 -34.632 -16.387  1.00  0.00     0.209 HD
ENDBRANCH  27  28
ENDBRANCH  24  27
ENDBRANCH   5  24
BRANCH   4  30
HETATM   30  O2  UNL     1      10.800 -38.717 -12.798  1.00  0.00    -0.359 OA
ATOM     31  H2  UNL     1      10.172 -39.422 -12.692  1.00  0.00     0.217 HD
ENDBRANCH   4  30
BRANCH   1  32
HETATM   32  O1  UNL     1      14.583 -42.642 -13.064  1.00  0.00    -0.374 OA
HETATM   33  C1  UNL     1      13.430 -43.115 -13.613  1.00  0.00     0.203 C 
ENDBRANCH   1  32
BRANCH  10  34
HETATM   34  O6  UNL     1      16.032 -39.636 -11.973  1.00  0.00    -0.387 OA
ATOM     35  H6  UNL     1      16.891 -39.263 -12.134  1.00  0.00     0.210 HD
ENDBRANCH  10  34
TORSDOF 11
ENDMDL
MODEL 3
REMARK VINA RESULT: -7.026802798      2.283      3.304
REMARK  11 active torsions:
REMARK  status: ('A' for Active; 'I' for Inactive)
REMARK    1  A    between atoms: O1_2  and  C2_3 
REMARK    2  A    between atoms: C5_6  and  O2_7 
REMARK    3  A    between atoms: C6_9  and  C7_10 
REMARK    4  A    between atoms: C7_10  and  O3_11 
REMARK    5  A    between atoms: C7_10  and  C8_13 
REMARK    6  A    between atoms: C8_13  and  O4_14 
REMARK    7  A    between atoms: C9_16  and  C10_17 
REMARK    8  A    between atoms: C10_17  and  C11_18 
REMARK    9  A    between atoms: C11_18  and  C12_19 
REMARK   10  A    between atoms: C12_19  and  N1_20 
REMARK   11  A    between atoms: C20_29  and  O6_31 
ROOT
HETATM    1  C2  UNL     1      16.208 -42.573 -13.990  1.00  0.00     0.149 C 
HETATM    2  C3  UNL     1      15.820 -41.375 -14.731  1.00  0.00    -0.002 A 
HETATM    3  C4  UNL     1      14.586 -40.951 -14.440  1.00  0.00    -0.011 A 
HETATM    4  C5  UNL     1      14.090 -39.813 -15.129  1.00  0.00     0.086 A 
HETATM    5  C6  UNL     1      14.922 -39.189 -16.085  1.00  0.00     0.039 A 
HETATM    6  C9  UNL     1      16.214 -39.660 -16.375  1.00  0.00    -0.017 A 
HETATM    7  C17 UNL     1      16.649 -40.784 -15.655  1.00  0.00    -0.037 A 
HETATM    8  C18 UNL     1      18.016 -41.306 -15.813  1.00  0.00     0.043 C 
HETATM    9  C19 UNL     1      18.558 -42.068 -14.593  1.00  0.00     0.045 C 
HETATM   10  C20 UNL     1      17.615 -42.274 -13.481  1.00  0.00     0.093 C 
HETATM   11  C21 UNL     1      18.100 -43.485 -12.675  1.00  0.00     0.049 C 
HETATM   12  C22 UNL     1      14.009 -41.825 -13.375  1.00  0.00     0.083 C 
HETATM   13  C23 UNL     1      15.239 -42.581 -12.854  1.00  0.00     0.216 C 
HETATM   14  F1  UNL     1      14.868 -43.849 -12.515  1.00  0.00    -0.245 F 
ENDROOT
BRANCH   6  15
HETATM   15  C10 UNL     1      16.905 -39.221 -17.365  1.00  0.00    -0.012 C 
BRANCH  15  16
HETATM   16  C11 UNL     1      17.872 -38.189 -17.666  1.00  0.00     0.047 C 
BRANCH  16  17
HETATM   17  C12 UNL     1      18.632 -37.756 -16.358  1.00  0.00     0.120 C 
BRANCH  17  18
HETATM   18  N1  UNL     1      20.002 -38.094 -16.401  1.00  0.00    -0.408 N 
HETATM   19  C13 UNL     1      20.614 -38.585 -15.223  1.00  0.00     0.143 C 
HETATM   20  C14 UNL     1      22.008 -38.017 -15.055  1.00  0.00     0.187 C 
HETATM   21  O5  UNL     1      22.802 -38.162 -16.163  1.00  0.00    -0.388 OA
HETATM   22  C15 UNL     1      22.170 -38.103 -17.378  1.00  0.00     0.187 C 
HETATM   23  C16 UNL     1      20.825 -37.384 -17.317  1.00  0.00     0.143 C 
ENDBRANCH  17  18
ENDBRANCH  16  17
ENDBRANCH  15  16
ENDBRANCH   6  15
BRANCH   5  24
HETATM   24  C7  UNL     1      14.460 -38.098 -16.658  1.00  0.00     0.080 C 
BRANCH  24  25
HETATM   25  O3  UNL     1      14.840 -36.829 -16.253  1.00  0.00    -0.362 OA
ATOM     26  H3  UNL     1      14.687 -36.509 -15.372  1.00  0.00     0.217 HD
ENDBRANCH  24  25
BRANCH  24  27
HETATM   27  C8  UNL     1      13.489 -38.060 -17.799  1.00  0.00     0.229 C 
BRANCH  27  28
HETATM   28  O4  UNL     1      12.359 -38.793 -17.618  1.00  0.00    -0.394 OA
ATOM     29  H4  UNL     1      12.145 -39.385 -18.329  1.00  0.00     0.209 HD
ENDBRANCH  27  28
ENDBRANCH  24  27
ENDBRANCH   5  24
BRANCH   4  30
HETATM   30  O2  UNL     1      12.869 -39.457 -14.785  1.00  0.00    -0.359 OA
ATOM     31  H2  UNL     1      12.517 -38.729 -15.282  1.00  0.00     0.217 HD
ENDBRANCH   4  30
BRANCH   1  32
HETATM   32  O1  UNL     1      16.289 -43.711 -14.736  1.00  0.00    -0.374 OA
HETATM   33  C1  UNL     1      15.335 -43.933 -15.683  1.00  0.00     0.203 C 
ENDBRANCH   1  32
BRANCH  10  34
HETATM   34  O6  UNL     1      17.510 -41.152 -12.665  1.00  0.00    -0.387 OA
ATOM     35  H6  UNL     1      18.333 -40.684 -12.744  1.00  0.00     0.210 HD
ENDBRANCH  10  34
TORSDOF 11
ENDMDL
MODEL 4
REMARK VINA RESULT: -7.019763559      3.101      6.233
REMARK  11 active torsions:
REMARK  status: ('A' for Active; 'I' for Inactive)
REMARK    1  A    between atoms: O1_2  and  C2_3 
REMARK    2  A    between atoms: C5_6  and  O2_7 
REMARK    3  A    between atoms: C6_9  and  C7_10 
REMARK    4  A    between atoms: C7_10  and  O3_11 
REMARK    5  A    between atoms: C7_10  and  C8_13 
REMARK    6  A    between atoms: C8_13  and  O4_14 
REMARK    7  A    between atoms: C9_16  and  C10_17 
REMARK    8  A    between atoms: C10_17  and  C11_18 
REMARK    9  A    between atoms: C11_18  and  C12_19 
REMARK   10  A    between atoms: C12_19  and  N1_20 
REMARK   11  A    between atoms: C20_29  and  O6_31 
ROOT
HETATM    1  C2  UNL     1      17.571 -40.480 -15.293  1.00  0.00     0.149 C 
HETATM    2  C3  UNL     1      16.265 -39.848 -15.469  1.00  0.00    -0.002 A 
HETATM    3  C4  UNL     1      15.291 -40.444 -14.773  1.00  0.00    -0.011 A 
HETATM    4  C5  UNL     1      13.972 -39.935 -14.897  1.00  0.00     0.086 A 
HETATM    5  C6  UNL     1      13.756 -38.828 -15.748  1.00  0.00     0.039 A 
HETATM    6  C9  UNL     1      14.797 -38.225 -16.473  1.00  0.00    -0.017 A 
HETATM    7  C17 UNL     1      16.079 -38.770 -16.301  1.00  0.00    -0.037 A 
HETATM    8  C18 UNL     1      17.256 -38.160 -16.942  1.00  0.00     0.043 C 
HETATM    9  C19 UNL     1      18.587 -38.417 -16.216  1.00  0.00     0.045 C 
HETATM   10  C20 UNL     1      18.533 -39.321 -15.054  1.00  0.00     0.093 C 
HETATM   11  C21 UNL     1      19.937 -39.899 -14.846  1.00  0.00     0.049 C 
HETATM   12  C22 UNL     1      15.879 -41.556 -13.967  1.00  0.00     0.083 C 
HETATM   13  C23 UNL     1      17.385 -41.265 -14.036  1.00  0.00     0.216 C 
HETATM   14  F1  UNL     1      18.063 -42.447 -14.074  1.00  0.00    -0.245 F 
ENDROOT
BRANCH   6  15
HETATM   15  C10 UNL     1      14.587 -37.345 -17.386  1.00  0.00    -0.012 C 
BRANCH  15  16
HETATM   16  C11 UNL     1      14.059 -37.252 -18.729  1.00  0.00     0.047 C 
BRANCH  16  17
HETATM   17  C12 UNL     1      13.627 -35.773 -19.043  1.00  0.00     0.120 C 
BRANCH  17  18
HETATM   18  N1  UNL     1      12.379 -35.448 -18.466  1.00  0.00    -0.408 N 
HETATM   19  C13 UNL     1      11.251 -35.340 -19.315  1.00  0.00     0.143 C 
HETATM   20  C14 UNL     1      10.371 -34.177 -18.905  1.00  0.00     0.187 C 
HETATM   21  O5  UNL     1      10.035 -34.177 -17.576  1.00  0.00    -0.388 OA
HETATM   22  C15 UNL     1      10.974 -34.676 -16.711  1.00  0.00     0.187 C 
HETATM   23  C16 UNL     1      12.387 -34.656 -17.287  1.00  0.00     0.143 C 
ENDBRANCH  17  18
ENDBRANCH  16  17
ENDBRANCH  15  16
ENDBRANCH   6  15
BRANCH   5  24
HETATM   24  C7  UNL     1      12.535 -38.337 -15.791  1.00  0.00     0.080 C 
BRANCH  24  25
HETATM   25  O3  UNL     1      11.643 -38.653 -16.803  1.00  0.00    -0.362 OA
ATOM     26  H3  UNL     1      10.733 -38.867 -16.631  1.00  0.00     0.217 HD
ENDBRANCH  24  25
BRANCH  24  27
HETATM   27  C8  UNL     1      11.941 -37.396 -14.787  1.00  0.00     0.229 C 
BRANCH  27  28
HETATM   28  O4  UNL     1      10.653 -37.659 -14.444  1.00  0.00    -0.394 OA
ATOM     29  H4  UNL     1      10.545 -38.225 -13.689  1.00  0.00     0.209 HD
ENDBRANCH  27  28
ENDBRANCH  24  27
ENDBRANCH   5  24
BRANCH   4  30
HETATM   30  O2  UNL     1      13.072 -40.574 -14.179  1.00  0.00    -0.359 OA
ATOM     31  H2  UNL     1      13.121 -41.520 -14.239  1.00  0.00     0.217 HD
ENDBRANCH   4  30
BRANCH   1  32
HETATM   32  O1  UNL     1      18.032 -41.162 -16.380  1.00  0.00    -0.374 OA
HETATM   33  C1  UNL     1      17.234 -42.120 -16.930  1.00  0.00     0.203 C 
ENDBRANCH   1  32
BRANCH  10  34
HETATM   34  O6  UNL     1      18.094 -38.673 -13.904  1.00  0.00    -0.387 OA
ATOM     35  H6  UNL     1      18.870 -38.345 -13.466  1.00  0.00     0.210 HD
ENDBRANCH  10  34
TORSDOF 11
ENDMDL
MODEL 5
REMARK VINA RESULT: -7.007943581      3.554      6.165
REMARK  11 active torsions:
REMARK  status: ('A' for Active; 'I' for Inactive)
REMARK    1  A    between atoms: O1_2  and  C2_3 
REMARK    2  A    between atoms: C5_6  and  O2_7 
REMARK    3  A    between atoms: C6_9  and  C7_10 
REMARK    4  A    between atoms: C7_10  and  O3_11 
REMARK    5  A    between atoms: C7_10  and  C8_13 
REMARK    6  A    between atoms: C8_13  and  O4_14 
REMARK    7  A    between atoms: C9_16  and  C10_17 
REMARK    8  A    between atoms: C10_17  and  C11_18 
REMARK    9  A    between atoms: C11_18  and  C12_19 
REMARK   10  A    between atoms: C12_19  and  N1_20 
REMARK   11  A    between atoms: C20_29  and  O6_31 
ROOT
HETATM    1  C2  UNL     1      17.323 -41.576 -13.764  1.00  0.00     0.149 C 
HETATM    2  C3  UNL     1      17.167 -40.597 -14.838  1.00  0.00    -0.002 A 
HETATM    3  C4  UNL     1      18.328 -40.083 -15.256  1.00  0.00    -0.011 A 
HETATM    4  C5  UNL     1      18.294 -39.094 -16.274  1.00  0.00     0.086 A 
HETATM    5  C6  UNL     1      17.038 -38.703 -16.789  1.00  0.00     0.039 A 
HETATM    6  C9  UNL     1      15.832 -39.256 -16.326  1.00  0.00    -0.017 A 
HETATM    7  C17 UNL     1      15.934 -40.235 -15.325  1.00  0.00    -0.037 A 
HETATM    8  C18 UNL     1      14.743 -40.944 -14.831  1.00  0.00     0.043 C 
HETATM    9  C19 UNL     1      15.020 -42.344 -14.260  1.00  0.00     0.045 C 
HETATM   10  C20 UNL     1      16.434 -42.746 -14.175  1.00  0.00     0.093 C 
HETATM   11  C21 UNL     1      16.547 -43.834 -13.101  1.00  0.00     0.049 C 
HETATM   12  C22 UNL     1      19.447 -40.740 -14.516  1.00  0.00     0.083 C 
HETATM   13  C23 UNL     1      18.763 -41.957 -13.878  1.00  0.00     0.216 C 
HETATM   14  F1  UNL     1      19.322 -42.189 -12.656  1.00  0.00    -0.245 F 
ENDROOT
BRANCH   6  15
HETATM   15  C10 UNL     1      14.682 -38.782 -16.650  1.00  0.00    -0.012 C 
BRANCH  15  16
HETATM   16  C11 UNL     1      13.898 -37.579 -16.483  1.00  0.00     0.047 C 
BRANCH  16  17
HETATM   17  C12 UNL     1      13.161 -37.218 -17.824  1.00  0.00     0.120 C 
BRANCH  17  18
HETATM   18  N1  UNL     1      12.312 -36.098 -17.682  1.00  0.00    -0.408 N 
HETATM   19  C13 UNL     1      12.021 -35.322 -18.830  1.00  0.00     0.143 C 
HETATM   20  C14 UNL     1      12.010 -33.844 -18.500  1.00  0.00     0.187 C 
HETATM   21  O5  UNL     1      11.219 -33.521 -17.429  1.00  0.00    -0.388 OA
HETATM   22  C15 UNL     1      11.135 -34.456 -16.430  1.00  0.00     0.187 C 
HETATM   23  C16 UNL     1      12.306 -35.433 -16.426  1.00  0.00     0.143 C 
ENDBRANCH  17  18
ENDBRANCH  16  17
ENDBRANCH  15  16
ENDBRANCH   6  15
BRANCH   5  24
HETATM   24  C7  UNL     1      17.042 -37.833 -17.778  1.00  0.00     0.080 C 
BRANCH  24  25
HETATM   25  O3  UNL     1      17.180 -36.471 -17.567  1.00  0.00    -0.362 OA
ATOM     26  H3  UNL     1      16.550 -35.839 -17.893  1.00  0.00     0.217 HD
ENDBRANCH  24  25
BRANCH  24  27
HETATM   27  C8  UNL     1      16.905 -38.169 -19.232  1.00  0.00     0.229 C 
BRANCH  27  28
HETATM   28  O4  UNL     1      17.209 -39.453 -19.557  1.00  0.00    -0.394 OA
ATOM     29  H4  UNL     1      18.011 -39.562 -20.054  1.00  0.00     0.209 HD
ENDBRANCH  27  28
ENDBRANCH  24  27
ENDBRANCH   5  24
BRANCH   4  30
HETATM   30  O2  UNL     1      19.477 -38.640 -16.633  1.00  0.00    -0.359 OA
ATOM     31  H2  UNL     1      19.680 -38.756 -17.553  1.00  0.00     0.217 HD
ENDBRANCH   4  30
BRANCH   1  32
HETATM   32  O1  UNL     1      16.893 -41.161 -12.538  1.00  0.00    -0.374 OA
HETATM   33  C1  UNL     1      17.226 -39.906 -12.127  1.00  0.00     0.203 C 
ENDBRANCH   1  32
BRANCH  10  34
HETATM   34  O6  UNL     1      16.924 -43.206 -15.392  1.00  0.00    -0.387 OA
ATOM     35  H6  UNL     1      17.791 -43.554 -15.220  1.00  0.00     0.210 HD
ENDBRANCH  10  34
TORSDOF 11
ENDMDL
