MODEL 1
REMARK VINA RESULT: -7.565962333      0.000      0.000
REMARK  10 active torsions:
REMARK  status: ('A' for Active; 'I' for Inactive)
REMARK    1  A    between atoms: N1_2  and  C2_4 
REMARK    2  A    between atoms: C3_7  and  C4_8 
REMARK    3  A    between atoms: C4_8  and  C5_9 
REMARK    4  A    between atoms: C4_8  and  C11_18 
REMARK    5  A    between atoms: C6_10  and  S1_11 
REMARK    6  A    between atoms: S1_11  and  C7_12 
REMARK    7  A    between atoms: C9_14  and  C10_15 
REMARK    8  A    between atoms: C10_15  and  O1_16 
REMARK    9  A    between atoms: C16_27  and  N5_28 
REMARK   10  A    between atoms: N5_28  and  C17_30 
ROOT
HETATM    1  C2  UNL     1      13.493 -39.272 -14.869  1.00  0.00     0.679 A 
HETATM    2  N2  UNL     1      14.642 -39.773 -15.323  1.00  0.00    -0.191 N 
ATOM      3  H2  UNL     1      14.995 -40.649 -14.937  1.00  0.00     0.184 HD
HETATM    4  C3  UNL     1      15.350 -39.136 -16.291  1.00  0.00     0.090 A 
HETATM    5  C15 UNL     1      14.866 -37.975 -16.792  1.00  0.00     0.185 A 
HETATM    6  F1  UNL     1      15.531 -37.274 -17.771  1.00  0.00    -0.200 F 
HETATM    7  C16 UNL     1      13.652 -37.431 -16.324  1.00  0.00     0.158 A 
HETATM    8  N7  UNL     1      13.018 -38.117 -15.371  1.00  0.00    -0.174 N 
ATOM      9  H7  UNL     1      12.137 -37.751 -15.008  1.00  0.00     0.186 HD
ENDROOT
BRANCH   4  10
HETATM   10  C4  UNL     1      16.630 -39.678 -16.793  1.00  0.00     0.170 C 
BRANCH  10  11
HETATM   11  C5  UNL     1      16.539 -41.138 -16.709  1.00  0.00    -0.077 C 
HETATM   12  C6  UNL     1      16.472 -42.357 -16.612  1.00  0.00    -0.033 C 
BRANCH  12  13
HETATM   13  S1  UNL     1      16.433 -44.087 -16.464  1.00  0.00    -0.073 SA
BRANCH  13  14
HETATM   14  C7  UNL     1      16.997 -44.740 -14.923  1.00  0.00     0.067 A 
HETATM   15  C8  UNL     1      16.685 -43.985 -13.676  1.00  0.00     0.024 A 
HETATM   16  C9  UNL     1      18.143 -44.278 -14.121  1.00  0.00     0.025 A 
BRANCH  16  17
HETATM   17  C10 UNL     1      18.952 -43.055 -14.427  1.00  0.00     0.170 C 
BRANCH  17  18
HETATM   18  O1  UNL     1      19.817 -43.284 -15.519  1.00  0.00    -0.400 OA
ATOM     19  H1  UNL     1      20.270 -42.486 -15.765  1.00  0.00     0.209 HD
ENDBRANCH  17  18
ENDBRANCH  16  17
ENDBRANCH  13  14
ENDBRANCH  12  13
ENDBRANCH  10  11
BRANCH  10  20
HETATM   20  C11 UNL     1      17.825 -39.155 -16.123  1.00  0.00     0.049 A 
HETATM   21  C12 UNL     1      18.141 -39.410 -14.801  1.00  0.00     0.115 A 
HETATM   22  N3  UNL     1      19.292 -38.767 -14.544  1.00  0.00    -0.360 N 
HETATM   23  C13 UNL     1      19.693 -38.119 -15.678  1.00  0.00     0.182 A 
ATOM     24  H3  UNL     1      19.785 -38.762 -13.651  1.00  0.00     0.166 HD
HETATM   25  N4  UNL     1      18.794 -38.368 -16.615  1.00  0.00    -0.348 N 
HETATM   26  C14 UNL     1      18.824 -37.874 -17.980  1.00  0.00     0.157 C 
ENDBRANCH  10  20
ENDBRANCH   4  10
BRANCH   1  27
HETATM   27  N1  UNL     1      12.830 -39.906 -13.934  1.00  0.00    -0.230 N 
HETATM   28  C1  UNL     1      12.158 -39.171 -12.896  1.00  0.00     0.165 C 
ATOM     29  H1  UNL     1      12.791 -40.925 -13.942  1.00  0.00     0.177 HD
ENDBRANCH   1  27
BRANCH   7  30
HETATM   30  N5  UNL     1      13.243 -36.365 -16.820  1.00  0.00    -0.369 N 
ATOM     31  H5  UNL     1      13.702 -35.573 -16.368  1.00  0.00     0.161 HD
BRANCH  30  32
HETATM   32  C17 UNL     1      12.360 -35.911 -17.791  1.00  0.00     0.086 C 
HETATM   33  C18 UNL     1      11.628 -34.630 -17.376  1.00  0.00     0.052 C 
HETATM   34  C19 UNL     1      10.557 -34.351 -18.391  1.00  0.00     0.234 C 
HETATM   35  N6  UNL     1      10.991 -34.524 -19.756  1.00  0.00    -0.075 N 
HETATM   36  C20 UNL     1      12.443 -34.457 -19.832  1.00  0.00     0.234 C 
ATOM     37  H62 UNL     1      10.627 -35.385 -20.166  1.00  0.00     0.277 HD
ATOM     38  H61 UNL     1      10.544 -33.858 -20.387  1.00  0.00     0.277 HD
HETATM   39  C21 UNL     1      12.968 -35.721 -19.149  1.00  0.00     0.052 C 
ENDBRANCH  30  32
ENDBRANCH   7  30
TORSDOF 10
ENDMDL
MODEL 2
REMARK VINA RESULT: -7.317486577      0.952      1.244
REMARK  10 active torsions:
REMARK  status: ('A' for Active; 'I' for Inactive)
REMARK    1  A    between atoms: N1_2  and  C2_4 
REMARK    2  A    between atoms: C3_7  and  C4_8 
REMARK    3  A    between atoms: C4_8  and  C5_9 
REMARK    4  A    between atoms: C4_8  and  C11_18 
REMARK    5  A    between atoms: C6_10  and  S1_11 
REMARK    6  A    between atoms: S1_11  and  C7_12 
REMARK    7  A    between atoms: C9_14  and  C10_15 
REMARK    8  A    between atoms: C10_15  and  O1_16 
REMARK    9  A    between atoms: C16_27  and  N5_28 
REMARK   10  A    between atoms: N5_28  and  C17_30 
ROOT
HETATM    1  C2  UNL     1      13.143 -39.518 -14.333  1.00  0.00     0.679 A 
HETATM    2  N2  UNL     1      14.325 -39.938 -14.784  1.00  0.00    -0.191 N 
ATOM      3  H2  UNL     1      14.837 -40.651 -14.263  1.00  0.00     0.184 HD
HETATM    4  C3  UNL     1      14.859 -39.432 -15.926  1.00  0.00     0.090 A 
HETATM    5  C15 UNL     1      14.165 -38.487 -16.604  1.00  0.00     0.185 A 
HETATM    6  F1  UNL     1      14.646 -37.928 -17.765  1.00  0.00    -0.200 F 
HETATM    7  C16 UNL     1      12.912 -38.033 -16.143  1.00  0.00     0.158 A 
HETATM    8  N7  UNL     1      12.458 -38.579 -15.012  1.00  0.00    -0.174 N 
ATOM      9  H7  UNL     1      11.556 -38.272 -14.649  1.00  0.00     0.186 HD
ENDROOT
BRANCH   4  10
HETATM   10  C4  UNL     1      16.174 -39.883 -16.427  1.00  0.00     0.170 C 
BRANCH  10  11
HETATM   11  C5  UNL     1      16.152 -41.348 -16.428  1.00  0.00    -0.077 C 
HETATM   12  C6  UNL     1      16.162 -42.573 -16.422  1.00  0.00    -0.033 C 
BRANCH  12  13
HETATM   13  S1  UNL     1      16.213 -44.308 -16.457  1.00  0.00    -0.073 SA
BRANCH  13  14
HETATM   14  C7  UNL     1      16.994 -45.083 -15.075  1.00  0.00     0.067 A 
HETATM   15  C8  UNL     1      16.783 -44.497 -13.720  1.00  0.00     0.024 A 
HETATM   16  C9  UNL     1      18.195 -44.625 -14.354  1.00  0.00     0.025 A 
BRANCH  16  17
HETATM   17  C10 UNL     1      18.882 -43.317 -14.598  1.00  0.00     0.170 C 
BRANCH  17  18
HETATM   18  O1  UNL     1      19.800 -43.422 -15.666  1.00  0.00    -0.400 OA
ATOM     19  H1  UNL     1      19.503 -42.925 -16.418  1.00  0.00     0.209 HD
ENDBRANCH  17  18
ENDBRANCH  16  17
ENDBRANCH  13  14
ENDBRANCH  12  13
ENDBRANCH  10  11
BRANCH  10  20
HETATM   20  C11 UNL     1      17.327 -39.343 -15.701  1.00  0.00     0.049 A 
HETATM   21  C12 UNL     1      17.766 -39.827 -14.482  1.00  0.00     0.115 A 
HETATM   22  N3  UNL     1      18.832 -39.088 -14.129  1.00  0.00    -0.360 N 
HETATM   23  C13 UNL     1      19.059 -38.158 -15.104  1.00  0.00     0.182 A 
ATOM     24  H3  UNL     1      19.380 -39.203 -13.277  1.00  0.00     0.166 HD
HETATM   25  N4  UNL     1      18.142 -38.332 -16.039  1.00  0.00    -0.348 N 
HETATM   26  C14 UNL     1      18.009 -37.556 -17.259  1.00  0.00     0.157 C 
ENDBRANCH  10  20
ENDBRANCH   4  10
BRANCH   1  27
HETATM   27  N1  UNL     1      12.650 -40.022 -13.229  1.00  0.00    -0.230 N 
HETATM   28  C1  UNL     1      11.228 -40.055 -13.017  1.00  0.00     0.165 C 
ATOM     29  H1  UNL     1      13.279 -40.393 -12.516  1.00  0.00     0.177 HD
ENDBRANCH   1  27
BRANCH   7  30
HETATM   30  N5  UNL     1      12.308 -37.169 -16.803  1.00  0.00    -0.369 N 
ATOM     31  H5  UNL     1      11.443 -37.559 -17.178  1.00  0.00     0.161 HD
BRANCH  30  32
HETATM   32  C17 UNL     1      12.438 -35.842 -17.193  1.00  0.00     0.086 C 
HETATM   33  C18 UNL     1      11.820 -35.563 -18.567  1.00  0.00     0.052 C 
HETATM   34  C19 UNL     1      12.201 -34.171 -18.980  1.00  0.00     0.234 C 
HETATM   35  N6  UNL     1      12.079 -33.197 -17.923  1.00  0.00    -0.075 N 
HETATM   36  C20 UNL     1      11.184 -33.692 -16.887  1.00  0.00     0.234 C 
ATOM     37  H62 UNL     1      12.988 -32.927 -17.545  1.00  0.00     0.277 HD
ATOM     38  H61 UNL     1      11.787 -32.285 -18.275  1.00  0.00     0.277 HD
HETATM   39  C21 UNL     1      11.919 -34.845 -16.200  1.00  0.00     0.052 C 
ENDBRANCH  30  32
ENDBRANCH   7  30
TORSDOF 10
ENDMDL
MODEL 3
REMARK VINA RESULT: -7.185394031      2.729      4.976
REMARK  10 active torsions:
REMARK  status: ('A' for Active; 'I' for Inactive)
REMARK    1  A    between atoms: N1_2  and  C2_4 
REMARK    2  A    between atoms: C3_7  and  C4_8 
REMARK    3  A    between atoms: C4_8  and  C5_9 
REMARK    4  A    between atoms: C4_8  and  C11_18 
REMARK    5  A    between atoms: C6_10  and  S1_11 
REMARK    6  A    between atoms: S1_11  and  C7_12 
REMARK    7  A    between atoms: C9_14  and  C10_15 
REMARK    8  A    between atoms: C10_15  and  O1_16 
REMARK    9  A    between atoms: C16_27  and  N5_28 
REMARK   10  A    between atoms: N5_28  and  C17_30 
ROOT
HETATM    1  C2  UNL     1      15.759 -37.769 -18.458  1.00  0.00     0.679 A 
HETATM    2  N2  UNL     1      16.238 -38.601 -17.532  1.00  0.00    -0.191 N 
ATOM      3  H2  UNL     1      17.177 -38.986 -17.641  1.00  0.00     0.184 HD
HETATM    4  C3  UNL     1      15.495 -38.944 -16.448  1.00  0.00     0.090 A 
HETATM    5  C15 UNL     1      14.252 -38.422 -16.321  1.00  0.00     0.185 A 
HETATM    6  F1  UNL     1      13.444 -38.728 -15.251  1.00  0.00    -0.200 F 
HETATM    7  C16 UNL     1      13.731 -37.540 -17.289  1.00  0.00     0.158 A 
HETATM    8  N7  UNL     1      14.522 -37.255 -18.325  1.00  0.00    -0.174 N 
ATOM      9  H7  UNL     1      14.175 -36.621 -19.045  1.00  0.00     0.186 HD
ENDROOT
BRANCH   4  10
HETATM   10  C4  UNL     1      16.014 -39.874 -15.423  1.00  0.00     0.170 C 
BRANCH  10  11
HETATM   11  C5  UNL     1      17.463 -39.671 -15.354  1.00  0.00    -0.077 C 
HETATM   12  C6  UNL     1      18.670 -39.474 -15.292  1.00  0.00    -0.033 C 
BRANCH  12  13
HETATM   13  S1  UNL     1      20.377 -39.161 -15.251  1.00  0.00    -0.073 SA
BRANCH  13  14
HETATM   14  C7  UNL     1      20.898 -37.635 -15.974  1.00  0.00     0.067 A 
HETATM   15  C8  UNL     1      20.615 -37.402 -17.419  1.00  0.00     0.024 A 
HETATM   16  C9  UNL     1      22.060 -37.412 -16.851  1.00  0.00     0.025 A 
BRANCH  16  17
HETATM   17  C10 UNL     1      22.930 -38.501 -17.399  1.00  0.00     0.170 C 
BRANCH  17  18
HETATM   18  O1  UNL     1      23.748 -38.015 -18.442  1.00  0.00    -0.400 OA
ATOM     19  H1  UNL     1      24.650 -38.286 -18.319  1.00  0.00     0.209 HD
ENDBRANCH  17  18
ENDBRANCH  16  17
ENDBRANCH  13  14
ENDBRANCH  12  13
ENDBRANCH  10  11
BRANCH  10  20
HETATM   20  C11 UNL     1      15.657 -41.280 -15.632  1.00  0.00     0.049 A 
HETATM   21  C12 UNL     1      16.223 -42.083 -16.606  1.00  0.00     0.115 A 
HETATM   22  N3  UNL     1      15.650 -43.293 -16.496  1.00  0.00    -0.360 N 
HETATM   23  C13 UNL     1      14.742 -43.255 -15.476  1.00  0.00     0.182 A 
ATOM     24  H3  UNL     1      15.858 -44.105 -17.077  1.00  0.00     0.166 HD
HETATM   25  N4  UNL     1      14.764 -42.033 -14.971  1.00  0.00    -0.348 N 
HETATM   26  C14 UNL     1      13.953 -41.551 -13.868  1.00  0.00     0.157 C 
ENDBRANCH  10  20
ENDBRANCH   4  10
BRANCH   1  27
HETATM   27  N1  UNL     1      16.495 -37.455 -19.495  1.00  0.00    -0.230 N 
HETATM   28  C1  UNL     1      17.561 -38.323 -19.918  1.00  0.00     0.165 C 
ATOM     29  H1  UNL     1      16.311 -36.591 -20.005  1.00  0.00     0.177 HD
ENDBRANCH   1  27
BRANCH   7  30
HETATM   30  N5  UNL     1      12.585 -37.081 -17.126  1.00  0.00    -0.369 N 
ATOM     31  H5  UNL     1      11.994 -37.775 -16.667  1.00  0.00     0.161 HD
BRANCH  30  32
HETATM   32  C17 UNL     1      11.856 -35.924 -17.370  1.00  0.00     0.086 C 
HETATM   33  C18 UNL     1      12.231 -34.776 -16.426  1.00  0.00     0.052 C 
HETATM   34  C19 UNL     1      11.247 -33.660 -16.630  1.00  0.00     0.234 C 
HETATM   35  N6  UNL     1      10.955 -33.389 -18.017  1.00  0.00    -0.075 N 
HETATM   36  C20 UNL     1      12.015 -33.917 -18.863  1.00  0.00     0.234 C 
ATOM     37  H62 UNL     1      10.037 -33.741 -18.290  1.00  0.00     0.277 HD
ATOM     38  H61 UNL     1      10.790 -32.396 -18.186  1.00  0.00     0.277 HD
HETATM   39  C21 UNL     1      11.906 -35.441 -18.789  1.00  0.00     0.052 C 
ENDBRANCH  30  32
ENDBRANCH   7  30
TORSDOF 10
ENDMDL
MODEL 4
REMARK VINA RESULT: -7.184652807      1.480      1.624
REMARK  10 active torsions:
REMARK  status: ('A' for Active; 'I' for Inactive)
REMARK    1  A    between atoms: N1_2  and  C2_4 
REMARK    2  A    between atoms: C3_7  and  C4_8 
REMARK    3  A    between atoms: C4_8  and  C5_9 
REMARK    4  A    between atoms: C4_8  and  C11_18 
REMARK    5  A    between atoms: C6_10  and  S1_11 
REMARK    6  A    between atoms: S1_11  and  C7_12 
REMARK    7  A    between atoms: C9_14  and  C10_15 
REMARK    8  A    between atoms: C10_15  and  O1_16 
REMARK    9  A    between atoms: C16_27  and  N5_28 
REMARK   10  A    between atoms: N5_28  and  C17_30 
ROOT
HETATM    1  C2  UNL     1      13.672 -39.459 -14.854  1.00  0.00     0.679 A 
HETATM    2  N2  UNL     1      14.830 -39.916 -15.333  1.00  0.00    -0.191 N 
ATOM      3  H2  UNL     1      15.212 -40.791 -14.972  1.00  0.00     0.184 HD
HETATM    4  C3  UNL     1      15.509 -39.235 -16.292  1.00  0.00     0.090 A 
HETATM    5  C15 UNL     1      14.985 -38.076 -16.759  1.00  0.00     0.185 A 
HETATM    6  F1  UNL     1      15.619 -37.333 -17.727  1.00  0.00    -0.200 F 
HETATM    7  C16 UNL     1      13.762 -37.580 -16.265  1.00  0.00     0.158 A 
HETATM    8  N7  UNL     1      13.159 -38.307 -15.322  1.00  0.00    -0.174 N 
ATOM      9  H7  UNL     1      12.272 -37.975 -14.942  1.00  0.00     0.186 HD
ENDROOT
BRANCH   4  10
HETATM   10  C4  UNL     1      16.798 -39.728 -16.821  1.00  0.00     0.170 C 
BRANCH  10  11
HETATM   11  C5  UNL     1      16.778 -41.188 -16.704  1.00  0.00    -0.077 C 
HETATM   12  C6  UNL     1      16.746 -42.407 -16.584  1.00  0.00    -0.033 C 
BRANCH  12  13
HETATM   13  S1  UNL     1      16.728 -44.128 -16.362  1.00  0.00    -0.073 SA
BRANCH  13  14
HETATM   14  C7  UNL     1      15.329 -44.778 -15.501  1.00  0.00     0.067 A 
HETATM   15  C8  UNL     1      14.038 -44.036 -15.583  1.00  0.00     0.024 A 
HETATM   16  C9  UNL     1      14.758 -44.296 -14.231  1.00  0.00     0.025 A 
BRANCH  16  17
HETATM   17  C10 UNL     1      15.200 -43.054 -13.521  1.00  0.00     0.170 C 
BRANCH  17  18
HETATM   18  O1  UNL     1      14.252 -42.666 -12.549  1.00  0.00    -0.400 OA
ATOM     19  H1  UNL     1      13.382 -42.963 -12.788  1.00  0.00     0.209 HD
ENDBRANCH  17  18
ENDBRANCH  16  17
ENDBRANCH  13  14
ENDBRANCH  12  13
ENDBRANCH  10  11
BRANCH  10  20
HETATM   20  C11 UNL     1      17.985 -39.134 -16.197  1.00  0.00     0.049 A 
HETATM   21  C12 UNL     1      18.345 -39.336 -14.877  1.00  0.00     0.115 A 
HETATM   22  N3  UNL     1      19.473 -38.638 -14.669  1.00  0.00    -0.360 N 
HETATM   23  C13 UNL     1      19.817 -38.008 -15.832  1.00  0.00     0.182 A 
ATOM     24  H3  UNL     1      19.988 -38.586 -13.789  1.00  0.00     0.166 HD
HETATM   25  N4  UNL     1      18.907 -38.323 -16.737  1.00  0.00    -0.348 N 
HETATM   26  C14 UNL     1      18.883 -37.870 -18.116  1.00  0.00     0.157 C 
ENDBRANCH  10  20
ENDBRANCH   4  10
BRANCH   1  27
HETATM   27  N1  UNL     1      13.038 -40.135 -13.928  1.00  0.00    -0.230 N 
HETATM   28  C1  UNL     1      12.420 -39.449 -12.825  1.00  0.00     0.165 C 
ATOM     29  H1  UNL     1      12.983 -41.152 -13.990  1.00  0.00     0.177 HD
ENDBRANCH   1  27
BRANCH   7  30
HETATM   30  N5  UNL     1      13.317 -36.514 -16.729  1.00  0.00    -0.369 N 
ATOM     31  H5  UNL     1      13.799 -35.721 -16.304  1.00  0.00     0.161 HD
BRANCH  30  32
HETATM   32  C17 UNL     1      12.374 -36.060 -17.643  1.00  0.00     0.086 C 
HETATM   33  C18 UNL     1      11.680 -34.771 -17.189  1.00  0.00     0.052 C 
HETATM   34  C19 UNL     1      10.544 -34.493 -18.131  1.00  0.00     0.234 C 
HETATM   35  N6  UNL     1      10.883 -34.680 -19.521  1.00  0.00    -0.075 N 
HETATM   36  C20 UNL     1      12.327 -34.623 -19.696  1.00  0.00     0.234 C 
ATOM     37  H62 UNL     1      10.486 -35.541 -19.898  1.00  0.00     0.277 HD
ATOM     38  H61 UNL     1      10.399 -34.015 -20.125  1.00  0.00     0.277 HD
HETATM   39  C21 UNL     1      12.890 -35.885 -19.040  1.00  0.00     0.052 C 
ENDBRANCH  30  32
ENDBRANCH   7  30
TORSDOF 10
ENDMDL
MODEL 5
REMARK VINA RESULT: -7.106867686      3.980      8.083
REMARK  10 active torsions:
REMARK  status: ('A' for Active; 'I' for Inactive)
REMARK    1  A    between atoms: N1_2  and  C2_4 
REMARK    2  A    between atoms: C3_7  and  C4_8 
REMARK    3  A    between atoms: C4_8  and  C5_9 
REMARK    4  A    between atoms: C4_8  and  C11_18 
REMARK    5  A    between atoms: C6_10  and  S1_11 
REMARK    6  A    between atoms: S1_11  and  C7_12 
REMARK    7  A    between atoms: C9_14  and  C10_15 
REMARK    8  A    between atoms: C10_15  and  O1_16 
REMARK    9  A    between atoms: C16_27  and  N5_28 
REMARK   10  A    between atoms: N5_28  and  C17_30 
ROOT
HETATM    1  C2  UNL     1      15.911 -41.721 -15.769  1.00  0.00     0.679 A 
HETATM    2  N2  UNL     1      15.979 -40.551 -16.403  1.00  0.00    -0.191 N 
ATOM      3  H2  UNL     1      15.418 -40.401 -17.243  1.00  0.00     0.184 HD
HETATM    4  C3  UNL     1      16.783 -39.554 -15.950  1.00  0.00     0.090 A 
HETATM    5  C15 UNL     1      17.518 -39.770 -14.834  1.00  0.00     0.185 A 
HETATM    6  F1  UNL     1      18.356 -38.808 -14.320  1.00  0.00    -0.200 F 
HETATM    7  C16 UNL     1      17.457 -41.001 -14.149  1.00  0.00     0.158 A 
HETATM    8  N7  UNL     1      16.645 -41.929 -14.660  1.00  0.00    -0.174 N 
ATOM      9  H7  UNL     1      16.578 -42.832 -14.191  1.00  0.00     0.186 HD
ENDROOT
BRANCH   4  10
HETATM   10  C4  UNL     1      16.873 -38.257 -16.653  1.00  0.00     0.170 C 
BRANCH  10  11
HETATM   11  C5  UNL     1      15.506 -37.752 -16.798  1.00  0.00    -0.077 C 
HETATM   12  C6  UNL     1      14.371 -37.304 -16.916  1.00  0.00    -0.033 C 
BRANCH  12  13
HETATM   13  S1  UNL     1      12.768 -36.648 -17.029  1.00  0.00    -0.073 SA
BRANCH  13  14
HETATM   14  C7  UNL     1      12.230 -36.207 -18.654  1.00  0.00     0.067 A 
HETATM   15  C8  UNL     1      12.919 -35.081 -19.348  1.00  0.00     0.024 A 
HETATM   16  C9  UNL     1      11.398 -35.054 -19.038  1.00  0.00     0.025 A 
BRANCH  16  17
HETATM   17  C10 UNL     1      10.980 -33.961 -18.101  1.00  0.00     0.170 C 
BRANCH  17  18
HETATM   18  O1  UNL     1       9.888 -34.372 -17.306  1.00  0.00    -0.400 OA
ATOM     19  H1  UNL     1       9.429 -35.098 -17.710  1.00  0.00     0.209 HD
ENDBRANCH  17  18
ENDBRANCH  16  17
ENDBRANCH  13  14
ENDBRANCH  12  13
ENDBRANCH  10  11
BRANCH  10  20
HETATM   20  C11 UNL     1      17.590 -38.300 -17.932  1.00  0.00     0.049 A 
HETATM   21  C12 UNL     1      16.996 -38.625 -19.138  1.00  0.00     0.115 A 
HETATM   22  N3  UNL     1      17.957 -38.563 -20.075  1.00  0.00    -0.360 N 
HETATM   23  C13 UNL     1      19.131 -38.207 -19.473  1.00  0.00     0.182 A 
ATOM     24  H3  UNL     1      17.831 -38.750 -21.070  1.00  0.00     0.166 HD
HETATM   25  N4  UNL     1      18.884 -38.053 -18.184  1.00  0.00    -0.348 N 
HETATM   26  C14 UNL     1      19.852 -37.678 -17.169  1.00  0.00     0.157 C 
ENDBRANCH  10  20
ENDBRANCH   4  10
BRANCH   1  27
HETATM   27  N1  UNL     1      15.128 -42.666 -16.227  1.00  0.00    -0.230 N 
HETATM   28  C1  UNL     1      15.620 -44.011 -16.367  1.00  0.00     0.165 C 
ATOM     29  H1  UNL     1      14.166 -42.447 -16.486  1.00  0.00     0.177 HD
ENDBRANCH   1  27
BRANCH   7  30
HETATM   30  N5  UNL     1      18.147 -41.151 -13.124  1.00  0.00    -0.369 N 
ATOM     31  H5  UNL     1      19.135 -41.202 -13.373  1.00  0.00     0.161 HD
BRANCH  30  32
HETATM   32  C17 UNL     1      17.998 -41.271 -11.748  1.00  0.00     0.086 C 
HETATM   33  C18 UNL     1      16.961 -40.299 -11.175  1.00  0.00     0.052 C 
HETATM   34  C19 UNL     1      17.036 -40.360  -9.677  1.00  0.00     0.234 C 
HETATM   35  N6  UNL     1      17.133 -41.702  -9.155  1.00  0.00    -0.075 N 
HETATM   36  C20 UNL     1      16.661 -42.659 -10.145  1.00  0.00     0.234 C 
ATOM     37  H62 UNL     1      18.077 -41.919  -8.833  1.00  0.00     0.277 HD
ATOM     38  H61 UNL     1      16.645 -41.802  -8.265  1.00  0.00     0.277 HD
HETATM   39  C21 UNL     1      17.698 -42.661 -11.270  1.00  0.00     0.052 C 
ENDBRANCH  30  32
ENDBRANCH   7  30
TORSDOF 10
ENDMDL
