MODEL 1
REMARK VINA RESULT: -7.245885766      0.000      0.000
REMARK  8 active torsions:
REMARK  status: ('A' for Active; 'I' for Inactive)
REMARK    1  A    between atoms: N1_1  and  C1_5 
REMARK    2  A    between atoms: C1_5  and  C2_6 
REMARK    3  A    between atoms: C2_6  and  O1_7 
REMARK    4  A    between atoms: C2_6  and  C3_9 
REMARK    5  A    between atoms: C2_6  and  C10_26 
REMARK       I    between atoms: C3_9  and  N2_11 
REMARK    6  A    between atoms: N2_11  and  C4_13 
REMARK    7  A    between atoms: C7_18  and  O3_19 
REMARK    8  A    between atoms: C7_18  and  C8_21 
ROOT
HETATM    1  C3  UNL     1      16.557 -38.162 -16.812  1.00  0.00     0.254 C 
HETATM    2  O2  UNL     1      15.988 -37.112 -16.424  1.00  0.00    -0.270 OA
HETATM    3  N2  UNL     1      16.300 -39.394 -16.162  1.00  0.00    -0.351 N 
ATOM      4  H2  UNL     1      16.764 -40.243 -16.482  1.00  0.00     0.163 HD
ENDROOT
BRANCH   1   5
HETATM    5  C2  UNL     1      17.507 -38.131 -17.956  1.00  0.00     0.165 C 
BRANCH   5   6
HETATM    6  C1  UNL     1      17.548 -36.776 -18.617  1.00  0.00     0.277 C 
BRANCH   6   7
HETATM    7  N1  UNL     1      16.397 -36.559 -19.473  1.00  0.00    -0.076 N 
ATOM      8  H13 UNL     1      16.288 -37.317 -20.148  1.00  0.00     0.274 HD
ATOM      9  H12 UNL     1      15.525 -36.677 -18.958  1.00  0.00     0.274 HD
ATOM     10  H11 UNL     1      16.435 -35.652 -19.936  1.00  0.00     0.274 HD
ENDBRANCH   6   7
ENDBRANCH   5   6
BRANCH   5  11
HETATM   11  O1  UNL     1      17.177 -39.072 -18.913  1.00  0.00    -0.378 OA
ATOM     12  H1  UNL     1      16.853 -39.847 -18.470  1.00  0.00     0.211 HD
ENDBRANCH   5  11
BRANCH   5  13
HETATM   13  C10 UNL     1      18.883 -38.415 -17.403  1.00  0.00     0.031 C 
HETATM   14  C11 UNL     1      19.963 -37.693 -18.169  1.00  0.00     0.008 C 
HETATM   15  C12 UNL     1      21.109 -37.637 -17.204  1.00  0.00     0.001 C 
HETATM   16  C13 UNL     1      20.563 -37.950 -15.833  1.00  0.00     0.001 C 
HETATM   17  C14 UNL     1      19.057 -37.846 -16.008  1.00  0.00     0.008 C 
ENDBRANCH   5  13
ENDBRANCH   1   5
BRANCH   3  18
HETATM   18  C4  UNL     1      15.387 -39.451 -15.056  1.00  0.00     0.114 A 
HETATM   19  C5  UNL     1      14.816 -40.823 -14.681  1.00  0.00     0.088 A 
HETATM   20  S1  UNL     1      14.729 -41.173 -12.958  1.00  0.00    -0.140 SA
HETATM   21  C9  UNL     1      13.954 -39.823 -15.253  1.00  0.00     0.090 A 
HETATM   22  C6  UNL     1      13.380 -40.435 -12.070  1.00  0.00     0.175 C 
HETATM   23 BR1  UNL     1      12.912 -41.438 -10.469  1.00  0.00    -0.075 Br
HETATM   24  C7  UNL     1      12.175 -40.177 -12.926  1.00  0.00     0.218 C 
HETATM   25  S2  UNL     1      12.662 -39.107 -14.273  1.00  0.00    -0.110 SA
BRANCH  24  26
HETATM   26  O3  UNL     1      11.249 -39.495 -12.125  1.00  0.00    -0.368 OA
ATOM     27  H3  UNL     1      10.728 -38.956 -12.707  1.00  0.00     0.212 HD
ENDBRANCH  24  26
BRANCH  24  28
HETATM   28  C8  UNL     1      11.549 -41.445 -13.345  1.00  0.00     0.222 C 
HETATM   29  O4  UNL     1      10.285 -41.543 -13.513  1.00  0.00    -0.645 OA
HETATM   30  O5  UNL     1      12.275 -42.587 -13.580  1.00  0.00    -0.645 OA
ENDBRANCH  24  28
ENDBRANCH   3  18
TORSDOF 8
ENDMDL
MODEL 2
REMARK VINA RESULT: -6.760166789      3.701      5.347
REMARK  8 active torsions:
REMARK  status: ('A' for Active; 'I' for Inactive)
REMARK    1  A    between atoms: N1_1  and  C1_5 
REMARK    2  A    between atoms: C1_5  and  C2_6 
REMARK    3  A    between atoms: C2_6  and  O1_7 
REMARK    4  A    between atoms: C2_6  and  C3_9 
REMARK    5  A    between atoms: C2_6  and  C10_26 
REMARK       I    between atoms: C3_9  and  N2_11 
REMARK    6  A    between atoms: N2_11  and  C4_13 
REMARK    7  A    between atoms: C7_18  and  O3_19 
REMARK    8  A    between atoms: C7_18  and  C8_21 
ROOT
HETATM    1  C3  UNL     1      12.769 -37.897 -16.568  1.00  0.00     0.254 C 
HETATM    2  O2  UNL     1      12.547 -38.998 -17.130  1.00  0.00    -0.270 OA
HETATM    3  N2  UNL     1      12.592 -37.763 -15.170  1.00  0.00    -0.351 N 
ATOM      4  H2  UNL     1      12.774 -36.866 -14.719  1.00  0.00     0.163 HD
ENDROOT
BRANCH   1   5
HETATM    5  C2  UNL     1      13.221 -36.721 -17.358  1.00  0.00     0.165 C 
BRANCH   5   6
HETATM    6  C1  UNL     1      14.259 -37.097 -18.386  1.00  0.00     0.277 C 
BRANCH   6   7
HETATM    7  N1  UNL     1      15.465 -37.613 -17.768  1.00  0.00    -0.076 N 
ATOM      8  H13 UNL     1      15.263 -38.057 -16.872  1.00  0.00     0.274 HD
ATOM      9  H12 UNL     1      15.822 -38.425 -18.272  1.00  0.00     0.274 HD
ATOM     10  H11 UNL     1      16.180 -36.892 -17.673  1.00  0.00     0.274 HD
ENDBRANCH   6   7
ENDBRANCH   5   6
BRANCH   5  11
HETATM   11  O1  UNL     1      13.751 -35.739 -16.544  1.00  0.00    -0.378 OA
ATOM     12  H1  UNL     1      13.757 -34.921 -17.028  1.00  0.00     0.211 HD
ENDBRANCH   5  11
BRANCH   5  13
HETATM   13  C10 UNL     1      12.016 -36.188 -18.095  1.00  0.00     0.031 C 
HETATM   14  C11 UNL     1      11.315 -35.098 -17.324  1.00  0.00     0.008 C 
HETATM   15  C12 UNL     1      10.551 -34.351 -18.376  1.00  0.00     0.001 C 
HETATM   16  C13 UNL     1      11.115 -34.750 -19.716  1.00  0.00     0.001 C 
HETATM   17  C14 UNL     1      12.411 -35.464 -19.369  1.00  0.00     0.008 C 
ENDBRANCH   5  13
ENDBRANCH   1   5
BRANCH   3  18
HETATM   18  C4  UNL     1      12.158 -38.882 -14.384  1.00  0.00     0.114 A 
HETATM   19  C5  UNL     1      12.217 -38.741 -12.859  1.00  0.00     0.088 A 
HETATM   20  S1  UNL     1      10.833 -39.376 -11.976  1.00  0.00    -0.140 SA
HETATM   21  C9  UNL     1      13.115 -39.646 -13.529  1.00  0.00     0.090 A 
HETATM   22  C6  UNL     1      10.779 -41.136 -11.752  1.00  0.00     0.175 C 
HETATM   23 BR1  UNL     1       9.734 -41.652 -10.193  1.00  0.00    -0.075 Br
HETATM   24  C7  UNL     1      12.136 -41.776 -11.737  1.00  0.00     0.218 C 
HETATM   25  S2  UNL     1      12.954 -41.393 -13.281  1.00  0.00    -0.110 SA
BRANCH  24  26
HETATM   26  O3  UNL     1      11.930 -43.160 -11.671  1.00  0.00    -0.368 OA
ATOM     27  H3  UNL     1      11.502 -43.413 -12.480  1.00  0.00     0.212 HD
ENDBRANCH  24  26
BRANCH  24  28
HETATM   28  C8  UNL     1      12.888 -41.383 -10.531  1.00  0.00     0.222 C 
HETATM   29  O4  UNL     1      12.590 -41.844  -9.377  1.00  0.00    -0.645 OA
HETATM   30  O5  UNL     1      13.946 -40.506 -10.571  1.00  0.00    -0.645 OA
ENDBRANCH  24  28
ENDBRANCH   3  18
TORSDOF 8
ENDMDL
MODEL 3
REMARK VINA RESULT: -6.710031147      1.737      2.148
REMARK  8 active torsions:
REMARK  status: ('A' for Active; 'I' for Inactive)
REMARK    1  A    between atoms: N1_1  and  C1_5 
REMARK    2  A    between atoms: C1_5  and  C2_6 
REMARK    3  A    between atoms: C2_6  and  O1_7 
REMARK    4  A    between atoms: C2_6  and  C3_9 
REMARK    5  A    between atoms: C2_6  and  C10_26 
REMARK       I    between atoms: C3_9  and  N2_11 
REMARK    6  A    between atoms: N2_11  and  C4_13 
REMARK    7  A    between atoms: C7_18  and  O3_19 
REMARK    8  A    between atoms: C7_18  and  C8_21 
ROOT
HETATM    1  C3  UNL     1      17.763 -38.133 -16.769  1.00  0.00     0.254 C 
HETATM    2  O2  UNL     1      17.073 -37.317 -16.111  1.00  0.00    -0.270 OA
HETATM    3  N2  UNL     1      17.722 -39.514 -16.459  1.00  0.00    -0.351 N 
ATOM      4  H2  UNL     1      18.285 -40.172 -16.997  1.00  0.00     0.163 HD
ENDROOT
BRANCH   1   5
HETATM    5  C2  UNL     1      18.633 -37.666 -17.881  1.00  0.00     0.165 C 
BRANCH   5   6
HETATM    6  C1  UNL     1      18.088 -36.422 -18.539  1.00  0.00     0.277 C 
BRANCH   6   7
HETATM    7  N1  UNL     1      16.851 -36.688 -19.249  1.00  0.00    -0.076 N 
ATOM      8  H13 UNL     1      17.001 -36.719 -20.258  1.00  0.00     0.274 HD
ATOM      9  H12 UNL     1      16.538 -37.647 -19.104  1.00  0.00     0.274 HD
ATOM     10  H11 UNL     1      16.122 -36.018 -19.003  1.00  0.00     0.274 HD
ENDBRANCH   6   7
ENDBRANCH   5   6
BRANCH   5  11
HETATM   11  O1  UNL     1      18.782 -38.640 -18.850  1.00  0.00    -0.378 OA
ATOM     12  H1  UNL     1      19.027 -38.216 -19.664  1.00  0.00     0.211 HD
ENDBRANCH   5  11
BRANCH   5  13
HETATM   13  C10 UNL     1      19.975 -37.319 -17.284  1.00  0.00     0.031 C 
HETATM   14  C11 UNL     1      20.182 -37.964 -15.937  1.00  0.00     0.008 C 
HETATM   15  C12 UNL     1      21.672 -37.979 -15.772  1.00  0.00     0.001 C 
HETATM   16  C13 UNL     1      22.281 -37.727 -17.129  1.00  0.00     0.001 C 
HETATM   17  C14 UNL     1      21.118 -37.908 -18.090  1.00  0.00     0.008 C 
ENDBRANCH   5  13
ENDBRANCH   1   5
BRANCH   3  18
HETATM   18  C4  UNL     1      16.891 -39.991 -15.391  1.00  0.00     0.114 A 
HETATM   19  C5  UNL     1      16.647 -41.502 -15.305  1.00  0.00     0.088 A 
HETATM   20  S1  UNL     1      16.710 -42.198 -13.690  1.00  0.00    -0.140 SA
HETATM   21  C9  UNL     1      15.565 -40.623 -15.664  1.00  0.00     0.090 A 
HETATM   22  C6  UNL     1      15.271 -41.969 -12.675  1.00  0.00     0.175 C 
HETATM   23 BR1  UNL     1      15.099 -43.349 -11.313  1.00  0.00    -0.075 Br
HETATM   24  C7  UNL     1      14.005 -41.818 -13.464  1.00  0.00     0.218 C 
HETATM   25  S2  UNL     1      14.191 -40.420 -14.564  1.00  0.00    -0.110 SA
BRANCH  24  26
HETATM   26  O3  UNL     1      12.987 -41.532 -12.545  1.00  0.00    -0.368 OA
ATOM     27  H3  UNL     1      12.926 -40.586 -12.489  1.00  0.00     0.212 HD
ENDBRANCH  24  26
BRANCH  24  28
HETATM   28  C8  UNL     1      13.651 -43.083 -14.136  1.00  0.00     0.222 C 
HETATM   29  O4  UNL     1      13.085 -44.040 -13.504  1.00  0.00    -0.645 OA
HETATM   30  O5  UNL     1      13.903 -43.310 -15.467  1.00  0.00    -0.645 OA
ENDBRANCH  24  28
ENDBRANCH   3  18
TORSDOF 8
ENDMDL
MODEL 4
REMARK VINA RESULT: -6.620294781      4.488      6.421
REMARK  8 active torsions:
REMARK  status: ('A' for Active; 'I' for Inactive)
REMARK    1  A    between atoms: N1_1  and  C1_5 
REMARK    2  A    between atoms: C1_5  and  C2_6 
REMARK    3  A    between atoms: C2_6  and  O1_7 
REMARK    4  A    between atoms: C2_6  and  C3_9 
REMARK    5  A    between atoms: C2_6  and  C10_26 
REMARK       I    between atoms: C3_9  and  N2_11 
REMARK    6  A    between atoms: N2_11  and  C4_13 
REMARK    7  A    between atoms: C7_18  and  O3_19 
REMARK    8  A    between atoms: C7_18  and  C8_21 
ROOT
HETATM    1  C3  UNL     1      13.916 -37.859 -16.284  1.00  0.00     0.254 C 
HETATM    2  O2  UNL     1      14.864 -37.040 -16.199  1.00  0.00    -0.270 OA
HETATM    3  N2  UNL     1      14.074 -39.184 -15.814  1.00  0.00    -0.351 N 
ATOM      4  H2  UNL     1      13.300 -39.845 -15.886  1.00  0.00     0.163 HD
ENDROOT
BRANCH   1   5
HETATM    5  C2  UNL     1      12.615 -37.451 -16.879  1.00  0.00     0.165 C 
BRANCH   5   6
HETATM    6  C1  UNL     1      11.545 -37.278 -15.830  1.00  0.00     0.277 C 
BRANCH   6   7
HETATM    7  N1  UNL     1      10.613 -38.390 -15.824  1.00  0.00    -0.076 N 
ATOM      8  H13 UNL     1      10.991 -39.194 -16.326  1.00  0.00     0.274 HD
ATOM      9  H12 UNL     1      10.534 -38.803 -14.895  1.00  0.00     0.274 HD
ATOM     10  H11 UNL     1       9.700 -38.120 -16.190  1.00  0.00     0.274 HD
ENDBRANCH   6   7
ENDBRANCH   5   6
BRANCH   5  11
HETATM   11  O1  UNL     1      12.171 -38.375 -17.806  1.00  0.00    -0.378 OA
ATOM     12  H1  UNL     1      12.674 -38.264 -18.603  1.00  0.00     0.211 HD
ENDBRANCH   5  11
BRANCH   5  13
HETATM   13  C10 UNL     1      12.828 -36.112 -17.544  1.00  0.00     0.031 C 
HETATM   14  C11 UNL     1      13.010 -36.242 -19.036  1.00  0.00     0.008 C 
HETATM   15  C12 UNL     1      12.658 -34.881 -19.558  1.00  0.00     0.001 C 
HETATM   16  C13 UNL     1      11.928 -34.148 -18.461  1.00  0.00     0.001 C 
HETATM   17  C14 UNL     1      11.590 -35.239 -17.456  1.00  0.00     0.008 C 
ENDBRANCH   5  13
ENDBRANCH   1   5
BRANCH   3  18
HETATM   18  C4  UNL     1      15.318 -39.603 -15.235  1.00  0.00     0.114 A 
HETATM   19  C5  UNL     1      16.416 -40.085 -16.190  1.00  0.00     0.088 A 
HETATM   20  S1  UNL     1      18.047 -39.529 -15.828  1.00  0.00    -0.140 SA
HETATM   21  C9  UNL     1      15.769 -41.026 -15.313  1.00  0.00     0.090 A 
HETATM   22  C6  UNL     1      18.896 -40.375 -14.519  1.00  0.00     0.175 C 
HETATM   23 BR1  UNL     1      20.831 -40.264 -14.700  1.00  0.00    -0.075 Br
HETATM   24  C7  UNL     1      18.445 -41.794 -14.336  1.00  0.00     0.218 C 
HETATM   25  S2  UNL     1      16.688 -41.786 -14.002  1.00  0.00    -0.110 SA
BRANCH  24  26
HETATM   26  O3  UNL     1      19.113 -42.289 -13.208  1.00  0.00    -0.368 OA
ATOM     27  H3  UNL     1      19.642 -43.021 -13.502  1.00  0.00     0.212 HD
ENDBRANCH  24  26
BRANCH  24  28
HETATM   28  C8  UNL     1      18.846 -42.625 -15.487  1.00  0.00     0.222 C 
HETATM   29  O4  UNL     1      19.914 -43.327 -15.466  1.00  0.00    -0.645 OA
HETATM   30  O5  UNL     1      18.105 -42.697 -16.642  1.00  0.00    -0.645 OA
ENDBRANCH  24  28
ENDBRANCH   3  18
TORSDOF 8
ENDMDL
MODEL 5
REMARK VINA RESULT: -6.592451663      4.639      7.098
REMARK  8 active torsions:
REMARK  status: ('A' for Active; 'I' for Inactive)
REMARK    1  A    between atoms: N1_1  and  C1_5 
REMARK    2  A    between atoms: C1_5  and  C2_6 
REMARK    3  A    between atoms: C2_6  and  O1_7 
REMARK    4  A    between atoms: C2_6  and  C3_9 
REMARK    5  A    between atoms: C2_6  and  C10_26 
REMARK       I    between atoms: C3_9  and  N2_11 
REMARK    6  A    between atoms: N2_11  and  C4_13 
REMARK    7  A    between atoms: C7_18  and  O3_19 
REMARK    8  A    between atoms: C7_18  and  C8_21 
ROOT
HETATM    1  C3  UNL     1      14.792 -39.643 -15.638  1.00  0.00     0.254 C 
HETATM    2  O2  UNL     1      15.839 -38.987 -15.864  1.00  0.00    -0.270 OA
HETATM    3  N2  UNL     1      13.523 -39.072 -15.896  1.00  0.00    -0.351 N 
ATOM      4  H2  UNL     1      12.677 -39.610 -15.711  1.00  0.00     0.163 HD
ENDROOT
BRANCH   1   5
HETATM    5  C2  UNL     1      14.868 -41.027 -15.099  1.00  0.00     0.165 C 
BRANCH   5   6
HETATM    6  C1  UNL     1      16.274 -41.400 -14.699  1.00  0.00     0.277 C 
BRANCH   6   7
HETATM    7  N1  UNL     1      17.115 -41.643 -15.856  1.00  0.00    -0.076 N 
ATOM      8  H13 UNL     1      16.558 -41.877 -16.677  1.00  0.00     0.274 HD
ATOM      9  H12 UNL     1      17.541 -40.779 -16.192  1.00  0.00     0.274 HD
ATOM     10  H11 UNL     1      17.820 -42.356 -15.668  1.00  0.00     0.274 HD
ENDBRANCH   6   7
ENDBRANCH   5   6
BRANCH   5  11
HETATM   11  O1  UNL     1      14.417 -41.954 -16.019  1.00  0.00    -0.378 OA
ATOM     12  H1  UNL     1      15.012 -42.695 -16.013  1.00  0.00     0.211 HD
ENDBRANCH   5  11
BRANCH   5  13
HETATM   13  C10 UNL     1      14.010 -41.071 -13.857  1.00  0.00     0.031 C 
HETATM   14  C11 UNL     1      13.609 -42.478 -13.493  1.00  0.00     0.008 C 
HETATM   15  C12 UNL     1      13.275 -42.389 -12.034  1.00  0.00     0.001 C 
HETATM   16  C13 UNL     1      13.847 -41.093 -11.516  1.00  0.00     0.001 C 
HETATM   17  C14 UNL     1      14.783 -40.639 -12.625  1.00  0.00     0.008 C 
ENDBRANCH   5  13
ENDBRANCH   1   5
BRANCH   3  18
HETATM   18  C4  UNL     1      13.422 -37.739 -16.418  1.00  0.00     0.114 A 
HETATM   19  C5  UNL     1      12.038 -37.082 -16.417  1.00  0.00     0.088 A 
HETATM   20  S1  UNL     1      11.991 -35.390 -15.931  1.00  0.00    -0.140 SA
HETATM   21  C9  UNL     1      12.653 -37.451 -17.665  1.00  0.00     0.090 A 
HETATM   22  C6  UNL     1      12.489 -34.204 -17.154  1.00  0.00     0.175 C 
HETATM   23 BR1  UNL     1      11.700 -32.450 -16.847  1.00  0.00    -0.075 Br
HETATM   24  C7  UNL     1      12.258 -34.668 -18.562  1.00  0.00     0.218 C 
HETATM   25  S2  UNL     1      13.161 -36.192 -18.805  1.00  0.00    -0.110 SA
BRANCH  24  26
HETATM   26  O3  UNL     1      12.799 -33.688 -19.405  1.00  0.00    -0.368 OA
ATOM     27  H3  UNL     1      12.074 -33.152 -19.703  1.00  0.00     0.212 HD
ENDBRANCH  24  26
BRANCH  24  28
HETATM   28  C8  UNL     1      10.815 -34.756 -18.856  1.00  0.00     0.222 C 
HETATM   29  O4  UNL     1      10.387 -35.022 -20.030  1.00  0.00    -0.645 OA
HETATM   30  O5  UNL     1       9.851 -34.561 -17.896  1.00  0.00    -0.645 OA
ENDBRANCH  24  28
ENDBRANCH   3  18
TORSDOF 8
ENDMDL
