MODEL 1
REMARK VINA RESULT: -7.940611180      0.000      0.000
REMARK  9 active torsions:
REMARK  status: ('A' for Active; 'I' for Inactive)
REMARK    1  A    between atoms: C2_2  and  C3_3 
REMARK    2  A    between atoms: C3_3  and  C4_4 
REMARK    3  A    between atoms: C5_5  and  O1_6 
REMARK    4  A    between atoms: C7_9  and  O2_10 
REMARK    5  A    between atoms: C8_12  and  O3_13 
REMARK    6  A    between atoms: C9_15  and  N1_16 
REMARK       I    between atoms: N1_16  and  C10_18 
REMARK    7  A    between atoms: C10_18  and  C11_20 
REMARK    8  A    between atoms: C18_29  and  O6_30 
REMARK    9  A    between atoms: O6_30  and  C19_31 
ROOT
HETATM    1  N1  UNL     1      16.607 -39.539 -16.415  1.00  0.00    -0.353 N 
ATOM      2  H1  UNL     1      16.403 -38.993 -15.579  1.00  0.00     0.163 HD
HETATM    3  C10 UNL     1      16.516 -40.943 -16.340  1.00  0.00     0.226 C 
HETATM    4  O4  UNL     1      16.762 -41.621 -17.354  1.00  0.00    -0.273 OA
ENDROOT
BRANCH   1   5
HETATM    5  C9  UNL     1      16.977 -38.839 -17.627  1.00  0.00     0.122 C 
HETATM    6  C4  UNL     1      18.445 -38.525 -17.547  1.00  0.00     0.043 C 
HETATM    7  C5  UNL     1      18.832 -37.738 -18.784  1.00  0.00     0.127 C 
HETATM    8  C6  UNL     1      18.094 -36.425 -18.723  1.00  0.00     0.066 C 
HETATM    9  C7  UNL     1      16.605 -36.656 -18.802  1.00  0.00     0.151 C 
HETATM   10  C8  UNL     1      16.113 -37.632 -17.771  1.00  0.00     0.170 C 
BRANCH   6  11
HETATM   11  C3  UNL     1      18.863 -37.834 -16.283  1.00  0.00     0.035 C 
BRANCH  11  12
HETATM   12  C2  UNL     1      20.345 -37.736 -16.296  1.00  0.00    -0.036 C 
HETATM   13  C1  UNL     1      21.118 -38.151 -15.319  1.00  0.00     0.007 C 
ENDBRANCH  11  12
ENDBRANCH   6  11
BRANCH   7  14
HETATM   14  O1  UNL     1      18.382 -38.437 -19.888  1.00  0.00    -0.395 OA
ATOM     15  H1  UNL     1      19.123 -38.578 -20.464  1.00  0.00     0.210 HD
ENDBRANCH   7  14
BRANCH   9  16
HETATM   16  O2  UNL     1      16.305 -37.045 -20.099  1.00  0.00    -0.393 OA
ATOM     17  H2  UNL     1      16.193 -37.988 -20.099  1.00  0.00     0.210 HD
ENDBRANCH   9  16
BRANCH  10  18
HETATM   18  O3  UNL     1      15.910 -37.036 -16.530  1.00  0.00    -0.391 OA
ATOM     19  H3  UNL     1      15.718 -37.671 -15.850  1.00  0.00     0.210 HD
ENDBRANCH  10  18
ENDBRANCH   1   5
BRANCH   3  20
HETATM   20  C11 UNL     1      16.135 -41.585 -15.078  1.00  0.00     0.129 C 
HETATM   21  C12 UNL     1      17.264 -41.537 -14.062  1.00  0.00     0.107 C 
HETATM   22 CL1  UNL     1      18.286 -40.114 -14.281  1.00  0.00    -0.123 Cl
HETATM   23  C13 UNL     1      16.616 -41.485 -12.716  1.00  0.00     0.070 C 
HETATM   24  C14 UNL     1      15.137 -41.269 -12.913  1.00  0.00     0.161 C 
HETATM   25  C15 UNL     1      16.239 -42.786 -12.087  1.00  0.00     0.062 C 
HETATM   26  O5  UNL     1      14.932 -42.573 -12.514  1.00  0.00    -0.372 OA
HETATM   27  C18 UNL     1      14.932 -41.035 -14.407  1.00  0.00     0.175 C 
HETATM   28  C16 UNL     1      16.899 -44.019 -12.608  1.00  0.00     0.046 C 
HETATM   29  C17 UNL     1      16.408 -42.707 -10.572  1.00  0.00     0.046 C 
BRANCH  27  30
HETATM   30  O6  UNL     1      14.737 -39.669 -14.638  1.00  0.00    -0.313 OA
BRANCH  30  31
HETATM   31  C19 UNL     1      13.531 -39.214 -15.195  1.00  0.00     0.255 C 
HETATM   32  C20 UNL     1      12.399 -38.785 -14.336  1.00  0.00     0.126 C 
HETATM   33  O7  UNL     1      13.413 -39.168 -16.439  1.00  0.00    -0.266 OA
ENDBRANCH  30  31
ENDBRANCH  27  30
ENDBRANCH   3  20
TORSDOF 9
ENDMDL
MODEL 2
REMARK VINA RESULT: -7.383601347      1.859      3.203
REMARK  9 active torsions:
REMARK  status: ('A' for Active; 'I' for Inactive)
REMARK    1  A    between atoms: C2_2  and  C3_3 
REMARK    2  A    between atoms: C3_3  and  C4_4 
REMARK    3  A    between atoms: C5_5  and  O1_6 
REMARK    4  A    between atoms: C7_9  and  O2_10 
REMARK    5  A    between atoms: C8_12  and  O3_13 
REMARK    6  A    between atoms: C9_15  and  N1_16 
REMARK       I    between atoms: N1_16  and  C10_18 
REMARK    7  A    between atoms: C10_18  and  C11_20 
REMARK    8  A    between atoms: C18_29  and  O6_30 
REMARK    9  A    between atoms: O6_30  and  C19_31 
ROOT
HETATM    1  N1  UNL     1      17.405 -39.425 -16.171  1.00  0.00    -0.353 N 
ATOM      2  H1  UNL     1      17.521 -38.861 -15.329  1.00  0.00     0.163 HD
HETATM    3  C10 UNL     1      17.165 -40.806 -16.029  1.00  0.00     0.226 C 
HETATM    4  O4  UNL     1      17.022 -41.504 -17.048  1.00  0.00    -0.273 OA
ENDROOT
BRANCH   1   5
HETATM    5  C9  UNL     1      17.493 -38.771 -17.460  1.00  0.00     0.122 C 
HETATM    6  C4  UNL     1      18.933 -38.404 -17.692  1.00  0.00     0.043 C 
HETATM    7  C5  UNL     1      19.028 -37.664 -19.012  1.00  0.00     0.127 C 
HETATM    8  C6  UNL     1      18.262 -36.375 -18.855  1.00  0.00     0.066 C 
HETATM    9  C7  UNL     1      16.800 -36.660 -18.621  1.00  0.00     0.151 C 
HETATM   10  C8  UNL     1      16.567 -37.602 -17.473  1.00  0.00     0.170 C 
BRANCH   6  11
HETATM   11  C3  UNL     1      19.567 -37.639 -16.567  1.00  0.00     0.035 C 
BRANCH  11  12
HETATM   12  C2  UNL     1      21.035 -37.661 -16.785  1.00  0.00    -0.036 C 
HETATM   13  C1  UNL     1      21.908 -38.030 -15.877  1.00  0.00     0.007 C 
ENDBRANCH  11  12
ENDBRANCH   6  11
BRANCH   7  14
HETATM   14  O1  UNL     1      18.395 -38.429 -19.973  1.00  0.00    -0.395 OA
ATOM     15  H1  UNL     1      18.923 -39.205 -20.120  1.00  0.00     0.210 HD
ENDBRANCH   7  14
BRANCH   9  16
HETATM   16  O2  UNL     1      16.261 -37.120 -19.813  1.00  0.00    -0.393 OA
ATOM     17  H2  UNL     1      15.708 -37.865 -19.612  1.00  0.00     0.210 HD
ENDBRANCH   9  16
BRANCH  10  18
HETATM   18  O3  UNL     1      16.593 -36.955 -16.242  1.00  0.00    -0.391 OA
ATOM     19  H3  UNL     1      17.407 -37.098 -15.774  1.00  0.00     0.210 HD
ENDBRANCH  10  18
ENDBRANCH   1   5
BRANCH   3  20
HETATM   20  C11 UNL     1      17.089 -41.400 -14.691  1.00  0.00     0.129 C 
HETATM   21  C12 UNL     1      15.650 -41.549 -14.225  1.00  0.00     0.107 C 
HETATM   22 CL1  UNL     1      14.543 -41.797 -15.578  1.00  0.00    -0.123 Cl
HETATM   23  C13 UNL     1      15.620 -42.746 -13.329  1.00  0.00     0.070 C 
HETATM   24  C14 UNL     1      16.952 -43.446 -13.433  1.00  0.00     0.161 C 
HETATM   25  C15 UNL     1      15.959 -42.532 -11.890  1.00  0.00     0.062 C 
HETATM   26  O5  UNL     1      17.241 -43.002 -12.159  1.00  0.00    -0.372 OA
HETATM   27  C18 UNL     1      17.729 -42.729 -14.533  1.00  0.00     0.175 C 
HETATM   28  C16 UNL     1      15.876 -41.139 -11.363  1.00  0.00     0.046 C 
HETATM   29  C17 UNL     1      15.136 -43.470 -11.011  1.00  0.00     0.046 C 
BRANCH  27  30
HETATM   30  O6  UNL     1      17.704 -43.505 -15.697  1.00  0.00    -0.313 OA
BRANCH  30  31
HETATM   31  C19 UNL     1      18.904 -43.945 -16.276  1.00  0.00     0.255 C 
HETATM   32  C20 UNL     1      18.907 -44.921 -17.394  1.00  0.00     0.126 C 
HETATM   33  O7  UNL     1      19.990 -43.504 -15.840  1.00  0.00    -0.266 OA
ENDBRANCH  30  31
ENDBRANCH  27  30
ENDBRANCH   3  20
TORSDOF 9
ENDMDL
MODEL 3
REMARK VINA RESULT: -7.366146679      1.752      2.987
REMARK  9 active torsions:
REMARK  status: ('A' for Active; 'I' for Inactive)
REMARK    1  A    between atoms: C2_2  and  C3_3 
REMARK    2  A    between atoms: C3_3  and  C4_4 
REMARK    3  A    between atoms: C5_5  and  O1_6 
REMARK    4  A    between atoms: C7_9  and  O2_10 
REMARK    5  A    between atoms: C8_12  and  O3_13 
REMARK    6  A    between atoms: C9_15  and  N1_16 
REMARK       I    between atoms: N1_16  and  C10_18 
REMARK    7  A    between atoms: C10_18  and  C11_20 
REMARK    8  A    between atoms: C18_29  and  O6_30 
REMARK    9  A    between atoms: O6_30  and  C19_31 
ROOT
HETATM    1  N1  UNL     1      16.878 -39.438 -15.940  1.00  0.00    -0.353 N 
ATOM      2  H1  UNL     1      17.603 -39.140 -15.287  1.00  0.00     0.163 HD
HETATM    3  C10 UNL     1      15.856 -40.285 -15.470  1.00  0.00     0.226 C 
HETATM    4  O4  UNL     1      14.966 -40.656 -16.257  1.00  0.00    -0.273 OA
ENDROOT
BRANCH   1   5
HETATM    5  C9  UNL     1      16.946 -38.971 -17.309  1.00  0.00     0.122 C 
HETATM    6  C4  UNL     1      18.380 -38.637 -17.611  1.00  0.00     0.043 C 
HETATM    7  C5  UNL     1      18.454 -38.089 -19.024  1.00  0.00     0.127 C 
HETATM    8  C6  UNL     1      17.683 -36.793 -19.038  1.00  0.00     0.066 C 
HETATM    9  C7  UNL     1      16.226 -37.046 -18.745  1.00  0.00     0.151 C 
HETATM   10  C8  UNL     1      16.013 -37.818 -17.473  1.00  0.00     0.170 C 
BRANCH   6  11
HETATM   11  C3  UNL     1      19.026 -37.720 -16.614  1.00  0.00     0.035 C 
BRANCH  11  12
HETATM   12  C2  UNL     1      20.481 -37.695 -16.907  1.00  0.00    -0.036 C 
HETATM   13  C1  UNL     1      21.415 -37.932 -16.016  1.00  0.00     0.007 C 
ENDBRANCH  11  12
ENDBRANCH   6  11
BRANCH   7  14
HETATM   14  O1  UNL     1      17.811 -38.983 -19.858  1.00  0.00    -0.395 OA
ATOM     15  H1  UNL     1      17.412 -38.487 -20.563  1.00  0.00     0.210 HD
ENDBRANCH   7  14
BRANCH   9  16
HETATM   16  O2  UNL     1      15.673 -37.670 -19.853  1.00  0.00    -0.393 OA
ATOM     17  H2  UNL     1      14.894 -37.187 -20.099  1.00  0.00     0.210 HD
ENDBRANCH   9  16
BRANCH  10  18
HETATM   18  O3  UNL     1      16.053 -37.004 -16.345  1.00  0.00    -0.391 OA
ATOM     19  H3  UNL     1      15.834 -37.476 -15.550  1.00  0.00     0.210 HD
ENDBRANCH  10  18
ENDBRANCH   1   5
BRANCH   3  20
HETATM   20  C11 UNL     1      15.852 -40.719 -14.070  1.00  0.00     0.129 C 
HETATM   21  C12 UNL     1      14.709 -41.679 -13.783  1.00  0.00     0.107 C 
HETATM   22 CL1  UNL     1      14.277 -42.631 -15.206  1.00  0.00    -0.123 Cl
HETATM   23  C13 UNL     1      15.188 -42.590 -12.699  1.00  0.00     0.070 C 
HETATM   24  C14 UNL     1      16.661 -42.347 -12.494  1.00  0.00     0.161 C 
HETATM   25  C15 UNL     1      15.017 -42.125 -11.290  1.00  0.00     0.062 C 
HETATM   26  O5  UNL     1      16.354 -41.739 -11.294  1.00  0.00    -0.372 OA
HETATM   27  C18 UNL     1      17.093 -41.376 -13.590  1.00  0.00     0.175 C 
HETATM   28  C16 UNL     1      14.029 -41.036 -11.039  1.00  0.00     0.046 C 
HETATM   29  C17 UNL     1      14.726 -43.312 -10.376  1.00  0.00     0.046 C 
BRANCH  27  30
HETATM   30  O6  UNL     1      17.775 -42.081 -14.587  1.00  0.00    -0.313 OA
BRANCH  30  31
HETATM   31  C19 UNL     1      19.177 -42.041 -14.644  1.00  0.00     0.255 C 
HETATM   32  C20 UNL     1      19.933 -40.848 -14.188  1.00  0.00     0.126 C 
HETATM   33  O7  UNL     1      19.798 -43.032 -15.086  1.00  0.00    -0.266 OA
ENDBRANCH  30  31
ENDBRANCH  27  30
ENDBRANCH   3  20
TORSDOF 9
ENDMDL
MODEL 4
REMARK VINA RESULT: -7.238506878      1.716      2.620
REMARK  9 active torsions:
REMARK  status: ('A' for Active; 'I' for Inactive)
REMARK    1  A    between atoms: C2_2  and  C3_3 
REMARK    2  A    between atoms: C3_3  and  C4_4 
REMARK    3  A    between atoms: C5_5  and  O1_6 
REMARK    4  A    between atoms: C7_9  and  O2_10 
REMARK    5  A    between atoms: C8_12  and  O3_13 
REMARK    6  A    between atoms: C9_15  and  N1_16 
REMARK       I    between atoms: N1_16  and  C10_18 
REMARK    7  A    between atoms: C10_18  and  C11_20 
REMARK    8  A    between atoms: C18_29  and  O6_30 
REMARK    9  A    between atoms: O6_30  and  C19_31 
ROOT
HETATM    1  N1  UNL     1      17.027 -39.468 -16.279  1.00  0.00    -0.353 N 
ATOM      2  H1  UNL     1      17.071 -38.924 -15.418  1.00  0.00     0.163 HD
HETATM    3  C10 UNL     1      16.736 -40.844 -16.192  1.00  0.00     0.226 C 
HETATM    4  O4  UNL     1      16.679 -41.519 -17.236  1.00  0.00    -0.273 OA
ENDROOT
BRANCH   1   5
HETATM    5  C9  UNL     1      17.265 -38.793 -17.538  1.00  0.00     0.122 C 
HETATM    6  C4  UNL     1      18.718 -38.409 -17.586  1.00  0.00     0.043 C 
HETATM    7  C5  UNL     1      18.966 -37.647 -18.874  1.00  0.00     0.127 C 
HETATM    8  C6  UNL     1      18.171 -36.369 -18.793  1.00  0.00     0.066 C 
HETATM    9  C7  UNL     1      16.695 -36.671 -18.745  1.00  0.00     0.151 C 
HETATM   10  C8  UNL     1      16.334 -37.633 -17.648  1.00  0.00     0.170 C 
BRANCH   6  11
HETATM   11  C3  UNL     1      19.200 -37.656 -16.381  1.00  0.00     0.035 C 
BRANCH  11  12
HETATM   12  C2  UNL     1      20.680 -37.766 -16.349  1.00  0.00    -0.036 C 
HETATM   13  C1  UNL     1      21.354 -38.348 -15.384  1.00  0.00     0.007 C 
ENDBRANCH  11  12
ENDBRANCH   6  11
BRANCH   7  14
HETATM   14  O1  UNL     1      18.465 -38.404 -19.916  1.00  0.00    -0.395 OA
ATOM     15  H1  UNL     1      18.796 -38.036 -20.726  1.00  0.00     0.210 HD
ENDBRANCH   7  14
BRANCH   9  16
HETATM   16  O2  UNL     1      16.313 -37.118 -20.000  1.00  0.00    -0.393 OA
ATOM     17  H2  UNL     1      16.885 -37.838 -20.238  1.00  0.00     0.210 HD
ENDBRANCH   9  16
BRANCH  10  18
HETATM   18  O3  UNL     1      16.201 -37.005 -16.414  1.00  0.00    -0.391 OA
ATOM     19  H3  UNL     1      15.937 -36.096 -16.496  1.00  0.00     0.210 HD
ENDBRANCH  10  18
ENDBRANCH   1   5
BRANCH   3  20
HETATM   20  C11 UNL     1      16.506 -41.461 -14.882  1.00  0.00     0.129 C 
HETATM   21  C12 UNL     1      15.498 -40.674 -14.061  1.00  0.00     0.107 C 
HETATM   22 CL1  UNL     1      14.319 -39.847 -15.083  1.00  0.00    -0.123 Cl
HETATM   23  C13 UNL     1      14.796 -41.669 -13.193  1.00  0.00     0.070 C 
HETATM   24  C14 UNL     1      15.198 -43.051 -13.639  1.00  0.00     0.161 C 
HETATM   25  C15 UNL     1      15.439 -42.013 -11.889  1.00  0.00     0.062 C 
HETATM   26  O5  UNL     1      15.939 -43.168 -12.482  1.00  0.00    -0.372 OA
HETATM   27  C18 UNL     1      16.038 -42.868 -14.900  1.00  0.00     0.175 C 
HETATM   28  C16 UNL     1      16.459 -41.065 -11.353  1.00  0.00     0.046 C 
HETATM   29  C17 UNL     1      14.372 -42.281 -10.831  1.00  0.00     0.046 C 
BRANCH  27  30
HETATM   30  O6  UNL     1      15.263 -43.187 -16.021  1.00  0.00    -0.313 OA
BRANCH  30  31
HETATM   31  C19 UNL     1      15.327 -44.473 -16.578  1.00  0.00     0.255 C 
HETATM   32  C20 UNL     1      16.627 -45.102 -16.918  1.00  0.00     0.126 C 
HETATM   33  O7  UNL     1      14.265 -45.100 -16.790  1.00  0.00    -0.266 OA
ENDBRANCH  30  31
ENDBRANCH  27  30
ENDBRANCH   3  20
TORSDOF 9
ENDMDL
MODEL 5
REMARK VINA RESULT: -6.934193414      1.894      2.912
REMARK  9 active torsions:
REMARK  status: ('A' for Active; 'I' for Inactive)
REMARK    1  A    between atoms: C2_2  and  C3_3 
REMARK    2  A    between atoms: C3_3  and  C4_4 
REMARK    3  A    between atoms: C5_5  and  O1_6 
REMARK    4  A    between atoms: C7_9  and  O2_10 
REMARK    5  A    between atoms: C8_12  and  O3_13 
REMARK    6  A    between atoms: C9_15  and  N1_16 
REMARK       I    between atoms: N1_16  and  C10_18 
REMARK    7  A    between atoms: C10_18  and  C11_20 
REMARK    8  A    between atoms: C18_29  and  O6_30 
REMARK    9  A    between atoms: O6_30  and  C19_31 
ROOT
HETATM    1  N1  UNL     1      15.907 -39.331 -15.830  1.00  0.00    -0.353 N 
ATOM      2  H1  UNL     1      16.518 -38.922 -15.123  1.00  0.00     0.163 HD
HETATM    3  C10 UNL     1      14.893 -40.215 -15.412  1.00  0.00     0.226 C 
HETATM    4  O4  UNL     1      14.141 -40.721 -16.265  1.00  0.00    -0.273 OA
ENDROOT
BRANCH   1   5
HETATM    5  C9  UNL     1      16.119 -38.977 -17.217  1.00  0.00     0.122 C 
HETATM    6  C4  UNL     1      17.596 -38.785 -17.422  1.00  0.00     0.043 C 
HETATM    7  C5  UNL     1      17.826 -38.354 -18.858  1.00  0.00     0.127 C 
HETATM    8  C6  UNL     1      17.174 -37.004 -19.026  1.00  0.00     0.066 C 
HETATM    9  C7  UNL     1      15.682 -37.115 -18.838  1.00  0.00     0.151 C 
HETATM   10  C8  UNL     1      15.306 -37.768 -17.537  1.00  0.00     0.170 C 
BRANCH   6  11
HETATM   11  C3  UNL     1      18.241 -37.850 -16.441  1.00  0.00     0.035 C 
BRANCH  11  12
HETATM   12  C2  UNL     1      19.698 -37.841 -16.724  1.00  0.00    -0.036 C 
HETATM   13  C1  UNL     1      20.627 -37.960 -15.805  1.00  0.00     0.007 C 
ENDBRANCH  11  12
ENDBRANCH   6  11
BRANCH   7  14
HETATM   14  O1  UNL     1      17.174 -39.254 -19.678  1.00  0.00    -0.395 OA
ATOM     15  H1  UNL     1      17.802 -39.575 -20.314  1.00  0.00     0.210 HD
ENDBRANCH   7  14
BRANCH   9  16
HETATM   16  O2  UNL     1      15.164 -37.776 -19.942  1.00  0.00    -0.393 OA
ATOM     17  H2  UNL     1      14.291 -37.436 -20.099  1.00  0.00     0.210 HD
ENDBRANCH   9  16
BRANCH  10  18
HETATM   18  O3  UNL     1      15.330 -36.876 -16.470  1.00  0.00    -0.391 OA
ATOM     19  H3  UNL     1      14.860 -37.205 -15.712  1.00  0.00     0.210 HD
ENDBRANCH  10  18
ENDBRANCH   1   5
BRANCH   3  20
HETATM   20  C11 UNL     1      14.736 -40.529 -13.988  1.00  0.00     0.129 C 
HETATM   21  C12 UNL     1      13.956 -41.816 -13.780  1.00  0.00     0.107 C 
HETATM   22 CL1  UNL     1      14.191 -42.951 -15.113  1.00  0.00    -0.123 Cl
HETATM   23  C13 UNL     1      14.472 -42.420 -12.513  1.00  0.00     0.070 C 
HETATM   24  C14 UNL     1      15.693 -41.646 -12.085  1.00  0.00     0.161 C 
HETATM   25  C15 UNL     1      13.854 -41.956 -11.234  1.00  0.00     0.062 C 
HETATM   26  O5  UNL     1      14.947 -41.114 -11.054  1.00  0.00    -0.372 OA
HETATM   27  C18 UNL     1      15.992 -40.659 -13.210  1.00  0.00     0.175 C 
HETATM   28  C16 UNL     1      12.524 -41.285 -11.315  1.00  0.00     0.046 C 
HETATM   29  C17 UNL     1      13.797 -43.106 -10.232  1.00  0.00     0.046 C 
BRANCH  27  30
HETATM   30  O6  UNL     1      17.072 -41.133 -13.964  1.00  0.00    -0.313 OA
BRANCH  30  31
HETATM   31  C19 UNL     1      18.304 -40.463 -13.926  1.00  0.00     0.255 C 
HETATM   32  C20 UNL     1      19.579 -41.180 -14.177  1.00  0.00     0.126 C 
HETATM   33  O7  UNL     1      18.326 -39.237 -13.679  1.00  0.00    -0.266 OA
ENDBRANCH  30  31
ENDBRANCH  27  30
ENDBRANCH   3  20
TORSDOF 9
ENDMDL
