MODEL 1
REMARK VINA RESULT: -9.138506593      0.000      0.000
REMARK  8 active torsions:
REMARK  status: ('A' for Active; 'I' for Inactive)
REMARK    1  A    between atoms: C2_2  and  N1_3 
REMARK    2  A    between atoms: N1_3  and  C3_5 
REMARK    3  A    between atoms: C6_13  and  N4_14 
REMARK    4  A    between atoms: N5_17  and  C7_18 
REMARK    5  A    between atoms: N6_20  and  C9_21 
REMARK    6  A    between atoms: C14_26  and  C15_27 
REMARK    7  A    between atoms: C15_27  and  N7_28 
REMARK       I    between atoms: N7_28  and  C16_30 
REMARK    8  A    between atoms: C16_30  and  C17_32 
ROOT
HETATM    1  C3  UNL     1      11.812 -36.761 -16.012  1.00  0.00     0.682 A 
HETATM    2  N2  UNL     1      11.141 -35.999 -16.898  1.00  0.00    -0.154 N 
ATOM      3  H2  UNL     1      10.217 -35.639 -16.657  1.00  0.00     0.187 HD
HETATM    4  C4  UNL     1      11.679 -35.707 -18.105  1.00  0.00     0.290 A 
HETATM    5  O1  UNL     1      11.076 -35.000 -18.947  1.00  0.00    -0.265 OA
HETATM    6  C5  UNL     1      12.926 -36.218 -18.374  1.00  0.00     0.163 A 
HETATM    7  N3  UNL     1      13.728 -36.124 -19.448  1.00  0.00    -0.180 N 
ATOM      8  H3  UNL     1      13.511 -35.611 -20.302  1.00  0.00     0.184 HD
HETATM    9  C6  UNL     1      14.846 -36.802 -19.224  1.00  0.00     0.712 A 
HETATM   10  N5  UNL     1      14.811 -37.361 -18.000  1.00  0.00    -0.134 N 
HETATM   11  C19 UNL     1      13.617 -37.000 -17.469  1.00  0.00     0.174 A 
HETATM   12  N8  UNL     1      13.037 -37.253 -16.302  1.00  0.00    -0.173 N 
ATOM     13  H8  UNL     1      13.524 -37.827 -15.614  1.00  0.00     0.186 HD
ENDROOT
BRANCH  10  14
HETATM   14  C7  UNL     1      15.813 -38.182 -17.349  1.00  0.00     0.276 C 
HETATM   15  C8  UNL     1      15.201 -39.265 -16.487  1.00  0.00     0.328 C 
HETATM   16  N6  UNL     1      16.195 -39.710 -15.535  1.00  0.00     0.103 N 
HETATM   17  C13 UNL     1      17.543 -39.416 -15.961  1.00  0.00     0.307 C 
HETATM   18  C14 UNL     1      17.740 -37.935 -16.116  1.00  0.00     0.170 C 
HETATM   19  O3  UNL     1      16.531 -37.351 -16.490  1.00  0.00    -0.355 OA
BRANCH  16  20
HETATM   20  C9  UNL     1      16.013 -41.084 -15.159  1.00  0.00     0.149 C 
HETATM   21  C10 UNL     1      14.639 -41.363 -14.647  1.00  0.00     0.048 C 
HETATM   22  C11 UNL     1      16.249 -41.943 -16.392  1.00  0.00     0.048 C 
HETATM   23  C12 UNL     1      17.008 -41.534 -14.107  1.00  0.00     0.048 C 
ENDBRANCH  16  20
BRANCH  18  24
HETATM   24  C15 UNL     1      18.830 -37.608 -17.111  1.00  0.00     0.156 C 
BRANCH  24  25
HETATM   25  N7  UNL     1      20.131 -37.641 -16.497  1.00  0.00    -0.359 N 
HETATM   26  C16 UNL     1      21.324 -37.916 -17.190  1.00  0.00     0.217 C 
HETATM   27  O2  UNL     1      21.377 -38.167 -18.441  1.00  0.00    -0.274 OA
ATOM     28  H7  UNL     1      20.192 -37.453 -15.496  1.00  0.00     0.162 HD
BRANCH  26  29
HETATM   29  C17 UNL     1      22.603 -37.909 -16.404  1.00  0.00     0.098 C 
HETATM   30  C18 UNL     1      22.375 -38.177 -14.953  1.00  0.00     0.014 C 
ENDBRANCH  26  29
ENDBRANCH  24  25
ENDBRANCH  18  24
ENDBRANCH  10  14
BRANCH   9  31
HETATM   31  N4  UNL     1      15.820 -36.907 -20.062  1.00  0.00    -0.054 N 
HETATM   32  F1  UNL     1      16.197 -38.057 -20.615  1.00  0.00    -0.086 F 
ATOM     33  H4  UNL     1      16.329 -36.060 -20.315  1.00  0.00     0.218 HD
ENDBRANCH   9  31
BRANCH   1  34
HETATM   34  N1  UNL     1      11.324 -37.049 -14.871  1.00  0.00    -0.226 N 
ATOM     35  H1  UNL     1      11.181 -36.276 -14.221  1.00  0.00     0.177 HD
BRANCH  34  36
HETATM   36  C2  UNL     1      10.955 -38.360 -14.416  1.00  0.00     0.133 C 
HETATM   37  C1  UNL     1      11.832 -38.756 -13.262  1.00  0.00     0.027 C 
ENDBRANCH  34  36
ENDBRANCH   1  34
TORSDOF 8
ENDMDL
MODEL 2
REMARK VINA RESULT: -8.964946975      0.859      1.061
REMARK  8 active torsions:
REMARK  status: ('A' for Active; 'I' for Inactive)
REMARK    1  A    between atoms: C2_2  and  N1_3 
REMARK    2  A    between atoms: N1_3  and  C3_5 
REMARK    3  A    between atoms: C6_13  and  N4_14 
REMARK    4  A    between atoms: N5_17  and  C7_18 
REMARK    5  A    between atoms: N6_20  and  C9_21 
REMARK    6  A    between atoms: C14_26  and  C15_27 
REMARK    7  A    between atoms: C15_27  and  N7_28 
REMARK       I    between atoms: N7_28  and  C16_30 
REMARK    8  A    between atoms: C16_30  and  C17_32 
ROOT
HETATM    1  C3  UNL     1      12.013 -37.295 -15.412  1.00  0.00     0.682 A 
HETATM    2  N2  UNL     1      11.227 -36.509 -16.175  1.00  0.00    -0.154 N 
ATOM      3  H2  UNL     1      10.301 -36.243 -15.840  1.00  0.00     0.187 HD
HETATM    4  C4  UNL     1      11.655 -36.068 -17.381  1.00  0.00     0.290 A 
HETATM    5  O1  UNL     1      10.945 -35.337 -18.111  1.00  0.00    -0.265 OA
HETATM    6  C5  UNL     1      12.912 -36.457 -17.779  1.00  0.00     0.163 A 
HETATM    7  N3  UNL     1      13.626 -36.205 -18.889  1.00  0.00    -0.180 N 
ATOM      8  H3  UNL     1      13.313 -35.636 -19.675  1.00  0.00     0.184 HD
HETATM    9  C6  UNL     1      14.801 -36.814 -18.804  1.00  0.00     0.712 A 
HETATM   10  N5  UNL     1      14.894 -37.482 -17.641  1.00  0.00    -0.134 N 
HETATM   11  C19 UNL     1      13.720 -37.263 -17.000  1.00  0.00     0.174 A 
HETATM   12  N8  UNL     1      13.245 -37.663 -15.827  1.00  0.00    -0.173 N 
ATOM     13  H8  UNL     1      13.818 -38.259 -15.230  1.00  0.00     0.186 HD
ENDROOT
BRANCH  10  14
HETATM   14  C7  UNL     1      15.996 -38.281 -17.138  1.00  0.00     0.276 C 
HETATM   15  C8  UNL     1      15.526 -39.438 -16.283  1.00  0.00     0.328 C 
HETATM   16  N6  UNL     1      16.632 -39.877 -15.459  1.00  0.00     0.103 N 
HETATM   17  C13 UNL     1      17.914 -39.489 -15.997  1.00  0.00     0.307 C 
HETATM   18  C14 UNL     1      18.022 -37.993 -16.086  1.00  0.00     0.170 C 
HETATM   19  O3  UNL     1      16.754 -37.457 -16.307  1.00  0.00    -0.355 OA
BRANCH  16  20
HETATM   20  C9  UNL     1      16.556 -41.277 -15.146  1.00  0.00     0.149 C 
HETATM   21  C10 UNL     1      16.528 -41.537 -13.677  1.00  0.00     0.048 C 
HETATM   22  C11 UNL     1      15.274 -41.825 -15.755  1.00  0.00     0.048 C 
HETATM   23  C12 UNL     1      17.703 -42.068 -15.743  1.00  0.00     0.048 C 
ENDBRANCH  16  20
BRANCH  18  24
HETATM   24  C15 UNL     1      18.989 -37.556 -17.162  1.00  0.00     0.156 C 
BRANCH  24  25
HETATM   25  N7  UNL     1      20.344 -37.542 -16.678  1.00  0.00    -0.359 N 
HETATM   26  C16 UNL     1      21.463 -37.901 -17.452  1.00  0.00     0.217 C 
HETATM   27  O2  UNL     1      21.392 -38.279 -18.670  1.00  0.00    -0.274 OA
ATOM     28  H7  UNL     1      20.504 -37.254 -15.712  1.00  0.00     0.162 HD
BRANCH  26  29
HETATM   29  C17 UNL     1      22.813 -37.829 -16.800  1.00  0.00     0.098 C 
HETATM   30  C18 UNL     1      23.897 -37.520 -17.779  1.00  0.00     0.014 C 
ENDBRANCH  26  29
ENDBRANCH  24  25
ENDBRANCH  18  24
ENDBRANCH  10  14
BRANCH   9  31
HETATM   31  N4  UNL     1      15.717 -36.768 -19.711  1.00  0.00    -0.054 N 
HETATM   32  F1  UNL     1      16.940 -36.288 -19.500  1.00  0.00    -0.086 F 
ATOM     33  H4  UNL     1      15.491 -37.120 -20.641  1.00  0.00     0.218 HD
ENDBRANCH   9  31
BRANCH   1  34
HETATM   34  N1  UNL     1      11.629 -37.720 -14.274  1.00  0.00    -0.226 N 
ATOM     35  H1  UNL     1      11.548 -37.032 -13.526  1.00  0.00     0.177 HD
BRANCH  34  36
HETATM   36  C2  UNL     1      11.301 -39.079 -13.947  1.00  0.00     0.133 C 
HETATM   37  C1  UNL     1      10.930 -39.171 -12.493  1.00  0.00     0.027 C 
ENDBRANCH  34  36
ENDBRANCH   1  34
TORSDOF 8
ENDMDL
MODEL 3
REMARK VINA RESULT: -8.870174959      1.079      1.445
REMARK  8 active torsions:
REMARK  status: ('A' for Active; 'I' for Inactive)
REMARK    1  A    between atoms: C2_2  and  N1_3 
REMARK    2  A    between atoms: N1_3  and  C3_5 
REMARK    3  A    between atoms: C6_13  and  N4_14 
REMARK    4  A    between atoms: N5_17  and  C7_18 
REMARK    5  A    between atoms: N6_20  and  C9_21 
REMARK    6  A    between atoms: C14_26  and  C15_27 
REMARK    7  A    between atoms: C15_27  and  N7_28 
REMARK       I    between atoms: N7_28  and  C16_30 
REMARK    8  A    between atoms: C16_30  and  C17_32 
ROOT
HETATM    1  C3  UNL     1      12.248 -37.750 -14.774  1.00  0.00     0.682 A 
HETATM    2  N2  UNL     1      11.367 -36.959 -15.417  1.00  0.00    -0.154 N 
ATOM      3  H2  UNL     1      10.473 -36.738 -14.978  1.00  0.00     0.187 HD
HETATM    4  C4  UNL     1      11.656 -36.453 -16.638  1.00  0.00     0.290 A 
HETATM    5  O1  UNL     1      10.855 -35.714 -17.258  1.00  0.00    -0.265 OA
HETATM    6  C5  UNL     1      12.876 -36.783 -17.179  1.00  0.00     0.163 A 
HETATM    7  N3  UNL     1      13.464 -36.461 -18.343  1.00  0.00    -0.180 N 
ATOM      8  H3  UNL     1      13.057 -35.869 -19.066  1.00  0.00     0.184 HD
HETATM    9  C6  UNL     1      14.659 -37.034 -18.406  1.00  0.00     0.712 A 
HETATM   10  N5  UNL     1      14.889 -37.748 -17.289  1.00  0.00    -0.134 N 
HETATM   11  C19 UNL     1      13.781 -37.595 -16.523  1.00  0.00     0.174 A 
HETATM   12  N8  UNL     1      13.441 -38.060 -15.328  1.00  0.00    -0.173 N 
ATOM     13  H8  UNL     1      14.089 -38.662 -14.821  1.00  0.00     0.186 HD
ENDROOT
BRANCH  10  14
HETATM   14  C7  UNL     1      16.059 -38.531 -16.938  1.00  0.00     0.276 C 
HETATM   15  C8  UNL     1      15.699 -39.816 -16.223  1.00  0.00     0.328 C 
HETATM   16  N6  UNL     1      16.867 -40.284 -15.507  1.00  0.00     0.103 N 
HETATM   17  C13 UNL     1      18.096 -39.748 -16.040  1.00  0.00     0.307 C 
HETATM   18  C14 UNL     1      18.112 -38.249 -15.938  1.00  0.00     0.170 C 
HETATM   19  O3  UNL     1      16.806 -37.772 -16.038  1.00  0.00    -0.355 OA
BRANCH  16  20
HETATM   20  C9  UNL     1      16.888 -41.714 -15.375  1.00  0.00     0.149 C 
HETATM   21  C10 UNL     1      16.417 -42.412 -16.608  1.00  0.00     0.048 C 
HETATM   22  C11 UNL     1      18.323 -42.139 -15.102  1.00  0.00     0.048 C 
HETATM   23  C12 UNL     1      16.052 -42.201 -14.209  1.00  0.00     0.048 C 
ENDBRANCH  16  20
BRANCH  18  24
HETATM   24  C15 UNL     1      19.000 -37.617 -16.986  1.00  0.00     0.156 C 
BRANCH  24  25
HETATM   25  N7  UNL     1      20.376 -37.595 -16.565  1.00  0.00    -0.359 N 
HETATM   26  C16 UNL     1      21.461 -37.920 -17.398  1.00  0.00     0.217 C 
HETATM   27  O2  UNL     1      21.338 -38.273 -18.620  1.00  0.00    -0.274 OA
ATOM     28  H7  UNL     1      20.577 -37.326 -15.602  1.00  0.00     0.162 HD
BRANCH  26  29
HETATM   29  C17 UNL     1      22.840 -37.844 -16.809  1.00  0.00     0.098 C 
HETATM   30  C18 UNL     1      23.877 -37.531 -17.837  1.00  0.00     0.014 C 
ENDBRANCH  26  29
ENDBRANCH  24  25
ENDBRANCH  18  24
ENDBRANCH  10  14
BRANCH   9  31
HETATM   31  N4  UNL     1      15.475 -36.920 -19.397  1.00  0.00    -0.054 N 
HETATM   32  F1  UNL     1      15.133 -37.142 -20.664  1.00  0.00    -0.086 F 
ATOM     33  H4  UNL     1      16.437 -36.644 -19.200  1.00  0.00     0.218 HD
ENDBRANCH   9  31
BRANCH   1  34
HETATM   34  N1  UNL     1      11.995 -38.237 -13.624  1.00  0.00    -0.226 N 
ATOM     35  H1  UNL     1      11.482 -37.642 -12.973  1.00  0.00     0.177 HD
BRANCH  34  36
HETATM   36  C2  UNL     1      12.367 -39.544 -13.159  1.00  0.00     0.133 C 
HETATM   37  C1  UNL     1      11.128 -40.357 -12.905  1.00  0.00     0.027 C 
ENDBRANCH  34  36
ENDBRANCH   1  34
TORSDOF 8
ENDMDL
MODEL 4
REMARK VINA RESULT: -8.636389400      1.951      6.934
REMARK  8 active torsions:
REMARK  status: ('A' for Active; 'I' for Inactive)
REMARK    1  A    between atoms: C2_2  and  N1_3 
REMARK    2  A    between atoms: N1_3  and  C3_5 
REMARK    3  A    between atoms: C6_13  and  N4_14 
REMARK    4  A    between atoms: N5_17  and  C7_18 
REMARK    5  A    between atoms: N6_20  and  C9_21 
REMARK    6  A    between atoms: C14_26  and  C15_27 
REMARK    7  A    between atoms: C15_27  and  N7_28 
REMARK       I    between atoms: N7_28  and  C16_30 
REMARK    8  A    between atoms: C16_30  and  C17_32 
ROOT
HETATM    1  C3  UNL     1      18.949 -38.378 -16.163  1.00  0.00     0.682 A 
HETATM    2  N2  UNL     1      19.611 -38.176 -17.319  1.00  0.00    -0.154 N 
ATOM      3  H2  UNL     1      20.625 -38.284 -17.346  1.00  0.00     0.187 HD
HETATM    4  C4  UNL     1      18.945 -37.829 -18.445  1.00  0.00     0.290 A 
HETATM    5  O1  UNL     1      19.536 -37.635 -19.533  1.00  0.00    -0.265 OA
HETATM    6  C5  UNL     1      17.580 -37.699 -18.349  1.00  0.00     0.163 A 
HETATM    7  N3  UNL     1      16.638 -37.376 -19.250  1.00  0.00    -0.180 N 
ATOM      8  H3  UNL     1      16.811 -37.159 -20.231  1.00  0.00     0.184 HD
HETATM    9  C6  UNL     1      15.447 -37.383 -18.665  1.00  0.00     0.712 A 
HETATM   10  N5  UNL     1      15.572 -37.709 -17.366  1.00  0.00    -0.134 N 
HETATM   11  C19 UNL     1      16.898 -37.906 -17.165  1.00  0.00     0.174 A 
HETATM   12  N8  UNL     1      17.606 -38.243 -16.095  1.00  0.00    -0.173 N 
ATOM     13  H8  UNL     1      17.130 -38.402 -15.207  1.00  0.00     0.186 HD
ENDROOT
BRANCH  10  14
HETATM   14  C7  UNL     1      14.535 -37.833 -16.358  1.00  0.00     0.276 C 
HETATM   15  C8  UNL     1      14.625 -39.139 -15.598  1.00  0.00     0.328 C 
HETATM   16  N6  UNL     1      13.341 -39.399 -14.982  1.00  0.00     0.103 N 
HETATM   17  C13 UNL     1      12.549 -38.203 -14.822  1.00  0.00     0.307 C 
HETATM   18  C14 UNL     1      12.258 -37.576 -16.157  1.00  0.00     0.170 C 
HETATM   19  O3  UNL     1      13.312 -37.848 -17.028  1.00  0.00    -0.355 OA
BRANCH  16  20
HETATM   20  C9  UNL     1      13.464 -40.157 -13.767  1.00  0.00     0.149 C 
HETATM   21  C10 UNL     1      14.885 -40.379 -13.369  1.00  0.00     0.048 C 
HETATM   22  C11 UNL     1      12.770 -39.381 -12.658  1.00  0.00     0.048 C 
HETATM   23  C12 UNL     1      12.782 -41.508 -13.857  1.00  0.00     0.048 C 
ENDBRANCH  16  20
BRANCH  18  24
HETATM   24  C15 UNL     1      12.017 -36.088 -16.046  1.00  0.00     0.156 C 
BRANCH  24  25
HETATM   25  N7  UNL     1      11.904 -35.476 -17.343  1.00  0.00    -0.359 N 
HETATM   26  C16 UNL     1      10.893 -34.564 -17.700  1.00  0.00     0.217 C 
HETATM   27  O2  UNL     1       9.966 -34.186 -16.908  1.00  0.00    -0.274 OA
ATOM     28  H7  UNL     1      12.600 -35.717 -18.048  1.00  0.00     0.162 HD
BRANCH  26  29
HETATM   29  C17 UNL     1      10.916 -34.010 -19.095  1.00  0.00     0.098 C 
HETATM   30  C18 UNL     1      10.687 -35.066 -20.126  1.00  0.00     0.014 C 
ENDBRANCH  26  29
ENDBRANCH  24  25
ENDBRANCH  18  24
ENDBRANCH  10  14
BRANCH   9  31
HETATM   31  N4  UNL     1      14.336 -37.114 -19.262  1.00  0.00    -0.054 N 
HETATM   32  F1  UNL     1      14.012 -35.902 -19.706  1.00  0.00    -0.086 F 
ATOM     33  H4  UNL     1      13.669 -37.872 -19.401  1.00  0.00     0.218 HD
ENDBRANCH   9  31
BRANCH   1  34
HETATM   34  N1  UNL     1      19.557 -38.704 -15.092  1.00  0.00    -0.226 N 
ATOM     35  H1  UNL     1      19.051 -38.580 -14.215  1.00  0.00     0.177 HD
BRANCH  34  36
HETATM   36  C2  UNL     1      20.891 -39.231 -15.005  1.00  0.00     0.133 C 
HETATM   37  C1  UNL     1      21.860 -38.107 -14.763  1.00  0.00     0.027 C 
ENDBRANCH  34  36
ENDBRANCH   1  34
TORSDOF 8
ENDMDL
MODEL 5
REMARK VINA RESULT: -8.437776462      3.257      6.522
REMARK  8 active torsions:
REMARK  status: ('A' for Active; 'I' for Inactive)
REMARK    1  A    between atoms: C2_2  and  N1_3 
REMARK    2  A    between atoms: N1_3  and  C3_5 
REMARK    3  A    between atoms: C6_13  and  N4_14 
REMARK    4  A    between atoms: N5_17  and  C7_18 
REMARK    5  A    between atoms: N6_20  and  C9_21 
REMARK    6  A    between atoms: C14_26  and  C15_27 
REMARK    7  A    between atoms: C15_27  and  N7_28 
REMARK       I    between atoms: N7_28  and  C16_30 
REMARK    8  A    between atoms: C16_30  and  C17_32 
ROOT
HETATM    1  C3  UNL     1      14.578 -36.564 -19.154  1.00  0.00     0.682 A 
HETATM    2  N2  UNL     1      13.611 -35.722 -19.567  1.00  0.00    -0.154 N 
ATOM      3  H2  UNL     1      13.739 -35.188 -20.427  1.00  0.00     0.187 HD
HETATM    4  C4  UNL     1      12.470 -35.578 -18.854  1.00  0.00     0.290 A 
HETATM    5  O1  UNL     1      11.554 -34.801 -19.215  1.00  0.00    -0.265 OA
HETATM    6  C5  UNL     1      12.351 -36.324 -17.706  1.00  0.00     0.163 A 
HETATM    7  N3  UNL     1      11.376 -36.419 -16.787  1.00  0.00    -0.180 N 
ATOM      8  H3  UNL     1      10.496 -35.904 -16.806  1.00  0.00     0.184 HD
HETATM    9  C6  UNL     1      11.735 -37.287 -15.851  1.00  0.00     0.712 A 
HETATM   10  N5  UNL     1      12.954 -37.786 -16.125  1.00  0.00    -0.134 N 
HETATM   11  C19 UNL     1      13.341 -37.188 -17.279  1.00  0.00     0.174 A 
HETATM   12  N8  UNL     1      14.437 -37.286 -18.021  1.00  0.00    -0.173 N 
ATOM     13  H8  UNL     1      15.185 -37.917 -17.730  1.00  0.00     0.186 HD
ENDROOT
BRANCH  10  14
HETATM   14  C7  UNL     1      13.727 -38.757 -15.374  1.00  0.00     0.276 C 
HETATM   15  C8  UNL     1      14.701 -39.517 -16.247  1.00  0.00     0.328 C 
HETATM   16  N6  UNL     1      15.069 -40.740 -15.565  1.00  0.00     0.103 N 
HETATM   17  C13 UNL     1      14.851 -40.668 -14.141  1.00  0.00     0.307 C 
HETATM   18  C14 UNL     1      13.399 -40.436 -13.835  1.00  0.00     0.170 C 
HETATM   19  O3  UNL     1      12.829 -39.696 -14.871  1.00  0.00    -0.355 OA
BRANCH  16  20
HETATM   20  C9  UNL     1      16.393 -41.178 -15.909  1.00  0.00     0.149 C 
HETATM   21  C10 UNL     1      16.398 -42.491 -16.621  1.00  0.00     0.048 C 
HETATM   22  C11 UNL     1      17.010 -40.133 -16.826  1.00  0.00     0.048 C 
HETATM   23  C12 UNL     1      17.298 -41.295 -14.698  1.00  0.00     0.048 C 
ENDBRANCH  16  20
BRANCH  18  24
HETATM   24  C15 UNL     1      13.200 -39.746 -12.505  1.00  0.00     0.156 C 
BRANCH  24  25
HETATM   25  N7  UNL     1      12.218 -40.426 -11.702  1.00  0.00    -0.359 N 
HETATM   26  C16 UNL     1      10.931 -39.924 -11.438  1.00  0.00     0.217 C 
HETATM   27  O2  UNL     1      10.498 -38.809 -11.885  1.00  0.00    -0.274 OA
ATOM     28  H7  UNL     1      12.472 -41.327 -11.298  1.00  0.00     0.162 HD
BRANCH  26  29
HETATM   29  C17 UNL     1      10.021 -40.757 -10.583  1.00  0.00     0.098 C 
HETATM   30  C18 UNL     1       9.734 -40.111  -9.268  1.00  0.00     0.014 C 
ENDBRANCH  26  29
ENDBRANCH  24  25
ENDBRANCH  18  24
ENDBRANCH  10  14
BRANCH   9  31
HETATM   31  N4  UNL     1      11.015 -37.601 -14.828  1.00  0.00    -0.054 N 
HETATM   32  F1  UNL     1      10.070 -38.538 -14.851  1.00  0.00    -0.086 F 
ATOM     33  H4  UNL     1      11.180 -37.105 -13.953  1.00  0.00     0.218 HD
ENDBRANCH   9  31
BRANCH   1  34
HETATM   34  N1  UNL     1      15.660 -36.715 -19.810  1.00  0.00    -0.226 N 
ATOM     35  H1  UNL     1      15.710 -36.272 -20.728  1.00  0.00     0.177 HD
BRANCH  34  36
HETATM   36  C2  UNL     1      16.815 -37.450 -19.378  1.00  0.00     0.133 C 
HETATM   37  C1  UNL     1      17.813 -36.504 -18.769  1.00  0.00     0.027 C 
ENDBRANCH  34  36
ENDBRANCH   1  34
TORSDOF 8
ENDMDL
