MODEL 1
REMARK VINA RESULT: -7.315702763      0.000      0.000
REMARK  12 active torsions:
REMARK  status: ('A' for Active; 'I' for Inactive)
REMARK    1  A    between atoms: C2_2  and  C4_4 
REMARK    2  A    between atoms: C2_2  and  N1_23 
REMARK    3  A    between atoms: C4_4  and  C5_5 
REMARK    4  A    between atoms: C5_5  and  O1_6 
REMARK    5  A    between atoms: C5_5  and  C6_8 
REMARK    6  A    between atoms: C7_9  and  C8_10 
REMARK    7  A    between atoms: C8_10  and  O2_11 
REMARK    8  A    between atoms: C8_10  and  C9_13 
REMARK    9  A    between atoms: C10_14  and  C11_15 
REMARK   10  A    between atoms: C11_15  and  O3_16 
REMARK   11  A    between atoms: O3_16  and  C12_17 
REMARK   12  A    between atoms: N1_23  and  C18_25 
ROOT
HETATM    1  C5  UNL     1       3.005 -25.118 -14.846  1.00  0.00     0.199 C 
ENDROOT
BRANCH   1   2
HETATM    2  C4  UNL     1       3.813 -25.092 -13.610  1.00  0.00     0.075 C 
BRANCH   2   3
HETATM    3  C2  UNL     1       3.809 -26.275 -12.724  1.00  0.00     0.043 C 
HETATM    4  C1  UNL     1       2.478 -27.016 -13.017  1.00  0.00     0.039 C 
HETATM    5  C3  UNL     1       3.873 -25.902 -11.261  1.00  0.00     0.039 C 
BRANCH   3   6
HETATM    6  N1  UNL     1       4.902 -27.152 -12.997  1.00  0.00    -0.218 N 
ATOM      7  H1  UNL     1       4.689 -28.112 -13.268  1.00  0.00     0.178 HD
BRANCH   6   8
HETATM    8  C18 UNL     1       6.273 -26.769 -12.916  1.00  0.00     0.670 C 
HETATM    9  N2  UNL     1       6.944 -27.068 -11.855  1.00  0.00    -0.227 N 
HETATM   10  C19 UNL     1       8.336 -26.658 -11.816  1.00  0.00     0.139 C 
ATOM     11  H2  UNL     1       6.516 -27.570 -11.077  1.00  0.00     0.177 HD
HETATM   12  C20 UNL     1       9.042 -26.913 -13.128  1.00  0.00     0.040 C 
HETATM   13  C21 UNL     1       8.324 -26.275 -14.297  1.00  0.00     0.139 C 
HETATM   14  N3  UNL     1       6.922 -26.078 -13.956  1.00  0.00    -0.227 N 
ATOM     15  H3  UNL     1       6.382 -25.405 -14.499  1.00  0.00     0.177 HD
ENDBRANCH   6   8
ENDBRANCH   3   6
ENDBRANCH   2   3
ENDBRANCH   1   2
BRANCH   1  16
HETATM   16  O1  UNL     1       2.448 -23.896 -15.140  1.00  0.00    -0.383 OA
ATOM     17  H1  UNL     1       1.802 -23.624 -14.499  1.00  0.00     0.211 HD
ENDBRANCH   1  16
BRANCH   1  18
HETATM   18  C6  UNL     1       3.920 -25.428 -15.982  1.00  0.00    -0.071 C 
HETATM   19  C7  UNL     1       4.647 -25.694 -16.906  1.00  0.00    -0.059 C 
BRANCH  19  20
HETATM   20  C8  UNL     1       5.533 -26.040 -18.023  1.00  0.00     0.277 C 
BRANCH  20  21
HETATM   21  O2  UNL     1       6.768 -26.443 -17.582  1.00  0.00    -0.372 OA
ATOM     22  H2  UNL     1       6.805 -27.384 -17.460  1.00  0.00     0.212 HD
ENDBRANCH  20  21
BRANCH  20  23
HETATM   23  C9  UNL     1       4.826 -27.093 -18.784  1.00  0.00    -0.060 C 
HETATM   24  C10 UNL     1       4.269 -27.961 -19.409  1.00  0.00    -0.077 C 
BRANCH  24  25
HETATM   25  C11 UNL     1       3.612 -29.029 -20.165  1.00  0.00     0.261 C 
BRANCH  25  26
HETATM   26  O3  UNL     1       3.224 -30.027 -19.275  1.00  0.00    -0.374 OA
BRANCH  26  27
HETATM   27  C12 UNL     1       1.960 -29.821 -18.760  1.00  0.00     0.122 C 
HETATM   28  C13 UNL     1       1.920 -30.467 -17.393  1.00  0.00     0.032 C 
HETATM   29  C14 UNL     1       0.599 -31.135 -17.114  1.00  0.00     0.002 C 
HETATM   30  C15 UNL     1       0.456 -32.287 -18.081  1.00  0.00     0.000 C 
HETATM   31  C16 UNL     1       0.825 -31.903 -19.489  1.00  0.00     0.002 C 
HETATM   32  C17 UNL     1       0.864 -30.389 -19.633  1.00  0.00     0.032 C 
ENDBRANCH  26  27
ENDBRANCH  25  26
ENDBRANCH  24  25
ENDBRANCH  20  23
ENDBRANCH  19  20
ENDBRANCH   1  18
TORSDOF 12
ENDMDL
MODEL 2
REMARK VINA RESULT: -7.042093244      4.664      8.726
REMARK  12 active torsions:
REMARK  status: ('A' for Active; 'I' for Inactive)
REMARK    1  A    between atoms: C2_2  and  C4_4 
REMARK    2  A    between atoms: C2_2  and  N1_23 
REMARK    3  A    between atoms: C4_4  and  C5_5 
REMARK    4  A    between atoms: C5_5  and  O1_6 
REMARK    5  A    between atoms: C5_5  and  C6_8 
REMARK    6  A    between atoms: C7_9  and  C8_10 
REMARK    7  A    between atoms: C8_10  and  O2_11 
REMARK    8  A    between atoms: C8_10  and  C9_13 
REMARK    9  A    between atoms: C10_14  and  C11_15 
REMARK   10  A    between atoms: C11_15  and  O3_16 
REMARK   11  A    between atoms: O3_16  and  C12_17 
REMARK   12  A    between atoms: N1_23  and  C18_25 
ROOT
HETATM    1  C5  UNL     1       3.754 -26.721 -15.025  1.00  0.00     0.199 C 
ENDROOT
BRANCH   1   2
HETATM    2  C4  UNL     1       4.340 -25.508 -15.632  1.00  0.00     0.075 C 
BRANCH   2   3
HETATM    3  C2  UNL     1       3.794 -25.012 -16.913  1.00  0.00     0.043 C 
HETATM    4  C1  UNL     1       3.617 -23.481 -16.732  1.00  0.00     0.039 C 
HETATM    5  C3  UNL     1       2.464 -25.641 -17.257  1.00  0.00     0.039 C 
BRANCH   3   6
HETATM    6  N1  UNL     1       4.684 -25.254 -18.003  1.00  0.00    -0.218 N 
ATOM      7  H1  UNL     1       5.330 -24.510 -18.268  1.00  0.00     0.178 HD
BRANCH   6   8
HETATM    8  C18 UNL     1       4.726 -26.471 -18.745  1.00  0.00     0.670 C 
HETATM    9  N2  UNL     1       5.214 -27.528 -18.187  1.00  0.00    -0.227 N 
HETATM   10  C19 UNL     1       5.237 -28.743 -18.980  1.00  0.00     0.139 C 
ATOM     11  H2  UNL     1       5.569 -27.509 -17.230  1.00  0.00     0.177 HD
HETATM   12  C20 UNL     1       3.952 -28.946 -19.750  1.00  0.00     0.040 C 
HETATM   13  C21 UNL     1       3.604 -27.749 -20.606  1.00  0.00     0.139 C 
HETATM   14  N3  UNL     1       4.250 -26.561 -20.066  1.00  0.00    -0.227 N 
ATOM     15  H3  UNL     1       4.363 -25.753 -20.676  1.00  0.00     0.177 HD
ENDBRANCH   6   8
ENDBRANCH   3   6
ENDBRANCH   2   3
ENDBRANCH   1   2
BRANCH   1  16
HETATM   16  O1  UNL     1       4.518 -27.844 -15.244  1.00  0.00    -0.383 OA
ATOM     17  H1  UNL     1       3.994 -28.632 -15.322  1.00  0.00     0.211 HD
ENDBRANCH   1  16
BRANCH   1  18
HETATM   18  C6  UNL     1       3.737 -26.527 -13.546  1.00  0.00    -0.071 C 
HETATM   19  C7  UNL     1       3.745 -26.367 -12.352  1.00  0.00    -0.059 C 
BRANCH  19  20
HETATM   20  C8  UNL     1       3.770 -26.190 -10.895  1.00  0.00     0.277 C 
BRANCH  20  21
HETATM   21  O2  UNL     1       4.159 -24.921 -10.548  1.00  0.00    -0.372 OA
ATOM     22  H2  UNL     1       3.688 -24.608  -9.785  1.00  0.00     0.212 HD
ENDBRANCH  20  21
BRANCH  20  23
HETATM   23  C9  UNL     1       2.405 -26.517 -10.428  1.00  0.00    -0.060 C 
HETATM   24  C10 UNL     1       1.295 -26.772 -10.031  1.00  0.00    -0.077 C 
BRANCH  24  25
HETATM   25  C11 UNL     1      -0.052 -27.059  -9.534  1.00  0.00     0.261 C 
BRANCH  25  26
HETATM   26  O3  UNL     1      -0.126 -26.662  -8.203  1.00  0.00    -0.374 OA
BRANCH  26  27
HETATM   27  C12 UNL     1      -1.407 -26.739  -7.693  1.00  0.00     0.122 C 
HETATM   28  C13 UNL     1      -1.393 -26.073  -6.335  1.00  0.00     0.032 C 
HETATM   29  C14 UNL     1      -2.261 -26.793  -5.336  1.00  0.00     0.002 C 
HETATM   30  C15 UNL     1      -1.651 -28.154  -5.096  1.00  0.00     0.000 C 
HETATM   31  C16 UNL     1      -1.251 -28.836  -6.377  1.00  0.00     0.002 C 
HETATM   32  C17 UNL     1      -1.911 -28.159  -7.568  1.00  0.00     0.032 C 
ENDBRANCH  26  27
ENDBRANCH  25  26
ENDBRANCH  24  25
ENDBRANCH  20  23
ENDBRANCH  19  20
ENDBRANCH   1  18
TORSDOF 12
ENDMDL
MODEL 3
REMARK VINA RESULT: -6.920938275      1.675      2.483
REMARK  12 active torsions:
REMARK  status: ('A' for Active; 'I' for Inactive)
REMARK    1  A    between atoms: C2_2  and  C4_4 
REMARK    2  A    between atoms: C2_2  and  N1_23 
REMARK    3  A    between atoms: C4_4  and  C5_5 
REMARK    4  A    between atoms: C5_5  and  O1_6 
REMARK    5  A    between atoms: C5_5  and  C6_8 
REMARK    6  A    between atoms: C7_9  and  C8_10 
REMARK    7  A    between atoms: C8_10  and  O2_11 
REMARK    8  A    between atoms: C8_10  and  C9_13 
REMARK    9  A    between atoms: C10_14  and  C11_15 
REMARK   10  A    between atoms: C11_15  and  O3_16 
REMARK   11  A    between atoms: O3_16  and  C12_17 
REMARK   12  A    between atoms: N1_23  and  C18_25 
ROOT
HETATM    1  C5  UNL     1       1.980 -25.177 -14.117  1.00  0.00     0.199 C 
ENDROOT
BRANCH   1   2
HETATM    2  C4  UNL     1       3.200 -25.164 -13.283  1.00  0.00     0.075 C 
BRANCH   2   3
HETATM    3  C2  UNL     1       3.605 -26.402 -12.586  1.00  0.00     0.043 C 
HETATM    4  C1  UNL     1       2.294 -27.196 -12.339  1.00  0.00     0.039 C 
HETATM    5  C3  UNL     1       4.287 -26.125 -11.266  1.00  0.00     0.039 C 
BRANCH   3   6
HETATM    6  N1  UNL     1       4.491 -27.196 -13.374  1.00  0.00    -0.218 N 
ATOM      7  H1  UNL     1       4.083 -27.903 -13.986  1.00  0.00     0.178 HD
BRANCH   6   8
HETATM    8  C18 UNL     1       5.910 -27.062 -13.360  1.00  0.00     0.670 C 
HETATM    9  N2  UNL     1       6.460 -26.150 -14.091  1.00  0.00    -0.227 N 
HETATM   10  C19 UNL     1       7.907 -26.051 -14.045  1.00  0.00     0.139 C 
ATOM     11  H2  UNL     1       5.902 -25.527 -14.676  1.00  0.00     0.177 HD
HETATM   12  C20 UNL     1       8.443 -26.169 -12.637  1.00  0.00     0.040 C 
HETATM   13  C21 UNL     1       7.966 -27.429 -11.948  1.00  0.00     0.139 C 
HETATM   14  N3  UNL     1       6.734 -27.887 -12.574  1.00  0.00    -0.227 N 
ATOM     15  H3  UNL     1       6.454 -28.857 -12.435  1.00  0.00     0.177 HD
ENDBRANCH   6   8
ENDBRANCH   3   6
ENDBRANCH   2   3
ENDBRANCH   1   2
BRANCH   1  16
HETATM   16  O1  UNL     1       0.982 -24.380 -13.607  1.00  0.00    -0.383 OA
ATOM     17  H1  UNL     1       1.202 -24.017 -12.758  1.00  0.00     0.211 HD
ENDBRANCH   1  16
BRANCH   1  18
HETATM   18  C6  UNL     1       2.328 -24.588 -15.442  1.00  0.00    -0.071 C 
HETATM   19  C7  UNL     1       2.618 -24.096 -16.504  1.00  0.00    -0.059 C 
BRANCH  19  20
HETATM   20  C8  UNL     1       2.960 -23.478 -17.789  1.00  0.00     0.277 C 
BRANCH  20  21
HETATM   21  O2  UNL     1       3.917 -22.505 -17.643  1.00  0.00    -0.372 OA
ATOM     22  H2  UNL     1       3.609 -21.790 -17.100  1.00  0.00     0.212 HD
ENDBRANCH  20  21
BRANCH  20  23
HETATM   23  C9  UNL     1       3.401 -24.586 -18.663  1.00  0.00    -0.060 C 
HETATM   24  C10 UNL     1       3.779 -25.491 -19.366  1.00  0.00    -0.077 C 
BRANCH  24  25
HETATM   25  C11 UNL     1       4.254 -26.595 -20.200  1.00  0.00     0.261 C 
BRANCH  25  26
HETATM   26  O3  UNL     1       3.215 -27.508 -20.361  1.00  0.00    -0.374 OA
BRANCH  26  27
HETATM   27  C12 UNL     1       3.627 -28.818 -20.214  1.00  0.00     0.122 C 
HETATM   28  C13 UNL     1       2.600 -29.692 -20.899  1.00  0.00     0.032 C 
HETATM   29  C14 UNL     1       2.340 -30.969 -20.143  1.00  0.00     0.002 C 
HETATM   30  C15 UNL     1       1.701 -30.598 -18.825  1.00  0.00     0.000 C 
HETATM   31  C16 UNL     1       2.406 -29.452 -18.149  1.00  0.00     0.002 C 
HETATM   32  C17 UNL     1       3.778 -29.233 -18.768  1.00  0.00     0.032 C 
ENDBRANCH  26  27
ENDBRANCH  25  26
ENDBRANCH  24  25
ENDBRANCH  20  23
ENDBRANCH  19  20
ENDBRANCH   1  18
TORSDOF 12
ENDMDL
MODEL 4
REMARK VINA RESULT: -6.919774966      2.964      7.872
REMARK  12 active torsions:
REMARK  status: ('A' for Active; 'I' for Inactive)
REMARK    1  A    between atoms: C2_2  and  C4_4 
REMARK    2  A    between atoms: C2_2  and  N1_23 
REMARK    3  A    between atoms: C4_4  and  C5_5 
REMARK    4  A    between atoms: C5_5  and  O1_6 
REMARK    5  A    between atoms: C5_5  and  C6_8 
REMARK    6  A    between atoms: C7_9  and  C8_10 
REMARK    7  A    between atoms: C8_10  and  O2_11 
REMARK    8  A    between atoms: C8_10  and  C9_13 
REMARK    9  A    between atoms: C10_14  and  C11_15 
REMARK   10  A    between atoms: C11_15  and  O3_16 
REMARK   11  A    between atoms: O3_16  and  C12_17 
REMARK   12  A    between atoms: N1_23  and  C18_25 
ROOT
HETATM    1  C5  UNL     1       3.698 -24.899 -18.592  1.00  0.00     0.199 C 
ENDROOT
BRANCH   1   2
HETATM    2  C4  UNL     1       3.427 -26.351 -18.645  1.00  0.00     0.075 C 
BRANCH   2   3
HETATM    3  C2  UNL     1       4.433 -27.289 -18.104  1.00  0.00     0.043 C 
HETATM    4  C1  UNL     1       3.901 -27.724 -16.713  1.00  0.00     0.039 C 
HETATM    5  C3  UNL     1       5.795 -26.651 -17.951  1.00  0.00     0.039 C 
BRANCH   3   6
HETATM    6  N1  UNL     1       4.586 -28.444 -18.929  1.00  0.00    -0.218 N 
ATOM      7  H1  UNL     1       5.521 -28.837 -19.034  1.00  0.00     0.178 HD
BRANCH   6   8
HETATM    8  C18 UNL     1       3.511 -29.084 -19.614  1.00  0.00     0.670 C 
HETATM    9  N2  UNL     1       3.429 -28.967 -20.897  1.00  0.00    -0.227 N 
HETATM   10  C19 UNL     1       2.320 -29.635 -21.551  1.00  0.00     0.139 C 
ATOM     11  H2  UNL     1       4.114 -28.428 -21.428  1.00  0.00     0.177 HD
HETATM   12  C20 UNL     1       2.090 -31.027 -21.007  1.00  0.00     0.040 C 
HETATM   13  C21 UNL     1       1.912 -31.030 -19.505  1.00  0.00     0.139 C 
HETATM   14  N3  UNL     1       2.538 -29.843 -18.939  1.00  0.00    -0.227 N 
ATOM     15  H3  UNL     1       2.255 -29.547 -18.006  1.00  0.00     0.177 HD
ENDBRANCH   6   8
ENDBRANCH   3   6
ENDBRANCH   2   3
ENDBRANCH   1   2
BRANCH   1  16
HETATM   16  O1  UNL     1       2.831 -24.171 -19.373  1.00  0.00    -0.383 OA
ATOM     17  H1  UNL     1       2.735 -23.275 -19.074  1.00  0.00     0.211 HD
ENDBRANCH   1  16
BRANCH   1  18
HETATM   18  C6  UNL     1       3.460 -24.443 -17.192  1.00  0.00    -0.071 C 
HETATM   19  C7  UNL     1       3.287 -24.064 -16.062  1.00  0.00    -0.059 C 
BRANCH  19  20
HETATM   20  C8  UNL     1       3.097 -23.613 -14.678  1.00  0.00     0.277 C 
BRANCH  20  21
HETATM   21  O2  UNL     1       1.780 -23.328 -14.417  1.00  0.00    -0.372 OA
ATOM     22  H2  UNL     1       1.250 -23.375 -15.203  1.00  0.00     0.212 HD
ENDBRANCH  20  21
BRANCH  20  23
HETATM   23  C9  UNL     1       3.626 -24.700 -13.826  1.00  0.00    -0.060 C 
HETATM   24  C10 UNL     1       4.039 -25.591 -13.126  1.00  0.00    -0.077 C 
BRANCH  24  25
HETATM   25  C11 UNL     1       4.517 -26.685 -12.279  1.00  0.00     0.261 C 
BRANCH  25  26
HETATM   26  O3  UNL     1       5.861 -26.467 -11.992  1.00  0.00    -0.374 OA
BRANCH  26  27
HETATM   27  C12 UNL     1       6.705 -27.217 -12.787  1.00  0.00     0.122 C 
HETATM   28  C13 UNL     1       7.757 -27.821 -11.884  1.00  0.00     0.032 C 
HETATM   29  C14 UNL     1       9.120 -27.842 -12.526  1.00  0.00     0.002 C 
HETATM   30  C15 UNL     1       9.560 -26.408 -12.713  1.00  0.00     0.000 C 
HETATM   31  C16 UNL     1       8.468 -25.544 -13.286  1.00  0.00     0.002 C 
HETATM   32  C17 UNL     1       7.365 -26.407 -13.880  1.00  0.00     0.032 C 
ENDBRANCH  26  27
ENDBRANCH  25  26
ENDBRANCH  24  25
ENDBRANCH  20  23
ENDBRANCH  19  20
ENDBRANCH   1  18
TORSDOF 12
ENDMDL
MODEL 5
REMARK VINA RESULT: -6.906089812      4.719      8.969
REMARK  12 active torsions:
REMARK  status: ('A' for Active; 'I' for Inactive)
REMARK    1  A    between atoms: C2_2  and  C4_4 
REMARK    2  A    between atoms: C2_2  and  N1_23 
REMARK    3  A    between atoms: C4_4  and  C5_5 
REMARK    4  A    between atoms: C5_5  and  O1_6 
REMARK    5  A    between atoms: C5_5  and  C6_8 
REMARK    6  A    between atoms: C7_9  and  C8_10 
REMARK    7  A    between atoms: C8_10  and  O2_11 
REMARK    8  A    between atoms: C8_10  and  C9_13 
REMARK    9  A    between atoms: C10_14  and  C11_15 
REMARK   10  A    between atoms: C11_15  and  O3_16 
REMARK   11  A    between atoms: O3_16  and  C12_17 
REMARK   12  A    between atoms: N1_23  and  C18_25 
ROOT
HETATM    1  C5  UNL     1       3.026 -26.760 -15.588  1.00  0.00     0.199 C 
ENDROOT
BRANCH   1   2
HETATM    2  C4  UNL     1       4.356 -27.070 -16.152  1.00  0.00     0.075 C 
BRANCH   2   3
HETATM    3  C2  UNL     1       4.673 -26.629 -17.527  1.00  0.00     0.043 C 
HETATM    4  C1  UNL     1       5.967 -25.781 -17.410  1.00  0.00     0.039 C 
HETATM    5  C3  UNL     1       3.570 -25.793 -18.134  1.00  0.00     0.039 C 
BRANCH   3   6
HETATM    6  N1  UNL     1       4.913 -27.731 -18.401  1.00  0.00    -0.218 N 
ATOM      7  H1  UNL     1       5.880 -28.022 -18.549  1.00  0.00     0.178 HD
BRANCH   6   8
HETATM    8  C18 UNL     1       3.887 -28.451 -19.079  1.00  0.00     0.670 C 
HETATM    9  N2  UNL     1       3.882 -28.468 -20.370  1.00  0.00    -0.227 N 
HETATM   10  C19 UNL     1       2.819 -29.214 -21.018  1.00  0.00     0.139 C 
ATOM     11  H2  UNL     1       4.595 -27.978 -20.912  1.00  0.00     0.177 HD
HETATM   12  C20 UNL     1       2.565 -30.545 -20.347  1.00  0.00     0.040 C 
HETATM   13  C21 UNL     1       2.296 -30.395 -18.866  1.00  0.00     0.139 C 
HETATM   14  N3  UNL     1       2.878 -29.149 -18.390  1.00  0.00    -0.227 N 
ATOM     15  H3  UNL     1       2.538 -28.762 -17.510  1.00  0.00     0.177 HD
ENDBRANCH   6   8
ENDBRANCH   3   6
ENDBRANCH   2   3
ENDBRANCH   1   2
BRANCH   1  16
HETATM   16  O1  UNL     1       2.129 -27.789 -15.753  1.00  0.00    -0.383 OA
ATOM     17  H1  UNL     1       1.744 -28.074 -14.933  1.00  0.00     0.211 HD
ENDBRANCH   1  16
BRANCH   1  18
HETATM   18  C6  UNL     1       3.184 -26.596 -14.114  1.00  0.00    -0.071 C 
HETATM   19  C7  UNL     1       3.315 -26.443 -12.926  1.00  0.00    -0.059 C 
BRANCH  19  20
HETATM   20  C8  UNL     1       3.497 -26.248 -11.483  1.00  0.00     0.277 C 
BRANCH  20  21
HETATM   21  O2  UNL     1       3.845 -24.954 -11.188  1.00  0.00    -0.372 OA
ATOM     22  H2  UNL     1       4.711 -24.904 -10.801  1.00  0.00     0.212 HD
ENDBRANCH  20  21
BRANCH  20  23
HETATM   23  C9  UNL     1       2.218 -26.651 -10.859  1.00  0.00    -0.060 C 
HETATM   24  C10 UNL     1       1.172 -26.960 -10.345  1.00  0.00    -0.077 C 
BRANCH  24  25
HETATM   25  C11 UNL     1      -0.105 -27.311  -9.721  1.00  0.00     0.261 C 
BRANCH  25  26
HETATM   26  O3  UNL     1      -0.108 -26.826  -8.417  1.00  0.00    -0.374 OA
BRANCH  26  27
HETATM   27  C12 UNL     1      -1.373 -26.787  -7.864  1.00  0.00     0.122 C 
HETATM   28  C13 UNL     1      -1.269 -26.042  -6.552  1.00  0.00     0.032 C 
HETATM   29  C14 UNL     1      -2.145 -26.640  -5.483  1.00  0.00     0.002 C 
HETATM   30  C15 UNL     1      -1.615 -28.021  -5.176  1.00  0.00     0.000 C 
HETATM   31  C16 UNL     1      -1.304 -28.806  -6.423  1.00  0.00     0.002 C 
HETATM   32  C17 UNL     1      -1.961 -28.161  -7.633  1.00  0.00     0.032 C 
ENDBRANCH  26  27
ENDBRANCH  25  26
ENDBRANCH  24  25
ENDBRANCH  20  23
ENDBRANCH  19  20
ENDBRANCH   1  18
TORSDOF 12
ENDMDL
