MODEL 1
REMARK VINA RESULT: -8.475050396      0.000      0.000
REMARK  7 active torsions:
REMARK  status: ('A' for Active; 'I' for Inactive)
REMARK    1  A    between atoms: C3_5  and  N2_6 
REMARK    2  A    between atoms: N2_6  and  C4_8 
REMARK    3  A    between atoms: C7_13  and  N4_14 
REMARK    4  A    between atoms: N4_14  and  C8_16 
REMARK    5  A    between atoms: C11_19  and  C12_20 
REMARK    6  A    between atoms: C12_20  and  N5_21 
REMARK    7  A    between atoms: N5_21  and  N6_22 
ROOT
HETATM    1  C1  UNL     1       1.475 -19.085 -18.009  1.00  0.00     0.182 A 
HETATM    2  N1  UNL     1       0.823 -19.959 -17.225  1.00  0.00    -0.346 N 
ATOM      3  H1  UNL     1      -0.115 -19.825 -16.848  1.00  0.00     0.167 HD
HETATM    4  C2  UNL     1       1.593 -21.035 -17.016  1.00  0.00     0.123 A 
HETATM    5  C3  UNL     1       1.415 -22.201 -16.302  1.00  0.00     0.148 A 
HETATM    6  N3  UNL     1       2.368 -23.147 -16.250  1.00  0.00    -0.175 N 
ATOM      7  H3  UNL     1       2.233 -24.008 -15.721  1.00  0.00     0.186 HD
HETATM    8  C7  UNL     1       3.524 -22.907 -16.935  1.00  0.00     0.681 A 
HETATM    9  N8  UNL     1       3.703 -21.772 -17.631  1.00  0.00    -0.174 N 
ATOM     10  H8  UNL     1       4.585 -21.638 -18.126  1.00  0.00     0.186 HD
HETATM   11  C19 UNL     1       2.765 -20.798 -17.706  1.00  0.00     0.152 A 
HETATM   12  N9  UNL     1       2.679 -19.606 -18.305  1.00  0.00    -0.336 N 
ATOM     13  H9  UNL     1       3.397 -19.170 -18.883  1.00  0.00     0.168 HD
ENDROOT
BRANCH   8  14
HETATM   14  N4  UNL     1       4.478 -23.750 -16.939  1.00  0.00    -0.220 N 
ATOM     15  H4  UNL     1       5.434 -23.397 -16.896  1.00  0.00     0.178 HD
BRANCH  14  16
HETATM   16  C8  UNL     1       4.276 -25.202 -17.004  1.00  0.00     0.117 C 
HETATM   17  C9  UNL     1       3.206 -25.427 -18.044  1.00  0.00     0.033 C 
HETATM   18  C10 UNL     1       3.897 -25.744 -19.351  1.00  0.00     0.055 C 
HETATM   19  C11 UNL     1       4.630 -27.013 -19.125  1.00  0.00    -0.002 C 
HETATM   20  N7  UNL     1       5.467 -27.021 -18.162  1.00  0.00    -0.393 N 
HETATM   21  C18 UNL     1       5.609 -25.791 -17.392  1.00  0.00     0.145 C 
ATOM     22  H7  UNL     1       6.014 -27.853 -17.940  1.00  0.00     0.159 HD
BRANCH  19  23
HETATM   23  C12 UNL     1       4.446 -28.232 -19.938  1.00  0.00     0.180 C 
BRANCH  23  24
HETATM   24  N5  UNL     1       3.124 -28.198 -20.528  1.00  0.00    -0.159 NA
BRANCH  24  25
HETATM   25  N6  UNL     1       2.315 -29.238 -20.162  1.00  0.00    -0.234 NA
HETATM   26  C13 UNL     1       1.904 -30.092 -21.254  1.00  0.00     0.109 C 
HETATM   27  C14 UNL     1       0.640 -30.810 -20.800  1.00  0.00     0.016 C 
HETATM   28  C15 UNL     1       0.835 -31.530 -19.499  1.00  0.00     0.002 C 
HETATM   29  C16 UNL     1       1.572 -30.739 -18.468  1.00  0.00     0.016 C 
HETATM   30  C17 UNL     1       2.791 -30.059 -19.100  1.00  0.00     0.109 C 
ENDBRANCH  24  25
ENDBRANCH  23  24
ENDBRANCH  19  23
ENDBRANCH  14  16
ENDBRANCH   8  14
BRANCH   5  31
HETATM   31  N2  UNL     1       0.317 -22.388 -15.676  1.00  0.00    -0.369 N 
ATOM     32  H2  UNL     1      -0.478 -22.717 -16.222  1.00  0.00     0.161 HD
BRANCH  31  33
HETATM   33  C4  UNL     1       0.103 -22.178 -14.278  1.00  0.00     0.083 A 
HETATM   34  C5  UNL     1      -1.079 -22.788 -13.574  1.00  0.00     0.027 A 
HETATM   35  C6  UNL     1      -1.155 -21.371 -13.951  1.00  0.00     0.027 A 
ENDBRANCH  31  33
ENDBRANCH   5  31
TORSDOF 7
ENDMDL
MODEL 2
REMARK VINA RESULT: -8.285962438      0.489      1.021
REMARK  7 active torsions:
REMARK  status: ('A' for Active; 'I' for Inactive)
REMARK    1  A    between atoms: C3_5  and  N2_6 
REMARK    2  A    between atoms: N2_6  and  C4_8 
REMARK    3  A    between atoms: C7_13  and  N4_14 
REMARK    4  A    between atoms: N4_14  and  C8_16 
REMARK    5  A    between atoms: C11_19  and  C12_20 
REMARK    6  A    between atoms: C12_20  and  N5_21 
REMARK    7  A    between atoms: N5_21  and  N6_22 
ROOT
HETATM    1  C1  UNL     1       1.466 -19.117 -17.973  1.00  0.00     0.182 A 
HETATM    2  N1  UNL     1       0.816 -20.003 -17.201  1.00  0.00    -0.346 N 
ATOM      3  H1  UNL     1      -0.125 -19.878 -16.828  1.00  0.00     0.167 HD
HETATM    4  C2  UNL     1       1.592 -21.076 -16.999  1.00  0.00     0.123 A 
HETATM    5  C3  UNL     1       1.417 -22.250 -16.299  1.00  0.00     0.148 A 
HETATM    6  N3  UNL     1       2.376 -23.191 -16.252  1.00  0.00    -0.175 N 
ATOM      7  H3  UNL     1       2.244 -24.058 -15.733  1.00  0.00     0.186 HD
HETATM    8  C7  UNL     1       3.534 -22.937 -16.928  1.00  0.00     0.681 A 
HETATM    9  N8  UNL     1       3.709 -21.794 -17.611  1.00  0.00    -0.174 N 
ATOM     10  H8  UNL     1       4.593 -21.649 -18.100  1.00  0.00     0.186 HD
HETATM   11  C19 UNL     1       2.766 -20.825 -17.681  1.00  0.00     0.152 A 
HETATM   12  N9  UNL     1       2.675 -19.627 -18.268  1.00  0.00    -0.336 N 
ATOM     13  H9  UNL     1       3.394 -19.181 -18.838  1.00  0.00     0.168 HD
ENDROOT
BRANCH   8  14
HETATM   14  N4  UNL     1       4.494 -23.774 -16.936  1.00  0.00    -0.220 N 
ATOM     15  H4  UNL     1       5.448 -23.415 -16.901  1.00  0.00     0.178 HD
BRANCH  14  16
HETATM   16  C8  UNL     1       4.300 -25.227 -16.994  1.00  0.00     0.117 C 
HETATM   17  C9  UNL     1       3.201 -25.461 -18.001  1.00  0.00     0.033 C 
HETATM   18  C10 UNL     1       3.856 -25.774 -19.329  1.00  0.00     0.055 C 
HETATM   19  C11 UNL     1       4.604 -27.037 -19.124  1.00  0.00    -0.002 C 
HETATM   20  N7  UNL     1       5.469 -27.038 -18.187  1.00  0.00    -0.393 N 
HETATM   21  C18 UNL     1       5.625 -25.807 -17.422  1.00  0.00     0.145 C 
ATOM     22  H7  UNL     1       6.029 -27.866 -17.981  1.00  0.00     0.159 HD
BRANCH  19  23
HETATM   23  C12 UNL     1       4.404 -28.258 -19.931  1.00  0.00     0.180 C 
BRANCH  23  24
HETATM   24  N5  UNL     1       2.993 -28.388 -20.230  1.00  0.00    -0.159 NA
BRANCH  24  25
HETATM   25  N6  UNL     1       2.375 -29.428 -19.593  1.00  0.00    -0.234 NA
HETATM   26  C13 UNL     1       1.765 -29.081 -18.329  1.00  0.00     0.109 C 
HETATM   27  C14 UNL     1       1.625 -30.374 -17.537  1.00  0.00     0.016 C 
HETATM   28  C15 UNL     1       0.888 -31.431 -18.303  1.00  0.00     0.002 C 
HETATM   29  C16 UNL     1       1.308 -31.553 -19.732  1.00  0.00     0.016 C 
HETATM   30  C17 UNL     1       1.431 -30.163 -20.365  1.00  0.00     0.109 C 
ENDBRANCH  24  25
ENDBRANCH  23  24
ENDBRANCH  19  23
ENDBRANCH  14  16
ENDBRANCH   8  14
BRANCH   5  31
HETATM   31  N2  UNL     1       0.318 -22.450 -15.680  1.00  0.00    -0.369 N 
ATOM     32  H2  UNL     1      -0.444 -22.870 -16.212  1.00  0.00     0.161 HD
BRANCH  31  33
HETATM   33  C4  UNL     1       0.058 -22.140 -14.309  1.00  0.00     0.083 A 
HETATM   34  C5  UNL     1      -1.130 -22.723 -13.593  1.00  0.00     0.027 A 
HETATM   35  C6  UNL     1      -1.225 -21.341 -14.079  1.00  0.00     0.027 A 
ENDBRANCH  31  33
ENDBRANCH   5  31
TORSDOF 7
ENDMDL
MODEL 3
REMARK VINA RESULT: -8.181026350      5.985      9.821
REMARK  7 active torsions:
REMARK  status: ('A' for Active; 'I' for Inactive)
REMARK    1  A    between atoms: C3_5  and  N2_6 
REMARK    2  A    between atoms: N2_6  and  C4_8 
REMARK    3  A    between atoms: C7_13  and  N4_14 
REMARK    4  A    between atoms: N4_14  and  C8_16 
REMARK    5  A    between atoms: C11_19  and  C12_20 
REMARK    6  A    between atoms: C12_20  and  N5_21 
REMARK    7  A    between atoms: N5_21  and  N6_22 
ROOT
HETATM    1  C1  UNL     1       4.755 -26.069 -18.624  1.00  0.00     0.182 A 
HETATM    2  N1  UNL     1       5.782 -26.007 -17.761  1.00  0.00    -0.346 N 
ATOM      3  H1  UNL     1       6.768 -26.005 -18.020  1.00  0.00     0.167 HD
HETATM    4  C2  UNL     1       5.312 -25.947 -16.508  1.00  0.00     0.123 A 
HETATM    5  C3  UNL     1       5.920 -25.871 -15.273  1.00  0.00     0.148 A 
HETATM    6  N3  UNL     1       5.203 -25.821 -14.137  1.00  0.00    -0.175 N 
ATOM      7  H3  UNL     1       5.656 -25.765 -13.226  1.00  0.00     0.186 HD
HETATM    8  C7  UNL     1       3.844 -25.847 -14.255  1.00  0.00     0.681 A 
HETATM    9  N8  UNL     1       3.247 -25.922 -15.456  1.00  0.00    -0.174 N 
ATOM     10  H8  UNL     1       2.227 -25.941 -15.493  1.00  0.00     0.186 HD
HETATM   11  C19 UNL     1       3.937 -25.974 -16.620  1.00  0.00     0.152 A 
HETATM   12  N9  UNL     1       3.612 -26.049 -17.915  1.00  0.00    -0.336 N 
ATOM     13  H9  UNL     1       2.667 -26.086 -18.297  1.00  0.00     0.168 HD
ENDROOT
BRANCH   8  14
HETATM   14  N4  UNL     1       3.089 -25.804 -13.231  1.00  0.00    -0.220 N 
ATOM     15  H4  UNL     1       2.468 -25.002 -13.122  1.00  0.00     0.178 HD
BRANCH  14  16
HETATM   16  C8  UNL     1       3.065 -26.846 -12.198  1.00  0.00     0.117 C 
HETATM   17  C9  UNL     1       3.542 -26.183 -10.928  1.00  0.00     0.033 C 
HETATM   18  C10 UNL     1       2.319 -25.765 -10.143  1.00  0.00     0.055 C 
HETATM   19  C11 UNL     1       1.609 -27.020  -9.799  1.00  0.00    -0.002 C 
HETATM   20  N7  UNL     1       1.279 -27.771 -10.776  1.00  0.00    -0.393 N 
HETATM   21  C18 UNL     1       1.635 -27.318 -12.115  1.00  0.00     0.145 C 
ATOM     22  H7  UNL     1       0.786 -28.651 -10.627  1.00  0.00     0.159 HD
BRANCH  19  23
HETATM   23  C12 UNL     1       1.273 -27.431  -8.420  1.00  0.00     0.180 C 
BRANCH  23  24
HETATM   24  N5  UNL     1       0.455 -26.399  -7.818  1.00  0.00    -0.159 NA
BRANCH  24  25
HETATM   25  N6  UNL     1      -0.395 -26.847  -6.845  1.00  0.00    -0.234 NA
HETATM   26  C13 UNL     1      -1.497 -25.958  -6.554  1.00  0.00     0.109 C 
HETATM   27  C14 UNL     1      -1.989 -26.309  -5.156  1.00  0.00     0.016 C 
HETATM   28  C15 UNL     1      -2.325 -27.765  -5.023  1.00  0.00     0.002 C 
HETATM   29  C16 UNL     1      -1.317 -28.682  -5.637  1.00  0.00     0.016 C 
HETATM   30  C17 UNL     1      -0.909 -28.164  -7.021  1.00  0.00     0.109 C 
ENDBRANCH  24  25
ENDBRANCH  23  24
ENDBRANCH  19  23
ENDBRANCH  14  16
ENDBRANCH   8  14
BRANCH   5  31
HETATM   31  N2  UNL     1       7.196 -25.847 -15.205  1.00  0.00    -0.369 N 
ATOM     32  H2  UNL     1       7.702 -25.645 -16.068  1.00  0.00     0.161 HD
BRANCH  31  33
HETATM   33  C4  UNL     1       7.978 -26.077 -14.032  1.00  0.00     0.083 A 
HETATM   34  C5  UNL     1       8.974 -25.057 -13.551  1.00  0.00     0.027 A 
HETATM   35  C6  UNL     1       9.478 -26.218 -14.295  1.00  0.00     0.027 A 
ENDBRANCH  31  33
ENDBRANCH   5  31
TORSDOF 7
ENDMDL
MODEL 4
REMARK VINA RESULT: -8.030199385      6.016      9.910
REMARK  7 active torsions:
REMARK  status: ('A' for Active; 'I' for Inactive)
REMARK    1  A    between atoms: C3_5  and  N2_6 
REMARK    2  A    between atoms: N2_6  and  C4_8 
REMARK    3  A    between atoms: C7_13  and  N4_14 
REMARK    4  A    between atoms: N4_14  and  C8_16 
REMARK    5  A    between atoms: C11_19  and  C12_20 
REMARK    6  A    between atoms: C12_20  and  N5_21 
REMARK    7  A    between atoms: N5_21  and  N6_22 
ROOT
HETATM    1  C1  UNL     1       4.620 -25.548 -18.342  1.00  0.00     0.182 A 
HETATM    2  N1  UNL     1       5.655 -25.508 -17.488  1.00  0.00    -0.346 N 
ATOM      3  H1  UNL     1       6.609 -25.242 -17.733  1.00  0.00     0.167 HD
HETATM    4  C2  UNL     1       5.243 -25.870 -16.266  1.00  0.00     0.123 A 
HETATM    5  C3  UNL     1       5.883 -25.998 -15.052  1.00  0.00     0.148 A 
HETATM    6  N3  UNL     1       5.225 -26.388 -13.947  1.00  0.00    -0.175 N 
ATOM      7  H3  UNL     1       5.701 -26.482 -13.051  1.00  0.00     0.186 HD
HETATM    8  C7  UNL     1       3.892 -26.655 -14.075  1.00  0.00     0.681 A 
HETATM    9  N8  UNL     1       3.265 -26.532 -15.256  1.00  0.00    -0.174 N 
ATOM     10  H8  UNL     1       2.267 -26.744 -15.302  1.00  0.00     0.186 HD
HETATM   11  C19 UNL     1       3.895 -26.141 -16.389  1.00  0.00     0.152 A 
HETATM   12  N9  UNL     1       3.529 -25.941 -17.660  1.00  0.00    -0.336 N 
ATOM     13  H9  UNL     1       2.592 -26.065 -18.043  1.00  0.00     0.168 HD
ENDROOT
BRANCH   8  14
HETATM   14  N4  UNL     1       3.193 -27.030 -13.079  1.00  0.00    -0.220 N 
ATOM     15  H4  UNL     1       3.135 -28.029 -12.880  1.00  0.00     0.178 HD
BRANCH  14  16
HETATM   16  C8  UNL     1       2.467 -26.103 -12.204  1.00  0.00     0.117 C 
HETATM   17  C9  UNL     1       1.010 -26.486 -12.310  1.00  0.00     0.033 C 
HETATM   18  C10 UNL     1       0.691 -27.398 -11.147  1.00  0.00     0.055 C 
HETATM   19  C11 UNL     1       0.892 -26.583  -9.925  1.00  0.00    -0.002 C 
HETATM   20  N7  UNL     1       2.044 -26.056  -9.778  1.00  0.00    -0.393 N 
HETATM   21  C18 UNL     1       3.031 -26.308 -10.821  1.00  0.00     0.145 C 
ATOM     22  H7  UNL     1       2.266 -25.482  -8.964  1.00  0.00     0.159 HD
BRANCH  19  23
HETATM   23  C12 UNL     1      -0.147 -26.360  -8.899  1.00  0.00     0.180 C 
BRANCH  23  24
HETATM   24  N5  UNL     1       0.423 -26.641  -7.597  1.00  0.00    -0.159 NA
BRANCH  24  25
HETATM   25  N6  UNL     1      -0.493 -26.994  -6.644  1.00  0.00    -0.234 NA
HETATM   26  C13 UNL     1      -1.576 -26.052  -6.475  1.00  0.00     0.109 C 
HETATM   27  C14 UNL     1      -2.154 -26.290  -5.086  1.00  0.00     0.016 C 
HETATM   28  C15 UNL     1      -2.548 -27.721  -4.875  1.00  0.00     0.002 C 
HETATM   29  C16 UNL     1      -1.543 -28.710  -5.370  1.00  0.00     0.016 C 
HETATM   30  C17 UNL     1      -1.045 -28.302  -6.760  1.00  0.00     0.109 C 
ENDBRANCH  24  25
ENDBRANCH  23  24
ENDBRANCH  19  23
ENDBRANCH  14  16
ENDBRANCH   8  14
BRANCH   5  31
HETATM   31  N2  UNL     1       7.131 -25.738 -14.974  1.00  0.00    -0.369 N 
ATOM     32  H2  UNL     1       7.549 -25.229 -15.753  1.00  0.00     0.161 HD
BRANCH  31  33
HETATM   33  C4  UNL     1       7.997 -26.096 -13.894  1.00  0.00     0.083 A 
HETATM   34  C5  UNL     1       9.066 -25.153 -13.411  1.00  0.00     0.027 A 
HETATM   35  C6  UNL     1       9.464 -26.256 -14.293  1.00  0.00     0.027 A 
ENDBRANCH  31  33
ENDBRANCH   5  31
TORSDOF 7
ENDMDL
MODEL 5
REMARK VINA RESULT: -7.979213772      4.188      6.002
REMARK  7 active torsions:
REMARK  status: ('A' for Active; 'I' for Inactive)
REMARK    1  A    between atoms: C3_5  and  N2_6 
REMARK    2  A    between atoms: N2_6  and  C4_8 
REMARK    3  A    between atoms: C7_13  and  N4_14 
REMARK    4  A    between atoms: N4_14  and  C8_16 
REMARK    5  A    between atoms: C11_19  and  C12_20 
REMARK    6  A    between atoms: C12_20  and  N5_21 
REMARK    7  A    between atoms: N5_21  and  N6_22 
ROOT
HETATM    1  C1  UNL     1      -2.928 -19.156 -15.705  1.00  0.00     0.182 A 
HETATM    2  N1  UNL     1      -2.812 -19.966 -14.640  1.00  0.00    -0.346 N 
ATOM      3  H1  UNL     1      -3.485 -20.033 -13.877  1.00  0.00     0.167 HD
HETATM    4  C2  UNL     1      -1.678 -20.673 -14.735  1.00  0.00     0.123 A 
HETATM    5  C3  UNL     1      -1.089 -21.627 -13.933  1.00  0.00     0.148 A 
HETATM    6  N3  UNL     1       0.083 -22.198 -14.263  1.00  0.00    -0.175 N 
ATOM      7  H3  UNL     1       0.517 -22.902 -13.668  1.00  0.00     0.186 HD
HETATM    8  C7  UNL     1       0.667 -21.795 -15.429  1.00  0.00     0.681 A 
HETATM    9  N8  UNL     1       0.096 -20.866 -16.214  1.00  0.00    -0.174 N 
ATOM     10  H8  UNL     1       0.572 -20.597 -17.075  1.00  0.00     0.186 HD
HETATM   11  C19 UNL     1      -1.082 -20.270 -15.914  1.00  0.00     0.152 A 
HETATM   12  N9  UNL     1      -1.854 -19.345 -16.493  1.00  0.00    -0.336 N 
ATOM     13  H9  UNL     1      -1.663 -18.868 -17.374  1.00  0.00     0.168 HD
ENDROOT
BRANCH   8  14
HETATM   14  N4  UNL     1       1.777 -22.284 -15.818  1.00  0.00    -0.220 N 
ATOM     15  H4  UNL     1       2.397 -21.694 -16.372  1.00  0.00     0.178 HD
BRANCH  14  16
HETATM   16  C8  UNL     1       2.211 -23.652 -15.510  1.00  0.00     0.117 C 
HETATM   17  C9  UNL     1       2.710 -24.232 -16.811  1.00  0.00     0.033 C 
HETATM   18  C10 UNL     1       4.212 -24.059 -16.843  1.00  0.00     0.055 C 
HETATM   19  C11 UNL     1       4.738 -24.866 -15.717  1.00  0.00    -0.002 C 
HETATM   20  N7  UNL     1       4.280 -24.591 -14.559  1.00  0.00    -0.393 N 
HETATM   21  C18 UNL     1       3.294 -23.521 -14.469  1.00  0.00     0.145 C 
ATOM     22  H7  UNL     1       4.591 -25.098 -13.729  1.00  0.00     0.159 HD
BRANCH  19  23
HETATM   23  C12 UNL     1       5.739 -25.942 -15.866  1.00  0.00     0.180 C 
BRANCH  23  24
HETATM   24  N5  UNL     1       5.857 -26.641 -14.603  1.00  0.00    -0.159 NA
BRANCH  24  25
HETATM   25  N6  UNL     1       7.005 -26.368 -13.911  1.00  0.00    -0.234 NA
HETATM   26  C13 UNL     1       7.379 -27.378 -12.947  1.00  0.00     0.109 C 
HETATM   27  C14 UNL     1       8.296 -26.704 -11.935  1.00  0.00     0.016 C 
HETATM   28  C15 UNL     1       9.459 -26.023 -12.591  1.00  0.00     0.002 C 
HETATM   29  C16 UNL     1       9.098 -25.235 -13.809  1.00  0.00     0.016 C 
HETATM   30  C17 UNL     1       8.149 -26.046 -14.697  1.00  0.00     0.109 C 
ENDBRANCH  24  25
ENDBRANCH  23  24
ENDBRANCH  19  23
ENDBRANCH  14  16
ENDBRANCH   8  14
BRANCH   5  31
HETATM   31  N2  UNL     1      -1.668 -21.977 -12.850  1.00  0.00    -0.369 N 
ATOM     32  H2  UNL     1      -1.660 -21.305 -12.082  1.00  0.00     0.161 HD
BRANCH  31  33
HETATM   33  C4  UNL     1      -2.327 -23.223 -12.616  1.00  0.00     0.083 A 
HETATM   34  C5  UNL     1      -3.829 -23.318 -12.609  1.00  0.00     0.027 A 
HETATM   35  C6  UNL     1      -3.133 -23.273 -11.317  1.00  0.00     0.027 A 
ENDBRANCH  31  33
ENDBRANCH   5  31
TORSDOF 7
ENDMDL
