MODEL 1
REMARK VINA RESULT: -7.930540469      0.000      0.000
REMARK  7 active torsions:
REMARK  status: ('A' for Active; 'I' for Inactive)
REMARK    1  A    between atoms: C2_2  and  C5_5 
REMARK    2  A    between atoms: C8_8  and  O1_9 
REMARK    3  A    between atoms: O1_9  and  S1_10 
REMARK    4  A    between atoms: S1_10  and  C9_13 
REMARK    5  A    between atoms: C11_15  and  C12_16 
REMARK       I    between atoms: C12_16  and  N1_18 
REMARK    6  A    between atoms: N1_18  and  N2_20 
REMARK    7  A    between atoms: N2_20  and  C13_22 
ROOT
HETATM    1  C9  UNL     1       7.897   0.376 -10.076  1.00  0.00     0.126 A 
HETATM    2  C10 UNL     1       9.015   0.912  -9.472  1.00  0.00     0.046 A 
HETATM    3  C11 UNL     1       9.974   1.595 -10.190  1.00  0.00     0.035 A 
HETATM    4  C14 UNL     1       9.805   1.741 -11.540  1.00  0.00     0.020 A 
HETATM    5  C15 UNL     1       8.676   1.202 -12.169  1.00  0.00     0.045 A 
HETATM    6  C16 UNL     1       7.725   0.520 -11.436  1.00  0.00     0.140 A 
HETATM    7  F1  UNL     1       6.617  -0.007 -12.058  1.00  0.00    -0.204 F 
ENDROOT
BRANCH   1   8
HETATM    8  S1  UNL     1       6.697  -0.481  -9.141  1.00  0.00     0.306 S 
HETATM    9  O2  UNL     1       6.759  -1.950  -9.513  1.00  0.00    -0.193 OA
HETATM   10  O3  UNL     1       5.316   0.011  -9.463  1.00  0.00    -0.193 OA
BRANCH   8  11
HETATM   11  O1  UNL     1       7.012  -0.261  -7.498  1.00  0.00    -0.229 OA
BRANCH  11  12
HETATM   12  C8  UNL     1       6.071   0.241  -6.605  1.00  0.00     0.089 A 
HETATM   13  C7  UNL     1       5.945   1.585  -6.345  1.00  0.00     0.039 A 
HETATM   14  C6  UNL     1       4.998   2.025  -5.454  1.00  0.00     0.011 A 
HETATM   15  C5  UNL     1       4.129   1.179  -4.773  1.00  0.00    -0.050 A 
HETATM   16  C18 UNL     1       4.272  -0.164  -5.048  1.00  0.00     0.011 A 
HETATM   17  C17 UNL     1       5.225  -0.623  -5.946  1.00  0.00     0.039 A 
BRANCH  15  18
HETATM   18  C2  UNL     1       3.139   1.731  -3.829  1.00  0.00    -0.024 C 
HETATM   19  C1  UNL     1       3.677   2.827  -2.973  1.00  0.00     0.019 C 
HETATM   20  C3  UNL     1       2.001   2.319  -4.671  1.00  0.00     0.019 C 
HETATM   21  C4  UNL     1       2.597   0.592  -2.991  1.00  0.00     0.019 C 
ENDBRANCH  15  18
ENDBRANCH  11  12
ENDBRANCH   8  11
ENDBRANCH   1   8
BRANCH   3  22
HETATM   22  C12 UNL     1      11.138   2.143  -9.483  1.00  0.00     0.270 C 
HETATM   23  O4  UNL     1      11.998   2.836 -10.112  1.00  0.00    -0.266 OA
HETATM   24  N1  UNL     1      11.346   1.927  -8.106  1.00  0.00    -0.264 N 
ATOM     25  H1  UNL     1      10.674   1.377  -7.573  1.00  0.00     0.190 HD
BRANCH  24  26
HETATM   26  N2  UNL     1      12.458   2.458  -7.470  1.00  0.00    -0.276 N 
ATOM     27  H2  UNL     1      13.377   2.051  -7.645  1.00  0.00     0.189 HD
BRANCH  26  28
HETATM   28  C13 UNL     1      12.342   3.575  -6.567  1.00  0.00     0.199 C 
HETATM   29  N3  UNL     1      13.526   4.326  -6.279  1.00  0.00    -0.068 NA
HETATM   30  S2  UNL     1      10.910   3.965  -5.897  1.00  0.00    -0.043 SA
ENDBRANCH  26  28
ENDBRANCH  24  26
ENDBRANCH   3  22
TORSDOF 7
ENDMDL
MODEL 2
REMARK VINA RESULT: -7.878003216      0.712      1.317
REMARK  7 active torsions:
REMARK  status: ('A' for Active; 'I' for Inactive)
REMARK    1  A    between atoms: C2_2  and  C5_5 
REMARK    2  A    between atoms: C8_8  and  O1_9 
REMARK    3  A    between atoms: O1_9  and  S1_10 
REMARK    4  A    between atoms: S1_10  and  C9_13 
REMARK    5  A    between atoms: C11_15  and  C12_16 
REMARK       I    between atoms: C12_16  and  N1_18 
REMARK    6  A    between atoms: N1_18  and  N2_20 
REMARK    7  A    between atoms: N2_20  and  C13_22 
ROOT
HETATM    1  C9  UNL     1       8.078   0.030 -10.084  1.00  0.00     0.126 A 
HETATM    2  C10 UNL     1       9.171   0.630  -9.496  1.00  0.00     0.046 A 
HETATM    3  C11 UNL     1       9.998   1.484 -10.195  1.00  0.00     0.035 A 
HETATM    4  C14 UNL     1       9.720   1.739 -11.510  1.00  0.00     0.020 A 
HETATM    5  C15 UNL     1       8.614   1.137 -12.123  1.00  0.00     0.045 A 
HETATM    6  C16 UNL     1       7.796   0.284 -11.410  1.00  0.00     0.140 A 
HETATM    7  F1  UNL     1       6.711  -0.305 -12.016  1.00  0.00    -0.204 F 
ENDROOT
BRANCH   1   8
HETATM    8  S1  UNL     1       7.047  -1.043  -9.174  1.00  0.00     0.306 S 
HETATM    9  O2  UNL     1       7.659  -1.246  -7.800  1.00  0.00    -0.193 OA
HETATM   10  O3  UNL     1       6.959  -2.390  -9.832  1.00  0.00    -0.193 OA
BRANCH   8  11
HETATM   11  O1  UNL     1       5.506  -0.366  -9.054  1.00  0.00    -0.229 OA
BRANCH  11  12
HETATM   12  C8  UNL     1       4.972   0.100  -7.857  1.00  0.00     0.089 A 
HETATM   13  C7  UNL     1       5.269   1.344  -7.353  1.00  0.00     0.039 A 
HETATM   14  C6  UNL     1       4.714   1.753  -6.166  1.00  0.00     0.011 A 
HETATM   15  C5  UNL     1       3.844   0.971  -5.412  1.00  0.00    -0.050 A 
HETATM   16  C18 UNL     1       3.561  -0.273  -5.936  1.00  0.00     0.011 A 
HETATM   17  C17 UNL     1       4.115  -0.698  -7.134  1.00  0.00     0.039 A 
BRANCH  15  18
HETATM   18  C2  UNL     1       3.291   1.483  -4.144  1.00  0.00    -0.024 C 
HETATM   19  C1  UNL     1       2.748   0.417  -3.256  1.00  0.00     0.019 C 
HETATM   20  C3  UNL     1       4.445   2.162  -3.397  1.00  0.00     0.019 C 
HETATM   21  C4  UNL     1       2.236   2.518  -4.472  1.00  0.00     0.019 C 
ENDBRANCH  15  18
ENDBRANCH  11  12
ENDBRANCH   8  11
ENDBRANCH   1   8
BRANCH   3  22
HETATM   22  C12 UNL     1      11.143   2.091  -9.505  1.00  0.00     0.270 C 
HETATM   23  O4  UNL     1      11.944   2.847 -10.141  1.00  0.00    -0.266 OA
HETATM   24  N1  UNL     1      11.398   1.865  -8.137  1.00  0.00    -0.264 N 
ATOM     25  H1  UNL     1      10.774   1.265  -7.599  1.00  0.00     0.190 HD
BRANCH  24  26
HETATM   26  N2  UNL     1      12.491   2.453  -7.518  1.00  0.00    -0.276 N 
ATOM     27  H2  UNL     1      13.429   2.112  -7.729  1.00  0.00     0.189 HD
BRANCH  26  28
HETATM   28  C13 UNL     1      12.327   3.537  -6.583  1.00  0.00     0.199 C 
HETATM   29  N3  UNL     1      13.495   4.277  -6.208  1.00  0.00    -0.068 NA
HETATM   30  S2  UNL     1      10.863   3.905  -5.974  1.00  0.00    -0.043 SA
ENDBRANCH  26  28
ENDBRANCH  24  26
ENDBRANCH   3  22
TORSDOF 7
ENDMDL
MODEL 3
REMARK VINA RESULT: -7.514260733      1.924      3.113
REMARK  7 active torsions:
REMARK  status: ('A' for Active; 'I' for Inactive)
REMARK    1  A    between atoms: C2_2  and  C5_5 
REMARK    2  A    between atoms: C8_8  and  O1_9 
REMARK    3  A    between atoms: O1_9  and  S1_10 
REMARK    4  A    between atoms: S1_10  and  C9_13 
REMARK    5  A    between atoms: C11_15  and  C12_16 
REMARK       I    between atoms: C12_16  and  N1_18 
REMARK    6  A    between atoms: N1_18  and  N2_20 
REMARK    7  A    between atoms: N2_20  and  C13_22 
ROOT
HETATM    1  C9  UNL     1       7.589   1.035 -10.313  1.00  0.00     0.126 A 
HETATM    2  C10 UNL     1       8.723   1.429  -9.636  1.00  0.00     0.046 A 
HETATM    3  C11 UNL     1       9.888   1.760 -10.296  1.00  0.00     0.035 A 
HETATM    4  C14 UNL     1       9.912   1.692 -11.663  1.00  0.00     0.020 A 
HETATM    5  C15 UNL     1       8.768   1.293 -12.365  1.00  0.00     0.045 A 
HETATM    6  C16 UNL     1       7.610   0.965 -11.689  1.00  0.00     0.140 A 
HETATM    7  F1  UNL     1       6.488   0.573 -12.384  1.00  0.00    -0.204 F 
ENDROOT
BRANCH   1   8
HETATM    8  S1  UNL     1       6.127   0.626  -9.450  1.00  0.00     0.306 S 
HETATM    9  O2  UNL     1       5.812  -0.836  -9.707  1.00  0.00    -0.193 OA
HETATM   10  O3  UNL     1       4.965   1.434  -9.952  1.00  0.00    -0.193 OA
BRANCH   8  11
HETATM   11  O1  UNL     1       6.355   0.915  -7.803  1.00  0.00    -0.229 OA
BRANCH  11  12
HETATM   12  C8  UNL     1       6.534  -0.103  -6.872  1.00  0.00     0.089 A 
HETATM   13  C7  UNL     1       7.677  -0.866  -6.825  1.00  0.00     0.039 A 
HETATM   14  C6  UNL     1       7.801  -1.858  -5.885  1.00  0.00     0.011 A 
HETATM   15  C5  UNL     1       6.818  -2.157  -4.946  1.00  0.00    -0.050 A 
HETATM   16  C18 UNL     1       5.681  -1.380  -5.011  1.00  0.00     0.011 A 
HETATM   17  C17 UNL     1       5.543  -0.375  -5.956  1.00  0.00     0.039 A 
BRANCH  15  18
HETATM   18  C2  UNL     1       7.028  -3.241  -3.969  1.00  0.00    -0.024 C 
HETATM   19  C1  UNL     1       6.702  -4.595  -4.500  1.00  0.00     0.019 C 
HETATM   20  C3  UNL     1       8.518  -3.234  -3.608  1.00  0.00     0.019 C 
HETATM   21  C4  UNL     1       6.217  -2.925  -2.730  1.00  0.00     0.019 C 
ENDBRANCH  15  18
ENDBRANCH  11  12
ENDBRANCH   8  11
ENDBRANCH   1   8
BRANCH   3  22
HETATM   22  C12 UNL     1      11.058   2.174  -9.513  1.00  0.00     0.270 C 
HETATM   23  O4  UNL     1      12.028   2.768 -10.081  1.00  0.00    -0.266 OA
HETATM   24  N1  UNL     1      11.154   1.935  -8.127  1.00  0.00    -0.264 N 
ATOM     25  H1  UNL     1      10.393   1.461  -7.642  1.00  0.00     0.190 HD
BRANCH  24  26
HETATM   26  N2  UNL     1      12.276   2.339  -7.419  1.00  0.00    -0.276 N 
ATOM     27  H2  UNL     1      13.151   1.829  -7.535  1.00  0.00     0.189 HD
BRANCH  26  28
HETATM   28  C13 UNL     1      12.228   3.464  -6.521  1.00  0.00     0.199 C 
HETATM   29  N3  UNL     1      13.454   4.153  -6.248  1.00  0.00    -0.068 NA
HETATM   30  S2  UNL     1      10.826   3.935  -5.839  1.00  0.00    -0.043 SA
ENDBRANCH  26  28
ENDBRANCH  24  26
ENDBRANCH   3  22
TORSDOF 7
ENDMDL
MODEL 4
REMARK VINA RESULT: -7.388030021      4.099      5.747
REMARK  7 active torsions:
REMARK  status: ('A' for Active; 'I' for Inactive)
REMARK    1  A    between atoms: C2_2  and  C5_5 
REMARK    2  A    between atoms: C8_8  and  O1_9 
REMARK    3  A    between atoms: O1_9  and  S1_10 
REMARK    4  A    between atoms: S1_10  and  C9_13 
REMARK    5  A    between atoms: C11_15  and  C12_16 
REMARK       I    between atoms: C12_16  and  N1_18 
REMARK    6  A    between atoms: N1_18  and  N2_20 
REMARK    7  A    between atoms: N2_20  and  C13_22 
ROOT
HETATM    1  C9  UNL     1       6.114   0.569  -6.434  1.00  0.00     0.126 A 
HETATM    2  C10 UNL     1       7.233   0.414  -7.224  1.00  0.00     0.046 A 
HETATM    3  C11 UNL     1       8.103   1.457  -7.470  1.00  0.00     0.035 A 
HETATM    4  C14 UNL     1       7.839   2.678  -6.911  1.00  0.00     0.020 A 
HETATM    5  C15 UNL     1       6.706   2.852  -6.107  1.00  0.00     0.045 A 
HETATM    6  C16 UNL     1       5.846   1.798  -5.870  1.00  0.00     0.140 A 
HETATM    7  F1  UNL     1       4.734   1.974  -5.080  1.00  0.00    -0.204 F 
ENDROOT
BRANCH   1   8
HETATM    8  S1  UNL     1       5.035  -0.770  -6.137  1.00  0.00     0.306 S 
HETATM    9  O2  UNL     1       3.845  -0.642  -7.069  1.00  0.00    -0.193 OA
HETATM   10  O3  UNL     1       4.512  -0.735  -4.730  1.00  0.00    -0.193 OA
BRANCH   8  11
HETATM   11  O1  UNL     1       5.859  -2.218  -6.404  1.00  0.00    -0.229 OA
BRANCH  11  12
HETATM   12  C8  UNL     1       6.566  -2.884  -5.408  1.00  0.00     0.089 A 
HETATM   13  C7  UNL     1       7.681  -2.345  -4.811  1.00  0.00     0.039 A 
HETATM   14  C6  UNL     1       8.341  -3.047  -3.833  1.00  0.00     0.011 A 
HETATM   15  C5  UNL     1       7.948  -4.306  -3.389  1.00  0.00    -0.050 A 
HETATM   16  C18 UNL     1       6.828  -4.827  -4.001  1.00  0.00     0.011 A 
HETATM   17  C17 UNL     1       6.152  -4.129  -4.991  1.00  0.00     0.039 A 
BRANCH  15  18
HETATM   18  C2  UNL     1       8.713  -4.995  -2.334  1.00  0.00    -0.024 C 
HETATM   19  C1  UNL     1       7.857  -5.726  -1.357  1.00  0.00     0.019 C 
HETATM   20  C3  UNL     1       9.603  -6.030  -3.032  1.00  0.00     0.019 C 
HETATM   21  C4  UNL     1       9.591  -3.973  -1.642  1.00  0.00     0.019 C 
ENDBRANCH  15  18
ENDBRANCH  11  12
ENDBRANCH   8  11
ENDBRANCH   1   8
BRANCH   3  22
HETATM   22  C12 UNL     1       9.277   1.221  -8.318  1.00  0.00     0.270 C 
HETATM   23  O4  UNL     1       9.638   0.032  -8.591  1.00  0.00    -0.266 OA
HETATM   24  N1  UNL     1      10.038   2.279  -8.855  1.00  0.00    -0.264 N 
ATOM     25  H1  UNL     1       9.773   3.244  -8.655  1.00  0.00     0.190 HD
BRANCH  24  26
HETATM   26  N2  UNL     1      11.142   2.019  -9.651  1.00  0.00    -0.276 N 
ATOM     27  H2  UNL     1      12.042   1.825  -9.211  1.00  0.00     0.189 HD
BRANCH  26  28
HETATM   28  C13 UNL     1      11.044   2.018 -11.089  1.00  0.00     0.199 C 
HETATM   29  N3  UNL     1      12.215   2.365 -11.837  1.00  0.00    -0.068 NA
HETATM   30  S2  UNL     1       9.648   1.636 -11.834  1.00  0.00    -0.043 SA
ENDBRANCH  26  28
ENDBRANCH  24  26
ENDBRANCH   3  22
TORSDOF 7
ENDMDL
MODEL 5
REMARK VINA RESULT: -7.359546241      3.817      5.592
REMARK  7 active torsions:
REMARK  status: ('A' for Active; 'I' for Inactive)
REMARK    1  A    between atoms: C2_2  and  C5_5 
REMARK    2  A    between atoms: C8_8  and  O1_9 
REMARK    3  A    between atoms: O1_9  and  S1_10 
REMARK    4  A    between atoms: S1_10  and  C9_13 
REMARK    5  A    between atoms: C11_15  and  C12_16 
REMARK       I    between atoms: C12_16  and  N1_18 
REMARK    6  A    between atoms: N1_18  and  N2_20 
REMARK    7  A    between atoms: N2_20  and  C13_22 
ROOT
HETATM    1  C9  UNL     1       9.455   1.549  -9.565  1.00  0.00     0.126 A 
HETATM    2  C10 UNL     1       8.556   0.910 -10.392  1.00  0.00     0.046 A 
HETATM    3  C11 UNL     1       8.734   0.856 -11.759  1.00  0.00     0.035 A 
HETATM    4  C14 UNL     1       9.836   1.458 -12.303  1.00  0.00     0.020 A 
HETATM    5  C15 UNL     1      10.758   2.112 -11.477  1.00  0.00     0.045 A 
HETATM    6  C16 UNL     1      10.566   2.157 -10.110  1.00  0.00     0.140 A 
HETATM    7  F1  UNL     1      11.474   2.801  -9.302  1.00  0.00    -0.204 F 
ENDROOT
BRANCH   1   8
HETATM    8  S1  UNL     1       9.206   1.597  -7.838  1.00  0.00     0.306 S 
HETATM    9  O2  UNL     1      10.496   2.051  -7.180  1.00  0.00    -0.193 OA
HETATM   10  O3  UNL     1       8.882   0.232  -7.305  1.00  0.00    -0.193 OA
BRANCH   8  11
HETATM   11  O1  UNL     1       7.943   2.661  -7.488  1.00  0.00    -0.229 OA
BRANCH  11  12
HETATM   12  C8  UNL     1       6.709   2.240  -7.002  1.00  0.00     0.089 A 
HETATM   13  C7  UNL     1       5.743   1.699  -7.816  1.00  0.00     0.039 A 
HETATM   14  C6  UNL     1       4.543   1.301  -7.283  1.00  0.00     0.011 A 
HETATM   15  C5  UNL     1       4.224   1.411  -5.933  1.00  0.00    -0.050 A 
HETATM   16  C18 UNL     1       5.207   1.956  -5.135  1.00  0.00     0.011 A 
HETATM   17  C17 UNL     1       6.425   2.363  -5.660  1.00  0.00     0.039 A 
BRANCH  15  18
HETATM   18  C2  UNL     1       2.910   0.960  -5.438  1.00  0.00    -0.024 C 
HETATM   19  C1  UNL     1       2.991  -0.163  -4.463  1.00  0.00     0.019 C 
HETATM   20  C3  UNL     1       2.273   2.154  -4.716  1.00  0.00     0.019 C 
HETATM   21  C4  UNL     1       2.056   0.592  -6.634  1.00  0.00     0.019 C 
ENDBRANCH  15  18
ENDBRANCH  11  12
ENDBRANCH   8  11
ENDBRANCH   1   8
BRANCH   3  22
HETATM   22  C12 UNL     1       7.739   0.156 -12.580  1.00  0.00     0.270 C 
HETATM   23  O4  UNL     1       7.194  -0.910 -12.151  1.00  0.00    -0.266 OA
HETATM   24  N1  UNL     1       7.353   0.626 -13.851  1.00  0.00    -0.264 N 
ATOM     25  H1  UNL     1       7.771   1.479 -14.223  1.00  0.00     0.190 HD
BRANCH  24  26
HETATM   26  N2  UNL     1       6.411  -0.062 -14.600  1.00  0.00    -0.276 N 
ATOM     27  H2  UNL     1       5.973  -0.896 -14.209  1.00  0.00     0.189 HD
BRANCH  26  28
HETATM   28  C13 UNL     1       6.039   0.377 -15.921  1.00  0.00     0.199 C 
HETATM   29  N3  UNL     1       7.071   0.462 -16.911  1.00  0.00    -0.068 NA
HETATM   30  S2  UNL     1       4.497   0.763 -16.273  1.00  0.00    -0.043 SA
ENDBRANCH  26  28
ENDBRANCH  24  26
ENDBRANCH   3  22
TORSDOF 7
ENDMDL
