MODEL 1
REMARK VINA RESULT: -8.334994398      0.000      0.000
REMARK  9 active torsions:
REMARK  status: ('A' for Active; 'I' for Inactive)
REMARK    1  A    between atoms: C4_4  and  C5_5 
REMARK    2  A    between atoms: C5_5  and  O1_6 
REMARK    3  A    between atoms: N1_8  and  C6_10 
REMARK    4  A    between atoms: C6_10  and  O2_11 
REMARK    5  A    between atoms: C6_10  and  N2_13 
REMARK    6  A    between atoms: N2_13  and  N3_15 
REMARK       I    between atoms: N3_15  and  C7_17 
REMARK    7  A    between atoms: C7_17  and  C8_19 
REMARK    8  A    between atoms: C11_22  and  S1_23 
REMARK    9  A    between atoms: S1_23  and  C12_26 
ROOT
HETATM    1  N3  UNL     1       9.438   1.886 -10.856  1.00  0.00    -0.263 N 
ATOM      2  H3  UNL     1       9.347   2.437 -10.002  1.00  0.00     0.190 HD
HETATM    3  C7  UNL     1       8.378   1.045 -11.258  1.00  0.00     0.270 C 
HETATM    4  O3  UNL     1       8.485   0.364 -12.308  1.00  0.00    -0.266 OA
ENDROOT
BRANCH   3   5
HETATM    5  C8  UNL     1       7.178   0.994 -10.430  1.00  0.00     0.033 A 
HETATM    6  C9  UNL     1       6.491  -0.196 -10.309  1.00  0.00     0.018 A 
HETATM    7  C10 UNL     1       5.345  -0.269  -9.517  1.00  0.00     0.025 A 
HETATM    8  C11 UNL     1       4.875   0.832  -8.844  1.00  0.00     0.064 A 
HETATM    9  C19 UNL     1       5.555   2.026  -8.957  1.00  0.00     0.025 A 
HETATM   10  C20 UNL     1       6.701   2.094  -9.752  1.00  0.00     0.018 A 
BRANCH   8  11
HETATM   11  S1  UNL     1       3.427   0.672  -7.886  1.00  0.00     0.207 S 
HETATM   12  O4  UNL     1       3.083  -0.804  -7.870  1.00  0.00    -0.217 OA
HETATM   13  O5  UNL     1       2.274   1.356  -8.559  1.00  0.00    -0.217 OA
BRANCH  11  14
HETATM   14  C12 UNL     1       3.734   1.251  -6.296  1.00  0.00     0.073 A 
HETATM   15  C13 UNL     1       5.033   1.367  -5.853  1.00  0.00     0.024 A 
HETATM   16  C14 UNL     1       5.354   1.813  -4.578  1.00  0.00     0.005 A 
HETATM   17  C15 UNL     1       4.344   2.165  -3.687  1.00  0.00     0.043 A 
HETATM   18  C16 UNL     1       3.057   2.049  -4.128  1.00  0.00     0.123 A 
HETATM   19  F1  UNL     1       2.036   2.375  -3.306  1.00  0.00    -0.206 F 
HETATM   20  C17 UNL     1       2.752   1.606  -5.392  1.00  0.00    -0.002 A 
HETATM   21  C18 UNL     1       1.354   1.499  -5.853  1.00  0.00     0.053 C 
ENDBRANCH  11  14
ENDBRANCH   8  11
ENDBRANCH   3   5
BRANCH   1  22
HETATM   22  N2  UNL     1      10.640   1.976 -11.631  1.00  0.00    -0.262 N 
ATOM     23  H2  UNL     1      10.644   1.794 -12.635  1.00  0.00     0.190 HD
BRANCH  22  24
HETATM   24  C6  UNL     1      11.798   2.322 -10.951  1.00  0.00     0.238 C 
BRANCH  24  25
HETATM   25  N1  UNL     1      12.078   2.443  -9.606  1.00  0.00    -0.302 N 
HETATM   26  C5  UNL     1      11.515   2.549  -8.405  1.00  0.00     0.142 C 
ATOM     27  H1  UNL     1      13.092   2.457  -9.489  1.00  0.00     0.171 HD
BRANCH  26  28
HETATM   28  C4  UNL     1      10.381   2.731  -7.626  1.00  0.00     0.058 C 
HETATM   29  C2  UNL     1       9.391   2.082  -7.170  1.00  0.00    -0.084 C 
HETATM   30  C1  UNL     1       9.024   0.691  -7.322  1.00  0.00     0.043 C 
HETATM   31  C3  UNL     1       8.401   2.913  -6.301  1.00  0.00     0.043 C 
ENDBRANCH  26  28
BRANCH  26  32
HETATM   32  O1  UNL     1      12.584   2.415  -7.446  1.00  0.00    -0.346 OA
ATOM     33  H1  UNL     1      12.343   1.651  -6.936  1.00  0.00     0.219 HD
ENDBRANCH  26  32
ENDBRANCH  24  25
BRANCH  24  34
HETATM   34  O2  UNL     1      12.861   2.594 -11.711  1.00  0.00    -0.331 OA
ATOM     35  H2  UNL     1      12.743   3.387 -12.222  1.00  0.00     0.221 HD
ENDBRANCH  24  34
ENDBRANCH  22  24
ENDBRANCH   1  22
TORSDOF 9
ENDMDL
MODEL 2
REMARK VINA RESULT: -8.137323731      2.635      4.247
REMARK  9 active torsions:
REMARK  status: ('A' for Active; 'I' for Inactive)
REMARK    1  A    between atoms: C4_4  and  C5_5 
REMARK    2  A    between atoms: C5_5  and  O1_6 
REMARK    3  A    between atoms: N1_8  and  C6_10 
REMARK    4  A    between atoms: C6_10  and  O2_11 
REMARK    5  A    between atoms: C6_10  and  N2_13 
REMARK    6  A    between atoms: N2_13  and  N3_15 
REMARK       I    between atoms: N3_15  and  C7_17 
REMARK    7  A    between atoms: C7_17  and  C8_19 
REMARK    8  A    between atoms: C11_22  and  S1_23 
REMARK    9  A    between atoms: S1_23  and  C12_26 
ROOT
HETATM    1  N3  UNL     1       9.300   2.606  -7.330  1.00  0.00    -0.263 N 
ATOM      2  H3  UNL     1       9.366   2.043  -8.178  1.00  0.00     0.190 HD
HETATM    3  C7  UNL     1       8.045   2.787  -6.711  1.00  0.00     0.270 C 
HETATM    4  O3  UNL     1       7.957   3.482  -5.666  1.00  0.00    -0.266 OA
ENDROOT
BRANCH   3   5
HETATM    5  C8  UNL     1       6.875   2.155  -7.311  1.00  0.00     0.033 A 
HETATM    6  C9  UNL     1       6.656   2.288  -8.666  1.00  0.00     0.018 A 
HETATM    7  C10 UNL     1       5.548   1.686  -9.261  1.00  0.00     0.025 A 
HETATM    8  C11 UNL     1       4.654   0.951  -8.521  1.00  0.00     0.064 A 
HETATM    9  C19 UNL     1       4.865   0.811  -7.165  1.00  0.00     0.025 A 
HETATM   10  C20 UNL     1       5.975   1.417  -6.574  1.00  0.00     0.018 A 
BRANCH   8  11
HETATM   11  S1  UNL     1       3.282   0.240  -9.328  1.00  0.00     0.207 S 
HETATM   12  O4  UNL     1       2.716  -0.798  -8.379  1.00  0.00    -0.217 OA
HETATM   13  O5  UNL     1       3.723  -0.513 -10.548  1.00  0.00    -0.217 OA
BRANCH  11  14
HETATM   14  C12 UNL     1       2.124   1.467  -9.661  1.00  0.00     0.073 A 
HETATM   15  C13 UNL     1       2.112   2.075 -10.897  1.00  0.00     0.024 A 
HETATM   16  C14 UNL     1       1.216   3.081 -11.229  1.00  0.00     0.005 A 
HETATM   17  C15 UNL     1       0.277   3.515 -10.297  1.00  0.00     0.043 A 
HETATM   18  C16 UNL     1       0.290   2.911  -9.073  1.00  0.00     0.123 A 
HETATM   19  F1  UNL     1      -0.597   3.293  -8.128  1.00  0.00    -0.206 F 
HETATM   20  C17 UNL     1       1.182   1.916  -8.756  1.00  0.00    -0.002 A 
HETATM   21  C18 UNL     1       1.173   1.268  -7.430  1.00  0.00     0.053 C 
ENDBRANCH  11  14
ENDBRANCH   8  11
ENDBRANCH   3   5
BRANCH   1  22
HETATM   22  N2  UNL     1      10.483   3.204  -6.783  1.00  0.00    -0.262 N 
ATOM     23  H2  UNL     1      10.442   3.840  -5.987  1.00  0.00     0.190 HD
BRANCH  22  24
HETATM   24  C6  UNL     1      11.686   2.876  -7.390  1.00  0.00     0.238 C 
BRANCH  24  25
HETATM   25  N1  UNL     1      12.020   2.625  -8.704  1.00  0.00    -0.302 N 
HETATM   26  C5  UNL     1      11.505   2.387  -9.908  1.00  0.00     0.142 C 
ATOM     27  H1  UNL     1      13.037   2.619  -8.782  1.00  0.00     0.171 HD
BRANCH  26  28
HETATM   28  C4  UNL     1      10.405   2.105 -10.705  1.00  0.00     0.058 C 
HETATM   29  C2  UNL     1       9.420   1.308 -10.771  1.00  0.00    -0.084 C 
HETATM   30  C1  UNL     1       9.022   0.226  -9.897  1.00  0.00     0.043 C 
HETATM   31  C3  UNL     1       8.476   1.523 -11.991  1.00  0.00     0.043 C 
ENDBRANCH  26  28
BRANCH  26  32
HETATM   32  O1  UNL     1      12.607   2.443 -10.836  1.00  0.00    -0.346 OA
ATOM     33  H1  UNL     1      13.349   2.701 -10.300  1.00  0.00     0.219 HD
ENDBRANCH  26  32
ENDBRANCH  24  25
BRANCH  24  34
HETATM   34  O2  UNL     1      12.741   2.780  -6.577  1.00  0.00    -0.331 OA
ATOM     35  H2  UNL     1      12.884   1.888  -6.282  1.00  0.00     0.221 HD
ENDBRANCH  24  34
ENDBRANCH  22  24
ENDBRANCH   1  22
TORSDOF 9
ENDMDL
MODEL 3
REMARK VINA RESULT: -8.098349049      2.649      4.261
REMARK  9 active torsions:
REMARK  status: ('A' for Active; 'I' for Inactive)
REMARK    1  A    between atoms: C4_4  and  C5_5 
REMARK    2  A    between atoms: C5_5  and  O1_6 
REMARK    3  A    between atoms: N1_8  and  C6_10 
REMARK    4  A    between atoms: C6_10  and  O2_11 
REMARK    5  A    between atoms: C6_10  and  N2_13 
REMARK    6  A    between atoms: N2_13  and  N3_15 
REMARK       I    between atoms: N3_15  and  C7_17 
REMARK    7  A    between atoms: C7_17  and  C8_19 
REMARK    8  A    between atoms: C11_22  and  S1_23 
REMARK    9  A    between atoms: S1_23  and  C12_26 
ROOT
HETATM    1  N3  UNL     1       9.359   2.630  -7.281  1.00  0.00    -0.263 N 
ATOM      2  H3  UNL     1       9.407   2.032  -8.106  1.00  0.00     0.190 HD
HETATM    3  C7  UNL     1       8.114   2.854  -6.654  1.00  0.00     0.270 C 
HETATM    4  O3  UNL     1       8.050   3.591  -5.638  1.00  0.00    -0.266 OA
ENDROOT
BRANCH   3   5
HETATM    5  C8  UNL     1       6.929   2.214  -7.213  1.00  0.00     0.033 A 
HETATM    6  C9  UNL     1       6.032   1.597  -6.366  1.00  0.00     0.018 A 
HETATM    7  C10 UNL     1       4.888   0.986  -6.879  1.00  0.00     0.025 A 
HETATM    8  C11 UNL     1       4.627   0.982  -8.227  1.00  0.00     0.064 A 
HETATM    9  C19 UNL     1       5.517   1.597  -9.082  1.00  0.00     0.025 A 
HETATM   10  C20 UNL     1       6.661   2.207  -8.564  1.00  0.00     0.018 A 
BRANCH   8  11
HETATM   11  S1  UNL     1       3.186   0.183  -8.800  1.00  0.00     0.207 S 
HETATM   12  O4  UNL     1       2.953  -0.996  -7.875  1.00  0.00    -0.217 OA
HETATM   13  O5  UNL     1       3.416  -0.401 -10.162  1.00  0.00    -0.217 OA
BRANCH  11  14
HETATM   14  C12 UNL     1       1.867   1.284  -8.739  1.00  0.00     0.073 A 
HETATM   15  C13 UNL     1       1.098   1.363  -7.598  1.00  0.00     0.024 A 
HETATM   16  C14 UNL     1       0.011   2.218  -7.484  1.00  0.00     0.005 A 
HETATM   17  C15 UNL     1      -0.342   3.044  -8.549  1.00  0.00     0.043 A 
HETATM   18  C16 UNL     1       0.421   2.964  -9.678  1.00  0.00     0.123 A 
HETATM   19  F1  UNL     1       0.124   3.741 -10.742  1.00  0.00    -0.206 F 
HETATM   20  C17 UNL     1       1.495   2.114  -9.778  1.00  0.00    -0.002 A 
HETATM   21  C18 UNL     1       2.315   2.051 -11.003  1.00  0.00     0.053 C 
ENDBRANCH  11  14
ENDBRANCH   8  11
ENDBRANCH   3   5
BRANCH   1  22
HETATM   22  N2  UNL     1      10.557   3.233  -6.774  1.00  0.00    -0.262 N 
ATOM     23  H2  UNL     1      10.537   3.885  -5.989  1.00  0.00     0.190 HD
BRANCH  22  24
HETATM   24  C6  UNL     1      11.744   2.888  -7.401  1.00  0.00     0.238 C 
BRANCH  24  25
HETATM   25  N1  UNL     1      12.050   2.627  -8.721  1.00  0.00    -0.302 N 
HETATM   26  C5  UNL     1      11.510   2.382  -9.912  1.00  0.00     0.142 C 
ATOM     27  H1  UNL     1      13.065   2.618  -8.820  1.00  0.00     0.171 HD
BRANCH  26  28
HETATM   28  C4  UNL     1      10.392   2.098 -10.684  1.00  0.00     0.058 C 
HETATM   29  C2  UNL     1       9.407   1.300 -10.726  1.00  0.00    -0.084 C 
HETATM   30  C1  UNL     1       9.030   0.219  -9.841  1.00  0.00     0.043 C 
HETATM   31  C3  UNL     1       8.436   1.511 -11.926  1.00  0.00     0.043 C 
ENDBRANCH  26  28
BRANCH  26  32
HETATM   32  O1  UNL     1      12.593   2.430 -10.863  1.00  0.00    -0.346 OA
ATOM     33  H1  UNL     1      12.803   1.517 -11.021  1.00  0.00     0.219 HD
ENDBRANCH  26  32
ENDBRANCH  24  25
BRANCH  24  34
HETATM   34  O2  UNL     1      12.813   2.782  -6.609  1.00  0.00    -0.331 OA
ATOM     35  H2  UNL     1      12.602   2.956  -5.699  1.00  0.00     0.221 HD
ENDBRANCH  24  34
ENDBRANCH  22  24
ENDBRANCH   1  22
TORSDOF 9
ENDMDL
MODEL 4
REMARK VINA RESULT: -7.990972228      0.969      1.571
REMARK  9 active torsions:
REMARK  status: ('A' for Active; 'I' for Inactive)
REMARK    1  A    between atoms: C4_4  and  C5_5 
REMARK    2  A    between atoms: C5_5  and  O1_6 
REMARK    3  A    between atoms: N1_8  and  C6_10 
REMARK    4  A    between atoms: C6_10  and  O2_11 
REMARK    5  A    between atoms: C6_10  and  N2_13 
REMARK    6  A    between atoms: N2_13  and  N3_15 
REMARK       I    between atoms: N3_15  and  C7_17 
REMARK    7  A    between atoms: C7_17  and  C8_19 
REMARK    8  A    between atoms: C11_22  and  S1_23 
REMARK    9  A    between atoms: S1_23  and  C12_26 
ROOT
HETATM    1  N3  UNL     1       9.348   1.658 -10.568  1.00  0.00    -0.263 N 
ATOM      2  H3  UNL     1       9.462   1.629  -9.554  1.00  0.00     0.190 HD
HETATM    3  C7  UNL     1       8.117   1.274 -11.142  1.00  0.00     0.270 C 
HETATM    4  O3  UNL     1       7.973   1.308 -12.390  1.00  0.00    -0.266 OA
ENDROOT
BRANCH   3   5
HETATM    5  C8  UNL     1       7.040   0.846 -10.258  1.00  0.00     0.033 A 
HETATM    6  C9  UNL     1       6.863  -0.500 -10.011  1.00  0.00     0.018 A 
HETATM    7  C10 UNL     1       5.843  -0.930  -9.163  1.00  0.00     0.025 A 
HETATM    8  C11 UNL     1       4.997  -0.036  -8.555  1.00  0.00     0.064 A 
HETATM    9  C19 UNL     1       5.166   1.312  -8.794  1.00  0.00     0.025 A 
HETATM   10  C20 UNL     1       6.188   1.739  -9.645  1.00  0.00     0.018 A 
BRANCH   8  11
HETATM   11  S1  UNL     1       3.734  -0.646  -7.520  1.00  0.00     0.207 S 
HETATM   12  O4  UNL     1       4.256  -1.937  -6.921  1.00  0.00    -0.217 OA
HETATM   13  O5  UNL     1       2.530  -1.026  -8.330  1.00  0.00    -0.217 OA
BRANCH  11  14
HETATM   14  C12 UNL     1       3.399   0.511  -6.294  1.00  0.00     0.073 A 
HETATM   15  C13 UNL     1       2.172   1.137  -6.266  1.00  0.00     0.024 A 
HETATM   16  C14 UNL     1       1.838   2.091  -5.314  1.00  0.00     0.005 A 
HETATM   17  C15 UNL     1       2.760   2.451  -4.334  1.00  0.00     0.043 A 
HETATM   18  C16 UNL     1       3.975   1.830  -4.364  1.00  0.00     0.123 A 
HETATM   19  F1  UNL     1       4.909   2.141  -3.438  1.00  0.00    -0.206 F 
HETATM   20  C17 UNL     1       4.293   0.887  -5.311  1.00  0.00    -0.002 A 
HETATM   21  C18 UNL     1       5.608   0.218  -5.319  1.00  0.00     0.053 C 
ENDBRANCH  11  14
ENDBRANCH   8  11
ENDBRANCH   3   5
BRANCH   1  22
HETATM   22  N2  UNL     1      10.441   2.089 -11.390  1.00  0.00    -0.262 N 
ATOM     23  H2  UNL     1      10.337   2.210 -12.398  1.00  0.00     0.190 HD
BRANCH  22  24
HETATM   24  C6  UNL     1      11.646   2.333 -10.749  1.00  0.00     0.238 C 
BRANCH  24  25
HETATM   25  N1  UNL     1      11.973   2.469  -9.416  1.00  0.00    -0.302 N 
HETATM   26  C5  UNL     1      11.453   2.628  -8.201  1.00  0.00     0.142 C 
ATOM     27  H1  UNL     1      12.989   2.436  -9.329  1.00  0.00     0.171 HD
BRANCH  26  28
HETATM   28  C4  UNL     1      10.352   2.880  -7.394  1.00  0.00     0.058 C 
HETATM   29  C2  UNL     1       9.313   2.307  -6.947  1.00  0.00    -0.084 C 
HETATM   30  C1  UNL     1       8.815   0.964  -7.148  1.00  0.00     0.043 C 
HETATM   31  C3  UNL     1       8.419   3.189  -6.025  1.00  0.00     0.043 C 
ENDBRANCH  26  28
BRANCH  26  32
HETATM   32  O1  UNL     1      12.542   2.463  -7.272  1.00  0.00    -0.346 OA
ATOM     33  H1  UNL     1      13.167   1.922  -7.740  1.00  0.00     0.219 HD
ENDBRANCH  26  32
ENDBRANCH  24  25
BRANCH  24  34
HETATM   34  O2  UNL     1      12.712   2.463 -11.542  1.00  0.00    -0.331 OA
ATOM     35  H2  UNL     1      12.853   1.692 -12.080  1.00  0.00     0.221 HD
ENDBRANCH  24  34
ENDBRANCH  22  24
ENDBRANCH   1  22
TORSDOF 9
ENDMDL
MODEL 5
REMARK VINA RESULT: -7.970062311      4.458      5.347
REMARK  9 active torsions:
REMARK  status: ('A' for Active; 'I' for Inactive)
REMARK    1  A    between atoms: C4_4  and  C5_5 
REMARK    2  A    between atoms: C5_5  and  O1_6 
REMARK    3  A    between atoms: N1_8  and  C6_10 
REMARK    4  A    between atoms: C6_10  and  O2_11 
REMARK    5  A    between atoms: C6_10  and  N2_13 
REMARK    6  A    between atoms: N2_13  and  N3_15 
REMARK       I    between atoms: N3_15  and  C7_17 
REMARK    7  A    between atoms: C7_17  and  C8_19 
REMARK    8  A    between atoms: C11_22  and  S1_23 
REMARK    9  A    between atoms: S1_23  and  C12_26 
ROOT
HETATM    1  N3  UNL     1       8.279  -0.300 -10.380  1.00  0.00    -0.263 N 
ATOM      2  H3  UNL     1       8.582   0.332  -9.639  1.00  0.00     0.190 HD
HETATM    3  C7  UNL     1       7.515  -1.441 -10.052  1.00  0.00     0.270 C 
HETATM    4  O3  UNL     1       7.139  -2.224 -10.961  1.00  0.00    -0.266 OA
ENDROOT
BRANCH   3   5
HETATM    5  C8  UNL     1       7.183  -1.678  -8.652  1.00  0.00     0.033 A 
HETATM    6  C9  UNL     1       6.005  -2.322  -8.336  1.00  0.00     0.018 A 
HETATM    7  C10 UNL     1       5.671  -2.565  -7.004  1.00  0.00     0.025 A 
HETATM    8  C11 UNL     1       6.499  -2.174  -5.981  1.00  0.00     0.064 A 
HETATM    9  C19 UNL     1       7.680  -1.530  -6.285  1.00  0.00     0.025 A 
HETATM   10  C20 UNL     1       8.009  -1.288  -7.621  1.00  0.00     0.018 A 
BRANCH   8  11
HETATM   11  S1  UNL     1       6.011  -2.495  -4.338  1.00  0.00     0.207 S 
HETATM   12  O4  UNL     1       4.755  -3.341  -4.421  1.00  0.00    -0.217 OA
HETATM   13  O5  UNL     1       5.606  -1.223  -3.653  1.00  0.00    -0.217 OA
BRANCH  11  14
HETATM   14  C12 UNL     1       7.271  -3.339  -3.528  1.00  0.00     0.073 A 
HETATM   15  C13 UNL     1       8.143  -2.646  -2.718  1.00  0.00     0.024 A 
HETATM   16  C14 UNL     1       9.191  -3.260  -2.046  1.00  0.00     0.005 A 
HETATM   17  C15 UNL     1       9.394  -4.632  -2.175  1.00  0.00     0.043 A 
HETATM   18  C16 UNL     1       8.528  -5.317  -2.978  1.00  0.00     0.123 A 
HETATM   19  F1  UNL     1       8.677  -6.650  -3.141  1.00  0.00    -0.206 F 
HETATM   20  C17 UNL     1       7.495  -4.697  -3.638  1.00  0.00    -0.002 A 
HETATM   21  C18 UNL     1       6.562  -5.457  -4.492  1.00  0.00     0.053 C 
ENDBRANCH  11  14
ENDBRANCH   8  11
ENDBRANCH   3   5
BRANCH   1  22
HETATM   22  N2  UNL     1       8.633  -0.018 -11.740  1.00  0.00    -0.262 N 
ATOM     23  H2  UNL     1       8.526  -0.716 -12.477  1.00  0.00     0.190 HD
BRANCH  22  24
HETATM   24  C6  UNL     1       9.128   1.249 -12.006  1.00  0.00     0.238 C 
BRANCH  24  25
HETATM   25  N1  UNL     1      10.374   1.812 -11.824  1.00  0.00    -0.302 N 
HETATM   26  C5  UNL     1      11.242   2.201 -10.893  1.00  0.00     0.142 C 
ATOM     27  H1  UNL     1      10.779   2.000 -12.741  1.00  0.00     0.171 HD
BRANCH  26  28
HETATM   28  C4  UNL     1      11.536   2.454  -9.561  1.00  0.00     0.058 C 
HETATM   29  C2  UNL     1      11.001   2.397  -8.412  1.00  0.00    -0.084 C 
HETATM   30  C1  UNL     1       9.676   1.982  -8.007  1.00  0.00     0.043 C 
HETATM   31  C3  UNL     1      11.917   2.846  -7.235  1.00  0.00     0.043 C 
ENDBRANCH  26  28
BRANCH  26  32
HETATM   32  O1  UNL     1      12.465   2.514 -11.590  1.00  0.00    -0.346 OA
ATOM     33  H1  UNL     1      12.751   1.680 -11.944  1.00  0.00     0.219 HD
ENDBRANCH  26  32
ENDBRANCH  24  25
BRANCH  24  34
HETATM   34  O2  UNL     1       8.262   2.112 -12.544  1.00  0.00    -0.331 OA
ATOM     35  H2  UNL     1       7.737   1.712 -13.227  1.00  0.00     0.221 HD
ENDBRANCH  24  34
ENDBRANCH  22  24
ENDBRANCH   1  22
TORSDOF 9
ENDMDL
