MODEL 1
REMARK VINA RESULT: -7.966315844      0.000      0.000
REMARK  6 active torsions:
REMARK  status: ('A' for Active; 'I' for Inactive)
REMARK    1  A    between atoms: C12_13  and  O1_14 
REMARK    2  A    between atoms: O1_14  and  C13_15 
REMARK       I    between atoms: C13_15  and  N1_17 
REMARK    3  A    between atoms: N1_17  and  C14_18 
REMARK    4  A    between atoms: C14_18  and  C15_19 
REMARK    5  A    between atoms: C14_18  and  C16_22 
REMARK    6  A    between atoms: C16_22  and  C18_24 
ROOT
HETATM    1  C1  UNL     1       7.698  -3.172   0.420  1.00  0.00     0.015 C 
HETATM    2  C2  UNL     1       7.839  -3.463  -0.841  1.00  0.00    -0.076 C 
HETATM    3  C3  UNL     1       9.220  -3.209  -1.411  1.00  0.00     0.034 C 
HETATM    4  C4  UNL     1       9.159  -3.269  -2.885  1.00  0.00     0.006 C 
HETATM    5  C5  UNL     1       8.542  -4.503  -3.476  1.00  0.00     0.027 C 
HETATM    6  C6  UNL     1       7.463  -5.089  -2.590  1.00  0.00     0.047 C 
HETATM    7  C7  UNL     1       8.084  -6.078  -1.597  1.00  0.00     0.034 C 
HETATM    8 CL1  UNL     1       6.343  -5.986  -3.584  1.00  0.00    -0.118 Cl
HETATM    9  C8  UNL     1       6.817  -4.018  -1.745  1.00  0.00     0.031 A 
HETATM   10  C9  UNL     1       5.548  -4.403  -1.105  1.00  0.00     0.033 A 
HETATM   11  C10 UNL     1       4.741  -3.459  -1.934  1.00  0.00     0.013 A 
HETATM   12  C11 UNL     1       3.746  -4.104  -2.868  1.00  0.00     0.020 C 
HETATM   13  C12 UNL     1       4.149  -2.241  -1.290  1.00  0.00     0.169 C 
HETATM   14  C19 UNL     1       5.315  -1.266  -1.242  1.00  0.00     0.201 C 
HETATM   15  O6  UNL     1       6.315  -1.743  -2.009  1.00  0.00    -0.381 OA
HETATM   16  C20 UNL     1       6.029  -2.965  -2.542  1.00  0.00     0.147 A 
ENDROOT
BRANCH  13  17
HETATM   17  O1  UNL     1       3.220  -1.643  -2.174  1.00  0.00    -0.284 OA
BRANCH  17  18
HETATM   18  C13 UNL     1       2.245  -0.687  -1.758  1.00  0.00     0.436 C 
HETATM   19  O2  UNL     1       1.452  -1.175  -0.932  1.00  0.00    -0.221 OA
HETATM   20  N1  UNL     1       2.291   0.581  -2.289  1.00  0.00    -0.373 NA
BRANCH  20  21
HETATM   21  C14 UNL     1       2.337   1.835  -2.816  1.00  0.00     0.281 C 
BRANCH  21  22
HETATM   22  C15 UNL     1       2.339   2.936  -1.798  1.00  0.00     0.211 C 
HETATM   23  O3  UNL     1       1.387   3.011  -1.009  1.00  0.00    -0.646 OA
HETATM   24  O4  UNL     1       3.370   3.832  -1.746  1.00  0.00    -0.646 OA
ENDBRANCH  21  22
BRANCH  21  25
HETATM   25  C16 UNL     1       3.369   2.233  -3.866  1.00  0.00     0.117 C 
HETATM   26  C17 UNL     1       2.740   2.026  -5.262  1.00  0.00     0.023 C 
BRANCH  25  27
HETATM   27  C18 UNL     1       4.573   1.399  -3.780  1.00  0.00     0.238 C 
HETATM   28  N2  UNL     1       4.856   0.230  -4.520  1.00  0.00    -0.062 NA
HETATM   29  O5  UNL     1       5.478   1.742  -2.957  1.00  0.00    -0.276 OA
ENDBRANCH  25  27
ENDBRANCH  21  25
ENDBRANCH  20  21
ENDBRANCH  17  18
ENDBRANCH  13  17
TORSDOF 6
ENDMDL
MODEL 2
REMARK VINA RESULT: -7.308747473      1.368      1.835
REMARK  6 active torsions:
REMARK  status: ('A' for Active; 'I' for Inactive)
REMARK    1  A    between atoms: C12_13  and  O1_14 
REMARK    2  A    between atoms: O1_14  and  C13_15 
REMARK       I    between atoms: C13_15  and  N1_17 
REMARK    3  A    between atoms: N1_17  and  C14_18 
REMARK    4  A    between atoms: C14_18  and  C15_19 
REMARK    5  A    between atoms: C14_18  and  C16_22 
REMARK    6  A    between atoms: C16_22  and  C18_24 
ROOT
HETATM    1  C1  UNL     1       5.788  -5.602  -0.384  1.00  0.00     0.015 C 
HETATM    2  C2  UNL     1       6.772  -4.776  -0.603  1.00  0.00    -0.076 C 
HETATM    3  C3  UNL     1       7.827  -4.729   0.483  1.00  0.00     0.034 C 
HETATM    4  C4  UNL     1       8.691  -3.551   0.275  1.00  0.00     0.006 C 
HETATM    5  C5  UNL     1       9.303  -3.407  -1.088  1.00  0.00     0.027 C 
HETATM    6  C6  UNL     1       8.420  -3.975  -2.179  1.00  0.00     0.047 C 
HETATM    7  C7  UNL     1       8.731  -5.462  -2.380  1.00  0.00     0.034 C 
HETATM    8 CL1  UNL     1       8.783  -3.162  -3.680  1.00  0.00    -0.118 Cl
HETATM    9  C8  UNL     1       6.964  -3.916  -1.782  1.00  0.00     0.031 A 
HETATM   10  C9  UNL     1       6.005  -4.122  -2.880  1.00  0.00     0.033 A 
HETATM   11  C10 UNL     1       5.505  -2.716  -2.826  1.00  0.00     0.013 A 
HETATM   12  C11 UNL     1       5.779  -1.882  -4.054  1.00  0.00     0.020 C 
HETATM   13  C12 UNL     1       4.126  -2.448  -2.302  1.00  0.00     0.169 C 
HETATM   14  C19 UNL     1       4.308  -2.485  -0.794  1.00  0.00     0.201 C 
HETATM   15  O6  UNL     1       5.626  -2.469  -0.513  1.00  0.00    -0.381 OA
HETATM   16  C20 UNL     1       6.401  -2.493  -1.634  1.00  0.00     0.147 A 
ENDROOT
BRANCH  13  17
HETATM   17  O1  UNL     1       3.764  -1.110  -2.587  1.00  0.00    -0.284 OA
BRANCH  17  18
HETATM   18  C13 UNL     1       2.569  -0.500  -2.097  1.00  0.00     0.436 C 
HETATM   19  O2  UNL     1       1.895  -1.298  -1.420  1.00  0.00    -0.221 OA
HETATM   20  N1  UNL     1       2.318   0.814  -2.415  1.00  0.00    -0.373 NA
BRANCH  20  21
HETATM   21  C14 UNL     1       2.070   2.114  -2.731  1.00  0.00     0.281 C 
BRANCH  21  22
HETATM   22  C15 UNL     1       2.163   3.063  -1.573  1.00  0.00     0.211 C 
HETATM   23  O3  UNL     1       1.255   3.056  -0.731  1.00  0.00    -0.646 OA
HETATM   24  O4  UNL     1       3.227   3.913  -1.456  1.00  0.00    -0.646 OA
ENDBRANCH  21  22
BRANCH  21  25
HETATM   25  C16 UNL     1       2.763   2.809  -3.899  1.00  0.00     0.117 C 
HETATM   26  C17 UNL     1       1.864   2.663  -5.147  1.00  0.00     0.023 C 
BRANCH  25  27
HETATM   27  C18 UNL     1       4.060   2.194  -4.198  1.00  0.00     0.238 C 
HETATM   28  N2  UNL     1       5.173   2.086  -3.334  1.00  0.00    -0.062 NA
HETATM   29  O5  UNL     1       4.232   1.696  -5.353  1.00  0.00    -0.276 OA
ENDBRANCH  25  27
ENDBRANCH  21  25
ENDBRANCH  20  21
ENDBRANCH  17  18
ENDBRANCH  13  17
TORSDOF 6
ENDMDL
MODEL 3
REMARK VINA RESULT: -7.206104580      1.421      2.281
REMARK  6 active torsions:
REMARK  status: ('A' for Active; 'I' for Inactive)
REMARK    1  A    between atoms: C12_13  and  O1_14 
REMARK    2  A    between atoms: O1_14  and  C13_15 
REMARK       I    between atoms: C13_15  and  N1_17 
REMARK    3  A    between atoms: N1_17  and  C14_18 
REMARK    4  A    between atoms: C14_18  and  C15_19 
REMARK    5  A    between atoms: C14_18  and  C16_22 
REMARK    6  A    between atoms: C16_22  and  C18_24 
ROOT
HETATM    1  C1  UNL     1       7.577  -2.853  -4.667  1.00  0.00     0.015 C 
HETATM    2  C2  UNL     1       7.438  -3.702  -3.689  1.00  0.00    -0.076 C 
HETATM    3  C3  UNL     1       7.493  -5.162  -4.090  1.00  0.00     0.034 C 
HETATM    4  C4  UNL     1       7.010  -5.995  -2.972  1.00  0.00     0.006 C 
HETATM    5  C5  UNL     1       7.667  -5.770  -1.642  1.00  0.00     0.027 C 
HETATM    6  C6  UNL     1       8.116  -4.336  -1.457  1.00  0.00     0.047 C 
HETATM    7  C7  UNL     1       9.538  -4.161  -2.001  1.00  0.00     0.034 C 
HETATM    8 CL1  UNL     1       8.167  -3.976   0.251  1.00  0.00    -0.118 Cl
HETATM    9  C8  UNL     1       7.255  -3.392  -2.261  1.00  0.00     0.031 A 
HETATM   10  C9  UNL     1       7.378  -1.969  -1.902  1.00  0.00     0.033 A 
HETATM   11  C10 UNL     1       5.988  -1.894  -1.360  1.00  0.00     0.013 A 
HETATM   12  C11 UNL     1       5.882  -1.616   0.119  1.00  0.00     0.020 C 
HETATM   13  C12 UNL     1       4.948  -1.126  -2.118  1.00  0.00     0.169 C 
HETATM   14  C19 UNL     1       4.516  -2.095  -3.206  1.00  0.00     0.201 C 
HETATM   15  O6  UNL     1       5.008  -3.317  -2.922  1.00  0.00    -0.381 OA
HETATM   16  C20 UNL     1       5.789  -3.320  -1.805  1.00  0.00     0.147 A 
ENDROOT
BRANCH  13  17
HETATM   17  O1  UNL     1       3.799  -0.961  -1.309  1.00  0.00    -0.284 OA
BRANCH  17  18
HETATM   18  C13 UNL     1       2.522  -0.584  -1.826  1.00  0.00     0.436 C 
HETATM   19  O2  UNL     1       1.733  -1.548  -1.836  1.00  0.00    -0.221 OA
HETATM   20  N1  UNL     1       2.328   0.716  -2.230  1.00  0.00    -0.373 NA
BRANCH  20  21
HETATM   21  C14 UNL     1       2.137   2.002  -2.630  1.00  0.00     0.281 C 
BRANCH  21  22
HETATM   22  C15 UNL     1       2.189   3.012  -1.523  1.00  0.00     0.211 C 
HETATM   23  O3  UNL     1       1.261   3.035  -0.702  1.00  0.00    -0.646 OA
HETATM   24  O4  UNL     1       3.237   3.883  -1.426  1.00  0.00    -0.646 OA
ENDBRANCH  21  22
BRANCH  21  25
HETATM   25  C16 UNL     1       2.917   2.612  -3.790  1.00  0.00     0.117 C 
HETATM   26  C17 UNL     1       2.039   2.526  -5.059  1.00  0.00     0.023 C 
BRANCH  25  27
HETATM   27  C18 UNL     1       4.161   1.878  -4.047  1.00  0.00     0.238 C 
HETATM   28  N2  UNL     1       4.432   1.009  -5.127  1.00  0.00    -0.062 NA
HETATM   29  O5  UNL     1       5.116   2.019  -3.222  1.00  0.00    -0.276 OA
ENDBRANCH  25  27
ENDBRANCH  21  25
ENDBRANCH  20  21
ENDBRANCH  17  18
ENDBRANCH  13  17
TORSDOF 6
ENDMDL
MODEL 4
REMARK VINA RESULT: -7.127091613      1.513      1.842
REMARK  6 active torsions:
REMARK  status: ('A' for Active; 'I' for Inactive)
REMARK    1  A    between atoms: C12_13  and  O1_14 
REMARK    2  A    between atoms: O1_14  and  C13_15 
REMARK       I    between atoms: C13_15  and  N1_17 
REMARK    3  A    between atoms: N1_17  and  C14_18 
REMARK    4  A    between atoms: C14_18  and  C15_19 
REMARK    5  A    between atoms: C14_18  and  C16_22 
REMARK    6  A    between atoms: C16_22  and  C18_24 
ROOT
HETATM    1  C1  UNL     1       7.349  -2.792   0.336  1.00  0.00     0.015 C 
HETATM    2  C2  UNL     1       7.592  -3.134  -0.897  1.00  0.00    -0.076 C 
HETATM    3  C3  UNL     1       8.950  -2.720  -1.426  1.00  0.00     0.034 C 
HETATM    4  C4  UNL     1       8.972  -2.875  -2.893  1.00  0.00     0.006 C 
HETATM    5  C5  UNL     1       8.565  -4.217  -3.427  1.00  0.00     0.027 C 
HETATM    6  C6  UNL     1       7.536  -4.898  -2.549  1.00  0.00     0.047 C 
HETATM    7  C7  UNL     1       8.239  -5.727  -1.469  1.00  0.00     0.034 C 
HETATM    8 CL1  UNL     1       6.603  -6.003  -3.527  1.00  0.00    -0.118 Cl
HETATM    9  C8  UNL     1       6.705  -3.882  -1.804  1.00  0.00     0.031 A 
HETATM   10  C9  UNL     1       5.472  -4.406  -1.192  1.00  0.00     0.033 A 
HETATM   11  C10 UNL     1       4.582  -3.638  -2.114  1.00  0.00     0.013 A 
HETATM   12  C11 UNL     1       3.735  -4.473  -3.043  1.00  0.00     0.020 C 
HETATM   13  C12 UNL     1       3.795  -2.481  -1.576  1.00  0.00     0.169 C 
HETATM   14  C19 UNL     1       4.808  -1.349  -1.544  1.00  0.00     0.201 C 
HETATM   15  O6  UNL     1       5.902  -1.722  -2.237  1.00  0.00    -0.381 OA
HETATM   16  C20 UNL     1       5.817  -3.002  -2.699  1.00  0.00     0.147 A 
ENDROOT
BRANCH  13  17
HETATM   17  O1  UNL     1       2.836  -2.076  -2.535  1.00  0.00    -0.284 OA
BRANCH  17  18
HETATM   18  C13 UNL     1       2.246  -0.776  -2.554  1.00  0.00     0.436 C 
HETATM   19  O2  UNL     1       1.577  -0.564  -1.526  1.00  0.00    -0.221 OA
HETATM   20  N1  UNL     1       2.470   0.037  -3.641  1.00  0.00    -0.373 NA
BRANCH  20  21
HETATM   21  C14 UNL     1       2.691   0.841  -4.716  1.00  0.00     0.281 C 
BRANCH  21  22
HETATM   22  C15 UNL     1       1.471   1.555  -5.219  1.00  0.00     0.211 C 
HETATM   23  O3  UNL     1       1.456   2.792  -5.183  1.00  0.00    -0.646 OA
HETATM   24  O4  UNL     1       0.406   0.850  -5.705  1.00  0.00    -0.646 OA
ENDBRANCH  21  22
BRANCH  21  25
HETATM   25  C16 UNL     1       3.817   1.869  -4.738  1.00  0.00     0.117 C 
HETATM   26  C17 UNL     1       5.028   1.242  -5.465  1.00  0.00     0.023 C 
BRANCH  25  27
HETATM   27  C18 UNL     1       4.239   2.234  -3.382  1.00  0.00     0.238 C 
HETATM   28  N2  UNL     1       3.570   3.091  -2.481  1.00  0.00    -0.062 NA
HETATM   29  O5  UNL     1       5.324   1.741  -2.942  1.00  0.00    -0.276 OA
ENDBRANCH  25  27
ENDBRANCH  21  25
ENDBRANCH  20  21
ENDBRANCH  17  18
ENDBRANCH  13  17
TORSDOF 6
ENDMDL
MODEL 5
REMARK VINA RESULT: -7.108688153      3.160      7.107
REMARK  6 active torsions:
REMARK  status: ('A' for Active; 'I' for Inactive)
REMARK    1  A    between atoms: C12_13  and  O1_14 
REMARK    2  A    between atoms: O1_14  and  C13_15 
REMARK       I    between atoms: C13_15  and  N1_17 
REMARK    3  A    between atoms: N1_17  and  C14_18 
REMARK    4  A    between atoms: C14_18  and  C15_19 
REMARK    5  A    between atoms: C14_18  and  C16_22 
REMARK    6  A    between atoms: C16_22  and  C18_24 
ROOT
HETATM    1  C1  UNL     1       3.775  -0.761  -6.233  1.00  0.00     0.015 C 
HETATM    2  C2  UNL     1       3.921   0.114  -5.279  1.00  0.00    -0.076 C 
HETATM    3  C3  UNL     1       4.742   1.334  -5.644  1.00  0.00     0.034 C 
HETATM    4  C4  UNL     1       5.098   2.070  -4.416  1.00  0.00     0.006 C 
HETATM    5  C5  UNL     1       3.962   2.429  -3.503  1.00  0.00     0.027 C 
HETATM    6  C6  UNL     1       2.841   1.412  -3.550  1.00  0.00     0.047 C 
HETATM    7  C7  UNL     1       1.848   1.782  -4.657  1.00  0.00     0.034 C 
HETATM    8 CL1  UNL     1       1.972   1.459  -2.037  1.00  0.00    -0.118 Cl
HETATM    9  C8  UNL     1       3.367   0.045  -3.917  1.00  0.00     0.031 A 
HETATM   10  C9  UNL     1       2.441  -1.072  -3.666  1.00  0.00     0.033 A 
HETATM   11  C10 UNL     1       3.289  -1.647  -2.579  1.00  0.00     0.013 A 
HETATM   12  C11 UNL     1       2.670  -1.643  -1.203  1.00  0.00     0.020 C 
HETATM   13  C12 UNL     1       4.023  -2.931  -2.824  1.00  0.00     0.169 C 
HETATM   14  C19 UNL     1       5.251  -2.491  -3.606  1.00  0.00     0.201 C 
HETATM   15  O6  UNL     1       5.350  -1.149  -3.544  1.00  0.00    -0.381 OA
HETATM   16  C20 UNL     1       4.309  -0.578  -2.873  1.00  0.00     0.147 A 
ENDROOT
BRANCH  13  17
HETATM   17  O1  UNL     1       4.535  -3.424  -1.601  1.00  0.00    -0.284 OA
BRANCH  17  18
HETATM   18  C13 UNL     1       5.045  -4.748  -1.440  1.00  0.00     0.436 C 
HETATM   19  O2  UNL     1       4.127  -5.588  -1.404  1.00  0.00    -0.221 OA
HETATM   20  N1  UNL     1       6.405  -4.927  -1.346  1.00  0.00    -0.373 NA
BRANCH  20  21
HETATM   21  C14 UNL     1       7.751  -5.104  -1.253  1.00  0.00     0.281 C 
BRANCH  21  22
HETATM   22  C15 UNL     1       8.359  -5.863  -2.395  1.00  0.00     0.211 C 
HETATM   23  O3  UNL     1       9.539  -6.226  -2.300  1.00  0.00    -0.646 OA
HETATM   24  O4  UNL     1       7.622  -6.143  -3.512  1.00  0.00    -0.646 OA
ENDBRANCH  21  22
BRANCH  21  25
HETATM   25  C16 UNL     1       8.701  -3.945  -0.967  1.00  0.00     0.117 C 
HETATM   26  C17 UNL     1       8.428  -3.441   0.468  1.00  0.00     0.023 C 
BRANCH  25  27
HETATM   27  C18 UNL     1       8.480  -2.828  -1.892  1.00  0.00     0.238 C 
HETATM   28  N2  UNL     1       8.843  -2.764  -3.256  1.00  0.00    -0.062 NA
HETATM   29  O5  UNL     1       7.902  -1.789  -1.445  1.00  0.00    -0.276 OA
ENDBRANCH  25  27
ENDBRANCH  21  25
ENDBRANCH  20  21
ENDBRANCH  17  18
ENDBRANCH  13  17
TORSDOF 6
ENDMDL
