MODEL 1
REMARK VINA RESULT: -7.090579457      0.000      0.000
REMARK  6 active torsions:
REMARK  status: ('A' for Active; 'I' for Inactive)
REMARK    1  A    between atoms: C2_2  and  C3_3 
REMARK       I    between atoms: C3_3  and  N1_5 
REMARK    2  A    between atoms: C4_6  and  C5_7 
REMARK       I    between atoms: C5_7  and  N2_9 
REMARK    3  A    between atoms: N2_9  and  C6_11 
REMARK    4  A    between atoms: C13_18  and  O3_19 
REMARK    5  A    between atoms: O3_19  and  C14_20 
REMARK       I    between atoms: C14_20  and  N3_22 
REMARK    6  A    between atoms: N3_22  and  C15_24 
ROOT
HETATM    1  C3  UNL     1       5.557  -0.259 -10.053  1.00  0.00     0.221 C 
HETATM    2  O1  UNL     1       4.524   0.467 -10.174  1.00  0.00    -0.273 OA
HETATM    3  N1  UNL     1       5.915  -0.704  -8.754  1.00  0.00    -0.318 N 
HETATM    4  C4  UNL     1       7.051  -1.513  -8.470  1.00  0.00     0.183 C 
HETATM    5  C12 UNL     1       6.777  -2.136  -7.109  1.00  0.00     0.071 C 
HETATM    6  C13 UNL     1       5.938  -1.085  -6.395  1.00  0.00     0.173 C 
HETATM    7  C20 UNL     1       5.198  -0.432  -7.538  1.00  0.00     0.214 C 
HETATM    8 CL1  UNL     1       5.004   1.288  -7.183  1.00  0.00    -0.100 Cl
ENDROOT
BRANCH   6   9
HETATM    9  O3  UNL     1       5.078  -1.680  -5.442  1.00  0.00    -0.295 OA
BRANCH   9  10
HETATM   10  C14 UNL     1       5.610  -2.342  -4.361  1.00  0.00     0.361 C 
HETATM   11  O4  UNL     1       5.122  -3.454  -4.034  1.00  0.00    -0.238 OA
HETATM   12  N3  UNL     1       6.689  -1.834  -3.584  1.00  0.00    -0.331 N 
ATOM     13  H3  UNL     1       7.089  -0.932  -3.846  1.00  0.00     0.165 HD
BRANCH  12  14
HETATM   14  C15 UNL     1       7.243  -2.516  -2.459  1.00  0.00     0.104 C 
HETATM   15  C16 UNL     1       6.936  -1.821  -1.145  1.00  0.00     0.028 C 
HETATM   16  C17 UNL     1       7.277  -2.858  -0.067  1.00  0.00     0.021 C 
HETATM   17  C18 UNL     1       8.721  -3.263  -0.156  1.00  0.00     0.114 C 
HETATM   18  N4  UNL     1       9.190  -3.564  -1.464  1.00  0.00    -0.419 N 
HETATM   19  C19 UNL     1       8.723  -2.735  -2.521  1.00  0.00     0.139 C 
ATOM     20  H4  UNL     1       9.831  -4.339  -1.637  1.00  0.00     0.153 HD
ENDBRANCH  12  14
ENDBRANCH   9  10
ENDBRANCH   6   9
BRANCH   4  21
HETATM   21  C5  UNL     1       8.354  -0.810  -8.485  1.00  0.00     0.241 C 
HETATM   22  O2  UNL     1       9.390  -1.508  -8.730  1.00  0.00    -0.271 OA
HETATM   23  N2  UNL     1       8.454   0.577  -8.239  1.00  0.00    -0.355 N 
ATOM     24  H2  UNL     1       7.597   1.097  -8.049  1.00  0.00     0.162 HD
BRANCH  23  25
HETATM   25  C6  UNL     1       9.694   1.295  -8.243  1.00  0.00     0.084 C 
HETATM   26  C7  UNL     1       9.737   2.451  -7.271  1.00  0.00     0.025 C 
HETATM   27  C8  UNL     1      11.221   2.756  -7.045  1.00  0.00     0.002 C 
HETATM   28  C9  UNL     1      11.774   3.248  -8.352  1.00  0.00     0.000 C 
HETATM   29  C10 UNL     1      11.561   2.275  -9.464  1.00  0.00     0.002 C 
HETATM   30  C11 UNL     1      10.128   1.796  -9.579  1.00  0.00     0.025 C 
ENDBRANCH  23  25
ENDBRANCH   4  21
BRANCH   1  31
HETATM   31  C2  UNL     1       6.309  -0.585 -11.289  1.00  0.00     0.098 C 
HETATM   32  C1  UNL     1       7.145   0.613 -11.668  1.00  0.00     0.014 C 
ENDBRANCH   1  31
TORSDOF 6
ENDMDL
MODEL 2
REMARK VINA RESULT: -6.960227471      0.811      1.044
REMARK  6 active torsions:
REMARK  status: ('A' for Active; 'I' for Inactive)
REMARK    1  A    between atoms: C2_2  and  C3_3 
REMARK       I    between atoms: C3_3  and  N1_5 
REMARK    2  A    between atoms: C4_6  and  C5_7 
REMARK       I    between atoms: C5_7  and  N2_9 
REMARK    3  A    between atoms: N2_9  and  C6_11 
REMARK    4  A    between atoms: C13_18  and  O3_19 
REMARK    5  A    between atoms: O3_19  and  C14_20 
REMARK       I    between atoms: C14_20  and  N3_22 
REMARK    6  A    between atoms: N3_22  and  C15_24 
ROOT
HETATM    1  C3  UNL     1       5.523  -0.207  -9.949  1.00  0.00     0.221 C 
HETATM    2  O1  UNL     1       4.502   0.535 -10.067  1.00  0.00    -0.273 OA
HETATM    3  N1  UNL     1       5.913  -0.608  -8.645  1.00  0.00    -0.318 N 
HETATM    4  C4  UNL     1       7.040  -1.429  -8.362  1.00  0.00     0.183 C 
HETATM    5  C12 UNL     1       6.796  -1.991  -6.969  1.00  0.00     0.071 C 
HETATM    6  C13 UNL     1       6.002  -0.894  -6.274  1.00  0.00     0.173 C 
HETATM    7  C20 UNL     1       5.241  -0.272  -7.419  1.00  0.00     0.214 C 
HETATM    8 CL1  UNL     1       5.092   1.465  -7.129  1.00  0.00    -0.100 Cl
ENDROOT
BRANCH   6   9
HETATM    9  O3  UNL     1       5.160  -1.431  -5.271  1.00  0.00    -0.295 OA
BRANCH   9  10
HETATM   10  C14 UNL     1       5.618  -1.536  -3.979  1.00  0.00     0.361 C 
HETATM   11  O4  UNL     1       5.070  -0.839  -3.087  1.00  0.00    -0.238 OA
HETATM   12  N3  UNL     1       6.686  -2.394  -3.593  1.00  0.00    -0.331 N 
ATOM     13  H3  UNL     1       7.133  -2.961  -4.313  1.00  0.00     0.165 HD
BRANCH  12  14
HETATM   14  C15 UNL     1       7.167  -2.503  -2.253  1.00  0.00     0.104 C 
HETATM   15  C16 UNL     1       8.676  -2.644  -2.184  1.00  0.00     0.028 C 
HETATM   16  C17 UNL     1       9.024  -2.381  -0.713  1.00  0.00     0.021 C 
HETATM   17  C18 UNL     1       8.333  -3.370   0.183  1.00  0.00     0.114 C 
HETATM   18  N4  UNL     1       6.954  -3.579  -0.091  1.00  0.00    -0.419 N 
HETATM   19  C19 UNL     1       6.570  -3.624  -1.459  1.00  0.00     0.139 C 
ATOM     20  H4  UNL     1       6.272  -3.692   0.659  1.00  0.00     0.153 HD
ENDBRANCH  12  14
ENDBRANCH   9  10
ENDBRANCH   6   9
BRANCH   4  21
HETATM   21  C5  UNL     1       8.356  -0.755  -8.446  1.00  0.00     0.241 C 
HETATM   22  O2  UNL     1       9.364  -1.478  -8.733  1.00  0.00    -0.271 OA
HETATM   23  N2  UNL     1       8.499   0.631  -8.217  1.00  0.00    -0.355 N 
ATOM     24  H2  UNL     1       7.663   1.171  -7.991  1.00  0.00     0.162 HD
BRANCH  23  25
HETATM   25  C6  UNL     1       9.753   1.321  -8.287  1.00  0.00     0.084 C 
HETATM   26  C7  UNL     1       9.894   2.438  -7.280  1.00  0.00     0.025 C 
HETATM   27  C8  UNL     1      11.398   2.702  -7.153  1.00  0.00     0.002 C 
HETATM   28  C9  UNL     1      11.867   3.229  -8.479  1.00  0.00     0.000 C 
HETATM   29  C10 UNL     1      11.550   2.304  -9.606  1.00  0.00     0.002 C 
HETATM   30  C11 UNL     1      10.102   1.861  -9.632  1.00  0.00     0.025 C 
ENDBRANCH  23  25
ENDBRANCH   4  21
BRANCH   1  31
HETATM   31  C2  UNL     1       6.230  -0.599 -11.193  1.00  0.00     0.098 C 
HETATM   32  C1  UNL     1       7.080   0.564 -11.644  1.00  0.00     0.014 C 
ENDBRANCH   1  31
TORSDOF 6
ENDMDL
MODEL 3
REMARK VINA RESULT: -6.934601478      2.985      7.853
REMARK  6 active torsions:
REMARK  status: ('A' for Active; 'I' for Inactive)
REMARK    1  A    between atoms: C2_2  and  C3_3 
REMARK       I    between atoms: C3_3  and  N1_5 
REMARK    2  A    between atoms: C4_6  and  C5_7 
REMARK       I    between atoms: C5_7  and  N2_9 
REMARK    3  A    between atoms: N2_9  and  C6_11 
REMARK    4  A    between atoms: C13_18  and  O3_19 
REMARK    5  A    between atoms: O3_19  and  C14_20 
REMARK       I    between atoms: C14_20  and  N3_22 
REMARK    6  A    between atoms: N3_22  and  C15_24 
ROOT
HETATM    1  C3  UNL     1       1.985   0.344  -3.539  1.00  0.00     0.221 C 
HETATM    2  O1  UNL     1       1.040   0.424  -4.381  1.00  0.00    -0.273 OA
HETATM    3  N1  UNL     1       3.292   0.698  -3.962  1.00  0.00    -0.318 N 
HETATM    4  C4  UNL     1       4.445   0.648  -3.130  1.00  0.00     0.183 C 
HETATM    5  C12 UNL     1       5.473   1.545  -3.803  1.00  0.00     0.071 C 
HETATM    6  C13 UNL     1       5.150   1.413  -5.285  1.00  0.00     0.173 C 
HETATM    7  C20 UNL     1       3.660   1.172  -5.269  1.00  0.00     0.214 C 
HETATM    8 CL1  UNL     1       3.248   0.063  -6.582  1.00  0.00    -0.100 Cl
ENDROOT
BRANCH   6   9
HETATM    9  O3  UNL     1       5.518   2.582  -5.993  1.00  0.00    -0.295 OA
BRANCH   9  10
HETATM   10  C14 UNL     1       6.605   2.557  -6.834  1.00  0.00     0.361 C 
HETATM   11  O4  UNL     1       6.408   2.602  -8.075  1.00  0.00    -0.238 OA
HETATM   12  N3  UNL     1       7.950   2.481  -6.375  1.00  0.00    -0.331 N 
ATOM     13  H3  UNL     1       8.114   2.445  -5.369  1.00  0.00     0.165 HD
BRANCH  12  14
HETATM   14  C15 UNL     1       9.082   2.451  -7.244  1.00  0.00     0.104 C 
HETATM   15  C16 UNL     1       9.435   1.046  -7.696  1.00  0.00     0.028 C 
HETATM   16  C17 UNL     1      10.401   1.247  -8.871  1.00  0.00     0.021 C 
HETATM   17  C18 UNL     1      11.618   2.013  -8.435  1.00  0.00     0.114 C 
HETATM   18  N4  UNL     1      11.362   3.170  -7.651  1.00  0.00    -0.419 N 
HETATM   19  C19 UNL     1      10.323   3.073  -6.684  1.00  0.00     0.139 C 
ATOM     20  H4  UNL     1      11.896   4.029  -7.776  1.00  0.00     0.153 HD
ENDBRANCH  12  14
ENDBRANCH   9  10
ENDBRANCH   6   9
BRANCH   4  21
HETATM   21  C5  UNL     1       4.994  -0.705  -2.884  1.00  0.00     0.241 C 
HETATM   22  O2  UNL     1       4.437  -1.679  -3.486  1.00  0.00    -0.271 OA
HETATM   23  N2  UNL     1       6.090  -0.919  -2.019  1.00  0.00    -0.355 N 
ATOM     24  H2  UNL     1       6.507  -0.109  -1.559  1.00  0.00     0.162 HD
BRANCH  23  25
HETATM   25  C6  UNL     1       6.650  -2.210  -1.753  1.00  0.00     0.084 C 
HETATM   26  C7  UNL     1       5.966  -2.956  -0.632  1.00  0.00     0.025 C 
HETATM   27  C8  UNL     1       6.329  -4.432  -0.824  1.00  0.00     0.002 C 
HETATM   28  C9  UNL     1       7.811  -4.553  -0.606  1.00  0.00     0.000 C 
HETATM   29  C10 UNL     1       8.595  -3.657  -1.506  1.00  0.00     0.002 C 
HETATM   30  C11 UNL     1       8.118  -2.219  -1.490  1.00  0.00     0.025 C 
ENDBRANCH  23  25
ENDBRANCH   4  21
BRANCH   1  31
HETATM   31  C2  UNL     1       1.642  -0.115  -2.171  1.00  0.00     0.098 C 
HETATM   32  C1  UNL     1       0.696  -1.285  -2.284  1.00  0.00     0.014 C 
ENDBRANCH   1  31
TORSDOF 6
ENDMDL
MODEL 4
REMARK VINA RESULT: -6.845562898      2.775      7.472
REMARK  6 active torsions:
REMARK  status: ('A' for Active; 'I' for Inactive)
REMARK    1  A    between atoms: C2_2  and  C3_3 
REMARK       I    between atoms: C3_3  and  N1_5 
REMARK    2  A    between atoms: C4_6  and  C5_7 
REMARK       I    between atoms: C5_7  and  N2_9 
REMARK    3  A    between atoms: N2_9  and  C6_11 
REMARK    4  A    between atoms: C13_18  and  O3_19 
REMARK    5  A    between atoms: O3_19  and  C14_20 
REMARK       I    between atoms: C14_20  and  N3_22 
REMARK    6  A    between atoms: N3_22  and  C15_24 
ROOT
HETATM    1  C3  UNL     1       3.138  -1.400  -5.249  1.00  0.00     0.221 C 
HETATM    2  O1  UNL     1       2.972  -1.640  -6.482  1.00  0.00    -0.273 OA
HETATM    3  N1  UNL     1       4.129  -0.455  -4.877  1.00  0.00    -0.318 N 
HETATM    4  C4  UNL     1       4.430  -0.095  -3.534  1.00  0.00     0.183 C 
HETATM    5  C12 UNL     1       5.152   1.242  -3.622  1.00  0.00     0.071 C 
HETATM    6  C13 UNL     1       5.881   1.169  -4.956  1.00  0.00     0.173 C 
HETATM    7  C20 UNL     1       4.965   0.294  -5.777  1.00  0.00     0.214 C 
HETATM    8 CL1  UNL     1       5.945  -0.707  -6.854  1.00  0.00    -0.100 Cl
ENDROOT
BRANCH   6   9
HETATM    9  O3  UNL     1       6.063   2.459  -5.509  1.00  0.00    -0.295 OA
BRANCH   9  10
HETATM   10  C14 UNL     1       6.967   2.644  -6.528  1.00  0.00     0.361 C 
HETATM   11  O4  UNL     1       6.575   3.192  -7.590  1.00  0.00    -0.238 OA
HETATM   12  N3  UNL     1       8.331   2.245  -6.448  1.00  0.00    -0.331 N 
ATOM     13  H3  UNL     1       8.653   1.801  -5.588  1.00  0.00     0.165 HD
BRANCH  12  14
HETATM   14  C15 UNL     1       9.273   2.432  -7.504  1.00  0.00     0.104 C 
HETATM   15  C16 UNL     1       9.429   1.198  -8.373  1.00  0.00     0.028 C 
HETATM   16  C17 UNL     1      10.168   1.694  -9.624  1.00  0.00     0.021 C 
HETATM   17  C18 UNL     1      11.499   2.286  -9.256  1.00  0.00     0.114 C 
HETATM   18  N4  UNL     1      11.482   3.189  -8.158  1.00  0.00    -0.419 N 
HETATM   19  C19 UNL     1      10.641   2.852  -7.062  1.00  0.00     0.139 C 
ATOM     20  H4  UNL     1      12.046   4.039  -8.156  1.00  0.00     0.153 HD
ENDBRANCH  12  14
ENDBRANCH   9  10
ENDBRANCH   6   9
BRANCH   4  21
HETATM   21  C5  UNL     1       5.225  -1.085  -2.773  1.00  0.00     0.241 C 
HETATM   22  O2  UNL     1       4.943  -1.235  -1.540  1.00  0.00    -0.271 OA
HETATM   23  N2  UNL     1       6.256  -1.836  -3.378  1.00  0.00    -0.355 N 
ATOM     24  H2  UNL     1       6.447  -1.683  -4.369  1.00  0.00     0.162 HD
BRANCH  23  25
HETATM   25  C6  UNL     1       7.049  -2.802  -2.678  1.00  0.00     0.084 C 
HETATM   26  C7  UNL     1       8.495  -2.842  -3.115  1.00  0.00     0.025 C 
HETATM   27  C8  UNL     1       9.262  -3.514  -1.972  1.00  0.00     0.002 C 
HETATM   28  C9  UNL     1       8.777  -4.934  -1.891  1.00  0.00     0.000 C 
HETATM   29  C10 UNL     1       7.299  -5.023  -1.707  1.00  0.00     0.002 C 
HETATM   30  C11 UNL     1       6.517  -4.195  -2.706  1.00  0.00     0.025 C 
ENDBRANCH  23  25
ENDBRANCH   4  21
BRANCH   1  31
HETATM   31  C2  UNL     1       2.276  -2.132  -4.289  1.00  0.00     0.098 C 
HETATM   32  C1  UNL     1       2.815  -3.533  -4.137  1.00  0.00     0.014 C 
ENDBRANCH   1  31
TORSDOF 6
ENDMDL
MODEL 5
REMARK VINA RESULT: -6.804192588      2.821      3.939
REMARK  6 active torsions:
REMARK  status: ('A' for Active; 'I' for Inactive)
REMARK    1  A    between atoms: C2_2  and  C3_3 
REMARK       I    between atoms: C3_3  and  N1_5 
REMARK    2  A    between atoms: C4_6  and  C5_7 
REMARK       I    between atoms: C5_7  and  N2_9 
REMARK    3  A    between atoms: N2_9  and  C6_11 
REMARK    4  A    between atoms: C13_18  and  O3_19 
REMARK    5  A    between atoms: O3_19  and  C14_20 
REMARK       I    between atoms: C14_20  and  N3_22 
REMARK    6  A    between atoms: N3_22  and  C15_24 
ROOT
HETATM    1  C3  UNL     1       2.342   1.429  -5.776  1.00  0.00     0.221 C 
HETATM    2  O1  UNL     1       1.522   2.085  -5.067  1.00  0.00    -0.273 OA
HETATM    3  N1  UNL     1       3.445   0.812  -5.130  1.00  0.00    -0.318 N 
HETATM    4  C4  UNL     1       4.447   0.056  -5.800  1.00  0.00     0.183 C 
HETATM    5  C12 UNL     1       5.106  -0.793  -4.723  1.00  0.00     0.071 C 
HETATM    6  C13 UNL     1       4.996   0.067  -3.471  1.00  0.00     0.173 C 
HETATM    7  C20 UNL     1       3.720   0.834  -3.718  1.00  0.00     0.214 C 
HETATM    8 CL1  UNL     1       3.889   2.458  -3.041  1.00  0.00    -0.100 Cl
ENDROOT
BRANCH   6   9
HETATM    9  O3  UNL     1       4.948  -0.733  -2.305  1.00  0.00    -0.295 OA
BRANCH   9  10
HETATM   10  C14 UNL     1       5.629  -1.927  -2.268  1.00  0.00     0.361 C 
HETATM   11  O4  UNL     1       5.018  -2.958  -1.886  1.00  0.00    -0.238 OA
HETATM   12  N3  UNL     1       6.996  -2.062  -2.638  1.00  0.00    -0.331 N 
ATOM     13  H3  UNL     1       7.495  -1.228  -2.949  1.00  0.00     0.165 HD
BRANCH  12  14
HETATM   14  C15 UNL     1       7.709  -3.298  -2.597  1.00  0.00     0.104 C 
HETATM   15  C16 UNL     1       9.179  -3.115  -2.269  1.00  0.00     0.028 C 
HETATM   16  C17 UNL     1       9.676  -4.523  -1.915  1.00  0.00     0.021 C 
HETATM   17  C18 UNL     1       9.478  -5.464  -3.069  1.00  0.00     0.114 C 
HETATM   18  N4  UNL     1       8.201  -5.405  -3.691  1.00  0.00    -0.419 N 
HETATM   19  C19 UNL     1       7.621  -4.117  -3.849  1.00  0.00     0.139 C 
ATOM     20  H4  UNL     1       7.722  -6.249  -4.008  1.00  0.00     0.153 HD
ENDBRANCH  12  14
ENDBRANCH   9  10
ENDBRANCH   6   9
BRANCH   4  21
HETATM   21  C5  UNL     1       5.450   0.848  -6.547  1.00  0.00     0.241 C 
HETATM   22  O2  UNL     1       5.386   2.115  -6.444  1.00  0.00    -0.271 OA
HETATM   23  N2  UNL     1       6.441   0.234  -7.344  1.00  0.00    -0.355 N 
ATOM     24  H2  UNL     1       6.455  -0.785  -7.396  1.00  0.00     0.162 HD
BRANCH  23  25
HETATM   25  C6  UNL     1       7.428   0.964  -8.083  1.00  0.00     0.084 C 
HETATM   26  C7  UNL     1       7.453   0.640  -9.558  1.00  0.00     0.025 C 
HETATM   27  C8  UNL     1       8.160   1.818 -10.236  1.00  0.00     0.002 C 
HETATM   28  C9  UNL     1       9.583   1.816  -9.751  1.00  0.00     0.000 C 
HETATM   29  C10 UNL     1       9.678   1.881  -8.263  1.00  0.00     0.002 C 
HETATM   30  C11 UNL     1       8.819   0.851  -7.559  1.00  0.00     0.025 C 
ENDBRANCH  23  25
ENDBRANCH   4  21
BRANCH   1  31
HETATM   31  C2  UNL     1       2.080   1.359  -7.234  1.00  0.00     0.098 C 
HETATM   32  C1  UNL     1       0.636   1.726  -7.477  1.00  0.00     0.014 C 
ENDBRANCH   1  31
TORSDOF 6
ENDMDL
