MODEL 1
REMARK VINA RESULT: -8.005149622      0.000      0.000
REMARK  8 active torsions:
REMARK  status: ('A' for Active; 'I' for Inactive)
REMARK    1  A    between atoms: C6_6  and  C7_7 
REMARK    2  A    between atoms: C7_7  and  O2_9 
REMARK    3  A    between atoms: O2_9  and  C8_10 
REMARK    4  A    between atoms: C8_10  and  C9_11 
REMARK       I    between atoms: C9_11  and  N1_13 
REMARK    5  A    between atoms: N1_13  and  N2_15 
REMARK       I    between atoms: N2_15  and  C10_17 
REMARK       I    between atoms: C10_17  and  N3_19 
REMARK    6  A    between atoms: N3_19  and  C11_21 
REMARK    7  A    between atoms: C11_21  and  O5_22 
REMARK    8  A    between atoms: C11_21  and  C12_24 
ROOT
HETATM    1  N2  UNL     1       5.526  -0.016  -2.896  1.00  0.00    -0.249 N 
ATOM      2  H2  UNL     1       6.517  -0.197  -2.738  1.00  0.00     0.192 HD
HETATM    3  C10 UNL     1       4.590  -0.651  -2.070  1.00  0.00     0.340 C 
HETATM    4  O4  UNL     1       3.363  -0.368  -2.340  1.00  0.00    -0.245 OA
HETATM    5  N3  UNL     1       4.870  -1.519  -1.036  1.00  0.00    -0.287 N 
ATOM      6  H3  UNL     1       4.032  -1.866  -0.568  1.00  0.00     0.172 HD
ENDROOT
BRANCH   1   7
HETATM    7  N1  UNL     1       5.159   0.859  -3.931  1.00  0.00    -0.264 N 
HETATM    8  C9  UNL     1       5.154   0.407  -5.257  1.00  0.00     0.260 C 
HETATM    9  O3  UNL     1       5.475  -0.793  -5.556  1.00  0.00    -0.269 OA
ATOM     10  H1  UNL     1       4.898   1.822  -3.718  1.00  0.00     0.190 HD
BRANCH   8  11
HETATM   11  C8  UNL     1       4.778   1.291  -6.364  1.00  0.00     0.283 C 
BRANCH  11  12
HETATM   12  O2  UNL     1       5.754   2.254  -6.621  1.00  0.00    -0.308 OA
BRANCH  12  13
HETATM   13  C7  UNL     1       6.928   1.913  -7.269  1.00  0.00     0.293 C 
HETATM   14  O1  UNL     1       6.905   1.070  -8.199  1.00  0.00    -0.259 OA
BRANCH  13  15
HETATM   15  C6  UNL     1       8.210   2.505  -6.903  1.00  0.00     0.040 A 
HETATM   16  C5  UNL     1       8.336   3.346  -5.811  1.00  0.00     0.017 A 
HETATM   17  C4  UNL     1       9.557   3.885  -5.498  1.00  0.00     0.002 A 
HETATM   18  C3  UNL     1      10.696   3.624  -6.235  1.00  0.00     0.007 A 
HETATM   19  C2  UNL     1      10.583   2.791  -7.323  1.00  0.00    -0.061 A 
HETATM   20  C1  UNL     1      11.801   2.509  -8.119  1.00  0.00     0.048 C 
HETATM   21  C18 UNL     1       9.357   2.253  -7.633  1.00  0.00     0.024 A 
ENDBRANCH  13  15
ENDBRANCH  12  13
ENDBRANCH  11  12
ENDBRANCH   8  11
ENDBRANCH   1   7
BRANCH   5  22
HETATM   22  C11 UNL     1       6.042  -2.026  -0.490  1.00  0.00     0.154 C 
BRANCH  22  23
HETATM   23  O5  UNL     1       6.342  -1.651   0.727  1.00  0.00    -0.345 OA
ATOM     24  H5  UNL     1       5.880  -2.079   1.438  1.00  0.00     0.219 HD
ENDBRANCH  22  23
BRANCH  22  25
HETATM   25  C12 UNL     1       7.030  -2.923  -1.034  1.00  0.00     0.015 A 
HETATM   26  C13 UNL     1       6.984  -4.306  -0.927  1.00  0.00     0.017 A 
HETATM   27  C14 UNL     1       7.972  -5.114  -1.444  1.00  0.00     0.020 A 
HETATM   28  C15 UNL     1       9.053  -4.564  -2.093  1.00  0.00     0.011 A 
HETATM   29 BR1  UNL     1      10.441  -5.627  -2.826  1.00  0.00    -0.051 Br
HETATM   30  C16 UNL     1       9.135  -3.195  -2.220  1.00  0.00     0.020 A 
HETATM   31  C17 UNL     1       8.143  -2.396  -1.701  1.00  0.00     0.017 A 
ENDBRANCH  22  25
ENDBRANCH   5  22
TORSDOF 8
ENDMDL
MODEL 2
REMARK VINA RESULT: -7.829726434      1.245      1.772
REMARK  8 active torsions:
REMARK  status: ('A' for Active; 'I' for Inactive)
REMARK    1  A    between atoms: C6_6  and  C7_7 
REMARK    2  A    between atoms: C7_7  and  O2_9 
REMARK    3  A    between atoms: O2_9  and  C8_10 
REMARK    4  A    between atoms: C8_10  and  C9_11 
REMARK       I    between atoms: C9_11  and  N1_13 
REMARK    5  A    between atoms: N1_13  and  N2_15 
REMARK       I    between atoms: N2_15  and  C10_17 
REMARK       I    between atoms: C10_17  and  N3_19 
REMARK    6  A    between atoms: N3_19  and  C11_21 
REMARK    7  A    between atoms: C11_21  and  O5_22 
REMARK    8  A    between atoms: C11_21  and  C12_24 
ROOT
HETATM    1  N2  UNL     1       5.548   0.147  -2.765  1.00  0.00    -0.249 N 
ATOM      2  H2  UNL     1       6.537  -0.020  -2.579  1.00  0.00     0.192 HD
HETATM    3  C10 UNL     1       4.598  -0.574  -2.031  1.00  0.00     0.340 C 
HETATM    4  O4  UNL     1       3.375  -0.303  -2.332  1.00  0.00    -0.245 OA
HETATM    5  N3  UNL     1       4.861  -1.511  -1.053  1.00  0.00    -0.287 N 
ATOM      6  H3  UNL     1       4.015  -1.913  -0.650  1.00  0.00     0.172 HD
ENDROOT
BRANCH   1   7
HETATM    7  N1  UNL     1       5.199   1.089  -3.746  1.00  0.00    -0.264 N 
HETATM    8  C9  UNL     1       5.239   0.732  -5.100  1.00  0.00     0.260 C 
HETATM    9  O3  UNL     1       5.586  -0.440  -5.474  1.00  0.00    -0.269 OA
ATOM     10  H1  UNL     1       4.917   2.030  -3.474  1.00  0.00     0.190 HD
BRANCH   8  11
HETATM   11  C8  UNL     1       4.882   1.687  -6.153  1.00  0.00     0.283 C 
BRANCH  11  12
HETATM   12  O2  UNL     1       5.816   1.697  -7.190  1.00  0.00    -0.308 OA
BRANCH  12  13
HETATM   13  C7  UNL     1       6.983   2.433  -7.082  1.00  0.00     0.293 C 
HETATM   14  O1  UNL     1       7.081   3.319  -6.198  1.00  0.00    -0.259 OA
BRANCH  13  15
HETATM   15  C6  UNL     1       8.118   2.213  -7.971  1.00  0.00     0.040 A 
HETATM   16  C5  UNL     1       9.421   2.227  -7.502  1.00  0.00     0.017 A 
HETATM   17  C4  UNL     1      10.462   2.018  -8.367  1.00  0.00     0.002 A 
HETATM   18  C3  UNL     1      10.274   1.786  -9.716  1.00  0.00     0.007 A 
HETATM   19  C2  UNL     1       8.985   1.770 -10.193  1.00  0.00    -0.061 A 
HETATM   20  C1  UNL     1       8.777   1.524 -11.641  1.00  0.00     0.048 C 
HETATM   21  C18 UNL     1       7.944   1.981  -9.322  1.00  0.00     0.024 A 
ENDBRANCH  13  15
ENDBRANCH  12  13
ENDBRANCH  11  12
ENDBRANCH   8  11
ENDBRANCH   1   7
BRANCH   5  22
HETATM   22  C11 UNL     1       6.023  -2.026  -0.497  1.00  0.00     0.154 C 
BRANCH  22  23
HETATM   23  O5  UNL     1       6.310  -1.662   0.727  1.00  0.00    -0.345 OA
ATOM     24  H5  UNL     1       6.857  -2.249   1.235  1.00  0.00     0.219 HD
ENDBRANCH  22  23
BRANCH  22  25
HETATM   25  C12 UNL     1       7.015  -2.923  -1.036  1.00  0.00     0.015 A 
HETATM   26  C13 UNL     1       7.022  -4.298  -0.844  1.00  0.00     0.017 A 
HETATM   27  C14 UNL     1       8.012  -5.104  -1.362  1.00  0.00     0.020 A 
HETATM   28  C15 UNL     1       9.040  -4.560  -2.096  1.00  0.00     0.011 A 
HETATM   29 BR1  UNL     1      10.428  -5.621  -2.833  1.00  0.00    -0.051 Br
HETATM   30  C16 UNL     1       9.069  -3.199  -2.308  1.00  0.00     0.020 A 
HETATM   31  C17 UNL     1       8.076  -2.403  -1.787  1.00  0.00     0.017 A 
ENDBRANCH  22  25
ENDBRANCH   5  22
TORSDOF 8
ENDMDL
MODEL 3
REMARK VINA RESULT: -7.760290945      1.235      1.821
REMARK  8 active torsions:
REMARK  status: ('A' for Active; 'I' for Inactive)
REMARK    1  A    between atoms: C6_6  and  C7_7 
REMARK    2  A    between atoms: C7_7  and  O2_9 
REMARK    3  A    between atoms: O2_9  and  C8_10 
REMARK    4  A    between atoms: C8_10  and  C9_11 
REMARK       I    between atoms: C9_11  and  N1_13 
REMARK    5  A    between atoms: N1_13  and  N2_15 
REMARK       I    between atoms: N2_15  and  C10_17 
REMARK       I    between atoms: C10_17  and  N3_19 
REMARK    6  A    between atoms: N3_19  and  C11_21 
REMARK    7  A    between atoms: C11_21  and  O5_22 
REMARK    8  A    between atoms: C11_21  and  C12_24 
ROOT
HETATM    1  N2  UNL     1       5.758  -0.846  -3.623  1.00  0.00    -0.249 N 
ATOM      2  H2  UNL     1       6.648  -1.315  -3.457  1.00  0.00     0.192 HD
HETATM    3  C10 UNL     1       4.851  -0.738  -2.561  1.00  0.00     0.340 C 
HETATM    4  O4  UNL     1       3.753  -0.134  -2.859  1.00  0.00    -0.245 OA
HETATM    5  N3  UNL     1       5.037  -1.208  -1.278  1.00  0.00    -0.287 N 
ATOM      6  H3  UNL     1       4.242  -1.020  -0.667  1.00  0.00     0.172 HD
ENDROOT
BRANCH   1   7
HETATM    7  N1  UNL     1       5.496  -0.338  -4.905  1.00  0.00    -0.264 N 
HETATM    8  C9  UNL     1       6.198  -0.836  -6.010  1.00  0.00     0.260 C 
HETATM    9  O3  UNL     1       7.080  -1.752  -5.885  1.00  0.00    -0.269 OA
ATOM     10  H1  UNL     1       4.795   0.393  -5.032  1.00  0.00     0.190 HD
BRANCH   8  11
HETATM   11  C8  UNL     1       5.952  -0.330  -7.363  1.00  0.00     0.283 C 
BRANCH  11  12
HETATM   12  O2  UNL     1       7.131   0.059  -8.000  1.00  0.00    -0.308 OA
BRANCH  12  13
HETATM   13  C7  UNL     1       7.562   1.372  -7.946  1.00  0.00     0.293 C 
HETATM   14  O1  UNL     1       6.794   2.263  -7.505  1.00  0.00    -0.259 OA
BRANCH  13  15
HETATM   15  C6  UNL     1       8.894   1.765  -8.392  1.00  0.00     0.040 A 
HETATM   16  C5  UNL     1       9.265   1.693  -9.724  1.00  0.00     0.017 A 
HETATM   17  C4  UNL     1      10.526   2.070 -10.105  1.00  0.00     0.002 A 
HETATM   18  C3  UNL     1      11.468   2.531  -9.207  1.00  0.00     0.007 A 
HETATM   19  C2  UNL     1      11.112   2.607  -7.881  1.00  0.00    -0.061 A 
HETATM   20  C1  UNL     1      12.120   3.100  -6.912  1.00  0.00     0.048 C 
HETATM   21  C18 UNL     1       9.846   2.227  -7.503  1.00  0.00     0.024 A 
ENDBRANCH  13  15
ENDBRANCH  12  13
ENDBRANCH  11  12
ENDBRANCH   8  11
ENDBRANCH   1   7
BRANCH   5  22
HETATM   22  C11 UNL     1       6.066  -1.882  -0.635  1.00  0.00     0.154 C 
BRANCH  22  23
HETATM   23  O5  UNL     1       6.224  -1.647   0.643  1.00  0.00    -0.345 OA
ATOM     24  H5  UNL     1       5.470  -1.319   1.118  1.00  0.00     0.219 HD
ENDBRANCH  22  23
BRANCH  22  25
HETATM   25  C12 UNL     1       7.034  -2.829  -1.131  1.00  0.00     0.015 A 
HETATM   26  C13 UNL     1       6.851  -4.204  -1.153  1.00  0.00     0.017 A 
HETATM   27  C14 UNL     1       7.822  -5.065  -1.614  1.00  0.00     0.020 A 
HETATM   28  C15 UNL     1       9.024  -4.577  -2.073  1.00  0.00     0.011 A 
HETATM   29 BR1  UNL     1      10.396  -5.714  -2.720  1.00  0.00    -0.051 Br
HETATM   30  C16 UNL     1       9.244  -3.217  -2.067  1.00  0.00     0.020 A 
HETATM   31  C17 UNL     1       8.267  -2.366  -1.605  1.00  0.00     0.017 A 
ENDBRANCH  22  25
ENDBRANCH   5  22
TORSDOF 8
ENDMDL
MODEL 4
REMARK VINA RESULT: -7.660030499      6.990      9.960
REMARK  8 active torsions:
REMARK  status: ('A' for Active; 'I' for Inactive)
REMARK    1  A    between atoms: C6_6  and  C7_7 
REMARK    2  A    between atoms: C7_7  and  O2_9 
REMARK    3  A    between atoms: O2_9  and  C8_10 
REMARK    4  A    between atoms: C8_10  and  C9_11 
REMARK       I    between atoms: C9_11  and  N1_13 
REMARK    5  A    between atoms: N1_13  and  N2_15 
REMARK       I    between atoms: N2_15  and  C10_17 
REMARK       I    between atoms: C10_17  and  N3_19 
REMARK    6  A    between atoms: N3_19  and  C11_21 
REMARK    7  A    between atoms: C11_21  and  O5_22 
REMARK    8  A    between atoms: C11_21  and  C12_24 
ROOT
HETATM    1  N2  UNL     1      10.078   1.779 -11.229  1.00  0.00    -0.249 N 
ATOM      2  H2  UNL     1       9.452   1.578 -10.449  1.00  0.00     0.192 HD
HETATM    3  C10 UNL     1      11.397   2.156 -10.946  1.00  0.00     0.340 C 
HETATM    4  O4  UNL     1      12.117   2.393 -11.988  1.00  0.00    -0.245 OA
HETATM    5  N3  UNL     1      11.958   2.288  -9.693  1.00  0.00    -0.287 N 
ATOM      6  H3  UNL     1      12.936   2.576  -9.724  1.00  0.00     0.172 HD
ENDROOT
BRANCH   1   7
HETATM    7  N1  UNL     1       9.581   1.664 -12.537  1.00  0.00    -0.264 N 
HETATM    8  C9  UNL     1       8.485   0.831 -12.795  1.00  0.00     0.260 C 
HETATM    9  O3  UNL     1       7.916   0.165 -11.865  1.00  0.00    -0.269 OA
ATOM     10  H1  UNL     1      10.017   2.186 -13.297  1.00  0.00     0.190 HD
BRANCH   8  11
HETATM   11  C8  UNL     1       7.938   0.686 -14.147  1.00  0.00     0.283 C 
BRANCH  11  12
HETATM   12  O2  UNL     1       6.741  -0.031 -14.154  1.00  0.00    -0.308 OA
BRANCH  12  13
HETATM   13  C7  UNL     1       5.990  -0.139 -15.311  1.00  0.00     0.293 C 
HETATM   14  O1  UNL     1       6.475  -0.711 -16.318  1.00  0.00    -0.259 OA
BRANCH  13  15
HETATM   15  C6  UNL     1       4.636   0.397 -15.404  1.00  0.00     0.040 A 
HETATM   16  C5  UNL     1       3.630  -0.019 -14.549  1.00  0.00     0.017 A 
HETATM   17  C4  UNL     1       2.370   0.506 -14.667  1.00  0.00     0.002 A 
HETATM   18  C3  UNL     1       2.045   1.454 -15.618  1.00  0.00     0.007 A 
HETATM   19  C2  UNL     1       3.035   1.875 -16.473  1.00  0.00    -0.061 A 
HETATM   20  C1  UNL     1       2.692   2.890 -17.498  1.00  0.00     0.048 C 
HETATM   21  C18 UNL     1       4.297   1.344 -16.352  1.00  0.00     0.024 A 
ENDBRANCH  13  15
ENDBRANCH  12  13
ENDBRANCH  11  12
ENDBRANCH   8  11
ENDBRANCH   1   7
BRANCH   5  22
HETATM   22  C11 UNL     1      11.485   2.116  -8.400  1.00  0.00     0.154 C 
BRANCH  22  23
HETATM   23  O5  UNL     1      12.367   2.150  -7.434  1.00  0.00    -0.345 OA
ATOM     24  H5  UNL     1      12.117   1.757  -6.606  1.00  0.00     0.219 HD
ENDBRANCH  22  23
BRANCH  22  25
HETATM   25  C12 UNL     1      10.151   1.897  -7.900  1.00  0.00     0.015 A 
HETATM   26  C13 UNL     1       9.362   0.798  -8.212  1.00  0.00     0.017 A 
HETATM   27  C14 UNL     1       8.082   0.653  -7.726  1.00  0.00     0.020 A 
HETATM   28  C15 UNL     1       7.538   1.611  -6.902  1.00  0.00     0.011 A 
HETATM   29 BR1  UNL     1       5.782   1.463  -6.202  1.00  0.00    -0.051 Br
HETATM   30  C16 UNL     1       8.289   2.717  -6.569  1.00  0.00     0.020 A 
HETATM   31  C17 UNL     1       9.566   2.852  -7.059  1.00  0.00     0.017 A 
ENDBRANCH  22  25
ENDBRANCH   5  22
TORSDOF 8
ENDMDL
MODEL 5
REMARK VINA RESULT: -7.637304133      2.335      7.558
REMARK  8 active torsions:
REMARK  status: ('A' for Active; 'I' for Inactive)
REMARK    1  A    between atoms: C6_6  and  C7_7 
REMARK    2  A    between atoms: C7_7  and  O2_9 
REMARK    3  A    between atoms: O2_9  and  C8_10 
REMARK    4  A    between atoms: C8_10  and  C9_11 
REMARK       I    between atoms: C9_11  and  N1_13 
REMARK    5  A    between atoms: N1_13  and  N2_15 
REMARK       I    between atoms: N2_15  and  C10_17 
REMARK       I    between atoms: C10_17  and  N3_19 
REMARK    6  A    between atoms: N3_19  and  C11_21 
REMARK    7  A    between atoms: C11_21  and  O5_22 
REMARK    8  A    between atoms: C11_21  and  C12_24 
ROOT
HETATM    1  N2  UNL     1       5.622   0.830  -4.266  1.00  0.00    -0.249 N 
ATOM      2  H2  UNL     1       6.566   0.499  -4.468  1.00  0.00     0.192 HD
HETATM    3  C10 UNL     1       4.967   1.609  -5.228  1.00  0.00     0.340 C 
HETATM    4  O4  UNL     1       3.782   1.986  -4.891  1.00  0.00    -0.245 OA
HETATM    5  N3  UNL     1       5.472   1.987  -6.455  1.00  0.00    -0.287 N 
ATOM      6  H3  UNL     1       4.820   2.556  -6.995  1.00  0.00     0.172 HD
ENDROOT
BRANCH   1   7
HETATM    7  N1  UNL     1       5.038   0.485  -3.037  1.00  0.00    -0.264 N 
HETATM    8  C9  UNL     1       4.527  -0.805  -2.846  1.00  0.00     0.260 C 
HETATM    9  O3  UNL     1       4.580  -1.690  -3.767  1.00  0.00    -0.269 OA
ATOM     10  H1  UNL     1       4.985   1.173  -2.286  1.00  0.00     0.190 HD
BRANCH   8  11
HETATM   11  C8  UNL     1       3.910  -1.203  -1.577  1.00  0.00     0.283 C 
BRANCH  11  12
HETATM   12  O2  UNL     1       4.526  -2.325  -1.023  1.00  0.00    -0.308 OA
BRANCH  12  13
HETATM   13  C7  UNL     1       5.810  -2.247  -0.514  1.00  0.00     0.293 C 
HETATM   14  O1  UNL     1       6.019  -1.626   0.557  1.00  0.00    -0.259 OA
BRANCH  13  15
HETATM   15  C6  UNL     1       6.946  -2.867  -1.188  1.00  0.00     0.040 A 
HETATM   16  C5  UNL     1       8.213  -2.312  -1.132  1.00  0.00     0.017 A 
HETATM   17  C4  UNL     1       9.256  -2.922  -1.779  1.00  0.00     0.002 A 
HETATM   18  C3  UNL     1       9.104  -4.091  -2.499  1.00  0.00     0.007 A 
HETATM   19  C2  UNL     1       7.850  -4.651  -2.561  1.00  0.00    -0.061 A 
HETATM   20  C1  UNL     1       7.679  -5.905  -3.334  1.00  0.00     0.048 C 
HETATM   21  C18 UNL     1       6.806  -4.035  -1.912  1.00  0.00     0.024 A 
ENDBRANCH  13  15
ENDBRANCH  12  13
ENDBRANCH  11  12
ENDBRANCH   8  11
ENDBRANCH   1   7
BRANCH   5  22
HETATM   22  C11 UNL     1       6.671   1.763  -7.116  1.00  0.00     0.154 C 
BRANCH  22  23
HETATM   23  O5  UNL     1       6.646   0.936  -8.131  1.00  0.00    -0.345 OA
ATOM     24  H5  UNL     1       7.351   1.009  -8.764  1.00  0.00     0.219 HD
ENDBRANCH  22  23
BRANCH  22  25
HETATM   25  C12 UNL     1       7.993   2.290  -6.886  1.00  0.00     0.015 A 
HETATM   26  C13 UNL     1       8.310   3.227  -5.913  1.00  0.00     0.017 A 
HETATM   27  C14 UNL     1       9.588   3.716  -5.756  1.00  0.00     0.020 A 
HETATM   28  C15 UNL     1      10.605   3.281  -6.574  1.00  0.00     0.011 A 
HETATM   29 BR1  UNL     1      12.383   3.917  -6.402  1.00  0.00    -0.051 Br
HETATM   30  C16 UNL     1      10.331   2.351  -7.552  1.00  0.00     0.020 A 
HETATM   31  C17 UNL     1       9.052   1.869  -7.701  1.00  0.00     0.017 A 
ENDBRANCH  22  25
ENDBRANCH   5  22
TORSDOF 8
ENDMDL
