MODEL 1
REMARK VINA RESULT: -8.724368219      0.000      0.000
REMARK  4 active torsions:
REMARK  status: ('A' for Active; 'I' for Inactive)
REMARK       I    between atoms: C2_5  and  N3_6 
REMARK       I    between atoms: C2_5  and  N5_21 
REMARK       I    between atoms: N3_6  and  C3_8 
REMARK    1  A    between atoms: C3_8  and  C4_10 
REMARK    2  A    between atoms: C5_11  and  C6_12 
REMARK    3  A    between atoms: N5_21  and  C13_23 
REMARK    4  A    between atoms: C17_27  and  C18_28 
ROOT
HETATM    1  N1  UNL     1       7.776  -3.079  -4.147  1.00  0.00    -0.171 NA
HETATM    2  C1  UNL     1       6.693  -2.682  -4.300  1.00  0.00     0.196 C 
HETATM    3  N2  UNL     1       5.395  -2.198  -4.490  1.00  0.00    -0.126 N 
ATOM      4  H2  UNL     1       4.609  -2.731  -4.118  1.00  0.00     0.197 HD
HETATM    5  C2  UNL     1       5.162  -1.100  -5.122  1.00  0.00     0.694 C 
HETATM    6  N3  UNL     1       6.264  -0.375  -5.631  1.00  0.00    -0.155 N 
ATOM      7  H3  UNL     1       7.214  -0.721  -5.497  1.00  0.00     0.187 HD
HETATM    8  C3  UNL     1       6.034   0.844  -6.333  1.00  0.00     0.259 C 
HETATM    9  O1  UNL     1       4.882   1.301  -6.519  1.00  0.00    -0.268 OA
HETATM   10  N5  UNL     1       3.838  -0.635  -5.300  1.00  0.00    -0.191 N 
ATOM     11  H5  UNL     1       3.405  -0.683  -6.222  1.00  0.00     0.184 HD
ENDROOT
BRANCH  10  12
HETATM   12  C13 UNL     1       3.103  -0.101  -4.201  1.00  0.00     0.050 A 
HETATM   13  C14 UNL     1       2.106  -0.836  -3.605  1.00  0.00     0.030 A 
HETATM   14  C15 UNL     1       1.373  -0.368  -2.549  1.00  0.00     0.003 A 
HETATM   15  C16 UNL     1       1.664   0.894  -2.080  1.00  0.00     0.017 A 
HETATM   16  C17 UNL     1       2.673   1.673  -2.663  1.00  0.00     0.031 A 
HETATM   17  C19 UNL     1       3.387   1.161  -3.726  1.00  0.00     0.046 A 
BRANCH  16  18
HETATM   18  C18 UNL     1       2.971   3.001  -2.160  1.00  0.00     0.265 C 
HETATM   19  N6  UNL     1       2.096   3.589  -1.217  1.00  0.00    -0.057 NA
HETATM   20  O2  UNL     1       3.995   3.592  -2.575  1.00  0.00    -0.271 OA
ENDBRANCH  16  18
ENDBRANCH  10  12
BRANCH   8  21
HETATM   21  C4  UNL     1       7.191   1.598  -6.862  1.00  0.00     0.076 C 
HETATM   22  C5  UNL     1       8.184   0.921  -7.401  1.00  0.00     0.018 C 
BRANCH  22  23
HETATM   23  C6  UNL     1       9.366   1.556  -7.950  1.00  0.00    -0.017 A 
HETATM   24  C7  UNL     1      10.280   2.193  -7.148  1.00  0.00     0.035 A 
HETATM   25  C8  UNL     1      11.391   2.783  -7.731  1.00  0.00     0.045 A 
HETATM   26  C9  UNL     1      12.331   3.441  -6.882  1.00  0.00     0.099 C 
HETATM   27  C10 UNL     1      11.587   2.738  -9.086  1.00  0.00     0.024 A 
HETATM   28  N4  UNL     1      13.087   3.964  -6.193  1.00  0.00    -0.191 NA
HETATM   29  C11 UNL     1      10.653   2.089  -9.877  1.00  0.00     0.021 A 
HETATM   30  C12 UNL     1       9.554   1.503  -9.329  1.00  0.00     0.021 A 
HETATM   31 BR1  UNL     1       8.267   0.608 -10.432  1.00  0.00    -0.050 Br
ENDBRANCH  22  23
ENDBRANCH   8  21
TORSDOF 4
ENDMDL
MODEL 2
REMARK VINA RESULT: -8.685668237      4.547      8.717
REMARK  4 active torsions:
REMARK  status: ('A' for Active; 'I' for Inactive)
REMARK       I    between atoms: C2_5  and  N3_6 
REMARK       I    between atoms: C2_5  and  N5_21 
REMARK       I    between atoms: N3_6  and  C3_8 
REMARK    1  A    between atoms: C3_8  and  C4_10 
REMARK    2  A    between atoms: C5_11  and  C6_12 
REMARK    3  A    between atoms: N5_21  and  C13_23 
REMARK    4  A    between atoms: C17_27  and  C18_28 
ROOT
HETATM    1  N1  UNL     1       8.222   3.540  -5.371  1.00  0.00    -0.171 NA
HETATM    2  C1  UNL     1       7.882   3.168  -6.420  1.00  0.00     0.196 C 
HETATM    3  N2  UNL     1       7.470   2.712  -7.676  1.00  0.00    -0.126 N 
ATOM      4  H2  UNL     1       7.264   3.393  -8.407  1.00  0.00     0.197 HD
HETATM    5  C2  UNL     1       7.345   1.457  -7.938  1.00  0.00     0.694 C 
HETATM    6  N3  UNL     1       7.636   0.527  -6.914  1.00  0.00    -0.155 N 
ATOM      7  H3  UNL     1       7.935   0.852  -5.994  1.00  0.00     0.187 HD
HETATM    8  C3  UNL     1       7.505  -0.868  -7.177  1.00  0.00     0.259 C 
HETATM    9  O1  UNL     1       7.139  -1.305  -8.293  1.00  0.00    -0.268 OA
HETATM   10  N5  UNL     1       6.927   1.024  -9.219  1.00  0.00    -0.191 N 
ATOM     11  H5  UNL     1       5.990   0.641  -9.341  1.00  0.00     0.184 HD
ENDROOT
BRANCH  10  12
HETATM   12  C13 UNL     1       7.803   1.119 -10.338  1.00  0.00     0.050 A 
HETATM   13  C14 UNL     1       7.388   0.718 -11.586  1.00  0.00     0.030 A 
HETATM   14  C15 UNL     1       8.191   0.790 -12.691  1.00  0.00     0.003 A 
HETATM   15  C16 UNL     1       9.464   1.288 -12.523  1.00  0.00     0.017 A 
HETATM   16  C17 UNL     1       9.922   1.706 -11.266  1.00  0.00     0.031 A 
HETATM   17  C19 UNL     1       9.078   1.616 -10.179  1.00  0.00     0.046 A 
BRANCH  16  18
HETATM   18  C18 UNL     1      11.266   2.229 -11.101  1.00  0.00     0.265 C 
HETATM   19  N6  UNL     1      11.649   2.750  -9.843  1.00  0.00    -0.057 NA
HETATM   20  O2  UNL     1      12.050   2.205 -12.077  1.00  0.00    -0.271 OA
ENDBRANCH  16  18
ENDBRANCH  10  12
BRANCH   8  21
HETATM   21  C4  UNL     1       7.812  -1.834  -6.101  1.00  0.00     0.076 C 
HETATM   22  C5  UNL     1       6.812  -2.322  -5.396  1.00  0.00     0.018 C 
BRANCH  22  23
HETATM   23  C6  UNL     1       6.997  -3.275  -4.320  1.00  0.00    -0.017 A 
HETATM   24  C7  UNL     1       7.618  -2.924  -3.145  1.00  0.00     0.035 A 
HETATM   25  C8  UNL     1       7.766  -3.880  -2.152  1.00  0.00     0.045 A 
HETATM   26  C9  UNL     1       8.414  -3.497  -0.939  1.00  0.00     0.099 C 
HETATM   27  C10 UNL     1       7.304  -5.158  -2.324  1.00  0.00     0.024 A 
HETATM   28  N4  UNL     1       8.931  -3.183   0.038  1.00  0.00    -0.191 NA
HETATM   29  C11 UNL     1       6.680  -5.490  -3.515  1.00  0.00     0.021 A 
HETATM   30  C12 UNL     1       6.522  -4.571  -4.506  1.00  0.00     0.021 A 
HETATM   31 BR1  UNL     1       5.658  -5.041  -6.150  1.00  0.00    -0.050 Br
ENDBRANCH  22  23
ENDBRANCH   8  21
TORSDOF 4
ENDMDL
MODEL 3
REMARK VINA RESULT: -8.470730193      4.539      6.377
REMARK  4 active torsions:
REMARK  status: ('A' for Active; 'I' for Inactive)
REMARK       I    between atoms: C2_5  and  N3_6 
REMARK       I    between atoms: C2_5  and  N5_21 
REMARK       I    between atoms: N3_6  and  C3_8 
REMARK    1  A    between atoms: C3_8  and  C4_10 
REMARK    2  A    between atoms: C5_11  and  C6_12 
REMARK    3  A    between atoms: N5_21  and  C13_23 
REMARK    4  A    between atoms: C17_27  and  C18_28 
ROOT
HETATM    1  N1  UNL     1       5.205  -5.984  -7.694  1.00  0.00    -0.171 NA
HETATM    2  C1  UNL     1       5.383  -5.336  -6.745  1.00  0.00     0.196 C 
HETATM    3  N2  UNL     1       5.600  -4.548  -5.610  1.00  0.00    -0.126 N 
ATOM      4  H2  UNL     1       5.271  -4.884  -4.704  1.00  0.00     0.197 HD
HETATM    5  C2  UNL     1       6.203  -3.412  -5.673  1.00  0.00     0.694 C 
HETATM    6  N3  UNL     1       6.653  -2.963  -6.936  1.00  0.00    -0.155 N 
ATOM      7  H3  UNL     1       6.498  -3.531  -7.769  1.00  0.00     0.187 HD
HETATM    8  C3  UNL     1       7.324  -1.709  -7.035  1.00  0.00     0.259 C 
HETATM    9  O1  UNL     1       7.531  -0.982  -6.035  1.00  0.00    -0.268 OA
HETATM   10  N5  UNL     1       6.408  -2.636  -4.508  1.00  0.00    -0.191 N 
ATOM     11  H5  UNL     1       5.865  -1.785  -4.366  1.00  0.00     0.184 HD
ENDROOT
BRANCH  10  12
HETATM   12  C13 UNL     1       7.367  -3.034  -3.532  1.00  0.00     0.050 A 
HETATM   13  C14 UNL     1       7.621  -2.239  -2.439  1.00  0.00     0.030 A 
HETATM   14  C15 UNL     1       8.531  -2.577  -1.474  1.00  0.00     0.003 A 
HETATM   15  C16 UNL     1       9.208  -3.767  -1.626  1.00  0.00     0.017 A 
HETATM   16  C17 UNL     1       8.976  -4.602  -2.727  1.00  0.00     0.031 A 
HETATM   17  C19 UNL     1       8.049  -4.222  -3.675  1.00  0.00     0.046 A 
BRANCH  16  18
HETATM   18  C18 UNL     1       9.696  -5.853  -2.876  1.00  0.00     0.265 C 
HETATM   19  N6  UNL     1      10.990  -5.836  -3.448  1.00  0.00    -0.057 NA
HETATM   20  O2  UNL     1       9.153  -6.915  -2.493  1.00  0.00    -0.271 OA
ENDBRANCH  16  18
ENDBRANCH  10  12
BRANCH   8  21
HETATM   21  C4  UNL     1       7.792  -1.246  -8.359  1.00  0.00     0.076 C 
HETATM   22  C5  UNL     1       8.176   0.008  -8.483  1.00  0.00     0.018 C 
BRANCH  22  23
HETATM   23  C6  UNL     1       8.652   0.567  -9.732  1.00  0.00    -0.017 A 
HETATM   24  C7  UNL     1       8.087   0.225 -10.937  1.00  0.00     0.035 A 
HETATM   25  C8  UNL     1       8.586   0.793 -12.099  1.00  0.00     0.045 A 
HETATM   26  C9  UNL     1       7.987   0.425 -13.341  1.00  0.00     0.099 C 
HETATM   27  C10 UNL     1       9.626   1.684 -12.062  1.00  0.00     0.024 A 
HETATM   28  N4  UNL     1       7.497   0.131 -14.338  1.00  0.00    -0.191 NA
HETATM   29  C11 UNL     1      10.180   2.015 -10.836  1.00  0.00     0.021 A 
HETATM   30  C12 UNL     1       9.709   1.472  -9.682  1.00  0.00     0.021 A 
HETATM   31 BR1  UNL     1      10.483   1.937  -7.992  1.00  0.00    -0.050 Br
ENDBRANCH  22  23
ENDBRANCH   8  21
TORSDOF 4
ENDMDL
MODEL 4
REMARK VINA RESULT: -8.440256175      3.761      8.972
REMARK  4 active torsions:
REMARK  status: ('A' for Active; 'I' for Inactive)
REMARK       I    between atoms: C2_5  and  N3_6 
REMARK       I    between atoms: C2_5  and  N5_21 
REMARK       I    between atoms: N3_6  and  C3_8 
REMARK    1  A    between atoms: C3_8  and  C4_10 
REMARK    2  A    between atoms: C5_11  and  C6_12 
REMARK    3  A    between atoms: N5_21  and  C13_23 
REMARK    4  A    between atoms: C17_27  and  C18_28 
ROOT
HETATM    1  N1  UNL     1       5.100   2.271  -4.485  1.00  0.00    -0.171 NA
HETATM    2  C1  UNL     1       5.652   2.125  -5.498  1.00  0.00     0.196 C 
HETATM    3  N2  UNL     1       6.314   1.939  -6.716  1.00  0.00    -0.126 N 
ATOM      4  H2  UNL     1       6.350   2.710  -7.382  1.00  0.00     0.197 HD
HETATM    5  C2  UNL     1       6.881   0.823  -7.020  1.00  0.00     0.694 C 
HETATM    6  N3  UNL     1       6.821  -0.234  -6.084  1.00  0.00    -0.155 N 
ATOM      7  H3  UNL     1       6.339  -0.108  -5.194  1.00  0.00     0.187 HD
HETATM    8  C3  UNL     1       7.441  -1.480  -6.396  1.00  0.00     0.259 C 
HETATM    9  O1  UNL     1       8.041  -1.675  -7.478  1.00  0.00    -0.268 OA
HETATM   10  N5  UNL     1       7.544   0.664  -8.260  1.00  0.00    -0.191 N 
ATOM     11  H5  UNL     1       7.125   0.084  -8.986  1.00  0.00     0.184 HD
ENDROOT
BRANCH  10  12
HETATM   12  C13 UNL     1       8.793   1.306  -8.502  1.00  0.00     0.050 A 
HETATM   13  C14 UNL     1       9.509   1.854  -7.464  1.00  0.00     0.030 A 
HETATM   14  C15 UNL     1      10.712   2.481  -7.644  1.00  0.00     0.003 A 
HETATM   15  C16 UNL     1      11.206   2.554  -8.928  1.00  0.00     0.017 A 
HETATM   16  C17 UNL     1      10.504   2.008 -10.011  1.00  0.00     0.031 A 
HETATM   17  C19 UNL     1       9.295   1.385  -9.782  1.00  0.00     0.046 A 
BRANCH  16  18
HETATM   18  C18 UNL     1      11.035   2.092 -11.359  1.00  0.00     0.265 C 
HETATM   19  N6  UNL     1      12.378   2.495 -11.542  1.00  0.00    -0.057 NA
HETATM   20  O2  UNL     1      10.289   1.805 -12.324  1.00  0.00    -0.271 OA
ENDBRANCH  16  18
ENDBRANCH  10  12
BRANCH   8  21
HETATM   21  C4  UNL     1       7.375  -2.582  -5.412  1.00  0.00     0.076 C 
HETATM   22  C5  UNL     1       6.266  -2.733  -4.717  1.00  0.00     0.018 C 
BRANCH  22  23
HETATM   23  C6  UNL     1       6.092  -3.778  -3.727  1.00  0.00    -0.017 A 
HETATM   24  C7  UNL     1       6.685  -3.705  -2.490  1.00  0.00     0.035 A 
HETATM   25  C8  UNL     1       6.481  -4.735  -1.585  1.00  0.00     0.045 A 
HETATM   26  C9  UNL     1       7.105  -4.642  -0.305  1.00  0.00     0.099 C 
HETATM   27  C10 UNL     1       5.703  -5.816  -1.906  1.00  0.00     0.024 A 
HETATM   28  N4  UNL     1       7.605  -4.560   0.727  1.00  0.00    -0.191 NA
HETATM   29  C11 UNL     1       5.114  -5.869  -3.159  1.00  0.00     0.021 A 
HETATM   30  C12 UNL     1       5.298  -4.871  -4.064  1.00  0.00     0.021 A 
HETATM   31 BR1  UNL     1       4.480  -4.954  -5.795  1.00  0.00    -0.050 Br
ENDBRANCH  22  23
ENDBRANCH   8  21
TORSDOF 4
ENDMDL
MODEL 5
REMARK VINA RESULT: -8.433860135      3.815      9.165
REMARK  4 active torsions:
REMARK  status: ('A' for Active; 'I' for Inactive)
REMARK       I    between atoms: C2_5  and  N3_6 
REMARK       I    between atoms: C2_5  and  N5_21 
REMARK       I    between atoms: N3_6  and  C3_8 
REMARK    1  A    between atoms: C3_8  and  C4_10 
REMARK    2  A    between atoms: C5_11  and  C6_12 
REMARK    3  A    between atoms: N5_21  and  C13_23 
REMARK    4  A    between atoms: C17_27  and  C18_28 
ROOT
HETATM    1  N1  UNL     1       5.186   2.120  -4.168  1.00  0.00    -0.171 NA
HETATM    2  C1  UNL     1       5.685   2.053  -5.216  1.00  0.00     0.196 C 
HETATM    3  N2  UNL     1       6.284   1.961  -6.476  1.00  0.00    -0.126 N 
ATOM      4  H2  UNL     1       6.381   2.806  -7.041  1.00  0.00     0.197 HD
HETATM    5  C2  UNL     1       6.718   0.843  -6.946  1.00  0.00     0.694 C 
HETATM    6  N3  UNL     1       6.576  -0.316  -6.150  1.00  0.00    -0.155 N 
ATOM      7  H3  UNL     1       6.140  -0.259  -5.230  1.00  0.00     0.187 HD
HETATM    8  C3  UNL     1       7.048  -1.567  -6.645  1.00  0.00     0.259 C 
HETATM    9  O1  UNL     1       7.588  -1.679  -7.771  1.00  0.00    -0.268 OA
HETATM   10  N5  UNL     1       7.319   0.780  -8.225  1.00  0.00    -0.191 N 
ATOM     11  H5  UNL     1       6.817   0.347  -8.999  1.00  0.00     0.184 HD
ENDROOT
BRANCH  10  12
HETATM   12  C13 UNL     1       8.621   1.319  -8.441  1.00  0.00     0.050 A 
HETATM   13  C14 UNL     1       9.396   1.719  -7.379  1.00  0.00     0.030 A 
HETATM   14  C15 UNL     1      10.651   2.241  -7.534  1.00  0.00     0.003 A 
HETATM   15  C16 UNL     1      11.137   2.362  -8.817  1.00  0.00     0.017 A 
HETATM   16  C17 UNL     1      10.375   1.965  -9.925  1.00  0.00     0.031 A 
HETATM   17  C19 UNL     1       9.115   1.444  -9.721  1.00  0.00     0.046 A 
BRANCH  16  18
HETATM   18  C18 UNL     1      10.898   2.097 -11.272  1.00  0.00     0.265 C 
HETATM   19  N6  UNL     1      10.078   1.730 -12.365  1.00  0.00    -0.057 NA
HETATM   20  O2  UNL     1      12.062   2.532 -11.432  1.00  0.00    -0.271 OA
ENDBRANCH  16  18
ENDBRANCH  10  12
BRANCH   8  21
HETATM   21  C4  UNL     1       6.897  -2.776  -5.807  1.00  0.00     0.076 C 
HETATM   22  C5  UNL     1       6.493  -2.626  -4.562  1.00  0.00     0.018 C 
BRANCH  22  23
HETATM   23  C6  UNL     1       6.311  -3.740  -3.653  1.00  0.00    -0.017 A 
HETATM   24  C7  UNL     1       5.223  -4.574  -3.743  1.00  0.00     0.035 A 
HETATM   25  C8  UNL     1       5.104  -5.623  -2.844  1.00  0.00     0.045 A 
HETATM   26  C9  UNL     1       3.968  -6.480  -2.953  1.00  0.00     0.099 C 
HETATM   27  C10 UNL     1       6.049  -5.836  -1.875  1.00  0.00     0.024 A 
HETATM   28  N4  UNL     1       3.054  -7.170  -3.049  1.00  0.00    -0.191 NA
HETATM   29  C11 UNL     1       7.138  -4.983  -1.803  1.00  0.00     0.021 A 
HETATM   30  C12 UNL     1       7.278  -3.947  -2.673  1.00  0.00     0.021 A 
HETATM   31 BR1  UNL     1       8.788  -2.772  -2.563  1.00  0.00    -0.050 Br
ENDBRANCH  22  23
ENDBRANCH   8  21
TORSDOF 4
ENDMDL
