MODEL 1
REMARK VINA RESULT: -7.320770486      0.000      0.000
REMARK  9 active torsions:
REMARK  status: ('A' for Active; 'I' for Inactive)
REMARK    1  A    between atoms: C2_2  and  C3_4 
REMARK    2  A    between atoms: C3_4  and  O2_6 
REMARK    3  A    between atoms: O2_6  and  C4_7 
REMARK    4  A    between atoms: C11_14  and  C12_15 
REMARK    5  A    between atoms: C12_15  and  O3_16 
REMARK    6  A    between atoms: O3_16  and  C13_17 
REMARK    7  A    between atoms: C16_21  and  O5_22 
REMARK    8  A    between atoms: C17_24  and  O6_25 
REMARK    9  A    between atoms: C23_34  and  O7_35 
ROOT
HETATM    1  C4  UNL     1       7.142  -0.499 -10.425  1.00  0.00     0.162 C 
HETATM    2  C5  UNL     1       5.989  -0.934  -9.559  1.00  0.00     0.041 C 
HETATM    3  C6  UNL     1       6.662  -1.477  -8.351  1.00  0.00     0.009 C 
HETATM    4  C7  UNL     1       5.846  -1.648  -7.140  1.00  0.00    -0.019 C 
HETATM    5  C8  UNL     1       4.486  -0.933  -7.234  1.00  0.00     0.018 C 
HETATM    6  C9  UNL     1       5.505  -3.120  -6.981  1.00  0.00     0.017 C 
HETATM    7  C10 UNL     1       5.923  -3.709  -5.683  1.00  0.00     0.055 C 
HETATM    8  C11 UNL     1       5.679  -2.797  -4.540  1.00  0.00     0.006 C 
HETATM    9  N1  UNL     1       5.968  -1.574  -4.692  1.00  0.00    -0.389 N 
ATOM     10  H1  UNL     1       5.808  -0.927  -3.920  1.00  0.00     0.159 HD
HETATM   11  C18 UNL     1       6.523  -1.067  -5.942  1.00  0.00     0.089 C 
HETATM   12  C19 UNL     1       7.988  -1.206  -5.875  1.00  0.00     0.027 C 
HETATM   13  C20 UNL     1       8.727  -1.151  -7.163  1.00  0.00     0.014 C 
HETATM   14  C21 UNL     1       7.864  -0.573  -8.219  1.00  0.00    -0.011 C 
HETATM   15  C22 UNL     1       7.566   0.867  -8.091  1.00  0.00     0.018 C 
HETATM   16  C23 UNL     1       8.427  -0.786  -9.638  1.00  0.00     0.156 C 
ENDROOT
BRANCH   8  17
HETATM   17  C12 UNL     1       5.112  -3.359  -3.284  1.00  0.00     0.223 C 
BRANCH  17  18
HETATM   18  O3  UNL     1       5.266  -2.478  -2.221  1.00  0.00    -0.353 OA
BRANCH  18  19
HETATM   19  C13 UNL     1       6.030  -3.060  -1.230  1.00  0.00     0.291 C 
HETATM   20  O4  UNL     1       6.908  -4.010  -1.702  1.00  0.00    -0.351 OA
HETATM   21  C14 UNL     1       8.198  -3.634  -1.446  1.00  0.00     0.152 C 
HETATM   22  C15 UNL     1       8.922  -3.068  -2.648  1.00  0.00     0.042 C 
HETATM   23  C16 UNL     1       8.178  -2.648  -0.296  1.00  0.00     0.180 C 
HETATM   24  C17 UNL     1       6.822  -1.993  -0.511  1.00  0.00     0.204 C 
BRANCH  23  25
HETATM   25  O5  UNL     1       9.184  -1.708  -0.385  1.00  0.00    -0.390 OA
ATOM     26  H5  UNL     1       9.214  -1.131   0.369  1.00  0.00     0.210 HD
ENDBRANCH  23  25
BRANCH  24  27
HETATM   27  O6  UNL     1       6.211  -1.661   0.678  1.00  0.00    -0.388 OA
ATOM     28  H6  UNL     1       6.718  -1.003   1.139  1.00  0.00     0.210 HD
ENDBRANCH  24  27
ENDBRANCH  18  19
ENDBRANCH  17  18
ENDBRANCH   8  17
BRANCH   1  29
HETATM   29  O2  UNL     1       7.154  -0.992 -11.702  1.00  0.00    -0.308 OA
BRANCH  29  30
HETATM   30  C3  UNL     1       7.324  -0.204 -12.816  1.00  0.00     0.321 C 
HETATM   31  O1  UNL     1       8.471  -0.149 -13.282  1.00  0.00    -0.257 OA
BRANCH  30  32
HETATM   32  C2  UNL     1       6.243   0.542 -13.446  1.00  0.00     0.181 C 
HETATM   33  C1  UNL     1       4.988   0.140 -13.340  1.00  0.00     0.063 C 
HETATM   34  F1  UNL     1       6.525   1.651 -14.139  1.00  0.00    -0.201 F 
ENDBRANCH  30  32
ENDBRANCH  29  30
ENDBRANCH   1  29
BRANCH  16  35
HETATM   35  O7  UNL     1       8.846  -2.086  -9.785  1.00  0.00    -0.392 OA
ATOM     36  H7  UNL     1       9.743  -2.208  -9.496  1.00  0.00     0.210 HD
ENDBRANCH  16  35
TORSDOF 9
ENDMDL
MODEL 2
REMARK VINA RESULT: -7.299804992      2.477      3.562
REMARK  9 active torsions:
REMARK  status: ('A' for Active; 'I' for Inactive)
REMARK    1  A    between atoms: C2_2  and  C3_4 
REMARK    2  A    between atoms: C3_4  and  O2_6 
REMARK    3  A    between atoms: O2_6  and  C4_7 
REMARK    4  A    between atoms: C11_14  and  C12_15 
REMARK    5  A    between atoms: C12_15  and  O3_16 
REMARK    6  A    between atoms: O3_16  and  C13_17 
REMARK    7  A    between atoms: C16_21  and  O5_22 
REMARK    8  A    between atoms: C17_24  and  O6_25 
REMARK    9  A    between atoms: C23_34  and  O7_35 
ROOT
HETATM    1  C4  UNL     1       9.136   0.653  -9.953  1.00  0.00     0.162 C 
HETATM    2  C5  UNL     1       9.114   0.355  -8.476  1.00  0.00     0.041 C 
HETATM    3  C6  UNL     1       7.695  -0.007  -8.227  1.00  0.00     0.009 C 
HETATM    4  C7  UNL     1       7.387  -0.716  -6.977  1.00  0.00    -0.019 C 
HETATM    5  C8  UNL     1       8.645  -1.248  -6.269  1.00  0.00     0.018 C 
HETATM    6  C9  UNL     1       6.771   0.266  -5.995  1.00  0.00     0.017 C 
HETATM    7  C10 UNL     1       5.433  -0.133  -5.488  1.00  0.00     0.055 C 
HETATM    8  C11 UNL     1       5.348  -1.583  -5.188  1.00  0.00     0.006 C 
HETATM    9  N1  UNL     1       5.868  -2.385  -6.017  1.00  0.00    -0.389 N 
ATOM     10  H1  UNL     1       5.823  -3.387  -5.833  1.00  0.00     0.159 HD
HETATM   11  C18 UNL     1       6.530  -1.914  -7.228  1.00  0.00     0.089 C 
HETATM   12  C19 UNL     1       5.509  -1.789  -8.283  1.00  0.00     0.027 C 
HETATM   13  C20 UNL     1       5.855  -0.947  -9.457  1.00  0.00     0.014 C 
HETATM   14  C21 UNL     1       7.317  -0.719  -9.505  1.00  0.00    -0.011 C 
HETATM   15  C22 UNL     1       8.142  -1.895  -9.846  1.00  0.00     0.018 C 
HETATM   16  C23 UNL     1       7.719   0.403 -10.481  1.00  0.00     0.156 C 
ENDROOT
BRANCH   8  17
HETATM   17  C12 UNL     1       4.662  -2.017  -3.941  1.00  0.00     0.223 C 
BRANCH  17  18
HETATM   18  O3  UNL     1       5.203  -1.393  -2.823  1.00  0.00    -0.353 OA
BRANCH  18  19
HETATM   19  C13 UNL     1       5.665  -2.338  -1.930  1.00  0.00     0.291 C 
HETATM   20  O4  UNL     1       6.381  -3.352  -2.528  1.00  0.00    -0.351 OA
HETATM   21  C14 UNL     1       7.667  -3.364  -2.063  1.00  0.00     0.152 C 
HETATM   22  C15 UNL     1       8.669  -2.752  -3.017  1.00  0.00     0.042 C 
HETATM   23  C16 UNL     1       7.684  -2.668  -0.718  1.00  0.00     0.180 C 
HETATM   24  C17 UNL     1       6.549  -1.673  -0.902  1.00  0.00     0.204 C 
BRANCH  23  25
HETATM   25  O5  UNL     1       8.871  -2.004  -0.479  1.00  0.00    -0.390 OA
ATOM     26  H5  UNL     1       8.841  -1.094  -0.750  1.00  0.00     0.210 HD
ENDBRANCH  23  25
BRANCH  24  27
HETATM   27  O6  UNL     1       5.850  -1.460   0.266  1.00  0.00    -0.388 OA
ATOM     28  H6  UNL     1       5.508  -0.574   0.291  1.00  0.00     0.210 HD
ENDBRANCH  24  27
ENDBRANCH  18  19
ENDBRANCH  17  18
ENDBRANCH   8  17
BRANCH   1  29
HETATM   29  O2  UNL     1       9.656   1.867 -10.313  1.00  0.00    -0.308 OA
BRANCH  29  30
HETATM   30  C3  UNL     1      10.995   2.171 -10.236  1.00  0.00     0.321 C 
HETATM   31  O1  UNL     1      11.543   2.519 -11.292  1.00  0.00    -0.257 OA
BRANCH  30  32
HETATM   32  C2  UNL     1      11.766   2.101  -9.002  1.00  0.00     0.181 C 
HETATM   33  C1  UNL     1      11.729   3.085  -8.121  1.00  0.00     0.063 C 
HETATM   34  F1  UNL     1      12.520   1.024  -8.758  1.00  0.00    -0.201 F 
ENDBRANCH  30  32
ENDBRANCH  29  30
ENDBRANCH   1  29
BRANCH  16  35
HETATM   35  O7  UNL     1       6.900   1.493 -10.305  1.00  0.00    -0.392 OA
ATOM     36  H7  UNL     1       6.002   1.241 -10.126  1.00  0.00     0.210 HD
ENDBRANCH  16  35
TORSDOF 9
ENDMDL
MODEL 3
REMARK VINA RESULT: -7.128992907      4.765      5.606
REMARK  9 active torsions:
REMARK  status: ('A' for Active; 'I' for Inactive)
REMARK    1  A    between atoms: C2_2  and  C3_4 
REMARK    2  A    between atoms: C3_4  and  O2_6 
REMARK    3  A    between atoms: O2_6  and  C4_7 
REMARK    4  A    between atoms: C11_14  and  C12_15 
REMARK    5  A    between atoms: C12_15  and  O3_16 
REMARK    6  A    between atoms: O3_16  and  C13_17 
REMARK    7  A    between atoms: C16_21  and  O5_22 
REMARK    8  A    between atoms: C17_24  and  O6_25 
REMARK    9  A    between atoms: C23_34  and  O7_35 
ROOT
HETATM    1  C4  UNL     1       0.965   1.510  -6.068  1.00  0.00     0.162 C 
HETATM    2  C5  UNL     1       0.757   0.420  -5.049  1.00  0.00     0.041 C 
HETATM    3  C6  UNL     1       2.144   0.023  -4.694  1.00  0.00     0.009 C 
HETATM    4  C7  UNL     1       2.331  -0.751  -3.459  1.00  0.00    -0.019 C 
HETATM    5  C8  UNL     1       1.079  -0.756  -2.564  1.00  0.00     0.018 C 
HETATM    6  C9  UNL     1       2.557  -2.209  -3.823  1.00  0.00     0.017 C 
HETATM    7  C10 UNL     1       3.822  -2.783  -3.297  1.00  0.00     0.055 C 
HETATM    8  C11 UNL     1       4.112  -2.345  -1.910  1.00  0.00     0.006 C 
HETATM    9  N1  UNL     1       3.916  -1.128  -1.626  1.00  0.00    -0.389 N 
ATOM     10  H1  UNL     1       4.107  -0.803  -0.678  1.00  0.00     0.159 HD
HETATM   11  C18 UNL     1       3.424  -0.178  -2.617  1.00  0.00     0.089 C 
HETATM   12  C19 UNL     1       4.589   0.376  -3.330  1.00  0.00     0.027 C 
HETATM   13  C20 UNL     1       4.326   1.031  -4.637  1.00  0.00     0.014 C 
HETATM   14  C21 UNL     1       2.884   1.337  -4.772  1.00  0.00    -0.011 C 
HETATM   15  C22 UNL     1       2.369   2.410  -3.897  1.00  0.00     0.018 C 
HETATM   16  C23 UNL     1       2.479   1.706  -6.212  1.00  0.00     0.156 C 
ENDROOT
BRANCH   8  17
HETATM   17  C12 UNL     1       4.613  -3.349  -0.933  1.00  0.00     0.223 C 
BRANCH  17  18
HETATM   18  O3  UNL     1       5.718  -4.030  -1.431  1.00  0.00    -0.353 OA
BRANCH  18  19
HETATM   19  C13 UNL     1       6.877  -3.517  -0.883  1.00  0.00     0.291 C 
HETATM   20  O4  UNL     1       7.842  -4.471  -0.652  1.00  0.00    -0.351 OA
HETATM   21  C14 UNL     1       8.959  -4.207  -1.396  1.00  0.00     0.152 C 
HETATM   22  C15 UNL     1       9.091  -5.072  -2.630  1.00  0.00     0.042 C 
HETATM   23  C16 UNL     1       8.949  -2.735  -1.749  1.00  0.00     0.180 C 
HETATM   24  C17 UNL     1       7.452  -2.471  -1.807  1.00  0.00     0.204 C 
BRANCH  23  25
HETATM   25  O5  UNL     1       9.530  -2.478  -2.974  1.00  0.00    -0.390 OA
ATOM     26  H5  UNL     1      10.440  -2.746  -3.010  1.00  0.00     0.210 HD
ENDBRANCH  23  25
BRANCH  24  27
HETATM   27  O6  UNL     1       7.129  -1.207  -1.363  1.00  0.00    -0.388 OA
ATOM     28  H6  UNL     1       6.200  -1.148  -1.175  1.00  0.00     0.210 HD
ENDBRANCH  24  27
ENDBRANCH  18  19
ENDBRANCH  17  18
ENDBRANCH   8  17
BRANCH   1  29
HETATM   29  O2  UNL     1       0.312   1.352  -7.260  1.00  0.00    -0.308 OA
BRANCH  29  30
HETATM   30  C3  UNL     1      -0.170   2.402  -8.006  1.00  0.00     0.321 C 
HETATM   31  O1  UNL     1      -1.237   2.904  -7.628  1.00  0.00    -0.257 OA
BRANCH  30  32
HETATM   32  C2  UNL     1       0.506   2.926  -9.185  1.00  0.00     0.181 C 
HETATM   33  C1  UNL     1       0.131   4.071  -9.731  1.00  0.00     0.063 C 
HETATM   34  F1  UNL     1       1.521   2.240  -9.722  1.00  0.00    -0.201 F 
ENDBRANCH  30  32
ENDBRANCH  29  30
ENDBRANCH   1  29
BRANCH  16  35
HETATM   35  O7  UNL     1       3.036   0.815  -7.098  1.00  0.00    -0.392 OA
ATOM     36  H7  UNL     1       3.111   1.180  -7.972  1.00  0.00     0.210 HD
ENDBRANCH  16  35
TORSDOF 9
ENDMDL
MODEL 4
REMARK VINA RESULT: -7.088607438      1.231      1.370
REMARK  9 active torsions:
REMARK  status: ('A' for Active; 'I' for Inactive)
REMARK    1  A    between atoms: C2_2  and  C3_4 
REMARK    2  A    between atoms: C3_4  and  O2_6 
REMARK    3  A    between atoms: O2_6  and  C4_7 
REMARK    4  A    between atoms: C11_14  and  C12_15 
REMARK    5  A    between atoms: C12_15  and  O3_16 
REMARK    6  A    between atoms: O3_16  and  C13_17 
REMARK    7  A    between atoms: C16_21  and  O5_22 
REMARK    8  A    between atoms: C17_24  and  O6_25 
REMARK    9  A    between atoms: C23_34  and  O7_35 
ROOT
HETATM    1  C4  UNL     1       7.368   0.889 -10.728  1.00  0.00     0.162 C 
HETATM    2  C5  UNL     1       6.183   0.744  -9.810  1.00  0.00     0.041 C 
HETATM    3  C6  UNL     1       6.666  -0.220  -8.787  1.00  0.00     0.009 C 
HETATM    4  C7  UNL     1       5.909  -0.309  -7.530  1.00  0.00    -0.019 C 
HETATM    5  C8  UNL     1       4.912   0.850  -7.353  1.00  0.00     0.018 C 
HETATM    6  C9  UNL     1       5.052  -1.563  -7.560  1.00  0.00     0.017 C 
HETATM    7  C10 UNL     1       5.287  -2.493  -6.427  1.00  0.00     0.055 C 
HETATM    8  C11 UNL     1       5.461  -1.785  -5.136  1.00  0.00     0.006 C 
HETATM    9  N1  UNL     1       6.178  -0.742  -5.131  1.00  0.00    -0.389 N 
ATOM     10  H1  UNL     1       6.312  -0.236  -4.256  1.00  0.00     0.159 HD
HETATM   11  C18 UNL     1       6.816  -0.243  -6.344  1.00  0.00     0.089 C 
HETATM   12  C19 UNL     1       8.124  -0.909  -6.472  1.00  0.00     0.027 C 
HETATM   13  C20 UNL     1       8.762  -0.882  -7.814  1.00  0.00     0.014 C 
HETATM   14  C21 UNL     1       8.124   0.151  -8.660  1.00  0.00    -0.011 C 
HETATM   15  C22 UNL     1       8.393   1.553  -8.278  1.00  0.00     0.018 C 
HETATM   16  C23 UNL     1       8.491   0.020 -10.150  1.00  0.00     0.156 C 
ENDROOT
BRANCH   8  17
HETATM   17  C12 UNL     1       4.791  -2.330  -3.924  1.00  0.00     0.223 C 
BRANCH  17  18
HETATM   18  O3  UNL     1       5.185  -1.649  -2.779  1.00  0.00    -0.353 OA
BRANCH  18  19
HETATM   19  C13 UNL     1       5.785  -2.520  -1.892  1.00  0.00     0.291 C 
HETATM   20  O4  UNL     1       6.530  -3.502  -2.508  1.00  0.00    -0.351 OA
HETATM   21  C14 UNL     1       7.844  -3.399  -2.145  1.00  0.00     0.152 C 
HETATM   22  C15 UNL     1       8.721  -2.754  -3.195  1.00  0.00     0.042 C 
HETATM   23  C16 UNL     1       7.909  -2.649  -0.831  1.00  0.00     0.180 C 
HETATM   24  C17 UNL     1       6.690  -1.749  -0.961  1.00  0.00     0.204 C 
BRANCH  23  25
HETATM   25  O5  UNL     1       9.055  -1.890  -0.709  1.00  0.00    -0.390 OA
ATOM     26  H5  UNL     1       8.960  -1.180  -0.085  1.00  0.00     0.210 HD
ENDBRANCH  23  25
BRANCH  24  27
HETATM   27  O6  UNL     1       6.066  -1.541   0.250  1.00  0.00    -0.388 OA
ATOM     28  H6  UNL     1       5.607  -0.709   0.248  1.00  0.00     0.210 HD
ENDBRANCH  24  27
ENDBRANCH  18  19
ENDBRANCH  17  18
ENDBRANCH   8  17
BRANCH   1  29
HETATM   29  O2  UNL     1       7.128   0.673 -12.058  1.00  0.00    -0.308 OA
BRANCH  29  30
HETATM   30  C3  UNL     1       6.115  -0.132 -12.524  1.00  0.00     0.321 C 
HETATM   31  O1  UNL     1       6.347  -1.348 -12.555  1.00  0.00    -0.257 OA
BRANCH  30  32
HETATM   32  C2  UNL     1       4.824   0.377 -12.968  1.00  0.00     0.181 C 
HETATM   33  C1  UNL     1       4.642   0.770 -14.218  1.00  0.00     0.063 C 
HETATM   34  F1  UNL     1       3.810   0.446 -12.100  1.00  0.00    -0.201 F 
ENDBRANCH  30  32
ENDBRANCH  29  30
ENDBRANCH   1  29
BRANCH  16  35
HETATM   35  O7  UNL     1       8.387  -1.292 -10.545  1.00  0.00    -0.392 OA
ATOM     36  H7  UNL     1       8.985  -1.858 -10.070  1.00  0.00     0.210 HD
ENDBRANCH  16  35
TORSDOF 9
ENDMDL
MODEL 5
REMARK VINA RESULT: -7.055469740      4.482      5.595
REMARK  9 active torsions:
REMARK  status: ('A' for Active; 'I' for Inactive)
REMARK    1  A    between atoms: C2_2  and  C3_4 
REMARK    2  A    between atoms: C3_4  and  O2_6 
REMARK    3  A    between atoms: O2_6  and  C4_7 
REMARK    4  A    between atoms: C11_14  and  C12_15 
REMARK    5  A    between atoms: C12_15  and  O3_16 
REMARK    6  A    between atoms: O3_16  and  C13_17 
REMARK    7  A    between atoms: C16_21  and  O5_22 
REMARK    8  A    between atoms: C17_24  and  O6_25 
REMARK    9  A    between atoms: C23_34  and  O7_35 
ROOT
HETATM    1  C4  UNL     1       1.731   1.783  -6.270  1.00  0.00     0.162 C 
HETATM    2  C5  UNL     1       2.295   1.939  -4.882  1.00  0.00     0.041 C 
HETATM    3  C6  UNL     1       2.835   0.587  -4.585  1.00  0.00     0.009 C 
HETATM    4  C7  UNL     1       3.789   0.468  -3.473  1.00  0.00    -0.019 C 
HETATM    5  C8  UNL     1       4.316   1.832  -2.993  1.00  0.00     0.018 C 
HETATM    6  C9  UNL     1       3.069  -0.119  -2.270  1.00  0.00     0.017 C 
HETATM    7  C10 UNL     1       3.684  -1.361  -1.734  1.00  0.00     0.055 C 
HETATM    8  C11 UNL     1       5.165  -1.298  -1.713  1.00  0.00     0.006 C 
HETATM    9  N1  UNL     1       5.746  -0.805  -2.724  1.00  0.00    -0.389 N 
ATOM     10  H1  UNL     1       6.764  -0.750  -2.733  1.00  0.00     0.159 HD
HETATM   11  C18 UNL     1       4.998  -0.312  -3.874  1.00  0.00     0.089 C 
HETATM   12  C19 UNL     1       4.782  -1.444  -4.792  1.00  0.00     0.027 C 
HETATM   13  C20 UNL     1       3.709  -1.290  -5.807  1.00  0.00     0.014 C 
HETATM   14  C21 UNL     1       3.333   0.136  -5.938  1.00  0.00    -0.011 C 
HETATM   15  C22 UNL     1       4.340   1.012  -6.570  1.00  0.00     0.018 C 
HETATM   16  C23 UNL     1       2.017   0.343  -6.711  1.00  0.00     0.156 C 
ENDROOT
BRANCH   8  17
HETATM   17  C12 UNL     1       5.886  -1.814  -0.518  1.00  0.00     0.223 C 
BRANCH  17  18
HETATM   18  O3  UNL     1       6.024  -3.196  -0.569  1.00  0.00    -0.353 OA
BRANCH  18  19
HETATM   19  C13 UNL     1       7.321  -3.554  -0.260  1.00  0.00     0.291 C 
HETATM   20  O4  UNL     1       7.547  -4.910  -0.335  1.00  0.00    -0.351 OA
HETATM   21  C14 UNL     1       8.487  -5.183  -1.290  1.00  0.00     0.152 C 
HETATM   22  C15 UNL     1       7.909  -5.699  -2.589  1.00  0.00     0.042 C 
HETATM   23  C16 UNL     1       9.310  -3.930  -1.508  1.00  0.00     0.180 C 
HETATM   24  C17 UNL     1       8.275  -2.858  -1.202  1.00  0.00     0.204 C 
BRANCH  23  25
HETATM   25  O5  UNL     1       9.756  -3.808  -2.809  1.00  0.00    -0.390 OA
ATOM     26  H5  UNL     1      10.457  -4.416  -3.013  1.00  0.00     0.210 HD
ENDBRANCH  23  25
BRANCH  24  27
HETATM   27  O6  UNL     1       8.834  -1.756  -0.592  1.00  0.00    -0.388 OA
ATOM     28  H6  UNL     1       9.556  -1.421  -1.110  1.00  0.00     0.210 HD
ENDBRANCH  24  27
ENDBRANCH  18  19
ENDBRANCH  17  18
ENDBRANCH   8  17
BRANCH   1  29
HETATM   29  O2  UNL     1       0.426   2.164  -6.434  1.00  0.00    -0.308 OA
BRANCH  29  30
HETATM   30  C3  UNL     1      -0.218   2.159  -7.649  1.00  0.00     0.321 C 
HETATM   31  O1  UNL     1      -1.178   1.384  -7.762  1.00  0.00    -0.257 OA
BRANCH  30  32
HETATM   32  C2  UNL     1       0.175   3.003  -8.770  1.00  0.00     0.181 C 
HETATM   33  C1  UNL     1       0.733   2.482  -9.850  1.00  0.00     0.063 C 
HETATM   34  F1  UNL     1      -0.034   4.322  -8.706  1.00  0.00    -0.201 F 
ENDBRANCH  30  32
ENDBRANCH  29  30
ENDBRANCH   1  29
BRANCH  16  35
HETATM   35  O7  UNL     1       1.064  -0.537  -6.258  1.00  0.00    -0.392 OA
ATOM     36  H7  UNL     1       1.214  -0.796  -5.356  1.00  0.00     0.210 HD
ENDBRANCH  16  35
TORSDOF 9
ENDMDL
