MODEL 1
REMARK VINA RESULT: -7.525367078      0.000      0.000
REMARK  8 active torsions:
REMARK  status: ('A' for Active; 'I' for Inactive)
REMARK    1  A    between atoms: C3_5  and  O3_6 
REMARK    2  A    between atoms: O3_6  and  C4_7 
REMARK    3  A    between atoms: C4_7  and  C5_9 
REMARK    4  A    between atoms: C6_10  and  C7_11 
REMARK    5  A    between atoms: C12_17  and  C13_18 
REMARK    6  A    between atoms: C17_22  and  O5_23 
REMARK    7  A    between atoms: C18_25  and  O6_26 
REMARK    8  A    between atoms: C19_28  and  O7_29 
ROOT
HETATM    1  O3  UNL     1       6.548  -2.045  -4.325  1.00  0.00    -0.281 OA
ENDROOT
BRANCH   1   2
HETATM    2  C3  UNL     1       7.612  -2.714  -3.670  1.00  0.00     0.338 C 
HETATM    3  O2  UNL     1       7.637  -4.076  -4.032  1.00  0.00    -0.199 OA
HETATM    4  O1  UNL     1       7.460  -4.845  -2.952  1.00  0.00    -0.198 OA
HETATM    5  C2  UNL     1       8.318  -5.054  -1.883  1.00  0.00     0.106 C 
HETATM    6  C1  UNL     1       8.257  -6.230  -1.287  1.00  0.00     0.052 C 
HETATM    7  C19 UNL     1       9.317  -4.127  -1.297  1.00  0.00     0.208 C 
HETATM    8  C18 UNL     1       8.975  -2.698  -1.653  1.00  0.00     0.187 C 
HETATM    9  C17 UNL     1       7.573  -2.546  -2.177  1.00  0.00     0.208 C 
BRANCH   7  10
HETATM   10  O7  UNL     1      10.602  -4.434  -1.751  1.00  0.00    -0.386 OA
ATOM     11  H7  UNL     1      11.040  -3.655  -2.072  1.00  0.00     0.210 HD
ENDBRANCH   7  10
BRANCH   8  12
HETATM   12  O6  UNL     1       9.155  -1.926  -0.487  1.00  0.00    -0.390 OA
ATOM     13  H6  UNL     1       9.584  -2.437   0.188  1.00  0.00     0.210 HD
ENDBRANCH   8  12
BRANCH   9  14
HETATM   14  O5  UNL     1       7.103  -1.253  -1.897  1.00  0.00    -0.388 OA
ATOM     15  H5  UNL     1       6.644  -1.280  -1.066  1.00  0.00     0.210 HD
ENDBRANCH   9  14
ENDBRANCH   1   2
BRANCH   1  16
HETATM   16  C4  UNL     1       6.532  -1.836  -5.698  1.00  0.00     0.285 C 
HETATM   17  O4  UNL     1       5.499  -2.210  -6.300  1.00  0.00    -0.260 OA
BRANCH  16  18
HETATM   18  C5  UNL     1       7.601  -1.233  -6.452  1.00  0.00     0.083 C 
HETATM   19  C6  UNL     1       7.441  -0.150  -7.218  1.00  0.00     0.018 C 
BRANCH  19  20
HETATM   20  C7  UNL     1       8.461   0.488  -7.985  1.00  0.00    -0.028 A 
HETATM   21  C8  UNL     1       9.424   1.239  -7.327  1.00  0.00     0.031 A 
HETATM   22  C9  UNL     1      10.417   1.867  -8.057  1.00  0.00     0.011 A 
HETATM   23 BR1  UNL     1      11.729   2.898  -7.106  1.00  0.00    -0.051 Br
HETATM   24  C10 UNL     1      10.460   1.755  -9.419  1.00  0.00     0.019 A 
HETATM   25  C11 UNL     1       9.484   0.997 -10.041  1.00  0.00     0.010 A 
HETATM   26  C12 UNL     1       8.468   0.347  -9.366  1.00  0.00    -0.040 A 
BRANCH  26  27
HETATM   27  C13 UNL     1       7.518  -0.419 -10.140  1.00  0.00    -0.023 C 
HETATM   28  C14 UNL     1       7.744  -0.137 -11.623  1.00  0.00     0.019 C 
HETATM   29  C15 UNL     1       7.572  -1.906 -10.007  1.00  0.00     0.019 C 
HETATM   30  C16 UNL     1       6.078   0.040  -9.882  1.00  0.00     0.019 C 
ENDBRANCH  26  27
ENDBRANCH  19  20
ENDBRANCH  16  18
ENDBRANCH   1  16
TORSDOF 8
ENDMDL
MODEL 2
REMARK VINA RESULT: -7.268987700      1.062      1.415
REMARK  8 active torsions:
REMARK  status: ('A' for Active; 'I' for Inactive)
REMARK    1  A    between atoms: C3_5  and  O3_6 
REMARK    2  A    between atoms: O3_6  and  C4_7 
REMARK    3  A    between atoms: C4_7  and  C5_9 
REMARK    4  A    between atoms: C6_10  and  C7_11 
REMARK    5  A    between atoms: C12_17  and  C13_18 
REMARK    6  A    between atoms: C17_22  and  O5_23 
REMARK    7  A    between atoms: C18_25  and  O6_26 
REMARK    8  A    between atoms: C19_28  and  O7_29 
ROOT
HETATM    1  O3  UNL     1       7.204  -2.142  -4.497  1.00  0.00    -0.281 OA
ENDROOT
BRANCH   1   2
HETATM    2  C3  UNL     1       7.501  -3.413  -3.944  1.00  0.00     0.338 C 
HETATM    3  O2  UNL     1       6.318  -4.069  -3.548  1.00  0.00    -0.199 OA
HETATM    4  O1  UNL     1       6.338  -4.304  -2.231  1.00  0.00    -0.198 OA
HETATM    5  C2  UNL     1       7.134  -5.187  -1.517  1.00  0.00     0.106 C 
HETATM    6  C1  UNL     1       6.619  -5.704  -0.419  1.00  0.00     0.052 C 
HETATM    7  C19 UNL     1       8.513  -5.646  -1.816  1.00  0.00     0.208 C 
HETATM    8  C18 UNL     1       9.204  -4.659  -2.732  1.00  0.00     0.187 C 
HETATM    9  C17 UNL     1       8.490  -3.339  -2.814  1.00  0.00     0.208 C 
BRANCH   7  10
HETATM   10  O7  UNL     1       8.496  -6.910  -2.408  1.00  0.00    -0.386 OA
ATOM     11  H7  UNL     1       8.404  -7.588  -1.749  1.00  0.00     0.210 HD
ENDBRANCH   7  10
BRANCH   8  12
HETATM   12  O6  UNL     1      10.514  -4.485  -2.239  1.00  0.00    -0.390 OA
ATOM     13  H6  UNL     1      11.126  -5.033  -2.716  1.00  0.00     0.210 HD
ENDBRANCH   8  12
BRANCH   9  14
HETATM   14  O5  UNL     1       9.411  -2.322  -3.109  1.00  0.00    -0.388 OA
ATOM     15  H5  UNL     1      10.057  -2.674  -3.709  1.00  0.00     0.210 HD
ENDBRANCH   9  14
ENDBRANCH   1   2
BRANCH   1  16
HETATM   16  C4  UNL     1       7.137  -1.923  -5.867  1.00  0.00     0.285 C 
HETATM   17  O4  UNL     1       6.135  -2.395  -6.452  1.00  0.00    -0.260 OA
BRANCH  16  18
HETATM   18  C5  UNL     1       8.124  -1.208  -6.636  1.00  0.00     0.083 C 
HETATM   19  C6  UNL     1       7.828  -0.180  -7.436  1.00  0.00     0.018 C 
BRANCH  19  20
HETATM   20  C7  UNL     1       8.761   0.563  -8.219  1.00  0.00    -0.028 A 
HETATM   21  C8  UNL     1       9.769   1.265  -7.575  1.00  0.00     0.031 A 
HETATM   22  C9  UNL     1      10.679   1.993  -8.320  1.00  0.00     0.011 A 
HETATM   23 BR1  UNL     1      12.059   2.950  -7.386  1.00  0.00    -0.051 Br
HETATM   24  C10 UNL     1      10.595   2.029  -9.684  1.00  0.00     0.019 A 
HETATM   25  C11 UNL     1       9.577   1.317 -10.292  1.00  0.00     0.010 A 
HETATM   26  C12 UNL     1       8.640   0.572  -9.602  1.00  0.00    -0.040 A 
BRANCH  26  27
HETATM   27  C13 UNL     1       7.633  -0.131 -10.365  1.00  0.00    -0.023 C 
HETATM   28  C14 UNL     1       7.871   0.122 -11.851  1.00  0.00     0.019 C 
HETATM   29  C15 UNL     1       7.582  -1.617 -10.218  1.00  0.00     0.019 C 
HETATM   30  C16 UNL     1       6.231   0.432 -10.103  1.00  0.00     0.019 C 
ENDBRANCH  26  27
ENDBRANCH  19  20
ENDBRANCH  16  18
ENDBRANCH   1  16
TORSDOF 8
ENDMDL
MODEL 3
REMARK VINA RESULT: -7.179932731      5.158      7.870
REMARK  8 active torsions:
REMARK  status: ('A' for Active; 'I' for Inactive)
REMARK    1  A    between atoms: C3_5  and  O3_6 
REMARK    2  A    between atoms: O3_6  and  C4_7 
REMARK    3  A    between atoms: C4_7  and  C5_9 
REMARK    4  A    between atoms: C6_10  and  C7_11 
REMARK    5  A    between atoms: C12_17  and  C13_18 
REMARK    6  A    between atoms: C17_22  and  O5_23 
REMARK    7  A    between atoms: C18_25  and  O6_26 
REMARK    8  A    between atoms: C19_28  and  O7_29 
ROOT
HETATM    1  O3  UNL     1       7.871   0.081 -10.568  1.00  0.00    -0.281 OA
ENDROOT
BRANCH   1   2
HETATM    2  C3  UNL     1       9.129   0.394  -9.994  1.00  0.00     0.338 C 
HETATM    3  O2  UNL     1       9.087   0.235  -8.594  1.00  0.00    -0.199 OA
HETATM    4  O1  UNL     1       9.342   1.400  -7.989  1.00  0.00    -0.198 OA
HETATM    5  C2  UNL     1      10.534   2.107  -7.930  1.00  0.00     0.106 C 
HETATM    6  C1  UNL     1      10.745   2.838  -6.852  1.00  0.00     0.052 C 
HETATM    7  C19 UNL     1      11.632   2.163  -8.926  1.00  0.00     0.208 C 
HETATM    8  C18 UNL     1      11.119   1.764 -10.292  1.00  0.00     0.187 C 
HETATM    9  C17 UNL     1       9.617   1.764 -10.375  1.00  0.00     0.208 C 
BRANCH   7  10
HETATM   10  O7  UNL     1      12.683   1.324  -8.551  1.00  0.00    -0.386 OA
ATOM     11  H7  UNL     1      12.613   0.482  -8.985  1.00  0.00     0.210 HD
ENDBRANCH   7  10
BRANCH   8  12
HETATM   12  O6  UNL     1      11.667   2.671 -11.222  1.00  0.00    -0.390 OA
ATOM     13  H6  UNL     1      12.420   3.115 -10.851  1.00  0.00     0.210 HD
ENDBRANCH   8  12
BRANCH   9  14
HETATM   14  O5  UNL     1       9.218   2.017 -11.697  1.00  0.00    -0.388 OA
ATOM     15  H5  UNL     1       8.381   2.465 -11.671  1.00  0.00     0.210 HD
ENDBRANCH   9  14
ENDBRANCH   1   2
BRANCH   1  16
HETATM   16  C4  UNL     1       7.050  -0.917 -10.064  1.00  0.00     0.285 C 
HETATM   17  O4  UNL     1       7.468  -2.091 -10.189  1.00  0.00    -0.260 OA
BRANCH  16  18
HETATM   18  C5  UNL     1       5.779  -0.693  -9.423  1.00  0.00     0.083 C 
HETATM   19  C6  UNL     1       5.429   0.472  -8.870  1.00  0.00     0.018 C 
BRANCH  19  20
HETATM   20  C7  UNL     1       4.187   0.749  -8.224  1.00  0.00    -0.028 A 
HETATM   21  C8  UNL     1       3.028   0.782  -8.984  1.00  0.00     0.031 A 
HETATM   22  C9  UNL     1       1.817   1.054  -8.373  1.00  0.00     0.011 A 
HETATM   23 BR1  UNL     1       0.236   1.090  -9.465  1.00  0.00    -0.051 Br
HETATM   24  C10 UNL     1       1.751   1.291  -7.028  1.00  0.00     0.019 A 
HETATM   25  C11 UNL     1       2.928   1.249  -6.301  1.00  0.00     0.010 A 
HETATM   26  C12 UNL     1       4.166   0.983  -6.856  1.00  0.00    -0.040 A 
BRANCH  26  27
HETATM   27  C13 UNL     1       5.314   0.962  -5.978  1.00  0.00    -0.023 C 
HETATM   28  C14 UNL     1       4.868   1.343  -4.569  1.00  0.00     0.019 C 
HETATM   29  C15 UNL     1       6.033  -0.339  -5.829  1.00  0.00     0.019 C 
HETATM   30  C16 UNL     1       6.334   2.042  -6.357  1.00  0.00     0.019 C 
ENDBRANCH  26  27
ENDBRANCH  19  20
ENDBRANCH  16  18
ENDBRANCH   1  16
TORSDOF 8
ENDMDL
MODEL 4
REMARK VINA RESULT: -7.135721413      4.971      7.604
REMARK  8 active torsions:
REMARK  status: ('A' for Active; 'I' for Inactive)
REMARK    1  A    between atoms: C3_5  and  O3_6 
REMARK    2  A    between atoms: O3_6  and  C4_7 
REMARK    3  A    between atoms: C4_7  and  C5_9 
REMARK    4  A    between atoms: C6_10  and  C7_11 
REMARK    5  A    between atoms: C12_17  and  C13_18 
REMARK    6  A    between atoms: C17_22  and  O5_23 
REMARK    7  A    between atoms: C18_25  and  O6_26 
REMARK    8  A    between atoms: C19_28  and  O7_29 
ROOT
HETATM    1  O3  UNL     1       7.471   0.260  -8.988  1.00  0.00    -0.281 OA
ENDROOT
BRANCH   1   2
HETATM    2  C3  UNL     1       8.849   0.546  -8.817  1.00  0.00     0.338 C 
HETATM    3  O2  UNL     1       9.185   0.555  -7.448  1.00  0.00    -0.199 OA
HETATM    4  O1  UNL     1       9.641   1.762  -7.092  1.00  0.00    -0.198 OA
HETATM    5  C2  UNL     1      10.829   2.383  -7.447  1.00  0.00     0.106 C 
HETATM    6  C1  UNL     1      11.353   3.217  -6.570  1.00  0.00     0.052 C 
HETATM    7  C19 UNL     1      11.614   2.242  -8.698  1.00  0.00     0.208 C 
HETATM    8  C18 UNL     1      10.732   1.725  -9.812  1.00  0.00     0.187 C 
HETATM    9  C17 UNL     1       9.266   1.823  -9.491  1.00  0.00     0.208 C 
BRANCH   7  10
HETATM   10  O7  UNL     1      12.695   1.379  -8.509  1.00  0.00    -0.386 OA
ATOM     11  H7  UNL     1      12.478   0.703  -7.878  1.00  0.00     0.210 HD
ENDBRANCH   7  10
BRANCH   8  12
HETATM   12  O6  UNL     1      11.038   2.475 -10.966  1.00  0.00    -0.390 OA
ATOM     13  H6  UNL     1      10.276   2.554 -11.526  1.00  0.00     0.210 HD
ENDBRANCH   8  12
BRANCH   9  14
HETATM   14  O5  UNL     1       8.530   1.948 -10.680  1.00  0.00    -0.388 OA
ATOM     15  H5  UNL     1       8.912   2.653 -11.190  1.00  0.00     0.210 HD
ENDBRANCH   9  14
ENDBRANCH   1   2
BRANCH   1  16
HETATM   16  C4  UNL     1       6.786  -0.626  -8.168  1.00  0.00     0.285 C 
HETATM   17  O4  UNL     1       7.131  -1.828  -8.245  1.00  0.00    -0.260 OA
BRANCH  16  18
HETATM   18  C5  UNL     1       5.731  -0.259  -7.258  1.00  0.00     0.083 C 
HETATM   19  C6  UNL     1       4.811   0.669  -7.535  1.00  0.00     0.018 C 
BRANCH  19  20
HETATM   20  C7  UNL     1       3.746   1.071  -6.674  1.00  0.00    -0.028 A 
HETATM   21  C8  UNL     1       4.048   1.506  -5.392  1.00  0.00     0.031 A 
HETATM   22  C9  UNL     1       3.027   1.896  -4.545  1.00  0.00     0.011 A 
HETATM   23 BR1  UNL     1       3.490   2.491  -2.778  1.00  0.00    -0.051 Br
HETATM   24  C10 UNL     1       1.723   1.857  -4.957  1.00  0.00     0.019 A 
HETATM   25  C11 UNL     1       1.460   1.418  -6.242  1.00  0.00     0.010 A 
HETATM   26  C12 UNL     1       2.437   1.017  -7.134  1.00  0.00    -0.040 A 
BRANCH  26  27
HETATM   27  C13 UNL     1       2.022   0.588  -8.450  1.00  0.00    -0.023 C 
HETATM   28  C14 UNL     1       0.536   0.888  -8.624  1.00  0.00     0.019 C 
HETATM   29  C15 UNL     1       2.696   1.230  -9.619  1.00  0.00     0.019 C 
HETATM   30  C16 UNL     1       2.123  -0.934  -8.606  1.00  0.00     0.019 C 
ENDBRANCH  26  27
ENDBRANCH  19  20
ENDBRANCH  16  18
ENDBRANCH   1  16
TORSDOF 8
ENDMDL
MODEL 5
REMARK VINA RESULT: -7.090796094      4.796      6.332
REMARK  8 active torsions:
REMARK  status: ('A' for Active; 'I' for Inactive)
REMARK    1  A    between atoms: C3_5  and  O3_6 
REMARK    2  A    between atoms: O3_6  and  C4_7 
REMARK    3  A    between atoms: C4_7  and  C5_9 
REMARK    4  A    between atoms: C6_10  and  C7_11 
REMARK    5  A    between atoms: C12_17  and  C13_18 
REMARK    6  A    between atoms: C17_22  and  O5_23 
REMARK    7  A    between atoms: C18_25  and  O6_26 
REMARK    8  A    between atoms: C19_28  and  O7_29 
ROOT
HETATM    1  O3  UNL     1       4.631  -2.630  -0.816  1.00  0.00    -0.281 OA
ENDROOT
BRANCH   1   2
HETATM    2  C3  UNL     1       5.897  -2.812  -1.429  1.00  0.00     0.338 C 
HETATM    3  O2  UNL     1       5.887  -3.956  -2.252  1.00  0.00    -0.199 OA
HETATM    4  O1  UNL     1       6.786  -4.846  -1.817  1.00  0.00    -0.198 OA
HETATM    5  C2  UNL     1       8.171  -4.768  -1.844  1.00  0.00     0.106 C 
HETATM    6  C1  UNL     1       8.832  -5.904  -1.954  1.00  0.00     0.052 C 
HETATM    7  C19 UNL     1       9.036  -3.566  -1.764  1.00  0.00     0.208 C 
HETATM    8  C18 UNL     1       8.280  -2.420  -1.129  1.00  0.00     0.187 C 
HETATM    9  C17 UNL     1       7.023  -2.864  -0.434  1.00  0.00     0.208 C 
BRANCH   7  10
HETATM   10  O7  UNL     1       9.482  -3.194  -3.034  1.00  0.00    -0.386 OA
ATOM     11  H7  UNL     1      10.193  -3.756  -3.318  1.00  0.00     0.210 HD
ENDBRANCH   7  10
BRANCH   8  12
HETATM   12  O6  UNL     1       9.159  -1.799  -0.217  1.00  0.00    -0.390 OA
ATOM     13  H6  UNL     1       9.962  -1.539  -0.652  1.00  0.00     0.210 HD
ENDBRANCH   8  12
BRANCH   9  14
HETATM   14  O5  UNL     1       6.722  -1.974   0.610  1.00  0.00    -0.388 OA
ATOM     15  H5  UNL     1       6.840  -2.434   1.432  1.00  0.00     0.210 HD
ENDBRANCH   9  14
ENDBRANCH   1   2
BRANCH   1  16
HETATM   16  C4  UNL     1       3.454  -3.099  -1.383  1.00  0.00     0.285 C 
HETATM   17  O4  UNL     1       2.974  -4.139  -0.875  1.00  0.00    -0.260 OA
BRANCH  16  18
HETATM   18  C5  UNL     1       2.770  -2.482  -2.490  1.00  0.00     0.083 C 
HETATM   19  C6  UNL     1       2.811  -1.171  -2.742  1.00  0.00     0.018 C 
BRANCH  19  20
HETATM   20  C7  UNL     1       2.154  -0.507  -3.820  1.00  0.00    -0.028 A 
HETATM   21  C8  UNL     1       0.809  -0.761  -4.045  1.00  0.00     0.031 A 
HETATM   22  C9  UNL     1       0.159  -0.128  -5.089  1.00  0.00     0.011 A 
HETATM   23 BR1  UNL     1      -1.704  -0.509  -5.364  1.00  0.00    -0.051 Br
HETATM   24  C10 UNL     1       0.827   0.745  -5.902  1.00  0.00     0.019 A 
HETATM   25  C11 UNL     1       2.168   0.974  -5.648  1.00  0.00     0.010 A 
HETATM   26  C12 UNL     1       2.871   0.372  -4.621  1.00  0.00    -0.040 A 
BRANCH  26  27
HETATM   27  C13 UNL     1       4.267   0.709  -4.464  1.00  0.00    -0.023 C 
HETATM   28  C14 UNL     1       4.716   1.538  -5.664  1.00  0.00     0.019 C 
HETATM   29  C15 UNL     1       4.642   1.515  -3.263  1.00  0.00     0.019 C 
HETATM   30  C16 UNL     1       5.157  -0.539  -4.510  1.00  0.00     0.019 C 
ENDBRANCH  26  27
ENDBRANCH  19  20
ENDBRANCH  16  18
ENDBRANCH   1  16
TORSDOF 8
ENDMDL
