MODEL 1
REMARK VINA RESULT: -7.747085629      0.000      0.000
REMARK  6 active torsions:
REMARK  status: ('A' for Active; 'I' for Inactive)
REMARK    1  A    between atoms: C2_4  and  O1_6 
REMARK    2  A    between atoms: O1_6  and  C3_7 
REMARK    3  A    between atoms: C4_10  and  O2_11 
REMARK    4  A    between atoms: C17_25  and  O3_26 
REMARK    5  A    between atoms: O3_26  and  C18_27 
REMARK    6  A    between atoms: C20_30  and  O4_31 
ROOT
HETATM    1  C3  UNL     1       7.224  -0.625 -11.770  1.00  0.00     0.232 C 
HETATM    2  N3  UNL     1       7.968  -1.434 -10.837  1.00  0.00    -0.362 N 
ATOM      3  H3  UNL     1       8.304  -2.365 -11.084  1.00  0.00     0.159 HD
HETATM    4  C4  UNL     1       8.210  -0.871  -9.558  1.00  0.00     0.168 C 
HETATM    5  C5  UNL     1       8.975   0.472  -9.622  1.00  0.00     0.074 C 
HETATM    6  C6  UNL     1       8.170   1.237 -10.609  1.00  0.00     0.021 C 
HETATM    7  C7  UNL     1       6.837   0.632 -10.945  1.00  0.00     0.043 C 
HETATM    8  C8  UNL     1       5.994   0.067  -9.876  1.00  0.00     0.038 C 
HETATM    9  C9  UNL     1       5.005   0.928  -9.213  1.00  0.00     0.047 C 
HETATM   10  C10 UNL     1       5.064   1.076  -7.737  1.00  0.00    -0.048 A 
HETATM   11  C11 UNL     1       3.932   1.204  -6.955  1.00  0.00     0.047 A 
HETATM   12  C12 UNL     1       4.100   1.385  -5.604  1.00  0.00     0.105 A 
HETATM   13  C13 UNL     1       5.368   1.435  -5.058  1.00  0.00     0.105 A 
HETATM   14  C14 UNL     1       6.505   1.308  -5.824  1.00  0.00     0.048 A 
HETATM   15  C15 UNL     1       6.360   1.127  -7.171  1.00  0.00    -0.039 A 
HETATM   16  C16 UNL     1       7.349   0.952  -8.171  1.00  0.00     0.089 C 
HETATM   17  C17 UNL     1       8.763   0.893  -8.142  1.00  0.00     0.145 C 
HETATM   18  C20 UNL     1       7.012  -0.396  -8.794  1.00  0.00     0.124 C 
HETATM   19  O5  UNL     1       5.216   1.624  -3.689  1.00  0.00    -0.323 OA
HETATM   20  C22 UNL     1       3.871   1.264  -3.382  1.00  0.00     0.352 C 
HETATM   21  O6  UNL     1       3.152   1.542  -4.585  1.00  0.00    -0.323 OA
ENDROOT
BRANCH   1  22
HETATM   22  O1  UNL     1       7.943  -0.283 -12.912  1.00  0.00    -0.298 OA
BRANCH  22  23
HETATM   23  C2  UNL     1       7.247  -0.100 -14.100  1.00  0.00     0.229 C 
HETATM   24  N1  UNL     1       6.088  -0.688 -14.216  1.00  0.00    -0.363 N 
HETATM   25  C1  UNL     1       5.295  -0.560 -15.401  1.00  0.00     0.149 C 
ATOM     26  H1  UNL     1       5.738  -1.253 -13.443  1.00  0.00     0.162 HD
HETATM   27  N2  UNL     1       7.718   0.682 -15.181  1.00  0.00    -0.056 NA
ENDBRANCH  22  23
ENDBRANCH   1  22
BRANCH   4  28
HETATM   28  O2  UNL     1       9.080  -1.698  -8.881  1.00  0.00    -0.368 OA
ATOM     29  H2  UNL     1       9.578  -1.168  -8.270  1.00  0.00     0.212 HD
ENDBRANCH   4  28
BRANCH  18  30
HETATM   30  O4  UNL     1       6.350  -1.285  -8.070  1.00  0.00    -0.379 OA
HETATM   31  C21 UNL     1       5.794  -2.420  -8.447  1.00  0.00     0.202 C 
ENDBRANCH  18  30
BRANCH  17  32
HETATM   32  O3  UNL     1       9.384   2.134  -8.030  1.00  0.00    -0.351 OA
BRANCH  32  33
HETATM   33  C18 UNL     1      10.759   2.055  -7.983  1.00  0.00     0.303 C 
HETATM   34  C19 UNL     1      11.376   2.878  -6.896  1.00  0.00     0.076 C 
HETATM   35  F1  UNL     1      11.230   2.573  -9.198  1.00  0.00    -0.220 F 
ENDBRANCH  32  33
ENDBRANCH  17  32
TORSDOF 6
ENDMDL
MODEL 2
REMARK VINA RESULT: -7.105401279      3.028      6.819
REMARK  6 active torsions:
REMARK  status: ('A' for Active; 'I' for Inactive)
REMARK    1  A    between atoms: C2_4  and  O1_6 
REMARK    2  A    between atoms: O1_6  and  C3_7 
REMARK    3  A    between atoms: C4_10  and  O2_11 
REMARK    4  A    between atoms: C17_25  and  O3_26 
REMARK    5  A    between atoms: O3_26  and  C18_27 
REMARK    6  A    between atoms: C20_30  and  O4_31 
ROOT
HETATM    1  C3  UNL     1       6.091  -1.196  -6.106  1.00  0.00     0.232 C 
HETATM    2  N3  UNL     1       6.047   0.235  -6.277  1.00  0.00    -0.362 N 
ATOM      3  H3  UNL     1       5.495   0.832  -5.660  1.00  0.00     0.159 HD
HETATM    4  C4  UNL     1       6.811   0.772  -7.344  1.00  0.00     0.168 C 
HETATM    5  C5  UNL     1       8.316   0.427  -7.246  1.00  0.00     0.074 C 
HETATM    6  C6  UNL     1       8.281  -1.045  -7.052  1.00  0.00     0.021 C 
HETATM    7  C7  UNL     1       6.947  -1.687  -7.306  1.00  0.00     0.043 C 
HETATM    8  C8  UNL     1       6.139  -1.271  -8.467  1.00  0.00     0.038 C 
HETATM    9  C9  UNL     1       6.294  -1.988  -9.741  1.00  0.00     0.047 C 
HETATM   10  C10 UNL     1       6.651  -1.212 -10.955  1.00  0.00    -0.048 A 
HETATM   11  C11 UNL     1       6.165  -1.527 -12.210  1.00  0.00     0.047 A 
HETATM   12  C12 UNL     1       6.597  -0.775 -13.275  1.00  0.00     0.105 A 
HETATM   13  C13 UNL     1       7.488   0.262 -13.082  1.00  0.00     0.105 A 
HETATM   14  C14 UNL     1       7.979   0.589 -11.839  1.00  0.00     0.048 A 
HETATM   15  C15 UNL     1       7.563  -0.147 -10.765  1.00  0.00    -0.039 A 
HETATM   16  C16 UNL     1       7.895  -0.013  -9.393  1.00  0.00     0.089 C 
HETATM   17  C17 UNL     1       8.719   0.886  -8.674  1.00  0.00     0.145 C 
HETATM   18  C20 UNL     1       6.553   0.209  -8.707  1.00  0.00     0.124 C 
HETATM   19  O5  UNL     1       7.732   0.827 -14.329  1.00  0.00    -0.323 OA
HETATM   20  C22 UNL     1       6.671   0.398 -15.178  1.00  0.00     0.352 C 
HETATM   21  O6  UNL     1       6.279  -0.864 -14.636  1.00  0.00    -0.323 OA
ENDROOT
BRANCH   1  22
HETATM   22  O1  UNL     1       6.640  -1.599  -4.891  1.00  0.00    -0.298 OA
BRANCH  22  23
HETATM   23  C2  UNL     1       5.863  -1.484  -3.747  1.00  0.00     0.229 C 
HETATM   24  N1  UNL     1       6.461  -1.621  -2.595  1.00  0.00    -0.363 N 
HETATM   25  C1  UNL     1       5.746  -1.519  -1.358  1.00  0.00     0.149 C 
ATOM     26  H1  UNL     1       7.464  -1.804  -2.575  1.00  0.00     0.162 HD
HETATM   27  N2  UNL     1       4.471  -1.229  -3.758  1.00  0.00    -0.056 NA
ENDBRANCH  22  23
ENDBRANCH   1  22
BRANCH   4  28
HETATM   28  O2  UNL     1       6.796   2.146  -7.236  1.00  0.00    -0.368 OA
ATOM     29  H2  UNL     1       7.122   2.380  -6.375  1.00  0.00     0.212 HD
ENDBRANCH   4  28
BRANCH  18  30
HETATM   30  O4  UNL     1       5.556   0.725  -9.410  1.00  0.00    -0.379 OA
HETATM   31  C21 UNL     1       4.280   0.830  -9.093  1.00  0.00     0.202 C 
ENDBRANCH  18  30
BRANCH  17  32
HETATM   32  O3  UNL     1      10.081   0.611  -8.768  1.00  0.00    -0.351 OA
BRANCH  32  33
HETATM   33  C18 UNL     1      10.859   1.741  -8.894  1.00  0.00     0.303 C 
HETATM   34  C19 UNL     1      11.018   2.213 -10.305  1.00  0.00     0.076 C 
HETATM   35  F1  UNL     1      12.139   1.397  -8.438  1.00  0.00    -0.220 F 
ENDBRANCH  32  33
ENDBRANCH  17  32
TORSDOF 6
ENDMDL
MODEL 3
REMARK VINA RESULT: -7.093677065      3.392      6.028
REMARK  6 active torsions:
REMARK  status: ('A' for Active; 'I' for Inactive)
REMARK    1  A    between atoms: C2_4  and  O1_6 
REMARK    2  A    between atoms: O1_6  and  C3_7 
REMARK    3  A    between atoms: C4_10  and  O2_11 
REMARK    4  A    between atoms: C17_25  and  O3_26 
REMARK    5  A    between atoms: O3_26  and  C18_27 
REMARK    6  A    between atoms: C20_30  and  O4_31 
ROOT
HETATM    1  C3  UNL     1       9.665   1.737  -8.142  1.00  0.00     0.232 C 
HETATM    2  N3  UNL     1       9.974   0.428  -8.661  1.00  0.00    -0.362 N 
ATOM      3  H3  UNL     1      10.887   0.213  -9.064  1.00  0.00     0.159 HD
HETATM    4  C4  UNL     1       8.946  -0.546  -8.586  1.00  0.00     0.168 C 
HETATM    5  C5  UNL     1       8.454  -0.796  -7.140  1.00  0.00     0.074 C 
HETATM    6  C6  UNL     1       8.178   0.585  -6.667  1.00  0.00     0.021 C 
HETATM    7  C7  UNL     1       8.168   1.633  -7.743  1.00  0.00     0.043 C 
HETATM    8  C8  UNL     1       7.511   1.358  -9.033  1.00  0.00     0.038 C 
HETATM    9  C9  UNL     1       6.096   1.716  -9.207  1.00  0.00     0.047 C 
HETATM   10  C10 UNL     1       5.138   0.656  -9.613  1.00  0.00    -0.048 A 
HETATM   11  C11 UNL     1       4.067   0.901 -10.451  1.00  0.00     0.047 A 
HETATM   12  C12 UNL     1       3.213  -0.139 -10.724  1.00  0.00     0.105 A 
HETATM   13  C13 UNL     1       3.431  -1.386 -10.172  1.00  0.00     0.105 A 
HETATM   14  C14 UNL     1       4.493  -1.645  -9.337  1.00  0.00     0.048 A 
HETATM   15  C15 UNL     1       5.356  -0.624  -9.051  1.00  0.00    -0.039 A 
HETATM   16  C16 UNL     1       6.523  -0.625  -8.247  1.00  0.00     0.089 C 
HETATM   17  C17 UNL     1       7.191  -1.625  -7.500  1.00  0.00     0.145 C 
HETATM   18  C20 UNL     1       7.629  -0.184  -9.199  1.00  0.00     0.124 C 
HETATM   19  O5  UNL     1       2.414  -2.217 -10.627  1.00  0.00    -0.323 OA
HETATM   20  C22 UNL     1       1.851  -1.574 -11.768  1.00  0.00     0.352 C 
HETATM   21  O6  UNL     1       2.064  -0.183 -11.525  1.00  0.00    -0.323 OA
ENDROOT
BRANCH   1  22
HETATM   22  O1  UNL     1      10.456   2.110  -7.058  1.00  0.00    -0.298 OA
BRANCH  22  23
HETATM   23  C2  UNL     1      11.555   2.924  -7.294  1.00  0.00     0.229 C 
HETATM   24  N1  UNL     1      12.101   3.513  -6.265  1.00  0.00    -0.363 N 
HETATM   25  C1  UNL     1      13.239   4.372  -6.405  1.00  0.00     0.149 C 
ATOM     26  H1  UNL     1      11.708   3.358  -5.337  1.00  0.00     0.162 HD
HETATM   27  N2  UNL     1      12.113   3.149  -8.574  1.00  0.00    -0.056 NA
ENDBRANCH  22  23
ENDBRANCH   1  22
BRANCH   4  28
HETATM   28  O2  UNL     1       9.479  -1.764  -8.951  1.00  0.00    -0.368 OA
ATOM     29  H2  UNL     1       9.116  -2.430  -8.379  1.00  0.00     0.212 HD
ENDBRANCH   4  28
BRANCH  18  30
HETATM   30  O4  UNL     1       7.473  -0.394 -10.496  1.00  0.00    -0.379 OA
HETATM   31  C21 UNL     1       8.119   0.146 -11.511  1.00  0.00     0.202 C 
ENDBRANCH  18  30
BRANCH  17  32
HETATM   32  O3  UNL     1       6.593  -1.918  -6.277  1.00  0.00    -0.351 OA
BRANCH  32  33
HETATM   33  C18 UNL     1       6.032  -3.176  -6.231  1.00  0.00     0.303 C 
HETATM   34  C19 UNL     1       4.576  -3.176  -5.880  1.00  0.00     0.076 C 
HETATM   35  F1  UNL     1       6.693  -3.871  -5.209  1.00  0.00    -0.220 F 
ENDBRANCH  32  33
ENDBRANCH  17  32
TORSDOF 6
ENDMDL
MODEL 4
REMARK VINA RESULT: -7.069031214      6.618      9.200
REMARK  6 active torsions:
REMARK  status: ('A' for Active; 'I' for Inactive)
REMARK    1  A    between atoms: C2_4  and  O1_6 
REMARK    2  A    between atoms: O1_6  and  C3_7 
REMARK    3  A    between atoms: C4_10  and  O2_11 
REMARK    4  A    between atoms: C17_25  and  O3_26 
REMARK    5  A    between atoms: O3_26  and  C18_27 
REMARK    6  A    between atoms: C20_30  and  O4_31 
ROOT
HETATM    1  C3  UNL     1       8.213  -3.504  -2.809  1.00  0.00     0.232 C 
HETATM    2  N3  UNL     1       7.668  -4.430  -3.771  1.00  0.00    -0.362 N 
ATOM      3  H3  UNL     1       8.261  -4.909  -4.449  1.00  0.00     0.159 HD
HETATM    4  C4  UNL     1       6.267  -4.641  -3.728  1.00  0.00     0.168 C 
HETATM    5  C5  UNL     1       5.774  -5.155  -2.354  1.00  0.00     0.074 C 
HETATM    6  C6  UNL     1       6.387  -4.175  -1.421  1.00  0.00     0.021 C 
HETATM    7  C7  UNL     1       6.961  -2.951  -2.076  1.00  0.00     0.043 C 
HETATM    8  C8  UNL     1       6.223  -2.282  -3.162  1.00  0.00     0.038 C 
HETATM    9  C9  UNL     1       5.290  -1.196  -2.832  1.00  0.00     0.047 C 
HETATM   10  C10 UNL     1       3.877  -1.312  -3.273  1.00  0.00    -0.048 A 
HETATM   11  C11 UNL     1       3.130  -0.221  -3.676  1.00  0.00     0.047 A 
HETATM   12  C12 UNL     1       1.817  -0.431  -4.018  1.00  0.00     0.105 A 
HETATM   13  C13 UNL     1       1.274  -1.700  -3.957  1.00  0.00     0.105 A 
HETATM   14  C14 UNL     1       2.005  -2.795  -3.560  1.00  0.00     0.048 A 
HETATM   15  C15 UNL     1       3.315  -2.609  -3.215  1.00  0.00    -0.039 A 
HETATM   16  C16 UNL     1       4.282  -3.555  -2.795  1.00  0.00     0.089 C 
HETATM   17  C17 UNL     1       4.254  -4.957  -2.601  1.00  0.00     0.145 C 
HETATM   18  C20 UNL     1       5.399  -3.425  -3.822  1.00  0.00     0.124 C 
HETATM   19  O5  UNL     1      -0.054  -1.594  -4.358  1.00  0.00    -0.323 OA
HETATM   20  C22 UNL     1      -0.166  -0.352  -5.049  1.00  0.00     0.352 C 
HETATM   21  O6  UNL     1       0.838   0.470  -4.454  1.00  0.00    -0.323 OA
ENDROOT
BRANCH   1  22
HETATM   22  O1  UNL     1       9.110  -4.087  -1.916  1.00  0.00    -0.298 OA
BRANCH  22  23
HETATM   23  C2  UNL     1       9.784  -5.234  -2.313  1.00  0.00     0.229 C 
HETATM   24  N1  UNL     1      10.934  -5.081  -2.909  1.00  0.00    -0.363 N 
HETATM   25  C1  UNL     1      11.705  -6.202  -3.356  1.00  0.00     0.149 C 
ATOM     26  H1  UNL     1      11.295  -4.139  -3.061  1.00  0.00     0.162 HD
HETATM   27  N2  UNL     1       9.298  -6.547  -2.110  1.00  0.00    -0.056 NA
ENDBRANCH  22  23
ENDBRANCH   1  22
BRANCH   4  28
HETATM   28  O2  UNL     1       5.961  -5.680  -4.580  1.00  0.00    -0.368 OA
ATOM     29  H2  UNL     1       5.254  -5.399  -5.149  1.00  0.00     0.212 HD
ENDBRANCH   4  28
BRANCH  18  30
HETATM   30  O4  UNL     1       5.103  -2.970  -5.030  1.00  0.00    -0.379 OA
HETATM   31  C21 UNL     1       5.912  -2.649  -6.021  1.00  0.00     0.202 C 
ENDBRANCH  18  30
BRANCH  17  32
HETATM   32  O3  UNL     1       3.642  -5.357  -1.415  1.00  0.00    -0.351 OA
BRANCH  32  33
HETATM   33  C18 UNL     1       2.582  -6.215  -1.610  1.00  0.00     0.303 C 
HETATM   34  C19 UNL     1       2.632  -6.954  -2.911  1.00  0.00     0.076 C 
HETATM   35  F1  UNL     1       1.427  -5.421  -1.642  1.00  0.00    -0.220 F 
ENDBRANCH  32  33
ENDBRANCH  17  32
TORSDOF 6
ENDMDL
MODEL 5
REMARK VINA RESULT: -7.056397880      2.861      4.115
REMARK  6 active torsions:
REMARK  status: ('A' for Active; 'I' for Inactive)
REMARK    1  A    between atoms: C2_4  and  O1_6 
REMARK    2  A    between atoms: O1_6  and  C3_7 
REMARK    3  A    between atoms: C4_10  and  O2_11 
REMARK    4  A    between atoms: C17_25  and  O3_26 
REMARK    5  A    between atoms: O3_26  and  C18_27 
REMARK    6  A    between atoms: C20_30  and  O4_31 
ROOT
HETATM    1  C3  UNL     1       7.646   0.460  -9.073  1.00  0.00     0.232 C 
HETATM    2  N3  UNL     1       7.020  -0.837  -9.147  1.00  0.00    -0.362 N 
ATOM      3  H3  UNL     1       6.844  -1.297 -10.040  1.00  0.00     0.159 HD
HETATM    4  C4  UNL     1       6.663  -1.442  -7.915  1.00  0.00     0.168 C 
HETATM    5  C5  UNL     1       7.867  -1.633  -6.961  1.00  0.00     0.074 C 
HETATM    6  C6  UNL     1       8.468  -0.274  -6.952  1.00  0.00     0.021 C 
HETATM    7  C7  UNL     1       7.613   0.802  -7.558  1.00  0.00     0.043 C 
HETATM    8  C8  UNL     1       6.169   0.844  -7.270  1.00  0.00     0.038 C 
HETATM    9  C9  UNL     1       5.688   1.639  -6.132  1.00  0.00     0.047 C 
HETATM   10  C10 UNL     1       4.877   0.967  -5.085  1.00  0.00    -0.048 A 
HETATM   11  C11 UNL     1       3.837   1.598  -4.429  1.00  0.00     0.047 A 
HETATM   12  C12 UNL     1       3.183   0.902  -3.442  1.00  0.00     0.105 A 
HETATM   13  C13 UNL     1       3.563  -0.389  -3.128  1.00  0.00     0.105 A 
HETATM   14  C14 UNL     1       4.595  -1.030  -3.773  1.00  0.00     0.048 A 
HETATM   15  C15 UNL     1       5.260  -0.355  -4.759  1.00  0.00    -0.039 A 
HETATM   16  C16 UNL     1       6.332  -0.782  -5.581  1.00  0.00     0.089 C 
HETATM   17  C17 UNL     1       7.056  -1.995  -5.687  1.00  0.00     0.145 C 
HETATM   18  C20 UNL     1       5.791  -0.640  -6.999  1.00  0.00     0.124 C 
HETATM   19  O5  UNL     1       2.726  -0.822  -2.105  1.00  0.00    -0.323 OA
HETATM   20  C22 UNL     1       1.598   0.049  -2.115  1.00  0.00     0.352 C 
HETATM   21  O6  UNL     1       2.112   1.280  -2.623  1.00  0.00    -0.323 OA
ENDROOT
BRANCH   1  22
HETATM   22  O1  UNL     1       8.946   0.484  -9.572  1.00  0.00    -0.298 OA
BRANCH  22  23
HETATM   23  C2  UNL     1       9.143   0.911 -10.878  1.00  0.00     0.229 C 
HETATM   24  N1  UNL     1       8.500   0.280 -11.822  1.00  0.00    -0.363 N 
HETATM   25  C1  UNL     1       8.637   0.645 -13.200  1.00  0.00     0.149 C 
ATOM     26  H1  UNL     1       7.885  -0.494 -11.572  1.00  0.00     0.162 HD
HETATM   27  N2  UNL     1       9.992   1.983 -11.241  1.00  0.00    -0.056 NA
ENDBRANCH  22  23
ENDBRANCH   1  22
BRANCH   4  28
HETATM   28  O2  UNL     1       6.258  -2.734  -8.172  1.00  0.00    -0.368 OA
ATOM     29  H2  UNL     1       5.459  -2.897  -7.685  1.00  0.00     0.212 HD
ENDBRANCH   4  28
BRANCH  18  30
HETATM   30  O4  UNL     1       4.482  -0.693  -7.189  1.00  0.00    -0.379 OA
HETATM   31  C21 UNL     1       3.787  -0.436  -8.280  1.00  0.00     0.202 C 
ENDBRANCH  18  30
BRANCH  17  32
HETATM   32  O3  UNL     1       8.013  -2.176  -4.693  1.00  0.00    -0.351 OA
BRANCH  32  33
HETATM   33  C18 UNL     1       7.758  -3.259  -3.879  1.00  0.00     0.303 C 
HETATM   34  C19 UNL     1       6.683  -4.164  -4.396  1.00  0.00     0.076 C 
HETATM   35  F1  UNL     1       7.298  -2.743  -2.660  1.00  0.00    -0.220 F 
ENDBRANCH  32  33
ENDBRANCH  17  32
TORSDOF 6
ENDMDL
