MODEL 1
REMARK VINA RESULT: -6.419712763      0.000      0.000
REMARK  6 active torsions:
REMARK  status: ('A' for Active; 'I' for Inactive)
REMARK       I    between atoms: C1_2  and  N1_3 
REMARK    1  A    between atoms: C1_2  and  C10_23 
REMARK    2  A    between atoms: N1_3  and  N2_5 
REMARK       I    between atoms: N2_5  and  C2_6 
REMARK    3  A    between atoms: N2_5  and  C7_17 
REMARK    4  A    between atoms: C2_6  and  C3_8 
REMARK    5  A    between atoms: C5_11  and  O3_12 
REMARK    6  A    between atoms: C6_14  and  O4_15 
ROOT
HETATM    1  N2  UNL     1       6.443  -3.145  -5.199  1.00  0.00    -0.197 N 
HETATM    2  C2  UNL     1       6.339  -3.214  -3.802  1.00  0.00     0.261 C 
HETATM    3  O2  UNL     1       5.303  -3.861  -3.375  1.00  0.00    -0.270 OA
ENDROOT
BRANCH   1   4
HETATM    4  N1  UNL     1       7.434  -2.418  -5.825  1.00  0.00    -0.254 N 
HETATM    5  C1  UNL     1       7.118  -1.163  -6.377  1.00  0.00     0.270 C 
HETATM    6  O1  UNL     1       5.938  -0.725  -6.292  1.00  0.00    -0.266 OA
ATOM      7  H1  UNL     1       8.383  -2.786  -5.888  1.00  0.00     0.191 HD
BRANCH   5   8
HETATM    8  C10 UNL     1       8.102  -0.338  -7.047  1.00  0.00     0.033 A 
HETATM    9  C11 UNL     1       8.384   0.969  -6.713  1.00  0.00     0.018 A 
HETATM   10  C12 UNL     1       9.341   1.691  -7.420  1.00  0.00     0.020 A 
HETATM   11  C13 UNL     1      10.050   1.154  -8.478  1.00  0.00     0.011 A 
HETATM   12 BR1  UNL     1      11.331   2.189  -9.405  1.00  0.00    -0.051 Br
HETATM   13  C14 UNL     1       9.772  -0.147  -8.814  1.00  0.00     0.020 A 
HETATM   14  C15 UNL     1       8.832  -0.853  -8.115  1.00  0.00     0.018 A 
ENDBRANCH   5   8
ENDBRANCH   1   4
BRANCH   1  15
HETATM   15  C7  UNL     1       5.435  -3.847  -5.973  1.00  0.00     0.173 A 
HETATM   16  N3  UNL     1       4.209  -3.398  -6.255  1.00  0.00    -0.344 N 
HETATM   17  C8  UNL     1       3.416  -4.118  -6.975  1.00  0.00     0.097 A 
ATOM     18  H3  UNL     1       3.901  -2.492  -5.902  1.00  0.00     0.167 HD
HETATM   19  C9  UNL     1       3.880  -5.327  -7.419  1.00  0.00     0.070 A 
HETATM   20  S2  UNL     1       5.460  -5.356  -6.764  1.00  0.00    -0.062 SA
ENDBRANCH   1  15
BRANCH   2  21
HETATM   21  C3  UNL     1       7.233  -2.667  -2.790  1.00  0.00     0.172 C 
HETATM   22  S1  UNL     1       6.919  -3.611  -1.225  1.00  0.00    -0.149 SA
HETATM   23  C4  UNL     1       8.099  -4.945  -1.671  1.00  0.00     0.109 C 
HETATM   24  C5  UNL     1       8.922  -4.418  -2.797  1.00  0.00     0.157 C 
HETATM   25  C6  UNL     1       8.683  -2.985  -3.042  1.00  0.00     0.170 C 
BRANCH  24  26
HETATM   26  O3  UNL     1      10.264  -4.635  -2.502  1.00  0.00    -0.392 OA
ATOM     27  H3  UNL     1      10.627  -3.835  -2.141  1.00  0.00     0.210 HD
ENDBRANCH  24  26
BRANCH  25  28
HETATM   28  O4  UNL     1       9.438  -2.172  -2.203  1.00  0.00    -0.391 OA
ATOM     29  H4  UNL     1      10.352  -2.374  -2.359  1.00  0.00     0.210 HD
ENDBRANCH  25  28
ENDBRANCH   2  21
TORSDOF 6
ENDMDL
MODEL 2
REMARK VINA RESULT: -6.197925782      5.012      6.834
REMARK  6 active torsions:
REMARK  status: ('A' for Active; 'I' for Inactive)
REMARK       I    between atoms: C1_2  and  N1_3 
REMARK    1  A    between atoms: C1_2  and  C10_23 
REMARK    2  A    between atoms: N1_3  and  N2_5 
REMARK       I    between atoms: N2_5  and  C2_6 
REMARK    3  A    between atoms: N2_5  and  C7_17 
REMARK    4  A    between atoms: C2_6  and  C3_8 
REMARK    5  A    between atoms: C5_11  and  O3_12 
REMARK    6  A    between atoms: C6_14  and  O4_15 
ROOT
HETATM    1  N2  UNL     1       3.280  -1.685  -2.320  1.00  0.00    -0.197 N 
HETATM    2  C2  UNL     1       3.017  -0.532  -3.074  1.00  0.00     0.261 C 
HETATM    3  O2  UNL     1       1.760  -0.271  -3.231  1.00  0.00    -0.270 OA
ENDROOT
BRANCH   1   4
HETATM    4  N1  UNL     1       4.561  -2.160  -2.130  1.00  0.00    -0.254 N 
HETATM    5  C1  UNL     1       5.118  -3.030  -3.085  1.00  0.00     0.270 C 
HETATM    6  O1  UNL     1       4.438  -3.361  -4.096  1.00  0.00    -0.266 OA
ATOM      7  H1  UNL     1       5.097  -1.885  -1.307  1.00  0.00     0.191 HD
BRANCH   5   8
HETATM    8  C10 UNL     1       6.455  -3.570  -2.960  1.00  0.00     0.033 A 
HETATM    9  C11 UNL     1       7.574  -2.823  -2.659  1.00  0.00     0.018 A 
HETATM   10  C12 UNL     1       8.826  -3.426  -2.567  1.00  0.00     0.020 A 
HETATM   11  C13 UNL     1       9.018  -4.780  -2.769  1.00  0.00     0.011 A 
HETATM   12 BR1  UNL     1      10.745  -5.538  -2.639  1.00  0.00    -0.051 Br
HETATM   13  C14 UNL     1       7.907  -5.527  -3.068  1.00  0.00     0.020 A 
HETATM   14  C15 UNL     1       6.679  -4.930  -3.155  1.00  0.00     0.018 A 
ENDBRANCH   5   8
ENDBRANCH   1   4
BRANCH   1  15
HETATM   15  C7  UNL     1       2.137  -2.390  -1.769  1.00  0.00     0.173 A 
HETATM   16  N3  UNL     1       1.255  -1.894  -0.897  1.00  0.00    -0.344 N 
HETATM   17  C8  UNL     1       0.268  -2.626  -0.502  1.00  0.00     0.097 A 
ATOM     18  H3  UNL     1       1.362  -0.943  -0.543  1.00  0.00     0.167 HD
HETATM   19  C9  UNL     1       0.174  -3.896  -1.006  1.00  0.00     0.070 A 
HETATM   20  S2  UNL     1       1.537  -3.962  -2.037  1.00  0.00    -0.062 SA
ENDBRANCH   1  15
BRANCH   2  21
HETATM   21  C3  UNL     1       3.960   0.397  -3.684  1.00  0.00     0.172 C 
HETATM   22  S1  UNL     1       3.015   1.376  -4.944  1.00  0.00    -0.149 SA
HETATM   23  C4  UNL     1       2.457   2.617  -3.711  1.00  0.00     0.109 C 
HETATM   24  C5  UNL     1       3.308   2.422  -2.503  1.00  0.00     0.157 C 
HETATM   25  C6  UNL     1       4.417   1.483  -2.746  1.00  0.00     0.170 C 
BRANCH  24  26
HETATM   26  O3  UNL     1       3.807   3.660  -2.110  1.00  0.00    -0.392 OA
ATOM     27  H3  UNL     1       4.724   3.706  -2.351  1.00  0.00     0.210 HD
ENDBRANCH  24  26
BRANCH  25  28
HETATM   28  O4  UNL     1       5.515   2.103  -3.333  1.00  0.00    -0.391 OA
ATOM     29  H4  UNL     1       5.311   3.027  -3.412  1.00  0.00     0.210 HD
ENDBRANCH  25  28
ENDBRANCH   2  21
TORSDOF 6
ENDMDL
MODEL 3
REMARK VINA RESULT: -6.191742100      2.577      3.101
REMARK  6 active torsions:
REMARK  status: ('A' for Active; 'I' for Inactive)
REMARK       I    between atoms: C1_2  and  N1_3 
REMARK    1  A    between atoms: C1_2  and  C10_23 
REMARK    2  A    between atoms: N1_3  and  N2_5 
REMARK       I    between atoms: N2_5  and  C2_6 
REMARK    3  A    between atoms: N2_5  and  C7_17 
REMARK    4  A    between atoms: C2_6  and  C3_8 
REMARK    5  A    between atoms: C5_11  and  O3_12 
REMARK    6  A    between atoms: C6_14  and  O4_15 
ROOT
HETATM    1  N2  UNL     1       5.707  -2.089  -2.856  1.00  0.00    -0.197 N 
HETATM    2  C2  UNL     1       6.487  -2.772  -1.913  1.00  0.00     0.261 C 
HETATM    3  O2  UNL     1       5.819  -3.257  -0.916  1.00  0.00    -0.270 OA
ENDROOT
BRANCH   1   4
HETATM    4  N1  UNL     1       6.265  -1.433  -3.933  1.00  0.00    -0.254 N 
HETATM    5  C1  UNL     1       6.233  -2.044  -5.200  1.00  0.00     0.270 C 
HETATM    6  O1  UNL     1       5.698  -3.179  -5.330  1.00  0.00    -0.266 OA
ATOM      7  H1  UNL     1       6.696  -0.516  -3.812  1.00  0.00     0.191 HD
BRANCH   5   8
HETATM    8  C10 UNL     1       6.795  -1.419  -6.379  1.00  0.00     0.033 A 
HETATM    9  C11 UNL     1       6.057  -0.990  -7.462  1.00  0.00     0.018 A 
HETATM   10  C12 UNL     1       6.683  -0.407  -8.561  1.00  0.00     0.020 A 
HETATM   11  C13 UNL     1       8.052  -0.228  -8.631  1.00  0.00     0.011 A 
HETATM   12 BR1  UNL     1       8.844   0.563 -10.154  1.00  0.00    -0.051 Br
HETATM   13  C14 UNL     1       8.790  -0.653  -7.555  1.00  0.00     0.020 A 
HETATM   14  C15 UNL     1       8.170  -1.224  -6.477  1.00  0.00     0.018 A 
ENDBRANCH   5   8
ENDBRANCH   1   4
BRANCH   1  15
HETATM   15  C7  UNL     1       4.271  -2.068  -2.637  1.00  0.00     0.173 A 
HETATM   16  N3  UNL     1       3.409  -3.024  -2.993  1.00  0.00    -0.344 N 
HETATM   17  C8  UNL     1       2.156  -2.887  -2.717  1.00  0.00     0.097 A 
ATOM     18  H3  UNL     1       3.739  -3.857  -3.481  1.00  0.00     0.167 HD
HETATM   19  C9  UNL     1       1.767  -1.748  -2.064  1.00  0.00     0.070 A 
HETATM   20  S2  UNL     1       3.257  -0.927  -1.881  1.00  0.00    -0.062 SA
ENDBRANCH   1  15
BRANCH   2  21
HETATM   21  C3  UNL     1       7.926  -3.008  -1.913  1.00  0.00     0.172 C 
HETATM   22  S1  UNL     1       8.314  -3.987  -0.387  1.00  0.00    -0.149 SA
HETATM   23  C4  UNL     1       7.963  -5.593  -1.204  1.00  0.00     0.109 C 
HETATM   24  C5  UNL     1       7.926  -5.320  -2.670  1.00  0.00     0.157 C 
HETATM   25  C6  UNL     1       8.373  -3.954  -2.995  1.00  0.00     0.170 C 
BRANCH  24  26
HETATM   26  O3  UNL     1       8.733  -6.253  -3.313  1.00  0.00    -0.392 OA
ATOM     27  H3  UNL     1       9.273  -5.799  -3.948  1.00  0.00     0.210 HD
ENDBRANCH  24  26
BRANCH  25  28
HETATM   28  O4  UNL     1       9.758  -3.858  -3.083  1.00  0.00    -0.391 OA
ATOM     29  H4  UNL     1      10.102  -3.897  -2.198  1.00  0.00     0.210 HD
ENDBRANCH  25  28
ENDBRANCH   2  21
TORSDOF 6
ENDMDL
MODEL 4
REMARK VINA RESULT: -6.191036549      5.273      7.063
REMARK  6 active torsions:
REMARK  status: ('A' for Active; 'I' for Inactive)
REMARK       I    between atoms: C1_2  and  N1_3 
REMARK    1  A    between atoms: C1_2  and  C10_23 
REMARK    2  A    between atoms: N1_3  and  N2_5 
REMARK       I    between atoms: N2_5  and  C2_6 
REMARK    3  A    between atoms: N2_5  and  C7_17 
REMARK    4  A    between atoms: C2_6  and  C3_8 
REMARK    5  A    between atoms: C5_11  and  O3_12 
REMARK    6  A    between atoms: C6_14  and  O4_15 
ROOT
HETATM    1  N2  UNL     1       2.909  -2.588  -2.120  1.00  0.00    -0.197 N 
HETATM    2  C2  UNL     1       1.911  -3.273  -1.412  1.00  0.00     0.261 C 
HETATM    3  O2  UNL     1       0.866  -2.562  -1.139  1.00  0.00    -0.270 OA
ENDROOT
BRANCH   1   4
HETATM    4  N1  UNL     1       4.127  -3.166  -2.415  1.00  0.00    -0.254 N 
HETATM    5  C1  UNL     1       5.235  -2.885  -1.594  1.00  0.00     0.270 C 
HETATM    6  O1  UNL     1       5.097  -2.111  -0.606  1.00  0.00    -0.266 OA
ATOM      7  H1  UNL     1       4.223  -3.787  -3.217  1.00  0.00     0.191 HD
BRANCH   5   8
HETATM    8  C10 UNL     1       6.545  -3.453  -1.834  1.00  0.00     0.033 A 
HETATM    9  C11 UNL     1       7.632  -2.741  -2.296  1.00  0.00     0.018 A 
HETATM   10  C12 UNL     1       8.854  -3.373  -2.508  1.00  0.00     0.020 A 
HETATM   11  C13 UNL     1       9.047  -4.722  -2.275  1.00  0.00     0.011 A 
HETATM   12 BR1  UNL     1      10.730  -5.523  -2.591  1.00  0.00    -0.051 Br
HETATM   13  C14 UNL     1       7.968  -5.433  -1.816  1.00  0.00     0.020 A 
HETATM   14  C15 UNL     1       6.770  -4.808  -1.608  1.00  0.00     0.018 A 
ENDBRANCH   5   8
ENDBRANCH   1   4
BRANCH   1  15
HETATM   15  C7  UNL     1       2.624  -1.218  -2.507  1.00  0.00     0.173 A 
HETATM   16  N3  UNL     1       2.734  -0.143  -1.722  1.00  0.00    -0.344 N 
HETATM   17  C8  UNL     1       2.468   1.026  -2.201  1.00  0.00     0.097 A 
ATOM     18  H3  UNL     1       3.026  -0.244  -0.750  1.00  0.00     0.167 HD
HETATM   19  C9  UNL     1       2.078   1.104  -3.511  1.00  0.00     0.070 A 
HETATM   20  S2  UNL     1       2.119  -0.538  -3.985  1.00  0.00    -0.062 SA
ENDBRANCH   1  15
BRANCH   2  21
HETATM   21  C3  UNL     1       1.898  -4.658  -0.958  1.00  0.00     0.172 C 
HETATM   22  S1  UNL     1       0.130  -5.093  -0.603  1.00  0.00    -0.149 SA
HETATM   23  C4  UNL     1      -0.209  -5.569  -2.343  1.00  0.00     0.109 C 
HETATM   24  C5  UNL     1       1.118  -5.715  -3.006  1.00  0.00     0.157 C 
HETATM   25  C6  UNL     1       2.233  -5.644  -2.046  1.00  0.00     0.170 C 
BRANCH  24  26
HETATM   26  O3  UNL     1       1.144  -6.932  -3.679  1.00  0.00    -0.392 OA
ATOM     27  H3  UNL     1       0.248  -7.218  -3.819  1.00  0.00     0.210 HD
ENDBRANCH  24  26
BRANCH  25  28
HETATM   28  O4  UNL     1       2.483  -6.868  -1.434  1.00  0.00    -0.391 OA
ATOM     29  H4  UNL     1       3.288  -7.211  -1.803  1.00  0.00     0.210 HD
ENDBRANCH  25  28
ENDBRANCH   2  21
TORSDOF 6
ENDMDL
MODEL 5
REMARK VINA RESULT: -6.063902950      5.416      7.064
REMARK  6 active torsions:
REMARK  status: ('A' for Active; 'I' for Inactive)
REMARK       I    between atoms: C1_2  and  N1_3 
REMARK    1  A    between atoms: C1_2  and  C10_23 
REMARK    2  A    between atoms: N1_3  and  N2_5 
REMARK       I    between atoms: N2_5  and  C2_6 
REMARK    3  A    between atoms: N2_5  and  C7_17 
REMARK    4  A    between atoms: C2_6  and  C3_8 
REMARK    5  A    between atoms: C5_11  and  O3_12 
REMARK    6  A    between atoms: C6_14  and  O4_15 
ROOT
HETATM    1  N2  UNL     1       3.234  -3.172  -2.271  1.00  0.00    -0.197 N 
HETATM    2  C2  UNL     1       2.232  -3.891  -1.605  1.00  0.00     0.261 C 
HETATM    3  O2  UNL     1       1.199  -3.185  -1.272  1.00  0.00    -0.270 OA
ENDROOT
BRANCH   1   4
HETATM    4  N1  UNL     1       4.440  -3.745  -2.618  1.00  0.00    -0.254 N 
HETATM    5  C1  UNL     1       5.559  -3.541  -1.790  1.00  0.00     0.270 C 
HETATM    6  O1  UNL     1       5.442  -2.839  -0.748  1.00  0.00    -0.266 OA
ATOM      7  H1  UNL     1       4.519  -4.309  -3.464  1.00  0.00     0.191 HD
BRANCH   5   8
HETATM    8  C10 UNL     1       6.858  -4.110  -2.083  1.00  0.00     0.033 A 
HETATM    9  C11 UNL     1       7.057  -5.353  -2.644  1.00  0.00     0.018 A 
HETATM   10  C12 UNL     1       8.345  -5.825  -2.883  1.00  0.00     0.020 A 
HETATM   11  C13 UNL     1       9.477  -5.092  -2.577  1.00  0.00     0.011 A 
HETATM   12 BR1  UNL     1      11.199  -5.792  -2.918  1.00  0.00    -0.051 Br
HETATM   13  C14 UNL     1       9.282  -3.854  -2.019  1.00  0.00     0.020 A 
HETATM   14  C15 UNL     1       8.015  -3.395  -1.788  1.00  0.00     0.018 A 
ENDBRANCH   5   8
ENDBRANCH   1   4
BRANCH   1  15
HETATM   15  C7  UNL     1       2.967  -1.774  -2.556  1.00  0.00     0.173 A 
HETATM   16  N3  UNL     1       3.058  -0.765  -1.685  1.00  0.00    -0.344 N 
HETATM   17  C8  UNL     1       2.812   0.440  -2.076  1.00  0.00     0.097 A 
ATOM     18  H3  UNL     1       3.319  -0.946  -0.715  1.00  0.00     0.167 HD
HETATM   19  C9  UNL     1       2.463   0.625  -3.388  1.00  0.00     0.070 A 
HETATM   20  S2  UNL     1       2.512  -0.975  -3.990  1.00  0.00    -0.062 SA
ENDBRANCH   1  15
BRANCH   2  21
HETATM   21  C3  UNL     1       2.200  -5.305  -1.252  1.00  0.00     0.172 C 
HETATM   22  S1  UNL     1       0.526  -5.644  -0.529  1.00  0.00    -0.149 SA
HETATM   23  C4  UNL     1      -0.235  -5.949  -2.172  1.00  0.00     0.109 C 
HETATM   24  C5  UNL     1       0.893  -6.131  -3.130  1.00  0.00     0.157 C 
HETATM   25  C6  UNL     1       2.197  -6.217  -2.449  1.00  0.00     0.170 C 
BRANCH  24  26
HETATM   26  O3  UNL     1       0.662  -7.287  -3.869  1.00  0.00    -0.392 OA
ATOM     27  H3  UNL     1       1.491  -7.730  -4.004  1.00  0.00     0.210 HD
ENDBRANCH  24  26
BRANCH  25  28
HETATM   28  O4  UNL     1       2.470  -7.502  -1.992  1.00  0.00    -0.391 OA
ATOM     29  H4  UNL     1       2.949  -7.952  -2.678  1.00  0.00     0.210 HD
ENDBRANCH  25  28
ENDBRANCH   2  21
TORSDOF 6
ENDMDL
