MODEL 1
REMARK VINA RESULT: -7.424712567      0.000      0.000
REMARK  9 active torsions:
REMARK  status: ('A' for Active; 'I' for Inactive)
REMARK    1  A    between atoms: C2_2  and  O2_4 
REMARK    2  A    between atoms: O2_4  and  C3_5 
REMARK    3  A    between atoms: C7_9  and  O3_10 
REMARK    4  A    between atoms: C8_12  and  N1_13 
REMARK    5  A    between atoms: N1_13  and  N2_15 
REMARK    6  A    between atoms: C9_20  and  C10_21 
REMARK    7  A    between atoms: C11_22  and  C12_23 
REMARK    8  A    between atoms: C12_23  and  O4_26 
REMARK    9  A    between atoms: C20_35  and  O6_36 
ROOT
HETATM    1  C3  UNL     1       3.273  -2.604  -2.933  1.00  0.00     0.078 C 
HETATM    2  C4  UNL     1       2.419  -3.280  -1.896  1.00  0.00     0.047 C 
HETATM    3  C5  UNL     1       3.407  -3.493  -4.119  1.00  0.00     0.047 C 
HETATM    4  C6  UNL     1       4.096  -4.767  -3.900  1.00  0.00     0.033 C 
HETATM    5  C7  UNL     1       4.644  -5.243  -5.247  1.00  0.00     0.148 C 
HETATM    6  C8  UNL     1       6.049  -4.753  -5.283  1.00  0.00     0.138 C 
HETATM    7  C9  UNL     1       6.501  -4.957  -3.851  1.00  0.00     0.048 C 
HETATM    8  C15 UNL     1       5.275  -4.800  -2.973  1.00  0.00    -0.002 C 
HETATM    9  C16 UNL     1       5.098  -6.068  -2.159  1.00  0.00     0.021 C 
HETATM   10  C17 UNL     1       5.346  -3.667  -2.039  1.00  0.00    -0.018 C 
HETATM   11  C18 UNL     1       5.881  -3.471  -0.842  1.00  0.00     0.168 C 
HETATM   12  F1  UNL     1       6.581  -4.407  -0.113  1.00  0.00    -0.202 F 
HETATM   13  C19 UNL     1       5.659  -2.137  -0.346  1.00  0.00     0.217 C 
HETATM   14  O5  UNL     1       6.151  -1.621   0.686  1.00  0.00    -0.287 OA
HETATM   15  C20 UNL     1       4.742  -1.464  -1.263  1.00  0.00     0.206 C 
HETATM   16  C21 UNL     1       4.700  -2.392  -2.422  1.00  0.00     0.090 C 
ENDROOT
BRANCH   6  17
HETATM   17  N1  UNL     1       6.238  -3.426  -5.768  1.00  0.00    -0.315 N 
ATOM     18  H1  UNL     1       6.503  -2.671  -5.135  1.00  0.00     0.182 HD
BRANCH  17  19
HETATM   19  N2  UNL     1       6.074  -3.213  -6.967  1.00  0.00    -0.253 N 
HETATM   20  N3  UNL     1       5.987  -3.515  -8.177  1.00  0.00    -0.331 N 
ATOM     21  H32 UNL     1       6.147  -4.520  -8.111  1.00  0.00     0.178 HD
ATOM     22  H31 UNL     1       5.851  -3.338  -9.173  1.00  0.00     0.178 HD
ATOM     23  H2  UNL     1       5.918  -2.205  -6.987  1.00  0.00     0.207 HD
ENDBRANCH  17  19
ENDBRANCH   6  17
BRANCH   5  24
HETATM   24  O3  UNL     1       4.643  -6.627  -5.338  1.00  0.00    -0.393 OA
ATOM     25  H3  UNL     1       5.504  -6.989  -5.167  1.00  0.00     0.210 HD
ENDBRANCH   5  24
BRANCH   7  26
HETATM   26  C10 UNL     1       7.621  -4.067  -3.498  1.00  0.00    -0.020 C 
HETATM   27  C11 UNL     1       8.800  -4.386  -3.027  1.00  0.00     0.006 C 
BRANCH  27  28
HETATM   28  C12 UNL     1       9.371  -5.691  -2.712  1.00  0.00     0.068 C 
HETATM   29  C13 UNL     1      10.868  -5.773  -2.723  1.00  0.00     0.050 C 
HETATM   30  C14 UNL     1       8.867  -6.259  -1.404  1.00  0.00     0.050 C 
BRANCH  28  31
HETATM   31  O4  UNL     1       8.949  -6.635  -3.694  1.00  0.00    -0.387 OA
ATOM     32  H4  UNL     1       9.685  -7.188  -3.931  1.00  0.00     0.211 HD
ENDBRANCH  28  31
ENDBRANCH  27  28
ENDBRANCH   7  26
BRANCH   1  33
HETATM   33  O2  UNL     1       2.822  -1.327  -3.293  1.00  0.00    -0.310 OA
BRANCH  33  34
HETATM   34  C2  UNL     1       1.552  -0.830  -3.166  1.00  0.00     0.255 C 
HETATM   35  C1  UNL     1       0.482  -1.111  -4.191  1.00  0.00     0.126 C 
HETATM   36  O1  UNL     1       1.301  -0.123  -2.154  1.00  0.00    -0.266 OA
ENDBRANCH  33  34
ENDBRANCH   1  33
BRANCH  15  37
HETATM   37  O6  UNL     1       3.528  -1.265  -0.637  1.00  0.00    -0.387 OA
ATOM     38  H6  UNL     1       2.942  -0.798  -1.222  1.00  0.00     0.210 HD
ENDBRANCH  15  37
TORSDOF 9
ENDMDL
MODEL 2
REMARK VINA RESULT: -6.707867017      3.547      6.971
REMARK  9 active torsions:
REMARK  status: ('A' for Active; 'I' for Inactive)
REMARK    1  A    between atoms: C2_2  and  O2_4 
REMARK    2  A    between atoms: O2_4  and  C3_5 
REMARK    3  A    between atoms: C7_9  and  O3_10 
REMARK    4  A    between atoms: C8_12  and  N1_13 
REMARK    5  A    between atoms: N1_13  and  N2_15 
REMARK    6  A    between atoms: C9_20  and  C10_21 
REMARK    7  A    between atoms: C11_22  and  C12_23 
REMARK    8  A    between atoms: C12_23  and  O4_26 
REMARK    9  A    between atoms: C20_35  and  O6_36 
ROOT
HETATM    1  C3  UNL     1       6.344  -3.355  -4.392  1.00  0.00     0.078 C 
HETATM    2  C4  UNL     1       5.511  -4.130  -5.376  1.00  0.00     0.047 C 
HETATM    3  C5  UNL     1       5.762  -3.500  -3.030  1.00  0.00     0.047 C 
HETATM    4  C6  UNL     1       4.419  -2.946  -2.838  1.00  0.00     0.033 C 
HETATM    5  C7  UNL     1       4.240  -2.657  -1.345  1.00  0.00     0.148 C 
HETATM    6  C8  UNL     1       4.604  -1.222  -1.188  1.00  0.00     0.138 C 
HETATM    7  C9  UNL     1       4.021  -0.600  -2.441  1.00  0.00     0.048 C 
HETATM    8  C15 UNL     1       4.063  -1.661  -3.523  1.00  0.00    -0.002 C 
HETATM    9  C16 UNL     1       2.654  -1.874  -4.046  1.00  0.00     0.021 C 
HETATM   10  C17 UNL     1       4.925  -1.321  -4.664  1.00  0.00    -0.018 C 
HETATM   11  C18 UNL     1       4.778  -0.603  -5.768  1.00  0.00     0.168 C 
HETATM   12  F1  UNL     1       3.638   0.075  -6.139  1.00  0.00    -0.202 F 
HETATM   13  C19 UNL     1       5.966  -0.588  -6.584  1.00  0.00     0.217 C 
HETATM   14  O5  UNL     1       6.172   0.104  -7.610  1.00  0.00    -0.287 OA
HETATM   15  C20 UNL     1       6.916  -1.538  -6.009  1.00  0.00     0.206 C 
HETATM   16  C21 UNL     1       6.305  -1.855  -4.693  1.00  0.00     0.090 C 
ENDROOT
BRANCH   6  17
HETATM   17  N1  UNL     1       5.989  -0.944  -0.992  1.00  0.00    -0.315 N 
ATOM     18  H1  UNL     1       6.439  -0.168  -1.476  1.00  0.00     0.182 HD
BRANCH  17  19
HETATM   19  N2  UNL     1       6.626  -1.663  -0.226  1.00  0.00    -0.253 N 
HETATM   20  N3  UNL     1       7.608  -2.337   0.152  1.00  0.00    -0.331 N 
ATOM     21  H32 UNL     1       8.224  -2.201  -0.650  1.00  0.00     0.178 HD
ATOM     22  H31 UNL     1       8.138  -2.934   0.788  1.00  0.00     0.178 HD
ATOM     23  H2  UNL     1       5.978  -1.772   0.555  1.00  0.00     0.207 HD
ENDBRANCH  17  19
ENDBRANCH   6  17
BRANCH   5  24
HETATM   24  O3  UNL     1       2.925  -2.839  -0.945  1.00  0.00    -0.393 OA
ATOM     25  H3  UNL     1       2.727  -2.344  -0.159  1.00  0.00     0.210 HD
ENDBRANCH   5  24
BRANCH   7  26
HETATM   26  C10 UNL     1       4.700   0.659  -2.795  1.00  0.00    -0.020 C 
HETATM   27  C11 UNL     1       4.173   1.831  -3.042  1.00  0.00     0.006 C 
BRANCH  27  28
HETATM   28  C12 UNL     1       2.778   2.258  -3.041  1.00  0.00     0.068 C 
HETATM   29  C13 UNL     1       2.060   2.159  -4.354  1.00  0.00     0.050 C 
HETATM   30  C14 UNL     1       1.945   1.568  -1.983  1.00  0.00     0.050 C 
BRANCH  28  31
HETATM   31  O4  UNL     1       2.712   3.640  -2.696  1.00  0.00    -0.387 OA
ATOM     32  H4  UNL     1       2.273   3.732  -1.859  1.00  0.00     0.211 HD
ENDBRANCH  28  31
ENDBRANCH  27  28
ENDBRANCH   7  26
BRANCH   1  33
HETATM   33  O2  UNL     1       7.704  -3.695  -4.411  1.00  0.00    -0.310 OA
BRANCH  33  34
HETATM   34  C2  UNL     1       8.538  -3.838  -3.335  1.00  0.00     0.255 C 
HETATM   35  C1  UNL     1       8.943  -5.197  -2.819  1.00  0.00     0.126 C 
HETATM   36  O1  UNL     1       8.962  -2.789  -2.782  1.00  0.00    -0.266 OA
ENDBRANCH  33  34
ENDBRANCH   1  33
BRANCH  15  37
HETATM   37  O6  UNL     1       7.059  -2.618  -6.857  1.00  0.00    -0.387 OA
ATOM     38  H6  UNL     1       6.287  -3.168  -6.803  1.00  0.00     0.210 HD
ENDBRANCH  15  37
TORSDOF 9
ENDMDL
MODEL 3
REMARK VINA RESULT: -6.615097531      2.720      6.449
REMARK  9 active torsions:
REMARK  status: ('A' for Active; 'I' for Inactive)
REMARK    1  A    between atoms: C2_2  and  O2_4 
REMARK    2  A    between atoms: O2_4  and  C3_5 
REMARK    3  A    between atoms: C7_9  and  O3_10 
REMARK    4  A    between atoms: C8_12  and  N1_13 
REMARK    5  A    between atoms: N1_13  and  N2_15 
REMARK    6  A    between atoms: C9_20  and  C10_21 
REMARK    7  A    between atoms: C11_22  and  C12_23 
REMARK    8  A    between atoms: C12_23  and  O4_26 
REMARK    9  A    between atoms: C20_35  and  O6_36 
ROOT
HETATM    1  C3  UNL     1       6.376  -4.203  -1.671  1.00  0.00     0.078 C 
HETATM    2  C4  UNL     1       5.769  -5.501  -1.214  1.00  0.00     0.047 C 
HETATM    3  C5  UNL     1       5.684  -3.070  -0.999  1.00  0.00     0.047 C 
HETATM    4  C6  UNL     1       4.263  -2.901  -1.312  1.00  0.00     0.033 C 
HETATM    5  C7  UNL     1       3.892  -1.442  -1.038  1.00  0.00     0.148 C 
HETATM    6  C8  UNL     1       4.027  -0.759  -2.354  1.00  0.00     0.138 C 
HETATM    7  C9  UNL     1       3.493  -1.800  -3.317  1.00  0.00     0.048 C 
HETATM    8  C15 UNL     1       3.798  -3.158  -2.714  1.00  0.00    -0.002 C 
HETATM    9  C16 UNL     1       2.496  -3.922  -2.561  1.00  0.00     0.021 C 
HETATM   10  C17 UNL     1       4.715  -3.979  -3.519  1.00  0.00    -0.018 C 
HETATM   11  C18 UNL     1       4.581  -4.785  -4.562  1.00  0.00     0.168 C 
HETATM   12  F1  UNL     1       3.399  -5.069  -5.211  1.00  0.00    -0.202 F 
HETATM   13  C19 UNL     1       5.831  -5.366  -4.981  1.00  0.00     0.217 C 
HETATM   14  O5  UNL     1       6.040  -6.056  -6.007  1.00  0.00    -0.287 OA
HETATM   15  C20 UNL     1       6.844  -5.011  -3.989  1.00  0.00     0.206 C 
HETATM   16  C21 UNL     1       6.153  -3.983  -3.169  1.00  0.00     0.090 C 
ENDROOT
BRANCH   6  17
HETATM   17  N1  UNL     1       5.330  -0.280  -2.681  1.00  0.00    -0.315 N 
ATOM     18  H1  UNL     1       6.125  -0.918  -2.726  1.00  0.00     0.182 HD
BRANCH  17  19
HETATM   19  N2  UNL     1       5.472   0.919  -2.906  1.00  0.00    -0.253 N 
HETATM   20  N3  UNL     1       5.696   1.928  -3.610  1.00  0.00    -0.331 N 
ATOM     21  H32 UNL     1       5.841   1.474  -4.512  1.00  0.00     0.178 HD
ATOM     22  H31 UNL     1       5.814   2.924  -3.797  1.00  0.00     0.178 HD
ATOM     23  H2  UNL     1       5.319   1.330  -1.985  1.00  0.00     0.207 HD
ENDBRANCH  17  19
ENDBRANCH   6  17
BRANCH   5  24
HETATM   24  O3  UNL     1       2.582  -1.323  -0.597  1.00  0.00    -0.393 OA
ATOM     25  H3  UNL     1       2.160  -0.554  -0.960  1.00  0.00     0.210 HD
ENDBRANCH   5  24
BRANCH   7  26
HETATM   26  C10 UNL     1       4.017  -1.607  -4.680  1.00  0.00    -0.020 C 
HETATM   27  C11 UNL     1       3.637  -0.743  -5.586  1.00  0.00     0.006 C 
BRANCH  27  28
HETATM   28  C12 UNL     1       2.600   0.283  -5.539  1.00  0.00     0.068 C 
HETATM   29  C13 UNL     1       2.340   1.014  -6.821  1.00  0.00     0.050 C 
HETATM   30  C14 UNL     1       1.282  -0.230  -5.000  1.00  0.00     0.050 C 
BRANCH  28  31
HETATM   31  O4  UNL     1       2.988   1.298  -4.616  1.00  0.00    -0.387 OA
ATOM     32  H4  UNL     1       3.246   2.075  -5.098  1.00  0.00     0.211 HD
ENDBRANCH  28  31
ENDBRANCH  27  28
ENDBRANCH   7  26
BRANCH   1  33
HETATM   33  O2  UNL     1       7.765  -4.136  -1.497  1.00  0.00    -0.310 OA
BRANCH  33  34
HETATM   34  C2  UNL     1       8.478  -3.135  -0.893  1.00  0.00     0.255 C 
HETATM   35  C1  UNL     1       8.739  -3.130   0.593  1.00  0.00     0.126 C 
HETATM   36  O1  UNL     1       8.914  -2.207  -1.624  1.00  0.00    -0.266 OA
ENDBRANCH  33  34
ENDBRANCH   1  33
BRANCH  15  37
HETATM   37  O6  UNL     1       7.228  -6.142  -3.297  1.00  0.00    -0.387 OA
ATOM     38  H6  UNL     1       8.173  -6.155  -3.210  1.00  0.00     0.210 HD
ENDBRANCH  15  37
TORSDOF 9
ENDMDL
MODEL 4
REMARK VINA RESULT: -6.519272310      3.812      6.096
REMARK  9 active torsions:
REMARK  status: ('A' for Active; 'I' for Inactive)
REMARK    1  A    between atoms: C2_2  and  O2_4 
REMARK    2  A    between atoms: O2_4  and  C3_5 
REMARK    3  A    between atoms: C7_9  and  O3_10 
REMARK    4  A    between atoms: C8_12  and  N1_13 
REMARK    5  A    between atoms: N1_13  and  N2_15 
REMARK    6  A    between atoms: C9_20  and  C10_21 
REMARK    7  A    between atoms: C11_22  and  C12_23 
REMARK    8  A    between atoms: C12_23  and  O4_26 
REMARK    9  A    between atoms: C20_35  and  O6_36 
ROOT
HETATM    1  C3  UNL     1       2.289  -5.357  -1.636  1.00  0.00     0.078 C 
HETATM    2  C4  UNL     1       2.501  -6.221  -2.849  1.00  0.00     0.047 C 
HETATM    3  C5  UNL     1       1.147  -4.434  -1.880  1.00  0.00     0.047 C 
HETATM    4  C6  UNL     1       1.323  -3.457  -2.957  1.00  0.00     0.033 C 
HETATM    5  C7  UNL     1       0.379  -2.283  -2.685  1.00  0.00     0.148 C 
HETATM    6  C8  UNL     1       1.210  -1.286  -1.957  1.00  0.00     0.138 C 
HETATM    7  C9  UNL     1       2.546  -1.398  -2.663  1.00  0.00     0.048 C 
HETATM    8  C15 UNL     1       2.671  -2.829  -3.149  1.00  0.00    -0.002 C 
HETATM    9  C16 UNL     1       2.884  -2.812  -4.651  1.00  0.00     0.021 C 
HETATM   10  C17 UNL     1       3.782  -3.575  -2.541  1.00  0.00    -0.018 C 
HETATM   11  C18 UNL     1       5.082  -3.679  -2.777  1.00  0.00     0.168 C 
HETATM   12  F1  UNL     1       5.771  -3.024  -3.774  1.00  0.00    -0.202 F 
HETATM   13  C19 UNL     1       5.744  -4.573  -1.862  1.00  0.00     0.217 C 
HETATM   14  O5  UNL     1       6.978  -4.770  -1.754  1.00  0.00    -0.287 OA
HETATM   15  C20 UNL     1       4.717  -5.233  -1.058  1.00  0.00     0.206 C 
HETATM   16  C21 UNL     1       3.496  -4.451  -1.383  1.00  0.00     0.090 C 
ENDROOT
BRANCH   6  17
HETATM   17  N1  UNL     1       1.285  -1.446  -0.542  1.00  0.00    -0.315 N 
ATOM     18  H1  UNL     1       2.103  -1.127  -0.023  1.00  0.00     0.182 HD
BRANCH  17  19
HETATM   19  N2  UNL     1       0.341  -1.977   0.037  1.00  0.00    -0.253 N 
HETATM   20  N3  UNL     1      -0.207  -2.708   0.890  1.00  0.00    -0.331 N 
ATOM     21  H32 UNL     1       0.622  -3.052   1.374  1.00  0.00     0.178 HD
ATOM     22  H31 UNL     1      -0.991  -3.149   1.372  1.00  0.00     0.178 HD
ATOM     23  H2  UNL     1      -0.461  -1.608  -0.475  1.00  0.00     0.207 HD
ENDBRANCH  17  19
ENDBRANCH   6  17
BRANCH   5  24
HETATM   24  O3  UNL     1      -0.083  -1.716  -3.864  1.00  0.00    -0.393 OA
ATOM     25  H3  UNL     1      -0.376  -0.823  -3.731  1.00  0.00     0.210 HD
ENDBRANCH   5  24
BRANCH   7  26
HETATM   26  C10 UNL     1       3.658  -0.946  -1.808  1.00  0.00    -0.020 C 
HETATM   27  C11 UNL     1       4.536  -0.004  -2.040  1.00  0.00     0.006 C 
BRANCH  27  28
HETATM   28  C12 UNL     1       4.691   0.881  -3.190  1.00  0.00     0.068 C 
HETATM   29  C13 UNL     1       5.009   0.215  -4.494  1.00  0.00     0.050 C 
HETATM   30  C14 UNL     1       3.508   1.801  -3.394  1.00  0.00     0.050 C 
BRANCH  28  31
HETATM   31  O4  UNL     1       5.788   1.762  -2.956  1.00  0.00    -0.387 OA
ATOM     32  H4  UNL     1       6.541   1.460  -3.452  1.00  0.00     0.211 HD
ENDBRANCH  28  31
ENDBRANCH  27  28
ENDBRANCH   7  26
BRANCH   1  33
HETATM   33  O2  UNL     1       2.122  -6.082  -0.448  1.00  0.00    -0.310 OA
BRANCH  33  34
HETATM   34  C2  UNL     1       0.944  -6.496   0.113  1.00  0.00     0.255 C 
HETATM   35  C1  UNL     1       0.302  -7.808  -0.263  1.00  0.00     0.126 C 
HETATM   36  O1  UNL     1       0.404  -5.738   0.962  1.00  0.00    -0.266 OA
ENDBRANCH  33  34
ENDBRANCH   1  33
BRANCH  15  37
HETATM   37  O6  UNL     1       4.655  -6.570  -1.396  1.00  0.00    -0.387 OA
ATOM     38  H6  UNL     1       3.781  -6.780  -1.701  1.00  0.00     0.210 HD
ENDBRANCH  15  37
TORSDOF 9
ENDMDL
MODEL 5
REMARK VINA RESULT: -6.506970742      3.134      4.963
REMARK  9 active torsions:
REMARK  status: ('A' for Active; 'I' for Inactive)
REMARK    1  A    between atoms: C2_2  and  O2_4 
REMARK    2  A    between atoms: O2_4  and  C3_5 
REMARK    3  A    between atoms: C7_9  and  O3_10 
REMARK    4  A    between atoms: C8_12  and  N1_13 
REMARK    5  A    between atoms: N1_13  and  N2_15 
REMARK    6  A    between atoms: C9_20  and  C10_21 
REMARK    7  A    between atoms: C11_22  and  C12_23 
REMARK    8  A    between atoms: C12_23  and  O4_26 
REMARK    9  A    between atoms: C20_35  and  O6_36 
ROOT
HETATM    1  C3  UNL     1       1.896  -2.908  -4.529  1.00  0.00     0.078 C 
HETATM    2  C4  UNL     1       2.133  -2.717  -6.002  1.00  0.00     0.047 C 
HETATM    3  C5  UNL     1       2.094  -1.612  -3.824  1.00  0.00     0.047 C 
HETATM    4  C6  UNL     1       3.445  -1.048  -3.874  1.00  0.00     0.033 C 
HETATM    5  C7  UNL     1       3.604  -0.105  -2.678  1.00  0.00     0.148 C 
HETATM    6  C8  UNL     1       4.238  -0.937  -1.619  1.00  0.00     0.138 C 
HETATM    7  C9  UNL     1       5.217  -1.780  -2.410  1.00  0.00     0.048 C 
HETATM    8  C15 UNL     1       4.619  -1.977  -3.789  1.00  0.00    -0.002 C 
HETATM    9  C16 UNL     1       5.603  -1.460  -4.821  1.00  0.00     0.021 C 
HETATM   10  C17 UNL     1       4.311  -3.377  -4.116  1.00  0.00    -0.018 C 
HETATM   11  C18 UNL     1       5.006  -4.406  -4.580  1.00  0.00     0.168 C 
HETATM   12  F1  UNL     1       6.347  -4.390  -4.898  1.00  0.00    -0.202 F 
HETATM   13  C19 UNL     1       4.208  -5.595  -4.728  1.00  0.00     0.217 C 
HETATM   14  O5  UNL     1       4.611  -6.747  -5.017  1.00  0.00    -0.287 OA
HETATM   15  C20 UNL     1       2.813  -5.232  -4.483  1.00  0.00     0.206 C 
HETATM   16  C21 UNL     1       2.927  -3.862  -3.921  1.00  0.00     0.090 C 
ENDROOT
BRANCH   6  17
HETATM   17  N1  UNL     1       3.350  -1.693  -0.799  1.00  0.00    -0.315 N 
ATOM     18  H1  UNL     1       3.656  -2.561  -0.359  1.00  0.00     0.182 HD
BRANCH  17  19
HETATM   19  N2  UNL     1       2.206  -1.274  -0.636  1.00  0.00    -0.253 N 
HETATM   20  N3  UNL     1       1.024  -1.317  -0.232  1.00  0.00    -0.331 N 
ATOM     21  H32 UNL     1       1.034  -2.231   0.219  1.00  0.00     0.178 HD
ATOM     22  H31 UNL     1       0.075  -0.969  -0.096  1.00  0.00     0.178 HD
ATOM     23  H2  UNL     1       2.242  -0.365  -1.098  1.00  0.00     0.207 HD
ENDBRANCH  17  19
ENDBRANCH   6  17
BRANCH   5  24
HETATM   24  O3  UNL     1       4.437   0.962  -2.978  1.00  0.00    -0.393 OA
ATOM     25  H3  UNL     1       4.157   1.757  -2.541  1.00  0.00     0.210 HD
ENDBRANCH   5  24
BRANCH   7  26
HETATM   26  C10 UNL     1       5.555  -3.031  -1.708  1.00  0.00    -0.020 C 
HETATM   27  C11 UNL     1       6.702  -3.394  -1.192  1.00  0.00     0.006 C 
BRANCH  27  28
HETATM   28  C12 UNL     1       7.981  -2.694  -1.143  1.00  0.00     0.068 C 
HETATM   29  C13 UNL     1       8.885  -3.056  -0.004  1.00  0.00     0.050 C 
HETATM   30  C14 UNL     1       8.764  -2.799  -2.433  1.00  0.00     0.050 C 
BRANCH  28  31
HETATM   31  O4  UNL     1       7.743  -1.296  -0.987  1.00  0.00    -0.387 OA
ATOM     32  H4  UNL     1       8.510  -0.816  -1.276  1.00  0.00     0.211 HD
ENDBRANCH  28  31
ENDBRANCH  27  28
ENDBRANCH   7  26
BRANCH   1  33
HETATM   33  O2  UNL     1       0.651  -3.476  -4.225  1.00  0.00    -0.310 OA
BRANCH  33  34
HETATM   34  C2  UNL     1      -0.195  -3.124  -3.208  1.00  0.00     0.255 C 
HETATM   35  C1  UNL     1      -1.458  -2.339  -3.461  1.00  0.00     0.126 C 
HETATM   36  O1  UNL     1       0.117  -3.479  -2.040  1.00  0.00    -0.266 OA
ENDBRANCH  33  34
ENDBRANCH   1  33
BRANCH  15  37
HETATM   37  O6  UNL     1       2.100  -5.317  -5.662  1.00  0.00    -0.387 OA
ATOM     38  H6  UNL     1       1.176  -5.413  -5.467  1.00  0.00     0.210 HD
ENDBRANCH  15  37
TORSDOF 9
ENDMDL
