MODEL 1
REMARK VINA RESULT: -6.724061856      0.000      0.000
REMARK  8 active torsions:
REMARK  status: ('A' for Active; 'I' for Inactive)
REMARK    1  A    between atoms: O1_1  and  C1_3 
REMARK    2  A    between atoms: C1_3  and  C2_4 
REMARK    3  A    between atoms: C2_4  and  O2_5 
REMARK    4  A    between atoms: N1_9  and  C5_10 
REMARK    5  A    between atoms: C5_10  and  C6_11 
REMARK    6  A    between atoms: C6_11  and  C7_12 
REMARK    7  A    between atoms: C7_12  and  C8_13 
REMARK    8  A    between atoms: C8_13  and  C9_14 
ROOT
HETATM    1  C2  UNL     1      27.090   8.665 -34.964  1.00  0.00     0.086 C 
HETATM    2  C3  UNL     1      27.597  10.041 -34.808  1.00  0.00     0.060 C 
HETATM    3  C4  UNL     1      28.858  10.431 -35.456  1.00  0.00     0.126 C 
HETATM    4  N1  UNL     1      29.742   9.403 -35.887  1.00  0.00    -0.375 N 
HETATM    5  C12 UNL     1      29.269   8.066 -35.967  1.00  0.00     0.078 C 
HETATM    6  S1  UNL     1      29.980   7.014 -36.980  1.00  0.00    -0.065 SA
HETATM    7  C13 UNL     1      28.130   7.586 -35.151  1.00  0.00     0.109 C 
ENDROOT
BRANCH   4   8
HETATM    8  C5  UNL     1      31.114   9.677 -36.251  1.00  0.00     0.123 C 
BRANCH   8   9
HETATM    9  C6  UNL     1      31.876  10.359 -35.139  1.00  0.00     0.020 C 
BRANCH   9  10
HETATM   10  C7  UNL     1      32.816   9.439 -34.438  1.00  0.00     0.008 C 
BRANCH  10  11
HETATM   11  C8  UNL     1      32.246   8.153 -33.961  1.00  0.00     0.058 C 
BRANCH  11  12
HETATM   12  C9  UNL     1      31.520   8.315 -32.661  1.00  0.00     0.025 A 
HETATM   13  C10 UNL     1      30.200   8.594 -32.413  1.00  0.00     0.113 A 
HETATM   14  N2  UNL     1      29.968   8.654 -31.077  1.00  0.00    -0.360 N 
HETATM   15  C11 UNL     1      31.144   8.411 -30.493  1.00  0.00     0.180 A 
ATOM     16  H2  UNL     1      29.079   8.845 -30.614  1.00  0.00     0.166 HD
HETATM   17  N3  UNL     1      32.096   8.204 -31.427  1.00  0.00    -0.355 N 
ATOM     18  H3  UNL     1      33.078   8.000 -31.243  1.00  0.00     0.166 HD
ENDBRANCH  11  12
ENDBRANCH  10  11
ENDBRANCH   9  10
ENDBRANCH   8   9
ENDBRANCH   4   8
BRANCH   1  19
HETATM   19  C1  UNL     1      26.076   8.505 -36.109  1.00  0.00     0.202 C 
BRANCH  19  20
HETATM   20  O1  UNL     1      25.001   9.339 -35.725  1.00  0.00    -0.398 OA
ATOM     21  H1  UNL     1      24.976  10.003 -36.404  1.00  0.00     0.209 HD
ENDBRANCH  19  20
ENDBRANCH   1  19
BRANCH   1  22
HETATM   22  O2  UNL     1      26.372   8.318 -33.811  1.00  0.00    -0.387 OA
ATOM     23  H2  UNL     1      26.921   8.611 -33.094  1.00  0.00     0.210 HD
ENDBRANCH   1  22
TORSDOF 8
ENDMDL
MODEL 2
REMARK VINA RESULT: -6.310269277      3.911      5.808
REMARK  8 active torsions:
REMARK  status: ('A' for Active; 'I' for Inactive)
REMARK    1  A    between atoms: O1_1  and  C1_3 
REMARK    2  A    between atoms: C1_3  and  C2_4 
REMARK    3  A    between atoms: C2_4  and  O2_5 
REMARK    4  A    between atoms: N1_9  and  C5_10 
REMARK    5  A    between atoms: C5_10  and  C6_11 
REMARK    6  A    between atoms: C6_11  and  C7_12 
REMARK    7  A    between atoms: C7_12  and  C8_13 
REMARK    8  A    between atoms: C8_13  and  C9_14 
ROOT
HETATM    1  C2  UNL     1      33.754   8.041 -35.585  1.00  0.00     0.086 C 
HETATM    2  C3  UNL     1      32.460   7.380 -35.337  1.00  0.00     0.060 C 
HETATM    3  C4  UNL     1      31.245   8.193 -35.176  1.00  0.00     0.126 C 
HETATM    4  N1  UNL     1      31.392   9.577 -34.882  1.00  0.00    -0.375 N 
HETATM    5  C12 UNL     1      32.661  10.194 -35.055  1.00  0.00     0.078 C 
HETATM    6  S1  UNL     1      32.754  11.793 -35.327  1.00  0.00    -0.065 SA
HETATM    7  C13 UNL     1      33.923   9.422 -34.998  1.00  0.00     0.109 C 
ENDROOT
BRANCH   4   8
HETATM    8  C5  UNL     1      30.287  10.382 -34.413  1.00  0.00     0.123 C 
BRANCH   8   9
HETATM    9  C6  UNL     1      29.217  10.553 -35.466  1.00  0.00     0.020 C 
BRANCH   9  10
HETATM   10  C7  UNL     1      27.839  10.493 -34.900  1.00  0.00     0.008 C 
BRANCH  10  11
HETATM   11  C8  UNL     1      26.927   9.483 -35.494  1.00  0.00     0.058 C 
BRANCH  11  12
HETATM   12  C9  UNL     1      27.486   8.098 -35.389  1.00  0.00     0.025 A 
HETATM   13  C10 UNL     1      27.766   7.338 -34.281  1.00  0.00     0.113 A 
HETATM   14  N2  UNL     1      28.267   6.130 -34.645  1.00  0.00    -0.360 N 
HETATM   15  C11 UNL     1      28.298   6.137 -35.980  1.00  0.00     0.180 A 
ATOM     16  H2  UNL     1      28.560   5.373 -34.028  1.00  0.00     0.166 HD
HETATM   17  N3  UNL     1      27.832   7.313 -36.452  1.00  0.00    -0.355 N 
ATOM     18  H3  UNL     1      27.753   7.572 -37.436  1.00  0.00     0.166 HD
ENDBRANCH  11  12
ENDBRANCH  10  11
ENDBRANCH   9  10
ENDBRANCH   8   9
ENDBRANCH   4   8
BRANCH   1  19
HETATM   19  C1  UNL     1      34.119   8.146 -37.075  1.00  0.00     0.202 C 
BRANCH  19  20
HETATM   20  O1  UNL     1      35.124   7.166 -37.245  1.00  0.00    -0.398 OA
ATOM     21  H1  UNL     1      35.896   7.670 -37.473  1.00  0.00     0.209 HD
ENDBRANCH  19  20
ENDBRANCH   1  19
BRANCH   1  22
HETATM   22  O2  UNL     1      34.773   7.255 -35.031  1.00  0.00    -0.387 OA
ATOM     23  H2  UNL     1      34.568   6.371 -35.311  1.00  0.00     0.210 HD
ENDBRANCH   1  22
TORSDOF 8
ENDMDL
MODEL 3
REMARK VINA RESULT: -6.228937679      2.179      3.724
REMARK  8 active torsions:
REMARK  status: ('A' for Active; 'I' for Inactive)
REMARK    1  A    between atoms: O1_1  and  C1_3 
REMARK    2  A    between atoms: C1_3  and  C2_4 
REMARK    3  A    between atoms: C2_4  and  O2_5 
REMARK    4  A    between atoms: N1_9  and  C5_10 
REMARK    5  A    between atoms: C5_10  and  C6_11 
REMARK    6  A    between atoms: C6_11  and  C7_12 
REMARK    7  A    between atoms: C7_12  and  C8_13 
REMARK    8  A    between atoms: C8_13  and  C9_14 
ROOT
HETATM    1  C2  UNL     1      27.269   8.054 -35.308  1.00  0.00     0.086 C 
HETATM    2  C3  UNL     1      28.050   7.034 -34.584  1.00  0.00     0.060 C 
HETATM    3  C4  UNL     1      28.992   7.448 -33.533  1.00  0.00     0.126 C 
HETATM    4  N1  UNL     1      29.413   8.806 -33.500  1.00  0.00    -0.375 N 
HETATM    5  C12 UNL     1      28.699   9.774 -34.257  1.00  0.00     0.078 C 
HETATM    6  S1  UNL     1      28.726  11.336 -33.807  1.00  0.00    -0.065 SA
HETATM    7  C13 UNL     1      27.917   9.409 -35.460  1.00  0.00     0.109 C 
ENDROOT
BRANCH   4   8
HETATM    8  C5  UNL     1      30.546   9.237 -32.713  1.00  0.00     0.123 C 
BRANCH   8   9
HETATM    9  C6  UNL     1      31.711   8.282 -32.817  1.00  0.00     0.020 C 
BRANCH   9  10
HETATM   10  C7  UNL     1      32.542   8.516 -34.032  1.00  0.00     0.008 C 
BRANCH  10  11
HETATM   11  C8  UNL     1      32.786   7.336 -34.900  1.00  0.00     0.058 C 
BRANCH  11  12
HETATM   12  C9  UNL     1      31.751   7.212 -35.975  1.00  0.00     0.025 A 
HETATM   13  C10 UNL     1      31.093   8.182 -36.687  1.00  0.00     0.113 A 
HETATM   14  N2  UNL     1      30.228   7.623 -37.570  1.00  0.00    -0.360 N 
HETATM   15  C11 UNL     1      30.348   6.303 -37.409  1.00  0.00     0.180 A 
ATOM     16  H2  UNL     1      29.612   8.109 -38.223  1.00  0.00     0.166 HD
HETATM   17  N3  UNL     1      31.260   6.030 -36.452  1.00  0.00    -0.355 N 
ATOM     18  H3  UNL     1      31.536   5.099 -36.139  1.00  0.00     0.166 HD
ENDBRANCH  11  12
ENDBRANCH  10  11
ENDBRANCH   9  10
ENDBRANCH   8   9
ENDBRANCH   4   8
BRANCH   1  19
HETATM   19  C1  UNL     1      25.870   8.296 -34.718  1.00  0.00     0.202 C 
BRANCH  19  20
HETATM   20  O1  UNL     1      25.215   9.061 -35.710  1.00  0.00    -0.398 OA
ATOM     21  H1  UNL     1      25.219   8.495 -36.473  1.00  0.00     0.209 HD
ENDBRANCH  19  20
ENDBRANCH   1  19
BRANCH   1  22
HETATM   22  O2  UNL     1      27.024   7.591 -36.608  1.00  0.00    -0.387 OA
ATOM     23  H2  UNL     1      27.466   6.751 -36.647  1.00  0.00     0.210 HD
ENDBRANCH   1  22
TORSDOF 8
ENDMDL
MODEL 4
REMARK VINA RESULT: -6.216525411      2.365      3.583
REMARK  8 active torsions:
REMARK  status: ('A' for Active; 'I' for Inactive)
REMARK    1  A    between atoms: O1_1  and  C1_3 
REMARK    2  A    between atoms: C1_3  and  C2_4 
REMARK    3  A    between atoms: C2_4  and  O2_5 
REMARK    4  A    between atoms: N1_9  and  C5_10 
REMARK    5  A    between atoms: C5_10  and  C6_11 
REMARK    6  A    between atoms: C6_11  and  C7_12 
REMARK    7  A    between atoms: C7_12  and  C8_13 
REMARK    8  A    between atoms: C8_13  and  C9_14 
ROOT
HETATM    1  C2  UNL     1      28.788   9.705 -33.815  1.00  0.00     0.086 C 
HETATM    2  C3  UNL     1      28.409   8.731 -34.855  1.00  0.00     0.060 C 
HETATM    3  C4  UNL     1      29.250   8.580 -36.053  1.00  0.00     0.126 C 
HETATM    4  N1  UNL     1      30.172   9.617 -36.366  1.00  0.00    -0.375 N 
HETATM    5  C12 UNL     1      30.479  10.596 -35.383  1.00  0.00     0.078 C 
HETATM    6  S1  UNL     1      31.898  11.387 -35.443  1.00  0.00    -0.065 SA
HETATM    7  C13 UNL     1      29.543  10.926 -34.284  1.00  0.00     0.109 C 
ENDROOT
BRANCH   4   8
HETATM    8  C5  UNL     1      30.813   9.707 -37.659  1.00  0.00     0.123 C 
BRANCH   8   9
HETATM    9  C6  UNL     1      31.034   8.349 -38.283  1.00  0.00     0.020 C 
BRANCH   9  10
HETATM   10  C7  UNL     1      32.383   7.792 -37.986  1.00  0.00     0.008 C 
BRANCH  10  11
HETATM   11  C8  UNL     1      32.454   6.784 -36.897  1.00  0.00     0.058 C 
BRANCH  11  12
HETATM   12  C9  UNL     1      32.890   7.394 -35.601  1.00  0.00     0.025 A 
HETATM   13  C10 UNL     1      34.024   8.103 -35.293  1.00  0.00     0.113 A 
HETATM   14  N2  UNL     1      34.016   8.470 -33.986  1.00  0.00    -0.360 N 
HETATM   15  C11 UNL     1      32.877   7.992 -33.481  1.00  0.00     0.180 A 
ATOM     16  H2  UNL     1      34.732   9.002 -33.492  1.00  0.00     0.166 HD
HETATM   17  N3  UNL     1      32.181   7.338 -34.435  1.00  0.00    -0.355 N 
ATOM     18  H3  UNL     1      31.278   6.880 -34.307  1.00  0.00     0.166 HD
ENDBRANCH  11  12
ENDBRANCH  10  11
ENDBRANCH   9  10
ENDBRANCH   8   9
ENDBRANCH   4   8
BRANCH   1  19
HETATM   19  C1  UNL     1      29.605   9.094 -32.665  1.00  0.00     0.202 C 
BRANCH  19  20
HETATM   20  O1  UNL     1      29.394   7.703 -32.803  1.00  0.00    -0.398 OA
ATOM     21  H1  UNL     1      29.837   7.331 -32.050  1.00  0.00     0.209 HD
ENDBRANCH  19  20
ENDBRANCH   1  19
BRANCH   1  22
HETATM   22  O2  UNL     1      27.622  10.181 -33.200  1.00  0.00    -0.387 OA
ATOM     23  H2  UNL     1      27.853  11.051 -32.899  1.00  0.00     0.210 HD
ENDBRANCH   1  22
TORSDOF 8
ENDMDL
MODEL 5
REMARK VINA RESULT: -6.208233175      3.142      5.102
REMARK  8 active torsions:
REMARK  status: ('A' for Active; 'I' for Inactive)
REMARK    1  A    between atoms: O1_1  and  C1_3 
REMARK    2  A    between atoms: C1_3  and  C2_4 
REMARK    3  A    between atoms: C2_4  and  O2_5 
REMARK    4  A    between atoms: N1_9  and  C5_10 
REMARK    5  A    between atoms: C5_10  and  C6_11 
REMARK    6  A    between atoms: C6_11  and  C7_12 
REMARK    7  A    between atoms: C7_12  and  C8_13 
REMARK    8  A    between atoms: C8_13  and  C9_14 
ROOT
HETATM    1  C2  UNL     1      33.322   7.866 -35.607  1.00  0.00     0.086 C 
HETATM    2  C3  UNL     1      32.734   8.099 -34.275  1.00  0.00     0.060 C 
HETATM    3  C4  UNL     1      31.640   9.070 -34.121  1.00  0.00     0.126 C 
HETATM    4  N1  UNL     1      31.435  10.027 -35.154  1.00  0.00    -0.375 N 
HETATM    5  C12 UNL     1      32.063   9.834 -36.414  1.00  0.00     0.078 C 
HETATM    6  S1  UNL     1      31.419  10.499 -37.750  1.00  0.00    -0.065 SA
HETATM    7  C13 UNL     1      33.302   9.037 -36.561  1.00  0.00     0.109 C 
ENDROOT
BRANCH   4   8
HETATM    8  C5  UNL     1      30.602  11.192 -34.964  1.00  0.00     0.123 C 
BRANCH   8   9
HETATM    9  C6  UNL     1      29.518  10.959 -33.938  1.00  0.00     0.020 C 
BRANCH   9  10
HETATM   10  C7  UNL     1      28.152  10.967 -34.532  1.00  0.00     0.008 C 
BRANCH  10  11
HETATM   11  C8  UNL     1      27.932  10.062 -35.689  1.00  0.00     0.058 C 
BRANCH  11  12
HETATM   12  C9  UNL     1      28.146   8.626 -35.321  1.00  0.00     0.025 A 
HETATM   13  C10 UNL     1      28.884   7.653 -35.945  1.00  0.00     0.113 A 
HETATM   14  N2  UNL     1      28.800   6.481 -35.266  1.00  0.00    -0.360 N 
HETATM   15  C11 UNL     1      28.009   6.725 -34.218  1.00  0.00     0.180 A 
ATOM     16  H2  UNL     1      29.247   5.596 -35.506  1.00  0.00     0.166 HD
HETATM   17  N3  UNL     1      27.602   8.011 -34.229  1.00  0.00    -0.355 N 
ATOM     18  H3  UNL     1      26.992   8.451 -33.539  1.00  0.00     0.166 HD
ENDBRANCH  11  12
ENDBRANCH  10  11
ENDBRANCH   9  10
ENDBRANCH   8   9
ENDBRANCH   4   8
BRANCH   1  19
HETATM   19  C1  UNL     1      32.704   6.674 -36.356  1.00  0.00     0.202 C 
BRANCH  19  20
HETATM   20  O1  UNL     1      31.977   5.988 -35.356  1.00  0.00    -0.398 OA
ATOM     21  H1  UNL     1      31.253   5.598 -35.831  1.00  0.00     0.209 HD
ENDBRANCH  19  20
ENDBRANCH   1  19
BRANCH   1  22
HETATM   22  O2  UNL     1      34.670   7.517 -35.447  1.00  0.00    -0.387 OA
ATOM     23  H2  UNL     1      35.132   8.076 -36.060  1.00  0.00     0.210 HD
ENDBRANCH   1  22
TORSDOF 8
ENDMDL
