MODEL 1
REMARK VINA RESULT: -6.510879222      0.000      0.000
REMARK  7 active torsions:
REMARK  status: ('A' for Active; 'I' for Inactive)
REMARK    1  A    between atoms: C4_8  and  N3_9 
REMARK    2  A    between atoms: N3_9  and  C5_11 
REMARK    3  A    between atoms: C5_11  and  C6_12 
REMARK    4  A    between atoms: C6_12  and  N4_13 
REMARK    5  A    between atoms: N4_13  and  C7_15 
REMARK    6  A    between atoms: C7_15  and  C8_16 
REMARK    7  A    between atoms: C8_16  and  N5_17 
ROOT
HETATM    1  N3  UNL     1      28.500   5.679 -36.796  1.00  0.00    -0.224 N 
ATOM      2  H3  UNL     1      27.929   4.873 -36.541  1.00  0.00     0.177 HD
ENDROOT
BRANCH   1   3
HETATM    3  C4  UNL     1      28.480   6.751 -36.056  1.00  0.00     0.680 A 
HETATM    4  N2  UNL     1      29.086   6.813 -34.824  1.00  0.00    -0.174 N 
HETATM    5  C3  UNL     1      28.891   8.034 -34.317  1.00  0.00     0.148 A 
ATOM      6  H2  UNL     1      29.599   6.054 -34.373  1.00  0.00     0.186 HD
HETATM    7  N1  UNL     1      29.258   8.628 -33.169  1.00  0.00    -0.350 N 
HETATM    8  C14 UNL     1      28.148   8.777 -35.234  1.00  0.00     0.093 A 
HETATM    9  C2  UNL     1      28.942   9.911 -32.863  1.00  0.00     0.090 A 
ATOM     10  H1  UNL     1      29.801   8.088 -32.494  1.00  0.00     0.166 HD
HETATM   11  C1  UNL     1      28.207  10.656 -33.761  1.00  0.00     0.019 A 
HETATM   12  C15 UNL     1      27.814  10.079 -34.947  1.00  0.00     0.035 A 
HETATM   13  N6  UNL     1      27.930   7.948 -36.263  1.00  0.00    -0.188 N 
ATOM     14  H6  UNL     1      27.407   8.200 -37.101  1.00  0.00     0.184 HD
ENDBRANCH   1   3
BRANCH   1  15
HETATM   15  C5  UNL     1      29.317   5.631 -37.959  1.00  0.00     0.157 C 
BRANCH  15  16
HETATM   16  C6  UNL     1      30.153   4.367 -38.114  1.00  0.00     0.139 C 
BRANCH  16  17
HETATM   17  N4  UNL     1      31.468   4.726 -37.596  1.00  0.00    -0.396 N 
ATOM     18  H4  UNL     1      32.072   4.031 -37.156  1.00  0.00     0.158 HD
BRANCH  17  19
HETATM   19  C7  UNL     1      31.871   6.065 -37.726  1.00  0.00     0.094 C 
BRANCH  19  20
HETATM   20  C8  UNL     1      32.348   6.842 -36.555  1.00  0.00     0.076 C 
BRANCH  20  21
HETATM   21  N5  UNL     1      31.791   8.101 -36.279  1.00  0.00    -0.291 NA
HETATM   22  C9  UNL     1      32.776   8.867 -35.521  1.00  0.00     0.095 C 
HETATM   23  C10 UNL     1      32.081  10.063 -34.855  1.00  0.00     0.015 C 
HETATM   24  C11 UNL     1      31.515  10.968 -35.921  1.00  0.00     0.002 C 
HETATM   25  C12 UNL     1      31.794  10.355 -37.265  1.00  0.00     0.015 C 
HETATM   26  C13 UNL     1      31.254   8.916 -37.275  1.00  0.00     0.095 C 
ENDBRANCH  20  21
ENDBRANCH  19  20
ENDBRANCH  17  19
ENDBRANCH  16  17
ENDBRANCH  15  16
ENDBRANCH   1  15
TORSDOF 7
ENDMDL
MODEL 2
REMARK VINA RESULT: -6.502393805      1.518      1.955
REMARK  7 active torsions:
REMARK  status: ('A' for Active; 'I' for Inactive)
REMARK    1  A    between atoms: C4_8  and  N3_9 
REMARK    2  A    between atoms: N3_9  and  C5_11 
REMARK    3  A    between atoms: C5_11  and  C6_12 
REMARK    4  A    between atoms: C6_12  and  N4_13 
REMARK    5  A    between atoms: N4_13  and  C7_15 
REMARK    6  A    between atoms: C7_15  and  C8_16 
REMARK    7  A    between atoms: C8_16  and  N5_17 
ROOT
HETATM    1  N3  UNL     1      28.468   5.742 -36.237  1.00  0.00    -0.224 N 
ATOM      2  H3  UNL     1      28.301   4.918 -35.658  1.00  0.00     0.177 HD
ENDROOT
BRANCH   1   3
HETATM    3  C4  UNL     1      28.435   6.930 -35.704  1.00  0.00     0.680 A 
HETATM    4  N2  UNL     1      28.619   7.144 -34.359  1.00  0.00    -0.174 N 
HETATM    5  C3  UNL     1      28.527   8.457 -34.123  1.00  0.00     0.148 A 
ATOM      6  H2  UNL     1      28.796   6.423 -33.659  1.00  0.00     0.186 HD
HETATM    7  N1  UNL     1      28.625   9.205 -33.011  1.00  0.00    -0.350 N 
HETATM    8  C14 UNL     1      28.280   9.105 -35.333  1.00  0.00     0.093 A 
HETATM    9  C2  UNL     1      28.497  10.555 -33.012  1.00  0.00     0.090 A 
ATOM     10  H1  UNL     1      28.805   8.736 -32.123  1.00  0.00     0.166 HD
HETATM   11  C1  UNL     1      28.253  11.208 -34.202  1.00  0.00     0.019 A 
HETATM   12  C15 UNL     1      28.145  10.473 -35.360  1.00  0.00     0.035 A 
HETATM   13  N6  UNL     1      28.234   8.129 -36.250  1.00  0.00    -0.188 N 
ATOM     14  H6  UNL     1      28.067   8.285 -37.243  1.00  0.00     0.184 HD
ENDBRANCH   1   3
BRANCH   1  15
HETATM   15  C5  UNL     1      28.736   5.591 -37.626  1.00  0.00     0.157 C 
BRANCH  15  16
HETATM   16  C6  UNL     1      30.210   5.488 -37.995  1.00  0.00     0.139 C 
BRANCH  16  17
HETATM   17  N4  UNL     1      30.485   6.696 -38.765  1.00  0.00    -0.396 N 
ATOM     18  H4  UNL     1      30.112   6.820 -39.706  1.00  0.00     0.158 HD
BRANCH  17  19
HETATM   19  C7  UNL     1      31.282   7.682 -38.159  1.00  0.00     0.094 C 
BRANCH  19  20
HETATM   20  C8  UNL     1      32.695   7.411 -37.797  1.00  0.00     0.076 C 
BRANCH  20  21
HETATM   21  N5  UNL     1      33.032   7.132 -36.462  1.00  0.00    -0.291 NA
HETATM   22  C9  UNL     1      34.021   8.118 -36.037  1.00  0.00     0.095 C 
HETATM   23  C10 UNL     1      34.710   7.621 -34.758  1.00  0.00     0.015 C 
HETATM   24  C11 UNL     1      33.686   7.490 -33.657  1.00  0.00     0.002 C 
HETATM   25  C12 UNL     1      32.338   7.853 -34.215  1.00  0.00     0.015 C 
HETATM   26  C13 UNL     1      32.070   6.995 -35.461  1.00  0.00     0.095 C 
ENDBRANCH  20  21
ENDBRANCH  19  20
ENDBRANCH  17  19
ENDBRANCH  16  17
ENDBRANCH  15  16
ENDBRANCH   1  15
TORSDOF 7
ENDMDL
MODEL 3
REMARK VINA RESULT: -6.443820650      0.934      1.404
REMARK  7 active torsions:
REMARK  status: ('A' for Active; 'I' for Inactive)
REMARK    1  A    between atoms: C4_8  and  N3_9 
REMARK    2  A    between atoms: N3_9  and  C5_11 
REMARK    3  A    between atoms: C5_11  and  C6_12 
REMARK    4  A    between atoms: C6_12  and  N4_13 
REMARK    5  A    between atoms: N4_13  and  C7_15 
REMARK    6  A    between atoms: C7_15  and  C8_16 
REMARK    7  A    between atoms: C8_16  and  N5_17 
ROOT
HETATM    1  N3  UNL     1      28.457   5.729 -36.525  1.00  0.00    -0.224 N 
ATOM      2  H3  UNL     1      27.828   4.964 -36.283  1.00  0.00     0.177 HD
ENDROOT
BRANCH   1   3
HETATM    3  C4  UNL     1      28.400   6.853 -35.868  1.00  0.00     0.680 A 
HETATM    4  N2  UNL     1      28.908   6.996 -34.600  1.00  0.00    -0.174 N 
HETATM    5  C3  UNL     1      28.696   8.255 -34.199  1.00  0.00     0.148 A 
ATOM      6  H2  UNL     1      29.368   6.267 -34.056  1.00  0.00     0.186 HD
HETATM    7  N1  UNL     1      28.983   8.926 -33.070  1.00  0.00    -0.350 N 
HETATM    8  C14 UNL     1      28.042   8.938 -35.223  1.00  0.00     0.093 A 
HETATM    9  C2  UNL     1      28.668  10.231 -32.884  1.00  0.00     0.090 A 
ATOM     10  H1  UNL     1      29.460   8.429 -32.317  1.00  0.00     0.166 HD
HETATM   11  C1  UNL     1      28.021  10.918 -33.890  1.00  0.00     0.019 A 
HETATM   12  C15 UNL     1      27.712  10.262 -35.058  1.00  0.00     0.035 A 
HETATM   13  N6  UNL     1      27.891   8.038 -36.204  1.00  0.00    -0.188 N 
ATOM     14  H6  UNL     1      27.441   8.236 -37.098  1.00  0.00     0.184 HD
ENDBRANCH   1   3
BRANCH   1  15
HETATM   15  C5  UNL     1      29.398   5.568 -37.580  1.00  0.00     0.157 C 
BRANCH  15  16
HETATM   16  C6  UNL     1      30.541   6.576 -37.591  1.00  0.00     0.139 C 
BRANCH  16  17
HETATM   17  N4  UNL     1      31.581   5.965 -36.773  1.00  0.00    -0.396 N 
ATOM     18  H4  UNL     1      31.852   4.990 -36.900  1.00  0.00     0.158 HD
BRANCH  17  19
HETATM   19  C7  UNL     1      32.198   6.772 -35.802  1.00  0.00     0.094 C 
BRANCH  19  20
HETATM   20  C8  UNL     1      33.317   7.681 -36.156  1.00  0.00     0.076 C 
BRANCH  20  21
HETATM   21  N5  UNL     1      33.225   9.050 -35.856  1.00  0.00    -0.291 NA
HETATM   22  C9  UNL     1      32.873   9.752 -37.087  1.00  0.00     0.095 C 
HETATM   23  C10 UNL     1      33.160  11.250 -36.911  1.00  0.00     0.015 C 
HETATM   24  C11 UNL     1      32.294  11.798 -35.803  1.00  0.00     0.002 C 
HETATM   25  C12 UNL     1      31.483  10.669 -35.229  1.00  0.00     0.015 C 
HETATM   26  C13 UNL     1      32.435   9.536 -34.816  1.00  0.00     0.095 C 
ENDBRANCH  20  21
ENDBRANCH  19  20
ENDBRANCH  17  19
ENDBRANCH  16  17
ENDBRANCH  15  16
ENDBRANCH   1  15
TORSDOF 7
ENDMDL
MODEL 4
REMARK VINA RESULT: -6.438482106      1.221      1.999
REMARK  7 active torsions:
REMARK  status: ('A' for Active; 'I' for Inactive)
REMARK    1  A    between atoms: C4_8  and  N3_9 
REMARK    2  A    between atoms: N3_9  and  C5_11 
REMARK    3  A    between atoms: C5_11  and  C6_12 
REMARK    4  A    between atoms: C6_12  and  N4_13 
REMARK    5  A    between atoms: N4_13  and  C7_15 
REMARK    6  A    between atoms: C7_15  and  C8_16 
REMARK    7  A    between atoms: C8_16  and  N5_17 
ROOT
HETATM    1  N3  UNL     1      28.554   5.693 -37.049  1.00  0.00    -0.224 N 
ATOM      2  H3  UNL     1      27.672   5.230 -37.266  1.00  0.00     0.177 HD
ENDROOT
BRANCH   1   3
HETATM    3  C4  UNL     1      28.587   6.650 -36.165  1.00  0.00     0.680 A 
HETATM    4  N2  UNL     1      27.665   7.668 -36.140  1.00  0.00    -0.174 N 
HETATM    5  C3  UNL     1      27.965   8.487 -35.127  1.00  0.00     0.148 A 
ATOM      6  H2  UNL     1      26.883   7.780 -36.786  1.00  0.00     0.186 HD
HETATM    7  N1  UNL     1      27.408   9.615 -34.653  1.00  0.00    -0.350 N 
HETATM    8  C14 UNL     1      29.099   7.992 -34.483  1.00  0.00     0.093 A 
HETATM    9  C2  UNL     1      27.896  10.290 -33.583  1.00  0.00     0.090 A 
ATOM     10  H1  UNL     1      26.579   9.981 -35.122  1.00  0.00     0.166 HD
HETATM   11  C1  UNL     1      29.017   9.810 -32.938  1.00  0.00     0.019 A 
HETATM   12  C15 UNL     1      29.613   8.659 -33.397  1.00  0.00     0.035 A 
HETATM   13  N6  UNL     1      29.428   6.882 -35.157  1.00  0.00    -0.188 N 
ATOM     14  H6  UNL     1      30.224   6.288 -34.927  1.00  0.00     0.184 HD
ENDBRANCH   1   3
BRANCH   1  15
HETATM   15  C5  UNL     1      29.747   5.294 -37.711  1.00  0.00     0.157 C 
BRANCH  15  16
HETATM   16  C6  UNL     1      29.741   5.471 -39.225  1.00  0.00     0.139 C 
BRANCH  16  17
HETATM   17  N4  UNL     1      30.300   6.799 -39.446  1.00  0.00    -0.396 N 
ATOM     18  H4  UNL     1      29.918   7.422 -40.157  1.00  0.00     0.158 HD
BRANCH  17  19
HETATM   19  C7  UNL     1      31.383   7.187 -38.641  1.00  0.00     0.094 C 
BRANCH  19  20
HETATM   20  C8  UNL     1      31.394   8.499 -37.947  1.00  0.00     0.076 C 
BRANCH  20  21
HETATM   21  N5  UNL     1      31.738   8.567 -36.588  1.00  0.00    -0.291 NA
HETATM   22  C9  UNL     1      32.814   7.608 -36.352  1.00  0.00     0.095 C 
HETATM   23  C10 UNL     1      32.939   7.351 -34.843  1.00  0.00     0.015 C 
HETATM   24  C11 UNL     1      33.308   8.638 -34.147  1.00  0.00     0.002 C 
HETATM   25  C12 UNL     1      33.380   9.733 -35.175  1.00  0.00     0.015 C 
HETATM   26  C13 UNL     1      32.057   9.768 -35.956  1.00  0.00     0.095 C 
ENDBRANCH  20  21
ENDBRANCH  19  20
ENDBRANCH  17  19
ENDBRANCH  16  17
ENDBRANCH  15  16
ENDBRANCH   1  15
TORSDOF 7
ENDMDL
MODEL 5
REMARK VINA RESULT: -6.433878366      1.027      1.508
REMARK  7 active torsions:
REMARK  status: ('A' for Active; 'I' for Inactive)
REMARK    1  A    between atoms: C4_8  and  N3_9 
REMARK    2  A    between atoms: N3_9  and  C5_11 
REMARK    3  A    between atoms: C5_11  and  C6_12 
REMARK    4  A    between atoms: C6_12  and  N4_13 
REMARK    5  A    between atoms: N4_13  and  C7_15 
REMARK    6  A    between atoms: C7_15  and  C8_16 
REMARK    7  A    between atoms: C8_16  and  N5_17 
ROOT
HETATM    1  N3  UNL     1      28.508   5.616 -36.428  1.00  0.00    -0.224 N 
ATOM      2  H3  UNL     1      28.234   4.772 -35.926  1.00  0.00     0.177 HD
ENDROOT
BRANCH   1   3
HETATM    3  C4  UNL     1      28.447   6.775 -35.837  1.00  0.00     0.680 A 
HETATM    4  N2  UNL     1      28.887   6.974 -34.551  1.00  0.00    -0.174 N 
HETATM    5  C3  UNL     1      28.690   8.258 -34.230  1.00  0.00     0.148 A 
ATOM      6  H2  UNL     1      29.296   6.264 -33.943  1.00  0.00     0.186 HD
HETATM    7  N1  UNL     1      28.933   8.982 -33.124  1.00  0.00    -0.350 N 
HETATM    8  C14 UNL     1      28.114   8.901 -35.325  1.00  0.00     0.093 A 
HETATM    9  C2  UNL     1      28.646  10.304 -33.026  1.00  0.00     0.090 A 
ATOM     10  H1  UNL     1      29.354   8.516 -32.320  1.00  0.00     0.166 HD
HETATM   11  C1  UNL     1      28.076  10.951 -34.102  1.00  0.00     0.019 A 
HETATM   12  C15 UNL     1      27.813  10.240 -35.250  1.00  0.00     0.035 A 
HETATM   13  N6  UNL     1      27.991   7.953 -36.264  1.00  0.00    -0.188 N 
ATOM     14  H6  UNL     1      27.597   8.113 -37.190  1.00  0.00     0.184 HD
ENDBRANCH   1   3
BRANCH   1  15
HETATM   15  C5  UNL     1      28.956   5.526 -37.775  1.00  0.00     0.157 C 
BRANCH  15  16
HETATM   16  C6  UNL     1      30.435   5.825 -37.989  1.00  0.00     0.139 C 
BRANCH  16  17
HETATM   17  N4  UNL     1      30.455   7.057 -38.767  1.00  0.00    -0.396 N 
ATOM     18  H4  UNL     1      29.967   7.128 -39.660  1.00  0.00     0.158 HD
BRANCH  17  19
HETATM   19  C7  UNL     1      31.174   8.144 -38.241  1.00  0.00     0.094 C 
BRANCH  19  20
HETATM   20  C8  UNL     1      31.759   8.090 -36.879  1.00  0.00     0.076 C 
BRANCH  20  21
HETATM   21  N5  UNL     1      32.344   9.241 -36.325  1.00  0.00    -0.291 NA
HETATM   22  C9  UNL     1      32.249  10.309 -37.315  1.00  0.00     0.095 C 
HETATM   23  C10 UNL     1      33.215  11.439 -36.932  1.00  0.00     0.015 C 
HETATM   24  C11 UNL     1      32.809  12.011 -35.596  1.00  0.00     0.002 C 
HETATM   25  C12 UNL     1      31.622  11.241 -35.088  1.00  0.00     0.015 C 
HETATM   26  C13 UNL     1      31.970   9.744 -35.079  1.00  0.00     0.095 C 
ENDBRANCH  20  21
ENDBRANCH  19  20
ENDBRANCH  17  19
ENDBRANCH  16  17
ENDBRANCH  15  16
ENDBRANCH   1  15
TORSDOF 7
ENDMDL
