MODEL 1
REMARK VINA RESULT: -8.179473528      0.000      0.000
REMARK  12 active torsions:
REMARK  status: ('A' for Active; 'I' for Inactive)
REMARK    1  A    between atoms: C3_5  and  C4_6 
REMARK    2  A    between atoms: C4_6  and  O2_7 
REMARK    3  A    between atoms: C4_6  and  C5_9 
REMARK    4  A    between atoms: C6_14  and  S1_15 
REMARK    5  A    between atoms: S1_15  and  C7_16 
REMARK    6  A    between atoms: C8_19  and  N5_20 
REMARK    7  A    between atoms: C10_27  and  O4_28 
REMARK    8  A    between atoms: N7_30  and  N8_31 
REMARK    9  A    between atoms: N10_36  and  C11_37 
REMARK   10  A    between atoms: C11_37  and  O5_38 
REMARK   11  A    between atoms: C11_37  and  C12_40 
REMARK   12  A    between atoms: C12_40  and  N11_41 
ROOT
HETATM    1  C5  UNL     1       0.995 -40.178  -0.523  1.00  0.00     0.155 A 
HETATM    2  N2  UNL     1      -0.302 -40.445  -0.299  1.00  0.00    -0.283 N 
ATOM      3  H2  UNL     1      -0.654 -41.214   0.272  1.00  0.00     0.188 HD
HETATM    4  N3  UNL     1      -1.057 -39.554  -0.934  1.00  0.00    -0.277 N 
ATOM      5  H3  UNL     1      -2.076 -39.528  -0.931  1.00  0.00     0.189 HD
HETATM    6  C6  UNL     1      -0.262 -38.702  -1.575  1.00  0.00     0.188 A 
HETATM    7  N7  UNL     1       0.999 -39.082  -1.326  1.00  0.00    -0.222 N 
ENDROOT
BRANCH   1   8
HETATM    8  C4  UNL     1       2.203 -40.897  -0.024  1.00  0.00     0.245 C 
BRANCH   8   9
HETATM    9  C3  UNL     1       1.891 -41.687   1.169  1.00  0.00     0.133 A 
HETATM   10  C2  UNL     1       2.251 -42.998   1.374  1.00  0.00     0.290 A 
HETATM   11  N1  UNL     1       1.780 -43.354   2.579  1.00  0.00    -0.241 N 
HETATM   12  O1  UNL     1       2.913 -43.725   0.557  1.00  0.00    -0.264 OA
HETATM   13  C1  UNL     1       1.970 -44.690   3.147  1.00  0.00     0.183 C 
HETATM   14  N10 UNL     1       1.152 -42.353   3.131  1.00  0.00    -0.197 N 
HETATM   15  N9  UNL     1       1.214 -41.321   2.275  1.00  0.00    -0.277 N 
ATOM     16  H9  UNL     1       0.809 -40.398   2.437  1.00  0.00     0.189 HD
BRANCH  14  17
HETATM   17  C11 UNL     1       0.495 -42.314   4.426  1.00  0.00     0.285 C 
BRANCH  17  18
HETATM   18  O5  UNL     1       0.257 -41.020   4.872  1.00  0.00    -0.372 OA
ATOM     19  H5  UNL     1      -0.422 -40.977   5.534  1.00  0.00     0.212 HD
ENDBRANCH  17  18
BRANCH  17  20
HETATM   20  C12 UNL     1      -0.787 -43.121   4.432  1.00  0.00     0.286 C 
BRANCH  20  21
HETATM   21  N11 UNL     1      -0.736 -44.088   5.506  1.00  0.00    -0.075 N 
ATOM     22 3H11 UNL     1      -0.363 -44.986   5.201  1.00  0.00     0.274 HD
ATOM     23 2H11 UNL     1      -0.022 -43.861   6.197  1.00  0.00     0.274 HD
ATOM     24 1H11 UNL     1      -1.663 -44.176   5.923  1.00  0.00     0.274 HD
ENDBRANCH  20  21
ENDBRANCH  17  20
ENDBRANCH  14  17
ENDBRANCH   8   9
BRANCH   8  25
HETATM   25  O2  UNL     1       3.220 -39.958   0.272  1.00  0.00    -0.381 OA
ATOM     26  H2  UNL     1       3.214 -39.260  -0.371  1.00  0.00     0.211 HD
ENDBRANCH   8  25
ENDBRANCH   1   8
BRANCH   7  27
HETATM   27  N8  UNL     1       2.115 -38.429  -1.827  1.00  0.00    -0.335 N 
ATOM     28  H82 UNL     1       2.915 -38.155  -1.258  1.00  0.00     0.177 HD
ATOM     29  H81 UNL     1       2.271 -38.150  -2.796  1.00  0.00     0.177 HD
ENDBRANCH   7  27
BRANCH   6  30
HETATM   30  S1  UNL     1      -0.889 -37.343  -2.555  1.00  0.00    -0.029 SA
BRANCH  30  31
HETATM   31  C7  UNL     1      -0.514 -37.508  -4.274  1.00  0.00     0.132 A 
HETATM   32  N4  UNL     1      -1.278 -38.205  -5.132  1.00  0.00    -0.182 N 
HETATM   33  C8  UNL     1      -0.955 -38.306  -6.443  1.00  0.00     0.679 A 
ATOM     34  H4  UNL     1      -2.120 -38.668  -4.788  1.00  0.00     0.185 HD
HETATM   35  N6  UNL     1       0.129 -37.726  -6.954  1.00  0.00    -0.154 N 
HETATM   36  C9  UNL     1       0.928 -37.019  -6.145  1.00  0.00     0.295 A 
ATOM     37  H6  UNL     1       0.348 -37.818  -7.946  1.00  0.00     0.187 HD
HETATM   38  O3  UNL     1       1.958 -36.469  -6.632  1.00  0.00    -0.264 OA
HETATM   39  C10 UNL     1       0.612 -36.900  -4.784  1.00  0.00     0.169 A 
BRANCH  33  40
HETATM   40  N5  UNL     1      -1.715 -38.986  -7.245  1.00  0.00    -0.234 N 
ATOM     41  H52 UNL     1      -2.225 -39.781  -6.859  1.00  0.00     0.174 HD
ATOM     42  H51 UNL     1      -1.785 -38.719  -8.227  1.00  0.00     0.174 HD
ENDBRANCH  33  40
BRANCH  39  43
HETATM   43  O4  UNL     1       1.497 -36.149  -4.023  1.00  0.00    -0.354 OA
ATOM     44  H4  UNL     1       2.118 -35.531  -4.390  1.00  0.00     0.218 HD
ENDBRANCH  39  43
ENDBRANCH  30  31
ENDBRANCH   6  30
TORSDOF 12
ENDMDL
MODEL 2
REMARK VINA RESULT: -8.150187218      1.898      3.423
REMARK  12 active torsions:
REMARK  status: ('A' for Active; 'I' for Inactive)
REMARK    1  A    between atoms: C3_5  and  C4_6 
REMARK    2  A    between atoms: C4_6  and  O2_7 
REMARK    3  A    between atoms: C4_6  and  C5_9 
REMARK    4  A    between atoms: C6_14  and  S1_15 
REMARK    5  A    between atoms: S1_15  and  C7_16 
REMARK    6  A    between atoms: C8_19  and  N5_20 
REMARK    7  A    between atoms: C10_27  and  O4_28 
REMARK    8  A    between atoms: N7_30  and  N8_31 
REMARK    9  A    between atoms: N10_36  and  C11_37 
REMARK   10  A    between atoms: C11_37  and  O5_38 
REMARK   11  A    between atoms: C11_37  and  C12_40 
REMARK   12  A    between atoms: C12_40  and  N11_41 
ROOT
HETATM    1  C5  UNL     1       0.788 -38.572   0.939  1.00  0.00     0.155 A 
HETATM    2  N2  UNL     1       1.638 -37.714   0.353  1.00  0.00    -0.283 N 
ATOM      3  H2  UNL     1       2.605 -37.558   0.637  1.00  0.00     0.188 HD
HETATM    4  N3  UNL     1       1.027 -37.100  -0.655  1.00  0.00    -0.277 N 
ATOM      5  H3  UNL     1       1.446 -36.399  -1.266  1.00  0.00     0.189 HD
HETATM    6  C6  UNL     1      -0.222 -37.550  -0.735  1.00  0.00     0.188 A 
HETATM    7  N7  UNL     1      -0.373 -38.454   0.242  1.00  0.00    -0.222 N 
ENDROOT
BRANCH   1   8
HETATM    8  C4  UNL     1       1.017 -39.478   2.101  1.00  0.00     0.245 C 
BRANCH   8   9
HETATM    9  C3  UNL     1       1.426 -40.812   1.657  1.00  0.00     0.133 A 
HETATM   10  C2  UNL     1       1.231 -41.980   2.357  1.00  0.00     0.290 A 
HETATM   11  N1  UNL     1       1.744 -42.974   1.616  1.00  0.00    -0.241 N 
HETATM   12  O1  UNL     1       0.665 -42.079   3.498  1.00  0.00    -0.264 OA
HETATM   13  C1  UNL     1       1.722 -44.377   2.038  1.00  0.00     0.183 C 
HETATM   14  N10 UNL     1       2.243 -42.501   0.508  1.00  0.00    -0.197 N 
HETATM   15  N9  UNL     1       2.053 -41.172   0.520  1.00  0.00    -0.277 N 
ATOM     16  H9  UNL     1       2.339 -40.531  -0.221  1.00  0.00     0.189 HD
BRANCH  14  17
HETATM   17  C11 UNL     1       2.891 -43.233  -0.567  1.00  0.00     0.285 C 
BRANCH  17  18
HETATM   18  O5  UNL     1       2.574 -42.738  -1.825  1.00  0.00    -0.372 OA
ATOM     19  H5  UNL     1       1.677 -42.920  -2.078  1.00  0.00     0.212 HD
ENDBRANCH  17  18
BRANCH  17  20
HETATM   20  C12 UNL     1       4.393 -43.292  -0.383  1.00  0.00     0.286 C 
BRANCH  20  21
HETATM   21  N11 UNL     1       5.033 -42.558  -1.452  1.00  0.00    -0.075 N 
ATOM     22 3H11 UNL     1       5.827 -43.063  -1.847  1.00  0.00     0.274 HD
ATOM     23 2H11 UNL     1       4.457 -42.515  -2.291  1.00  0.00     0.274 HD
ATOM     24 1H11 UNL     1       5.295 -41.632  -1.114  1.00  0.00     0.274 HD
ENDBRANCH  20  21
ENDBRANCH  17  20
ENDBRANCH  14  17
ENDBRANCH   8   9
BRANCH   8  25
HETATM   25  O2  UNL     1      -0.168 -39.568   2.870  1.00  0.00    -0.381 OA
ATOM     26  H2  UNL     1       0.004 -39.293   3.762  1.00  0.00     0.211 HD
ENDBRANCH   8  25
ENDBRANCH   1   8
BRANCH   7  27
HETATM   27  N8  UNL     1      -1.552 -39.146   0.477  1.00  0.00    -0.335 N 
ATOM     28  H82 UNL     1      -1.714 -39.727   1.300  1.00  0.00     0.177 HD
ATOM     29  H81 UNL     1      -2.377 -39.162  -0.122  1.00  0.00     0.177 HD
ENDBRANCH   7  27
BRANCH   6  30
HETATM   30  S1  UNL     1      -1.383 -36.972  -1.967  1.00  0.00    -0.029 SA
BRANCH  30  31
HETATM   31  C7  UNL     1      -0.919 -37.423  -3.611  1.00  0.00     0.132 A 
HETATM   32  N4  UNL     1      -1.646 -38.248  -4.383  1.00  0.00    -0.182 N 
HETATM   33  C8  UNL     1      -1.254 -38.568  -5.639  1.00  0.00     0.679 A 
ATOM     34  H4  UNL     1      -2.513 -38.642  -4.015  1.00  0.00     0.185 HD
HETATM   35  N6  UNL     1      -0.135 -38.089  -6.177  1.00  0.00    -0.154 N 
HETATM   36  C9  UNL     1       0.630 -37.263  -5.454  1.00  0.00     0.295 A 
ATOM     37  H6  UNL     1       0.135 -38.347  -7.126  1.00  0.00     0.187 HD
HETATM   38  O3  UNL     1       1.694 -36.808  -5.966  1.00  0.00    -0.264 OA
HETATM   39  C10 UNL     1       0.243 -36.917  -4.151  1.00  0.00     0.169 A 
BRANCH  33  40
HETATM   40  N5  UNL     1      -1.980 -39.368  -6.358  1.00  0.00    -0.234 N 
ATOM     41  H52 UNL     1      -1.574 -40.261  -6.637  1.00  0.00     0.174 HD
ATOM     42  H51 UNL     1      -2.926 -39.092  -6.627  1.00  0.00     0.174 HD
ENDBRANCH  33  40
BRANCH  39  43
HETATM   43  O4  UNL     1       1.097 -36.055  -3.477  1.00  0.00    -0.354 OA
ATOM     44  H4  UNL     1       1.790 -36.345  -2.894  1.00  0.00     0.218 HD
ENDBRANCH  39  43
ENDBRANCH  30  31
ENDBRANCH   6  30
TORSDOF 12
ENDMDL
MODEL 3
REMARK VINA RESULT: -8.059254645      3.533      4.616
REMARK  12 active torsions:
REMARK  status: ('A' for Active; 'I' for Inactive)
REMARK    1  A    between atoms: C3_5  and  C4_6 
REMARK    2  A    between atoms: C4_6  and  O2_7 
REMARK    3  A    between atoms: C4_6  and  C5_9 
REMARK    4  A    between atoms: C6_14  and  S1_15 
REMARK    5  A    between atoms: S1_15  and  C7_16 
REMARK    6  A    between atoms: C8_19  and  N5_20 
REMARK    7  A    between atoms: C10_27  and  O4_28 
REMARK    8  A    between atoms: N7_30  and  N8_31 
REMARK    9  A    between atoms: N10_36  and  C11_37 
REMARK   10  A    between atoms: C11_37  and  O5_38 
REMARK   11  A    between atoms: C11_37  and  C12_40 
REMARK   12  A    between atoms: C12_40  and  N11_41 
ROOT
HETATM    1  C5  UNL     1       0.449 -37.893  -2.195  1.00  0.00     0.155 A 
HETATM    2  N2  UNL     1      -0.872 -38.106  -2.085  1.00  0.00    -0.283 N 
ATOM      3  H2  UNL     1      -1.338 -38.501  -1.269  1.00  0.00     0.188 HD
HETATM    4  N3  UNL     1      -1.479 -37.724  -3.205  1.00  0.00    -0.277 N 
ATOM      5  H3  UNL     1      -2.481 -37.778  -3.386  1.00  0.00     0.189 HD
HETATM    6  C6  UNL     1      -0.563 -37.260  -4.050  1.00  0.00     0.188 A 
HETATM    7  N7  UNL     1       0.622 -37.362  -3.434  1.00  0.00    -0.222 N 
ENDROOT
BRANCH   1   8
HETATM    8  C4  UNL     1       1.531 -38.162  -1.204  1.00  0.00     0.245 C 
BRANCH   8   9
HETATM    9  C3  UNL     1       2.188 -39.442  -1.476  1.00  0.00     0.133 A 
HETATM   10  C2  UNL     1       1.654 -40.683  -1.218  1.00  0.00     0.290 A 
HETATM   11  N1  UNL     1       2.561 -41.593  -1.607  1.00  0.00    -0.241 N 
HETATM   12  O1  UNL     1       0.505 -40.908  -0.703  1.00  0.00    -0.264 OA
HETATM   13  C1  UNL     1       2.345 -43.036  -1.489  1.00  0.00     0.183 C 
HETATM   14  N10 UNL     1       3.618 -40.998  -2.086  1.00  0.00    -0.197 N 
HETATM   15  N9  UNL     1       3.401 -39.676  -2.013  1.00  0.00    -0.277 N 
ATOM     16  H9  UNL     1       4.057 -38.956  -2.318  1.00  0.00     0.189 HD
BRANCH  14  17
HETATM   17  C11 UNL     1       4.826 -41.609  -2.613  1.00  0.00     0.285 C 
BRANCH  17  18
HETATM   18  O5  UNL     1       5.318 -40.954  -3.734  1.00  0.00    -0.372 OA
ATOM     19  H5  UNL     1       5.259 -41.478  -4.524  1.00  0.00     0.212 HD
ENDBRANCH  17  18
BRANCH  17  20
HETATM   20  C12 UNL     1       5.903 -41.732  -1.555  1.00  0.00     0.286 C 
BRANCH  20  21
HETATM   21  N11 UNL     1       5.630 -42.887  -0.729  1.00  0.00    -0.075 N 
ATOM     22 3H11 UNL     1       5.643 -43.757  -1.263  1.00  0.00     0.274 HD
ATOM     23 2H11 UNL     1       6.399 -43.097  -0.093  1.00  0.00     0.274 HD
ATOM     24 1H11 UNL     1       4.747 -42.749  -0.237  1.00  0.00     0.274 HD
ENDBRANCH  20  21
ENDBRANCH  17  20
ENDBRANCH  14  17
ENDBRANCH   8   9
BRANCH   8  25
HETATM   25  O2  UNL     1       0.983 -38.170   0.101  1.00  0.00    -0.381 OA
ATOM     26  H2  UNL     1       0.966 -37.286   0.449  1.00  0.00     0.211 HD
ENDBRANCH   8  25
ENDBRANCH   1   8
BRANCH   7  27
HETATM   27  N8  UNL     1       1.825 -36.973  -4.006  1.00  0.00    -0.335 N 
ATOM     28  H82 UNL     1       2.185 -36.019  -3.976  1.00  0.00     0.177 HD
ATOM     29  H81 UNL     1       2.479 -37.571  -4.510  1.00  0.00     0.177 HD
ENDBRANCH   7  27
BRANCH   6  30
HETATM   30  S1  UNL     1      -0.973 -36.642  -5.678  1.00  0.00    -0.029 SA
BRANCH  30  31
HETATM   31  C7  UNL     1      -0.190 -37.555  -6.974  1.00  0.00     0.132 A 
HETATM   32  N4  UNL     1      -0.714 -38.668  -7.512  1.00  0.00    -0.182 N 
HETATM   33  C8  UNL     1      -0.081 -39.338  -8.504  1.00  0.00     0.679 A 
ATOM     34  H4  UNL     1      -1.609 -39.017  -7.166  1.00  0.00     0.185 HD
HETATM   35  N6  UNL     1       1.087 -38.935  -9.000  1.00  0.00    -0.154 N 
HETATM   36  C9  UNL     1       1.656 -37.832  -8.501  1.00  0.00     0.295 A 
ATOM     37  H6  UNL     1       1.541 -39.459  -9.748  1.00  0.00     0.187 HD
HETATM   38  O3  UNL     1       2.767 -37.450  -8.972  1.00  0.00    -0.264 OA
HETATM   39  C10 UNL     1       1.018 -37.122  -7.473  1.00  0.00     0.169 A 
BRANCH  33  40
HETATM   40  N5  UNL     1      -0.616 -40.410  -9.003  1.00  0.00    -0.234 N 
ATOM     41  H52 UNL     1      -1.575 -40.351  -9.346  1.00  0.00     0.174 HD
ATOM     42  H51 UNL     1      -0.076 -41.276  -9.041  1.00  0.00     0.174 HD
ENDBRANCH  33  40
BRANCH  39  43
HETATM   43  O4  UNL     1       1.683 -35.991  -7.018  1.00  0.00    -0.354 OA
ATOM     44  H4  UNL     1       2.606 -35.825  -7.167  1.00  0.00     0.218 HD
ENDBRANCH  39  43
ENDBRANCH  30  31
ENDBRANCH   6  30
TORSDOF 12
ENDMDL
MODEL 4
REMARK VINA RESULT: -8.008982735      1.788      3.231
REMARK  12 active torsions:
REMARK  status: ('A' for Active; 'I' for Inactive)
REMARK    1  A    between atoms: C3_5  and  C4_6 
REMARK    2  A    between atoms: C4_6  and  O2_7 
REMARK    3  A    between atoms: C4_6  and  C5_9 
REMARK    4  A    between atoms: C6_14  and  S1_15 
REMARK    5  A    between atoms: S1_15  and  C7_16 
REMARK    6  A    between atoms: C8_19  and  N5_20 
REMARK    7  A    between atoms: C10_27  and  O4_28 
REMARK    8  A    between atoms: N7_30  and  N8_31 
REMARK    9  A    between atoms: N10_36  and  C11_37 
REMARK   10  A    between atoms: C11_37  and  O5_38 
REMARK   11  A    between atoms: C11_37  and  C12_40 
REMARK   12  A    between atoms: C12_40  and  N11_41 
ROOT
HETATM    1  C5  UNL     1       0.264 -39.235   0.490  1.00  0.00     0.155 A 
HETATM    2  N2  UNL     1      -0.656 -39.918  -0.211  1.00  0.00    -0.283 N 
ATOM      3  H2  UNL     1      -0.949 -40.876  -0.020  1.00  0.00     0.188 HD
HETATM    4  N3  UNL     1      -1.125 -39.153  -1.193  1.00  0.00    -0.277 N 
ATOM      5  H3  UNL     1      -1.833 -39.428  -1.874  1.00  0.00     0.189 HD
HETATM    6  C6  UNL     1      -0.518 -37.970  -1.140  1.00  0.00     0.188 A 
HETATM    7  N7  UNL     1       0.335 -38.017  -0.108  1.00  0.00    -0.222 N 
ENDROOT
BRANCH   1   8
HETATM    8  C4  UNL     1       1.060 -39.672   1.673  1.00  0.00     0.245 C 
BRANCH   8   9
HETATM    9  C3  UNL     1       1.621 -41.009   1.465  1.00  0.00     0.133 A 
HETATM   10  C2  UNL     1       1.400 -42.101   2.272  1.00  0.00     0.290 A 
HETATM   11  N1  UNL     1       2.086 -43.127   1.746  1.00  0.00    -0.241 N 
HETATM   12  O1  UNL     1       0.673 -42.116   3.323  1.00  0.00    -0.264 OA
HETATM   13  C1  UNL     1       2.093 -44.467   2.334  1.00  0.00     0.183 C 
HETATM   14  N10 UNL     1       2.716 -42.743   0.671  1.00  0.00    -0.197 N 
HETATM   15  N9  UNL     1       2.438 -41.443   0.486  1.00  0.00    -0.277 N 
ATOM     16  H9  UNL     1       2.791 -40.870  -0.281  1.00  0.00     0.189 HD
BRANCH  14  17
HETATM   17  C11 UNL     1       3.570 -43.536  -0.198  1.00  0.00     0.285 C 
BRANCH  17  18
HETATM   18  O5  UNL     1       2.985 -43.808  -1.428  1.00  0.00    -0.372 OA
ATOM     19  H5  UNL     1       3.573 -43.655  -2.158  1.00  0.00     0.212 HD
ENDBRANCH  17  18
BRANCH  17  20
HETATM   20  C12 UNL     1       4.930 -42.898  -0.386  1.00  0.00     0.286 C 
BRANCH  20  21
HETATM   21  N11 UNL     1       5.021 -42.355  -1.723  1.00  0.00    -0.075 N 
ATOM     22 3H11 UNL     1       5.626 -41.535  -1.768  1.00  0.00     0.274 HD
ATOM     23 2H11 UNL     1       5.551 -42.959  -2.351  1.00  0.00     0.274 HD
ATOM     24 1H11 UNL     1       4.082 -42.162  -2.073  1.00  0.00     0.274 HD
ENDBRANCH  20  21
ENDBRANCH  17  20
ENDBRANCH  14  17
ENDBRANCH   8   9
BRANCH   8  25
HETATM   25  O2  UNL     1       0.235 -39.669   2.823  1.00  0.00    -0.381 OA
ATOM     26  H2  UNL     1       0.438 -38.916   3.365  1.00  0.00     0.211 HD
ENDBRANCH   8  25
ENDBRANCH   1   8
BRANCH   7  27
HETATM   27  N8  UNL     1       1.153 -36.960   0.264  1.00  0.00    -0.335 N 
ATOM     28  H82 UNL     1       0.804 -36.078   0.639  1.00  0.00     0.177 HD
ATOM     29  H81 UNL     1       2.171 -36.932   0.213  1.00  0.00     0.177 HD
ENDBRANCH   7  27
BRANCH   6  30
HETATM   30  S1  UNL     1      -0.870 -36.650  -2.293  1.00  0.00    -0.029 SA
BRANCH  30  31
HETATM   31  C7  UNL     1      -0.575 -37.111  -3.973  1.00  0.00     0.132 A 
HETATM   32  N4  UNL     1      -1.363 -37.960  -4.654  1.00  0.00    -0.182 N 
HETATM   33  C8  UNL     1      -1.101 -38.287  -5.942  1.00  0.00     0.679 A 
ATOM     34  H4  UNL     1      -2.176 -38.367  -4.192  1.00  0.00     0.185 HD
HETATM   35  N6  UNL     1      -0.057 -37.791  -6.602  1.00  0.00    -0.154 N 
HETATM   36  C9  UNL     1       0.763 -36.940  -5.973  1.00  0.00     0.295 A 
ATOM     37  H6  UNL     1       0.116 -38.054  -7.572  1.00  0.00     0.187 HD
HETATM   38  O3  UNL     1       1.756 -36.470  -6.601  1.00  0.00    -0.264 OA
HETATM   39  C10 UNL     1       0.511 -36.587  -4.639  1.00  0.00     0.169 A 
BRANCH  33  40
HETATM   40  N5  UNL     1      -1.883 -39.109  -6.572  1.00  0.00    -0.234 N 
ATOM     41  H52 UNL     1      -2.598 -39.596  -6.031  1.00  0.00     0.174 HD
ATOM     42  H51 UNL     1      -1.768 -39.251  -7.576  1.00  0.00     0.174 HD
ENDBRANCH  33  40
BRANCH  39  43
HETATM   43  O4  UNL     1       1.413 -35.700  -4.069  1.00  0.00    -0.354 OA
ATOM     44  H4  UNL     1       2.354 -35.745  -4.200  1.00  0.00     0.218 HD
ENDBRANCH  39  43
ENDBRANCH  30  31
ENDBRANCH   6  30
TORSDOF 12
ENDMDL
MODEL 5
REMARK VINA RESULT: -7.999947704      2.611      4.207
REMARK  12 active torsions:
REMARK  status: ('A' for Active; 'I' for Inactive)
REMARK    1  A    between atoms: C3_5  and  C4_6 
REMARK    2  A    between atoms: C4_6  and  O2_7 
REMARK    3  A    between atoms: C4_6  and  C5_9 
REMARK    4  A    between atoms: C6_14  and  S1_15 
REMARK    5  A    between atoms: S1_15  and  C7_16 
REMARK    6  A    between atoms: C8_19  and  N5_20 
REMARK    7  A    between atoms: C10_27  and  O4_28 
REMARK    8  A    between atoms: N7_30  and  N8_31 
REMARK    9  A    between atoms: N10_36  and  C11_37 
REMARK   10  A    between atoms: C11_37  and  O5_38 
REMARK   11  A    between atoms: C11_37  and  C12_40 
REMARK   12  A    between atoms: C12_40  and  N11_41 
ROOT
HETATM    1  C5  UNL     1       0.273 -39.719   1.926  1.00  0.00     0.155 A 
HETATM    2  N2  UNL     1       0.590 -38.500   2.392  1.00  0.00    -0.283 N 
ATOM      3  H2  UNL     1       1.275 -38.310   3.124  1.00  0.00     0.188 HD
HETATM    4  N3  UNL     1      -0.125 -37.579   1.754  1.00  0.00    -0.277 N 
ATOM      5  H3  UNL     1      -0.079 -36.573   1.915  1.00  0.00     0.189 HD
HETATM    6  C6  UNL     1      -0.911 -38.186   0.869  1.00  0.00     0.188 A 
HETATM    7  N7  UNL     1      -0.670 -39.500   0.972  1.00  0.00    -0.222 N 
ENDROOT
BRANCH   1   8
HETATM    8  C4  UNL     1       0.809 -41.050   2.333  1.00  0.00     0.245 C 
BRANCH   8   9
HETATM    9  C3  UNL     1       1.703 -41.593   1.309  1.00  0.00     0.133 A 
HETATM   10  C2  UNL     1       2.398 -42.776   1.402  1.00  0.00     0.290 A 
HETATM   11  N1  UNL     1       3.099 -42.914   0.266  1.00  0.00    -0.241 N 
HETATM   12  O1  UNL     1       2.368 -43.581   2.395  1.00  0.00    -0.264 OA
HETATM   13  C1  UNL     1       3.965 -44.064  -0.002  1.00  0.00     0.183 C 
HETATM   14  N10 UNL     1       2.885 -41.897  -0.521  1.00  0.00    -0.197 N 
HETATM   15  N9  UNL     1       2.028 -41.077   0.107  1.00  0.00    -0.277 N 
ATOM     16  H9  UNL     1       1.676 -40.197  -0.269  1.00  0.00     0.189 HD
BRANCH  14  17
HETATM   17  C11 UNL     1       3.446 -41.653  -1.840  1.00  0.00     0.285 C 
BRANCH  17  18
HETATM   18  O5  UNL     1       2.542 -41.058  -2.709  1.00  0.00    -0.372 OA
ATOM     19  H5  UNL     1       2.936 -40.380  -3.245  1.00  0.00     0.212 HD
ENDBRANCH  17  18
BRANCH  17  20
HETATM   20  C12 UNL     1       4.724 -40.844  -1.767  1.00  0.00     0.286 C 
BRANCH  20  21
HETATM   21  N11 UNL     1       5.857 -41.725  -1.943  1.00  0.00    -0.075 N 
ATOM     22 3H11 UNL     1       6.495 -41.395  -2.668  1.00  0.00     0.274 HD
ATOM     23 2H11 UNL     1       6.502 -41.687  -1.155  1.00  0.00     0.274 HD
ATOM     24 1H11 UNL     1       5.522 -42.671  -2.125  1.00  0.00     0.274 HD
ENDBRANCH  20  21
ENDBRANCH  17  20
ENDBRANCH  14  17
ENDBRANCH   8   9
BRANCH   8  25
HETATM   25  O2  UNL     1      -0.267 -41.943   2.555  1.00  0.00    -0.381 OA
ATOM     26  H2  UNL     1      -0.013 -42.823   2.308  1.00  0.00     0.211 HD
ENDBRANCH   8  25
ENDBRANCH   1   8
BRANCH   7  27
HETATM   27  N8  UNL     1      -1.306 -40.464   0.204  1.00  0.00    -0.335 N 
ATOM     28  H82 UNL     1      -1.941 -40.248  -0.565  1.00  0.00     0.177 HD
ATOM     29  H81 UNL     1      -1.222 -41.475   0.306  1.00  0.00     0.177 HD
ENDBRANCH   7  27
BRANCH   6  30
HETATM   30  S1  UNL     1      -2.036 -37.296  -0.199  1.00  0.00    -0.029 SA
BRANCH  30  31
HETATM   31  C7  UNL     1      -1.405 -37.085  -1.836  1.00  0.00     0.132 A 
HETATM   32  N4  UNL     1      -1.720 -37.898  -2.858  1.00  0.00    -0.182 N 
HETATM   33  C8  UNL     1      -1.213 -37.700  -4.098  1.00  0.00     0.679 A 
ATOM     34  H4  UNL     1      -2.354 -38.680  -2.697  1.00  0.00     0.185 HD
HETATM   35  N6  UNL     1      -0.381 -36.698  -4.374  1.00  0.00    -0.154 N 
HETATM   36  C9  UNL     1      -0.032 -35.857  -3.394  1.00  0.00     0.295 A 
ATOM     37  H6  UNL     1      -0.015 -36.573  -5.318  1.00  0.00     0.187 HD
HETATM   38  O3  UNL     1       0.760 -34.905  -3.657  1.00  0.00    -0.264 OA
HETATM   39  C10 UNL     1      -0.545 -36.042  -2.101  1.00  0.00     0.169 A 
BRANCH  33  40
HETATM   40  N5  UNL     1      -1.538 -38.503  -5.064  1.00  0.00    -0.234 N 
ATOM     41  H52 UNL     1      -2.461 -38.936  -5.034  1.00  0.00     0.174 HD
ATOM     42  H51 UNL     1      -0.876 -38.683  -5.820  1.00  0.00     0.174 HD
ENDBRANCH  33  40
BRANCH  39  43
HETATM   43  O4  UNL     1      -0.128 -35.122  -1.150  1.00  0.00    -0.354 OA
ATOM     44  H4  UNL     1       0.140 -35.356  -0.268  1.00  0.00     0.218 HD
ENDBRANCH  39  43
ENDBRANCH  30  31
ENDBRANCH   6  30
TORSDOF 12
ENDMDL
