MODEL 1
REMARK VINA RESULT: -8.529108930      0.000      0.000
REMARK  10 active torsions:
REMARK  status: ('A' for Active; 'I' for Inactive)
REMARK    1  A    between atoms: C2_2  and  N1_4 
REMARK    2  A    between atoms: C2_2  and  N2_8 
REMARK       I    between atoms: N2_8  and  C4_10 
REMARK    3  A    between atoms: C4_10  and  C5_12 
REMARK    4  A    between atoms: C6_14  and  C7_15 
REMARK    5  A    between atoms: C7_15  and  O2_16 
REMARK    6  A    between atoms: C7_15  and  C8_18 
REMARK    7  A    between atoms: C8_18  and  O3_19 
REMARK    8  A    between atoms: C8_18  and  C9_21 
REMARK    9  A    between atoms: N5_26  and  C10_27 
REMARK   10  A    between atoms: N7_31  and  N8_32 
ROOT
HETATM    1  C7  UNL     1      -0.537 -36.703   0.226  1.00  0.00     0.211 C 
ENDROOT
BRANCH   1   2
HETATM    2  C6  UNL     1       0.656 -37.602  -0.003  1.00  0.00     0.085 A 
HETATM    3  S1  UNL     1       0.764 -38.934  -1.105  1.00  0.00    -0.065 SA
HETATM    4  C5  UNL     1       2.374 -39.404  -0.763  1.00  0.00     0.115 A 
HETATM    5  C13 UNL     1       2.732 -38.488   0.193  1.00  0.00     0.139 A 
HETATM    6  N11 UNL     1       1.847 -37.613   0.540  1.00  0.00    -0.339 N 
HETATM    7  N12 UNL     1       4.061 -38.527   0.779  1.00  0.00    -0.081 NA
ATOM      8  H11 UNL     1       2.080 -36.918   1.250  1.00  0.00     0.167 HD
BRANCH   4   9
HETATM    9  C4  UNL     1       3.153 -40.506  -1.355  1.00  0.00     0.263 C 
HETATM   10  N2  UNL     1       3.606 -41.552  -0.541  1.00  0.00    -0.324 N 
ATOM     11  H2  UNL     1       3.394 -41.545   0.457  1.00  0.00     0.165 HD
HETATM   12  O1  UNL     1       3.363 -40.427  -2.593  1.00  0.00    -0.267 OA
BRANCH  10  13
HETATM   13  C2  UNL     1       4.365 -42.632  -1.098  1.00  0.00     0.190 C 
HETATM   14  C1  UNL     1       4.534 -43.772  -0.093  1.00  0.00     0.070 C 
HETATM   15  C3  UNL     1       5.740 -42.117  -1.470  1.00  0.00     0.070 C 
BRANCH  13  16
HETATM   16  N1  UNL     1       3.795 -43.186  -2.306  1.00  0.00    -0.053 N 
ATOM     17  H13 UNL     1       3.724 -44.203  -2.279  1.00  0.00     0.277 HD
ATOM     18  H12 UNL     1       2.800 -42.983  -2.403  1.00  0.00     0.277 HD
ATOM     19  H11 UNL     1       4.345 -42.849  -3.096  1.00  0.00     0.277 HD
ENDBRANCH  13  16
ENDBRANCH  10  13
ENDBRANCH   4   9
ENDBRANCH   1   2
BRANCH   1  20
HETATM   20  O2  UNL     1      -1.432 -37.016  -0.814  1.00  0.00    -0.386 OA
ATOM     21  H2  UNL     1      -0.974 -36.778  -1.611  1.00  0.00     0.210 HD
ENDBRANCH   1  20
BRANCH   1  22
HETATM   22  C8  UNL     1      -1.132 -37.096   1.557  1.00  0.00     0.223 C 
BRANCH  22  23
HETATM   23  O3  UNL     1      -0.232 -36.614   2.548  1.00  0.00    -0.385 OA
ATOM     24  H3  UNL     1       0.605 -37.024   2.365  1.00  0.00     0.210 HD
ENDBRANCH  22  23
BRANCH  22  25
HETATM   25  C9  UNL     1      -1.056 -38.600   1.650  1.00  0.00     0.145 A 
HETATM   26  N3  UNL     1      -1.648 -39.540   0.929  1.00  0.00    -0.269 N 
HETATM   27  N4  UNL     1      -1.259 -40.713   1.401  1.00  0.00    -0.219 N 
ATOM     28  H3  UNL     1      -2.288 -39.388   0.149  1.00  0.00     0.190 HD
HETATM   29  N5  UNL     1      -0.427 -40.543   2.411  1.00  0.00    -0.176 N 
ATOM     30  H4  UNL     1      -1.560 -41.617   1.038  1.00  0.00     0.210 HD
HETATM   31  N10 UNL     1      -0.296 -39.239   2.570  1.00  0.00    -0.263 N 
ATOM     32  H10 UNL     1       0.285 -38.785   3.276  1.00  0.00     0.190 HD
BRANCH  29  33
HETATM   33  C10 UNL     1       0.221 -41.559   3.197  1.00  0.00     0.137 A 
HETATM   34  C11 UNL     1       0.189 -41.700   4.565  1.00  0.00     0.146 A 
HETATM   35  N6  UNL     1       0.924 -42.772   4.866  1.00  0.00    -0.287 N 
HETATM   36  N7  UNL     1       1.435 -43.344   3.805  1.00  0.00    -0.187 N 
ATOM     37  H6  UNL     1       1.071 -43.109   5.817  1.00  0.00     0.188 HD
HETATM   38  C12 UNL     1       1.013 -42.608   2.742  1.00  0.00     0.187 A 
HETATM   39  N9  UNL     1       1.314 -42.844   1.379  1.00  0.00    -0.076 NA
BRANCH  36  40
HETATM   40  N8  UNL     1       2.256 -44.486   3.738  1.00  0.00    -0.323 N 
ATOM     41  H82 UNL     1       2.618 -45.007   4.538  1.00  0.00     0.179 HD
ATOM     42  H81 UNL     1       2.611 -44.963   2.909  1.00  0.00     0.179 HD
ENDBRANCH  36  40
ENDBRANCH  29  33
ENDBRANCH  22  25
ENDBRANCH   1  22
TORSDOF 10
ENDMDL
MODEL 2
REMARK VINA RESULT: -8.508928222      4.010      4.926
REMARK  10 active torsions:
REMARK  status: ('A' for Active; 'I' for Inactive)
REMARK    1  A    between atoms: C2_2  and  N1_4 
REMARK    2  A    between atoms: C2_2  and  N2_8 
REMARK       I    between atoms: N2_8  and  C4_10 
REMARK    3  A    between atoms: C4_10  and  C5_12 
REMARK    4  A    between atoms: C6_14  and  C7_15 
REMARK    5  A    between atoms: C7_15  and  O2_16 
REMARK    6  A    between atoms: C7_15  and  C8_18 
REMARK    7  A    between atoms: C8_18  and  O3_19 
REMARK    8  A    between atoms: C8_18  and  C9_21 
REMARK    9  A    between atoms: N5_26  and  C10_27 
REMARK   10  A    between atoms: N7_31  and  N8_32 
ROOT
HETATM    1  C7  UNL     1       1.094 -38.512   0.081  1.00  0.00     0.211 C 
ENDROOT
BRANCH   1   2
HETATM    2  C6  UNL     1       0.787 -37.961  -1.292  1.00  0.00     0.085 A 
HETATM    3  S1  UNL     1       1.602 -38.336  -2.775  1.00  0.00    -0.065 SA
HETATM    4  C5  UNL     1       0.687 -37.333  -3.817  1.00  0.00     0.115 A 
HETATM    5  C13 UNL     1      -0.202 -36.765  -2.942  1.00  0.00     0.139 A 
HETATM    6  N11 UNL     1      -0.115 -37.105  -1.698  1.00  0.00    -0.339 N 
HETATM    7  N12 UNL     1      -1.193 -35.816  -3.422  1.00  0.00    -0.081 NA
ATOM      8  H11 UNL     1      -0.762 -36.700  -1.021  1.00  0.00     0.167 HD
BRANCH   4   9
HETATM    9  C4  UNL     1       0.834 -37.145  -5.271  1.00  0.00     0.263 C 
HETATM   10  N2  UNL     1      -0.236 -37.448  -6.122  1.00  0.00    -0.324 N 
ATOM     11  H2  UNL     1      -1.111 -37.797  -5.730  1.00  0.00     0.165 HD
HETATM   12  O1  UNL     1       1.950 -36.711  -5.658  1.00  0.00    -0.267 OA
BRANCH  10  13
HETATM   13  C2  UNL     1      -0.112 -37.273  -7.539  1.00  0.00     0.190 C 
HETATM   14  C1  UNL     1      -0.339 -35.817  -7.943  1.00  0.00     0.070 C 
HETATM   15  C3  UNL     1      -1.158 -38.127  -8.226  1.00  0.00     0.070 C 
BRANCH  13  16
HETATM   16  N1  UNL     1       1.168 -37.688  -8.070  1.00  0.00    -0.053 N 
ATOM     17  H13 UNL     1       1.133 -37.890  -9.069  1.00  0.00     0.277 HD
ATOM     18  H12 UNL     1       1.844 -36.926  -8.108  1.00  0.00     0.277 HD
ATOM     19  H11 UNL     1       1.495 -38.480  -7.517  1.00  0.00     0.277 HD
ENDBRANCH  13  16
ENDBRANCH  10  13
ENDBRANCH   4   9
ENDBRANCH   1   2
BRANCH   1  20
HETATM   20  O2  UNL     1       2.067 -37.643   0.611  1.00  0.00    -0.386 OA
ATOM     21  H2  UNL     1       1.582 -36.878   0.897  1.00  0.00     0.210 HD
ENDBRANCH   1  20
BRANCH   1  22
HETATM   22  C8  UNL     1      -0.180 -38.415   0.886  1.00  0.00     0.223 C 
BRANCH  22  23
HETATM   23  O3  UNL     1       0.073 -37.463   1.911  1.00  0.00    -0.385 OA
ATOM     24  H3  UNL     1      -0.397 -36.676   1.661  1.00  0.00     0.210 HD
ENDBRANCH  22  23
BRANCH  22  25
HETATM   25  C9  UNL     1      -0.353 -39.732   1.601  1.00  0.00     0.145 A 
HETATM   26  N3  UNL     1      -1.420 -40.270   2.173  1.00  0.00    -0.269 N 
HETATM   27  N4  UNL     1      -1.062 -41.444   2.665  1.00  0.00    -0.219 N 
ATOM     28  H3  UNL     1      -2.350 -39.853   2.225  1.00  0.00     0.190 HD
HETATM   29  N5  UNL     1       0.213 -41.671   2.417  1.00  0.00    -0.176 N 
ATOM     30  H4  UNL     1      -1.683 -42.081   3.164  1.00  0.00     0.210 HD
HETATM   31  N10 UNL     1       0.658 -40.618   1.759  1.00  0.00    -0.263 N 
ATOM     32  H10 UNL     1       1.613 -40.490   1.424  1.00  0.00     0.190 HD
BRANCH  29  33
HETATM   33  C10 UNL     1       0.987 -42.829   2.782  1.00  0.00     0.137 A 
HETATM   34  C11 UNL     1       0.790 -43.655   3.863  1.00  0.00     0.146 A 
HETATM   35  N6  UNL     1       1.734 -44.596   3.815  1.00  0.00    -0.287 N 
HETATM   36  N7  UNL     1       2.535 -44.452   2.789  1.00  0.00    -0.187 N 
ATOM     37  H6  UNL     1       1.823 -45.346   4.501  1.00  0.00     0.188 HD
HETATM   38  C12 UNL     1       2.093 -43.353   2.121  1.00  0.00     0.187 A 
HETATM   39  N9  UNL     1       2.648 -42.803   0.940  1.00  0.00    -0.076 NA
BRANCH  36  40
HETATM   40  N8  UNL     1       3.636 -45.249   2.421  1.00  0.00    -0.323 N 
ATOM     41  H82 UNL     1       3.584 -46.165   1.975  1.00  0.00     0.179 HD
ATOM     42  H81 UNL     1       4.629 -45.048   2.537  1.00  0.00     0.179 HD
ENDBRANCH  36  40
ENDBRANCH  29  33
ENDBRANCH  22  25
ENDBRANCH   1  22
TORSDOF 10
ENDMDL
MODEL 3
REMARK VINA RESULT: -8.320411605      4.947      6.419
REMARK  10 active torsions:
REMARK  status: ('A' for Active; 'I' for Inactive)
REMARK    1  A    between atoms: C2_2  and  N1_4 
REMARK    2  A    between atoms: C2_2  and  N2_8 
REMARK       I    between atoms: N2_8  and  C4_10 
REMARK    3  A    between atoms: C4_10  and  C5_12 
REMARK    4  A    between atoms: C6_14  and  C7_15 
REMARK    5  A    between atoms: C7_15  and  O2_16 
REMARK    6  A    between atoms: C7_15  and  C8_18 
REMARK    7  A    between atoms: C8_18  and  O3_19 
REMARK    8  A    between atoms: C8_18  and  C9_21 
REMARK    9  A    between atoms: N5_26  and  C10_27 
REMARK   10  A    between atoms: N7_31  and  N8_32 
ROOT
HETATM    1  C7  UNL     1      -0.578 -42.180   5.102  1.00  0.00     0.211 C 
ENDROOT
BRANCH   1   2
HETATM    2  C6  UNL     1       0.298 -42.293   3.876  1.00  0.00     0.085 A 
HETATM    3  S1  UNL     1       0.472 -41.128   2.605  1.00  0.00    -0.065 SA
HETATM    4  C5  UNL     1       1.594 -41.987   1.639  1.00  0.00     0.115 A 
HETATM    5  C13 UNL     1       1.766 -43.134   2.369  1.00  0.00     0.139 A 
HETATM    6  N11 UNL     1       1.102 -43.243   3.473  1.00  0.00    -0.339 N 
HETATM    7  N12 UNL     1       2.665 -44.173   1.896  1.00  0.00    -0.081 NA
ATOM      8  H11 UNL     1       1.206 -44.085   4.039  1.00  0.00     0.167 HD
BRANCH   4   9
HETATM    9  C4  UNL     1       2.203 -41.580   0.361  1.00  0.00     0.263 C 
HETATM   10  N2  UNL     1       3.395 -42.181  -0.064  1.00  0.00    -0.324 N 
ATOM     11  H2  UNL     1       3.834 -42.897   0.514  1.00  0.00     0.165 HD
HETATM   12  O1  UNL     1       1.588 -40.689  -0.282  1.00  0.00    -0.267 OA
BRANCH  10  13
HETATM   13  C2  UNL     1       4.002 -41.798  -1.304  1.00  0.00     0.190 C 
HETATM   14  C1  UNL     1       3.246 -42.378  -2.499  1.00  0.00     0.070 C 
HETATM   15  C3  UNL     1       5.421 -42.330  -1.334  1.00  0.00     0.070 C 
BRANCH  13  16
HETATM   16  N1  UNL     1       4.099 -40.367  -1.491  1.00  0.00    -0.053 N 
ATOM     17  H13 UNL     1       3.511 -39.843  -0.841  1.00  0.00     0.277 HD
ATOM     18  H12 UNL     1       4.998 -39.989  -1.195  1.00  0.00     0.277 HD
ATOM     19  H11 UNL     1       3.887 -40.163  -2.467  1.00  0.00     0.277 HD
ENDBRANCH  13  16
ENDBRANCH  10  13
ENDBRANCH   4   9
ENDBRANCH   1   2
BRANCH   1  20
HETATM   20  O2  UNL     1      -0.665 -40.799   5.359  1.00  0.00    -0.386 OA
ATOM     21  H2  UNL     1      -0.177 -40.388   4.656  1.00  0.00     0.210 HD
ENDBRANCH   1  20
BRANCH   1  22
HETATM   22  C8  UNL     1      -1.935 -42.722   4.722  1.00  0.00     0.223 C 
BRANCH  22  23
HETATM   23  O3  UNL     1      -2.677 -41.615   4.227  1.00  0.00    -0.385 OA
ATOM     24  H3  UNL     1      -3.322 -41.976   3.631  1.00  0.00     0.210 HD
ENDBRANCH  22  23
BRANCH  22  25
HETATM   25  C9  UNL     1      -2.626 -43.124   6.001  1.00  0.00     0.145 A 
HETATM   26  N3  UNL     1      -2.489 -42.665   7.237  1.00  0.00    -0.269 N 
HETATM   27  N4  UNL     1      -3.321 -43.343   8.010  1.00  0.00    -0.219 N 
ATOM     28  H3  UNL     1      -1.857 -41.923   7.538  1.00  0.00     0.190 HD
HETATM   29  N5  UNL     1      -3.991 -44.226   7.294  1.00  0.00    -0.176 N 
ATOM     30  H4  UNL     1      -3.429 -43.203   9.015  1.00  0.00     0.210 HD
HETATM   31  N10 UNL     1      -3.566 -44.096   6.051  1.00  0.00    -0.263 N 
ATOM     32  H10 UNL     1      -3.895 -44.643   5.255  1.00  0.00     0.190 HD
BRANCH  29  33
HETATM   33  C10 UNL     1      -4.988 -45.156   7.754  1.00  0.00     0.137 A 
HETATM   34  C11 UNL     1      -6.046 -44.895   8.593  1.00  0.00     0.146 A 
HETATM   35  N6  UNL     1      -6.712 -46.040   8.752  1.00  0.00    -0.287 N 
HETATM   36  N7  UNL     1      -6.175 -47.030   8.085  1.00  0.00    -0.187 N 
ATOM     37  H6  UNL     1      -7.548 -46.134   9.330  1.00  0.00     0.188 HD
HETATM   38  C12 UNL     1      -5.092 -46.509   7.448  1.00  0.00     0.187 A 
HETATM   39  N9  UNL     1      -4.194 -47.204   6.603  1.00  0.00    -0.076 NA
BRANCH  36  40
HETATM   40  N8  UNL     1      -6.601 -48.370   8.017  1.00  0.00    -0.323 N 
ATOM     41  H82 UNL     1      -6.511 -48.983   7.206  1.00  0.00     0.179 HD
ATOM     42  H81 UNL     1      -7.054 -48.928   8.742  1.00  0.00     0.179 HD
ENDBRANCH  36  40
ENDBRANCH  29  33
ENDBRANCH  22  25
ENDBRANCH   1  22
TORSDOF 10
ENDMDL
MODEL 4
REMARK VINA RESULT: -8.297945793      4.506      6.918
REMARK  10 active torsions:
REMARK  status: ('A' for Active; 'I' for Inactive)
REMARK    1  A    between atoms: C2_2  and  N1_4 
REMARK    2  A    between atoms: C2_2  and  N2_8 
REMARK       I    between atoms: N2_8  and  C4_10 
REMARK    3  A    between atoms: C4_10  and  C5_12 
REMARK    4  A    between atoms: C6_14  and  C7_15 
REMARK    5  A    between atoms: C7_15  and  O2_16 
REMARK    6  A    between atoms: C7_15  and  C8_18 
REMARK    7  A    between atoms: C8_18  and  O3_19 
REMARK    8  A    between atoms: C8_18  and  C9_21 
REMARK    9  A    between atoms: N5_26  and  C10_27 
REMARK   10  A    between atoms: N7_31  and  N8_32 
ROOT
HETATM    1  C7  UNL     1      -1.011 -36.113  -0.838  1.00  0.00     0.211 C 
ENDROOT
BRANCH   1   2
HETATM    2  C6  UNL     1      -0.493 -37.533  -0.825  1.00  0.00     0.085 A 
HETATM    3  S1  UNL     1       0.989 -38.110  -1.513  1.00  0.00    -0.065 SA
HETATM    4  C5  UNL     1       0.828 -39.761  -1.088  1.00  0.00     0.115 A 
HETATM    5  C13 UNL     1      -0.376 -39.761  -0.432  1.00  0.00     0.139 A 
HETATM    6  N11 UNL     1      -0.997 -38.632  -0.326  1.00  0.00    -0.339 N 
HETATM    7  N12 UNL     1      -0.911 -40.998   0.111  1.00  0.00    -0.081 NA
ATOM      8  H11 UNL     1      -1.896 -38.598   0.156  1.00  0.00     0.167 HD
BRANCH   4   9
HETATM    9  C4  UNL     1       1.754 -40.873  -1.365  1.00  0.00     0.263 C 
HETATM   10  N2  UNL     1       2.207 -41.678  -0.312  1.00  0.00    -0.324 N 
ATOM     11  H2  UNL     1       1.892 -41.490   0.640  1.00  0.00     0.165 HD
HETATM   12  O1  UNL     1       2.084 -41.026  -2.570  1.00  0.00    -0.267 OA
BRANCH  10  13
HETATM   13  C2  UNL     1       3.108 -42.764  -0.561  1.00  0.00     0.190 C 
HETATM   14  C1  UNL     1       3.240 -43.671   0.662  1.00  0.00     0.070 C 
HETATM   15  C3  UNL     1       4.475 -42.195  -0.883  1.00  0.00     0.070 C 
BRANCH  13  16
HETATM   16  N1  UNL     1       2.733 -43.589  -1.688  1.00  0.00    -0.053 N 
ATOM     17  H13 UNL     1       1.769 -43.916  -1.634  1.00  0.00     0.277 HD
ATOM     18  H12 UNL     1       2.649 -43.059  -2.555  1.00  0.00     0.277 HD
ATOM     19  H11 UNL     1       3.406 -44.352  -1.755  1.00  0.00     0.277 HD
ENDBRANCH  13  16
ENDBRANCH  10  13
ENDBRANCH   4   9
ENDBRANCH   1   2
BRANCH   1  20
HETATM   20  O2  UNL     1       0.128 -35.313  -1.044  1.00  0.00    -0.386 OA
ATOM     21  H2  UNL     1      -0.135 -34.677  -1.699  1.00  0.00     0.210 HD
ENDBRANCH   1  20
BRANCH   1  22
HETATM   22  C8  UNL     1      -1.945 -35.999  -2.020  1.00  0.00     0.223 C 
BRANCH  22  23
HETATM   23  O3  UNL     1      -2.659 -37.228  -2.077  1.00  0.00    -0.385 OA
ATOM     24  H3  UNL     1      -3.486 -37.072  -1.635  1.00  0.00     0.210 HD
ENDBRANCH  22  23
BRANCH  22  25
HETATM   25  C9  UNL     1      -1.088 -35.980  -3.261  1.00  0.00     0.145 A 
HETATM   26  N3  UNL     1      -0.157 -35.123  -3.654  1.00  0.00    -0.269 N 
HETATM   27  N4  UNL     1       0.308 -35.544  -4.819  1.00  0.00    -0.219 N 
ATOM     28  H3  UNL     1       0.147 -34.290  -3.150  1.00  0.00     0.190 HD
HETATM   29  N5  UNL     1      -0.305 -36.655  -5.180  1.00  0.00    -0.176 N 
ATOM     30  H4  UNL     1       1.036 -35.076  -5.360  1.00  0.00     0.210 HD
HETATM   31  N10 UNL     1      -1.169 -36.931  -4.222  1.00  0.00    -0.263 N 
ATOM     32  H10 UNL     1      -1.799 -37.733  -4.207  1.00  0.00     0.190 HD
BRANCH  29  33
HETATM   33  C10 UNL     1      -0.092 -37.429  -6.374  1.00  0.00     0.137 A 
HETATM   34  C11 UNL     1       0.861 -37.218  -7.344  1.00  0.00     0.146 A 
HETATM   35  N6  UNL     1       0.698 -38.168  -8.266  1.00  0.00    -0.287 N 
HETATM   36  N7  UNL     1      -0.286 -38.983  -7.980  1.00  0.00    -0.187 N 
ATOM     37  H6  UNL     1       1.276 -38.250  -9.103  1.00  0.00     0.188 HD
HETATM   38  C12 UNL     1      -0.802 -38.546  -6.799  1.00  0.00     0.187 A 
HETATM   39  N9  UNL     1      -1.887 -39.116  -6.091  1.00  0.00    -0.076 NA
BRANCH  36  40
HETATM   40  N8  UNL     1      -0.745 -40.092  -8.717  1.00  0.00    -0.323 N 
ATOM     41  H82 UNL     1      -0.435 -41.056  -8.595  1.00  0.00     0.179 HD
ATOM     42  H81 UNL     1      -1.437 -40.110  -9.466  1.00  0.00     0.179 HD
ENDBRANCH  36  40
ENDBRANCH  29  33
ENDBRANCH  22  25
ENDBRANCH   1  22
TORSDOF 10
ENDMDL
MODEL 5
REMARK VINA RESULT: -8.219149698      2.932      5.797
REMARK  10 active torsions:
REMARK  status: ('A' for Active; 'I' for Inactive)
REMARK    1  A    between atoms: C2_2  and  N1_4 
REMARK    2  A    between atoms: C2_2  and  N2_8 
REMARK       I    between atoms: N2_8  and  C4_10 
REMARK    3  A    between atoms: C4_10  and  C5_12 
REMARK    4  A    between atoms: C6_14  and  C7_15 
REMARK    5  A    between atoms: C7_15  and  O2_16 
REMARK    6  A    between atoms: C7_15  and  C8_18 
REMARK    7  A    between atoms: C8_18  and  O3_19 
REMARK    8  A    between atoms: C8_18  and  C9_21 
REMARK    9  A    between atoms: N5_26  and  C10_27 
REMARK   10  A    between atoms: N7_31  and  N8_32 
ROOT
HETATM    1  C7  UNL     1       0.206 -40.221   2.608  1.00  0.00     0.211 C 
ENDROOT
BRANCH   1   2
HETATM    2  C6  UNL     1       0.017 -39.309   1.418  1.00  0.00     0.085 A 
HETATM    3  S1  UNL     1      -0.810 -39.676  -0.059  1.00  0.00    -0.065 SA
HETATM    4  C5  UNL     1      -0.576 -38.176  -0.849  1.00  0.00     0.115 A 
HETATM    5  C13 UNL     1       0.134 -37.476   0.092  1.00  0.00     0.139 A 
HETATM    6  N11 UNL     1       0.407 -38.079   1.203  1.00  0.00    -0.339 N 
HETATM    7  N12 UNL     1       0.555 -36.112  -0.177  1.00  0.00    -0.081 NA
ATOM      8  H11 UNL     1       0.935 -37.587   1.923  1.00  0.00     0.167 HD
BRANCH   4   9
HETATM    9  C4  UNL     1      -1.030 -37.765  -2.189  1.00  0.00     0.263 C 
HETATM   10  N2  UNL     1      -0.099 -37.629  -3.227  1.00  0.00    -0.324 N 
ATOM     11  H2  UNL     1       0.888 -37.816  -3.048  1.00  0.00     0.165 HD
HETATM   12  O1  UNL     1      -2.266 -37.558  -2.311  1.00  0.00    -0.267 OA
BRANCH  10  13
HETATM   13  C2  UNL     1      -0.521 -37.230  -4.537  1.00  0.00     0.190 C 
HETATM   14  C1  UNL     1      -1.247 -38.365  -5.259  1.00  0.00     0.070 C 
HETATM   15  C3  UNL     1       0.703 -36.856  -5.348  1.00  0.00     0.070 C 
BRANCH  13  16
HETATM   16  N1  UNL     1      -1.388 -36.072  -4.545  1.00  0.00    -0.053 N 
ATOM     17  H13 UNL     1      -1.730 -35.842  -5.478  1.00  0.00     0.277 HD
ATOM     18  H12 UNL     1      -2.291 -36.252  -4.108  1.00  0.00     0.277 HD
ATOM     19  H11 UNL     1      -0.884 -35.301  -4.108  1.00  0.00     0.277 HD
ENDBRANCH  13  16
ENDBRANCH  10  13
ENDBRANCH   4   9
ENDBRANCH   1   2
BRANCH   1  20
HETATM   20  O2  UNL     1      -0.710 -39.758   3.571  1.00  0.00    -0.386 OA
ATOM     21  H2  UNL     1      -0.782 -40.465   4.200  1.00  0.00     0.210 HD
ENDBRANCH   1  20
BRANCH   1  22
HETATM   22  C8  UNL     1      -0.176 -41.612   2.158  1.00  0.00     0.223 C 
BRANCH  22  23
HETATM   23  O3  UNL     1      -0.559 -42.314   3.333  1.00  0.00    -0.385 OA
ATOM     24  H3  UNL     1      -1.304 -42.850   3.087  1.00  0.00     0.210 HD
ENDBRANCH  22  23
BRANCH  22  25
HETATM   25  C9  UNL     1       1.088 -42.287   1.685  1.00  0.00     0.145 A 
HETATM   26  N3  UNL     1       1.638 -43.437   2.045  1.00  0.00    -0.269 N 
HETATM   27  N4  UNL     1       2.746 -43.589   1.339  1.00  0.00    -0.219 N 
ATOM     28  H3  UNL     1       1.273 -44.088   2.741  1.00  0.00     0.190 HD
HETATM   29  N5  UNL     1       2.916 -42.560   0.532  1.00  0.00    -0.176 N 
ATOM     30  H4  UNL     1       3.378 -44.388   1.409  1.00  0.00     0.210 HD
HETATM   31  N10 UNL     1       1.895 -41.751   0.740  1.00  0.00    -0.263 N 
ATOM     32  H10 UNL     1       1.738 -40.862   0.264  1.00  0.00     0.190 HD
BRANCH  29  33
HETATM   33  C10 UNL     1       3.992 -42.341  -0.399  1.00  0.00     0.137 A 
HETATM   34  C11 UNL     1       5.287 -42.792  -0.295  1.00  0.00     0.146 A 
HETATM   35  N6  UNL     1       5.941 -42.358  -1.374  1.00  0.00    -0.287 N 
HETATM   36  N7  UNL     1       5.178 -41.658  -2.176  1.00  0.00    -0.187 N 
ATOM     37  H6  UNL     1       6.926 -42.550  -1.555  1.00  0.00     0.188 HD
HETATM   38  C12 UNL     1       3.950 -41.629  -1.593  1.00  0.00     0.187 A 
HETATM   39  N9  UNL     1       2.793 -40.985  -2.094  1.00  0.00    -0.076 NA
BRANCH  36  40
HETATM   40  N8  UNL     1       5.523 -41.046  -3.396  1.00  0.00    -0.323 N 
ATOM     41  H82 UNL     1       6.441 -41.080  -3.840  1.00  0.00     0.179 HD
ATOM     42  H81 UNL     1       4.932 -40.490  -4.014  1.00  0.00     0.179 HD
ENDBRANCH  36  40
ENDBRANCH  29  33
ENDBRANCH  22  25
ENDBRANCH   1  22
TORSDOF 10
ENDMDL
