MODEL 1
REMARK VINA RESULT: -8.368039325      0.000      0.000
REMARK  12 active torsions:
REMARK  status: ('A' for Active; 'I' for Inactive)
REMARK    1  A    between atoms: C3_6  and  C4_7 
REMARK    2  A    between atoms: C4_7  and  N3_8 
REMARK    3  A    between atoms: N3_8  and  N4_10 
REMARK       I    between atoms: N4_10  and  C5_12 
REMARK    4  A    between atoms: C5_12  and  C6_14 
REMARK    5  A    between atoms: N5_16  and  C8_17 
REMARK    6  A    between atoms: C9_22  and  C10_23 
REMARK    7  A    between atoms: C10_23  and  N8_24 
REMARK    8  A    between atoms: C10_23  and  N9_28 
REMARK    9  A    between atoms: N9_28  and  N10_29 
REMARK   10  A    between atoms: C11_32  and  O2_33 
REMARK   11  A    between atoms: C12_35  and  C13_36 
REMARK   12  A    between atoms: C14_43  and  O5_44 
ROOT
HETATM    1  C6  UNL     1      -0.639 -38.236  -2.440  1.00  0.00     0.136 A 
HETATM    2  C7  UNL     1       0.186 -38.374  -3.540  1.00  0.00     0.156 A 
HETATM    3  N5  UNL     1      -0.402 -37.704  -4.575  1.00  0.00    -0.232 N 
HETATM    4  N11 UNL     1      -1.528 -37.185  -4.123  1.00  0.00    -0.234 N 
ATOM      5  H11 UNL     1      -2.183 -36.628  -4.672  1.00  0.00     0.209 HD
HETATM    6  N12 UNL     1      -1.675 -37.496  -2.862  1.00  0.00    -0.279 N 
ATOM      7  H12 UNL     1      -2.465 -37.215  -2.281  1.00  0.00     0.189 HD
ENDROOT
BRANCH   3   8
HETATM    8  C8  UNL     1       0.156 -37.639  -5.896  1.00  0.00     0.162 A 
HETATM    9  N6  UNL     1       1.128 -36.722  -6.142  1.00  0.00    -0.283 N 
HETATM   10  N7  UNL     1       1.714 -36.569  -7.310  1.00  0.00    -0.297 N 
ATOM     11  H6  UNL     1       1.421 -36.117  -5.375  1.00  0.00     0.188 HD
HETATM   12  C9  UNL     1       1.389 -37.319  -8.364  1.00  0.00     0.107 A 
ATOM     13  H7  UNL     1       2.436 -35.856  -7.412  1.00  0.00     0.187 HD
HETATM   14  C11 UNL     1       0.386 -38.291  -8.175  1.00  0.00     0.114 A 
HETATM   15  C12 UNL     1      -0.236 -38.453  -6.935  1.00  0.00     0.123 A 
BRANCH  12  16
HETATM   16  C10 UNL     1       2.038 -37.162  -9.690  1.00  0.00     0.348 C 
BRANCH  16  17
HETATM   17  N8  UNL     1       2.786 -35.938  -9.795  1.00  0.00    -0.054 N 
ATOM     18  H83 UNL     1       2.710 -35.541 -10.732  1.00  0.00     0.276 HD
ATOM     19  H82 UNL     1       2.342 -35.189  -9.263  1.00  0.00     0.276 HD
ATOM     20  H81 UNL     1       3.763 -36.053  -9.523  1.00  0.00     0.276 HD
ENDBRANCH  16  17
BRANCH  16  21
HETATM   21  N9  UNL     1       2.903 -38.336  -9.885  1.00  0.00    -0.108 NA
BRANCH  21  22
HETATM   22  N10 UNL     1       4.241 -37.998  -9.924  1.00  0.00    -0.346 N 
ATOM     23 2H10 UNL     1       4.585 -37.062  -9.710  1.00  0.00     0.172 HD
ATOM     24 1H10 UNL     1       4.831 -38.787 -10.188  1.00  0.00     0.172 HD
ENDBRANCH  21  22
ENDBRANCH  16  21
ENDBRANCH  12  16
BRANCH  14  25
HETATM   25  O2  UNL     1       0.083 -39.029  -9.254  1.00  0.00    -0.357 OA
ATOM     26  H2  UNL     1      -0.741 -38.818  -9.678  1.00  0.00     0.217 HD
ENDBRANCH  14  25
BRANCH  15  27
HETATM   27  C13 UNL     1      -1.275 -39.451  -6.719  1.00  0.00     0.216 C 
HETATM   28  O3  UNL     1      -2.296 -39.216  -6.012  1.00  0.00    -0.644 OA
HETATM   29  O4  UNL     1      -1.221 -40.715  -7.265  1.00  0.00    -0.644 OA
ENDBRANCH  15  27
ENDBRANCH   3   8
BRANCH   1  30
HETATM   30  C5  UNL     1      -0.392 -38.796  -1.123  1.00  0.00     0.289 C 
HETATM   31  N4  UNL     1      -1.166 -39.859  -0.555  1.00  0.00    -0.265 N 
ATOM     32  H4  UNL     1      -1.933 -40.241  -1.108  1.00  0.00     0.190 HD
HETATM   33  O1  UNL     1       0.547 -38.339  -0.431  1.00  0.00    -0.264 OA
BRANCH  31  34
HETATM   34  N3  UNL     1      -0.947 -40.378   0.651  1.00  0.00    -0.308 N 
ATOM     35  H3  UNL     1      -1.289 -39.762   1.388  1.00  0.00     0.186 HD
BRANCH  34  36
HETATM   36  C4  UNL     1      -0.446 -41.394   1.116  1.00  0.00     0.124 C 
BRANCH  36  37
HETATM   37  C3  UNL     1       0.832 -42.022   0.882  1.00  0.00     0.050 A 
HETATM   38  C2  UNL     1       1.428 -42.933   1.777  1.00  0.00     0.124 A 
HETATM   39  N2  UNL     1       2.600 -43.324   1.261  1.00  0.00    -0.307 N 
HETATM   40  N1  UNL     1       2.825 -42.753   0.113  1.00  0.00    -0.275 N 
ATOM     41  H2  UNL     1       3.235 -43.984   1.710  1.00  0.00     0.186 HD
HETATM   42  C1  UNL     1       3.989 -42.910  -0.773  1.00  0.00     0.180 C 
HETATM   43  C14 UNL     1       1.749 -41.951  -0.135  1.00  0.00     0.170 A 
BRANCH  43  44
HETATM   44  O5  UNL     1       1.662 -41.199  -1.269  1.00  0.00    -0.344 OA
ATOM     45  H5  UNL     1       0.851 -41.128  -1.760  1.00  0.00     0.219 HD
ENDBRANCH  43  44
ENDBRANCH  36  37
ENDBRANCH  34  36
ENDBRANCH  31  34
ENDBRANCH   1  30
TORSDOF 12
ENDMDL
MODEL 2
REMARK VINA RESULT: -8.287605303      2.592      9.609
REMARK  12 active torsions:
REMARK  status: ('A' for Active; 'I' for Inactive)
REMARK    1  A    between atoms: C3_6  and  C4_7 
REMARK    2  A    between atoms: C4_7  and  N3_8 
REMARK    3  A    between atoms: N3_8  and  N4_10 
REMARK       I    between atoms: N4_10  and  C5_12 
REMARK    4  A    between atoms: C5_12  and  C6_14 
REMARK    5  A    between atoms: N5_16  and  C8_17 
REMARK    6  A    between atoms: C9_22  and  C10_23 
REMARK    7  A    between atoms: C10_23  and  N8_24 
REMARK    8  A    between atoms: C10_23  and  N9_28 
REMARK    9  A    between atoms: N9_28  and  N10_29 
REMARK   10  A    between atoms: C11_32  and  O2_33 
REMARK   11  A    between atoms: C12_35  and  C13_36 
REMARK   12  A    between atoms: C14_43  and  O5_44 
ROOT
HETATM    1  C6  UNL     1       1.556 -38.501  -2.223  1.00  0.00     0.136 A 
HETATM    2  C7  UNL     1       1.110 -39.598  -1.508  1.00  0.00     0.156 A 
HETATM    3  N5  UNL     1       1.930 -39.735  -0.424  1.00  0.00    -0.232 N 
HETATM    4  N11 UNL     1       2.827 -38.769  -0.480  1.00  0.00    -0.234 N 
ATOM      5  H11 UNL     1       3.573 -38.618   0.199  1.00  0.00     0.209 HD
HETATM    6  N12 UNL     1       2.612 -38.036  -1.541  1.00  0.00    -0.279 N 
ATOM      7  H12 UNL     1       3.169 -37.226  -1.811  1.00  0.00     0.189 HD
ENDROOT
BRANCH   3   8
HETATM    8  C8  UNL     1       1.790 -40.783   0.547  1.00  0.00     0.162 A 
HETATM    9  N6  UNL     1       0.898 -40.611   1.558  1.00  0.00    -0.283 N 
HETATM   10  N7  UNL     1       0.682 -41.498   2.504  1.00  0.00    -0.297 N 
ATOM     11  H6  UNL     1       0.364 -39.742   1.584  1.00  0.00     0.188 HD
HETATM   12  C9  UNL     1       1.338 -42.660   2.544  1.00  0.00     0.107 A 
ATOM     13  H7  UNL     1      -0.006 -41.292   3.229  1.00  0.00     0.187 HD
HETATM   14  C11 UNL     1       2.279 -42.900   1.522  1.00  0.00     0.114 A 
HETATM   15  C12 UNL     1       2.507 -41.957   0.517  1.00  0.00     0.123 A 
BRANCH  12  16
HETATM   16  C10 UNL     1       1.108 -43.674   3.603  1.00  0.00     0.348 C 
BRANCH  16  17
HETATM   17  N8  UNL     1       2.303 -43.976   4.344  1.00  0.00    -0.054 N 
ATOM     18  H83 UNL     1       2.262 -44.915   4.742  1.00  0.00     0.276 HD
ATOM     19  H82 UNL     1       3.102 -44.097   3.721  1.00  0.00     0.276 HD
ATOM     20  H81 UNL     1       2.501 -43.281   5.064  1.00  0.00     0.276 HD
ENDBRANCH  16  17
BRANCH  16  21
HETATM   21  N9  UNL     1       0.053 -43.146   4.480  1.00  0.00    -0.108 NA
BRANCH  21  22
HETATM   22  N10 UNL     1      -0.333 -44.060   5.440  1.00  0.00    -0.346 N 
ATOM     23 2H10 UNL     1       0.271 -44.349   6.209  1.00  0.00     0.172 HD
ATOM     24 1H10 UNL     1      -1.282 -44.403   5.286  1.00  0.00     0.172 HD
ENDBRANCH  21  22
ENDBRANCH  16  21
ENDBRANCH  12  16
BRANCH  14  25
HETATM   25  O2  UNL     1       2.920 -44.076   1.589  1.00  0.00    -0.357 OA
ATOM     26  H2  UNL     1       3.347 -44.358   0.788  1.00  0.00     0.217 HD
ENDBRANCH  14  25
BRANCH  15  27
HETATM   27  C13 UNL     1       3.476 -42.186  -0.548  1.00  0.00     0.216 C 
HETATM   28  O3  UNL     1       3.364 -43.144  -1.364  1.00  0.00    -0.644 OA
HETATM   29  O4  UNL     1       4.576 -41.379  -0.740  1.00  0.00    -0.644 OA
ENDBRANCH  15  27
ENDBRANCH   3   8
BRANCH   1  30
HETATM   30  C5  UNL     1       0.967 -37.998  -3.452  1.00  0.00     0.289 C 
HETATM   31  N4  UNL     1      -0.413 -38.168  -3.798  1.00  0.00    -0.265 N 
ATOM     32  H4  UNL     1      -1.012 -38.669  -3.142  1.00  0.00     0.190 HD
HETATM   33  O1  UNL     1       1.689 -37.379  -4.267  1.00  0.00    -0.264 OA
BRANCH  31  34
HETATM   34  N3  UNL     1      -0.961 -37.711  -4.921  1.00  0.00    -0.308 N 
ATOM     35  H3  UNL     1      -1.184 -36.718  -4.848  1.00  0.00     0.186 HD
BRANCH  34  36
HETATM   36  C4  UNL     1      -1.270 -38.157  -6.019  1.00  0.00     0.124 C 
BRANCH  36  37
HETATM   37  C3  UNL     1      -0.477 -38.447  -7.189  1.00  0.00     0.050 A 
HETATM   38  C2  UNL     1      -0.788 -39.472  -8.106  1.00  0.00     0.124 A 
HETATM   39  N2  UNL     1       0.143 -39.471  -9.068  1.00  0.00    -0.307 N 
HETATM   40  N1  UNL     1       1.032 -38.542  -8.866  1.00  0.00    -0.275 N 
ATOM     41  H2  UNL     1       0.155 -40.115  -9.859  1.00  0.00     0.186 HD
HETATM   42  C1  UNL     1       2.210 -38.209  -9.683  1.00  0.00     0.180 C 
HETATM   43  C14 UNL     1       0.666 -37.903  -7.717  1.00  0.00     0.170 A 
BRANCH  43  44
HETATM   44  O5  UNL     1       1.390 -36.865  -7.211  1.00  0.00    -0.344 OA
ATOM     45  H5  UNL     1       2.302 -36.966  -6.963  1.00  0.00     0.219 HD
ENDBRANCH  43  44
ENDBRANCH  36  37
ENDBRANCH  34  36
ENDBRANCH  31  34
ENDBRANCH   1  30
TORSDOF 12
ENDMDL
MODEL 3
REMARK VINA RESULT: -8.146280733      2.569      9.608
REMARK  12 active torsions:
REMARK  status: ('A' for Active; 'I' for Inactive)
REMARK    1  A    between atoms: C3_6  and  C4_7 
REMARK    2  A    between atoms: C4_7  and  N3_8 
REMARK    3  A    between atoms: N3_8  and  N4_10 
REMARK       I    between atoms: N4_10  and  C5_12 
REMARK    4  A    between atoms: C5_12  and  C6_14 
REMARK    5  A    between atoms: N5_16  and  C8_17 
REMARK    6  A    between atoms: C9_22  and  C10_23 
REMARK    7  A    between atoms: C10_23  and  N8_24 
REMARK    8  A    between atoms: C10_23  and  N9_28 
REMARK    9  A    between atoms: N9_28  and  N10_29 
REMARK   10  A    between atoms: C11_32  and  O2_33 
REMARK   11  A    between atoms: C12_35  and  C13_36 
REMARK   12  A    between atoms: C14_43  and  O5_44 
ROOT
HETATM    1  C6  UNL     1       1.353 -38.365  -2.083  1.00  0.00     0.136 A 
HETATM    2  C7  UNL     1       0.856 -39.367  -1.272  1.00  0.00     0.156 A 
HETATM    3  N5  UNL     1       1.863 -39.743  -0.429  1.00  0.00    -0.232 N 
HETATM    4  N11 UNL     1       2.917 -39.004  -0.716  1.00  0.00    -0.234 N 
ATOM      5  H11 UNL     1       3.822 -39.061  -0.248  1.00  0.00     0.209 HD
HETATM    6  N12 UNL     1       2.624 -38.187  -1.693  1.00  0.00    -0.279 N 
ATOM      7  H12 UNL     1       3.269 -37.511  -2.101  1.00  0.00     0.189 HD
ENDROOT
BRANCH   3   8
HETATM    8  C8  UNL     1       1.727 -40.781   0.554  1.00  0.00     0.162 A 
HETATM    9  N6  UNL     1       0.916 -40.558   1.621  1.00  0.00    -0.283 N 
HETATM   10  N7  UNL     1       0.712 -41.431   2.583  1.00  0.00    -0.297 N 
ATOM     11  H6  UNL     1       0.436 -39.659   1.679  1.00  0.00     0.188 HD
HETATM   12  C9  UNL     1       1.301 -42.629   2.584  1.00  0.00     0.107 A 
ATOM     13  H7  UNL     1       0.087 -41.185   3.351  1.00  0.00     0.187 HD
HETATM   14  C11 UNL     1       2.156 -42.922   1.502  1.00  0.00     0.114 A 
HETATM   15  C12 UNL     1       2.372 -41.995   0.481  1.00  0.00     0.123 A 
BRANCH  12  16
HETATM   16  C10 UNL     1       1.084 -43.628   3.659  1.00  0.00     0.348 C 
BRANCH  16  17
HETATM   17  N8  UNL     1       2.308 -44.010   4.311  1.00  0.00    -0.054 N 
ATOM     18  H83 UNL     1       3.027 -43.297   4.188  1.00  0.00     0.276 HD
ATOM     19  H82 UNL     1       2.211 -43.972   5.326  1.00  0.00     0.276 HD
ATOM     20  H81 UNL     1       2.642 -44.925   4.007  1.00  0.00     0.276 HD
ENDBRANCH  16  17
BRANCH  16  21
HETATM   21  N9  UNL     1       0.134 -43.032   4.612  1.00  0.00    -0.108 NA
BRANCH  21  22
HETATM   22  N10 UNL     1      -0.407 -43.973   5.466  1.00  0.00    -0.346 N 
ATOM     23 2H10 UNL     1      -0.449 -44.967   5.244  1.00  0.00     0.172 HD
ATOM     24 1H10 UNL     1      -0.754 -43.555   6.329  1.00  0.00     0.172 HD
ENDBRANCH  21  22
ENDBRANCH  16  21
ENDBRANCH  12  16
BRANCH  14  25
HETATM   25  O2  UNL     1       2.732 -44.135   1.532  1.00  0.00    -0.357 OA
ATOM     26  H2  UNL     1       3.582 -44.195   1.113  1.00  0.00     0.217 HD
ENDBRANCH  14  25
BRANCH  15  27
HETATM   27  C13 UNL     1       3.252 -42.279  -0.645  1.00  0.00     0.216 C 
HETATM   28  O3  UNL     1       2.960 -43.136  -1.527  1.00  0.00    -0.644 OA
HETATM   29  O4  UNL     1       4.458 -41.640  -0.828  1.00  0.00    -0.644 OA
ENDBRANCH  15  27
ENDBRANCH   3   8
BRANCH   1  30
HETATM   30  C5  UNL     1       0.613 -37.678  -3.128  1.00  0.00     0.289 C 
HETATM   31  N4  UNL     1      -0.272 -38.341  -4.039  1.00  0.00    -0.265 N 
ATOM     32  H4  UNL     1      -0.387 -39.350  -3.946  1.00  0.00     0.190 HD
HETATM   33  O1  UNL     1       0.741 -36.439  -3.254  1.00  0.00    -0.264 OA
BRANCH  31  34
HETATM   34  N3  UNL     1      -0.954 -37.721  -4.999  1.00  0.00    -0.308 N 
ATOM     35  H3  UNL     1      -1.751 -37.211  -4.617  1.00  0.00     0.186 HD
BRANCH  34  36
HETATM   36  C4  UNL     1      -0.887 -37.596  -6.215  1.00  0.00     0.124 C 
BRANCH  36  37
HETATM   37  C3  UNL     1       0.244 -37.427  -7.095  1.00  0.00     0.050 A 
HETATM   38  C2  UNL     1       0.184 -37.631  -8.488  1.00  0.00     0.124 A 
HETATM   39  N2  UNL     1       1.397 -37.390  -9.001  1.00  0.00    -0.307 N 
HETATM   40  N1  UNL     1       2.244 -37.048  -8.074  1.00  0.00    -0.275 N 
ATOM     41  H2  UNL     1       1.629 -37.466  -9.992  1.00  0.00     0.186 HD
HETATM   42  C1  UNL     1       3.667 -36.704  -8.216  1.00  0.00     0.180 C 
HETATM   43  C14 UNL     1       1.552 -37.065  -6.897  1.00  0.00     0.170 A 
BRANCH  43  44
HETATM   44  O5  UNL     1       2.148 -36.752  -5.711  1.00  0.00    -0.344 OA
ATOM     45  H5  UNL     1       2.996 -37.106  -5.469  1.00  0.00     0.219 HD
ENDBRANCH  43  44
ENDBRANCH  36  37
ENDBRANCH  34  36
ENDBRANCH  31  34
ENDBRANCH   1  30
TORSDOF 12
ENDMDL
MODEL 4
REMARK VINA RESULT: -8.062891384      2.796     10.004
REMARK  12 active torsions:
REMARK  status: ('A' for Active; 'I' for Inactive)
REMARK    1  A    between atoms: C3_6  and  C4_7 
REMARK    2  A    between atoms: C4_7  and  N3_8 
REMARK    3  A    between atoms: N3_8  and  N4_10 
REMARK       I    between atoms: N4_10  and  C5_12 
REMARK    4  A    between atoms: C5_12  and  C6_14 
REMARK    5  A    between atoms: N5_16  and  C8_17 
REMARK    6  A    between atoms: C9_22  and  C10_23 
REMARK    7  A    between atoms: C10_23  and  N8_24 
REMARK    8  A    between atoms: C10_23  and  N9_28 
REMARK    9  A    between atoms: N9_28  and  N10_29 
REMARK   10  A    between atoms: C11_32  and  O2_33 
REMARK   11  A    between atoms: C12_35  and  C13_36 
REMARK   12  A    between atoms: C14_43  and  O5_44 
ROOT
HETATM    1  C6  UNL     1       0.326 -37.994  -1.049  1.00  0.00     0.136 A 
HETATM    2  C7  UNL     1      -0.171 -39.144  -0.466  1.00  0.00     0.156 A 
HETATM    3  N5  UNL     1       0.335 -39.205   0.802  1.00  0.00    -0.232 N 
HETATM    4  N11 UNL     1       1.100 -38.145   0.976  1.00  0.00    -0.234 N 
ATOM      5  H11 UNL     1       1.612 -37.922   1.829  1.00  0.00     0.209 HD
HETATM    6  N12 UNL     1       1.100 -37.424  -0.114  1.00  0.00    -0.279 N 
ATOM      7  H12 UNL     1       1.615 -36.553  -0.236  1.00  0.00     0.189 HD
ENDROOT
BRANCH   3   8
HETATM    8  C8  UNL     1       0.056 -40.278   1.715  1.00  0.00     0.162 A 
HETATM    9  N6  UNL     1      -1.045 -40.181   2.507  1.00  0.00    -0.283 N 
HETATM   10  N7  UNL     1      -1.404 -41.097   3.380  1.00  0.00    -0.297 N 
ATOM     11  H6  UNL     1      -1.627 -39.348   2.419  1.00  0.00     0.188 HD
HETATM   12  C9  UNL     1      -0.698 -42.215   3.557  1.00  0.00     0.107 A 
ATOM     13  H7  UNL     1      -2.245 -40.948   3.937  1.00  0.00     0.187 HD
HETATM   14  C11 UNL     1       0.457 -42.377   2.765  1.00  0.00     0.114 A 
HETATM   15  C12 UNL     1       0.837 -41.404   1.838  1.00  0.00     0.123 A 
BRANCH  12  16
HETATM   16  C10 UNL     1      -1.086 -43.261   4.537  1.00  0.00     0.348 C 
BRANCH  16  17
HETATM   17  N8  UNL     1      -0.049 -43.527   5.497  1.00  0.00    -0.054 N 
ATOM     18  H83 UNL     1       0.175 -44.522   5.531  1.00  0.00     0.276 HD
ATOM     19  H82 UNL     1       0.851 -43.169   5.176  1.00  0.00     0.276 HD
ATOM     20  H81 UNL     1      -0.276 -43.171   6.426  1.00  0.00     0.276 HD
ENDBRANCH  16  17
BRANCH  16  21
HETATM   21  N9  UNL     1      -2.317 -42.797   5.193  1.00  0.00    -0.108 NA
BRANCH  21  22
HETATM   22  N10 UNL     1      -2.295 -43.015   6.557  1.00  0.00    -0.346 N 
ATOM     23 2H10 UNL     1      -1.545 -43.520   7.027  1.00  0.00     0.172 HD
ATOM     24 1H10 UNL     1      -3.108 -42.614   7.024  1.00  0.00     0.172 HD
ENDBRANCH  21  22
ENDBRANCH  16  21
ENDBRANCH  12  16
BRANCH  14  25
HETATM   25  O2  UNL     1       1.144 -43.512   2.967  1.00  0.00    -0.357 OA
ATOM     26  H2  UNL     1       2.080 -43.459   2.809  1.00  0.00     0.217 HD
ENDBRANCH  14  25
BRANCH  15  27
HETATM   27  C13 UNL     1       2.027 -41.552   1.010  1.00  0.00     0.216 C 
HETATM   28  O3  UNL     1       2.222 -42.571   0.289  1.00  0.00    -0.644 OA
HETATM   29  O4  UNL     1       3.020 -40.598   0.954  1.00  0.00    -0.644 OA
ENDBRANCH  15  27
ENDBRANCH   3   8
BRANCH   1  30
HETATM   30  C5  UNL     1       0.040 -37.541  -2.400  1.00  0.00     0.289 C 
HETATM   31  N4  UNL     1      -1.061 -38.021  -3.181  1.00  0.00    -0.265 N 
ATOM     32  H4  UNL     1      -1.675 -38.720  -2.763  1.00  0.00     0.190 HD
HETATM   33  O1  UNL     1       0.784 -36.682  -2.927  1.00  0.00    -0.264 OA
BRANCH  31  34
HETATM   34  N3  UNL     1      -1.331 -37.613  -4.418  1.00  0.00    -0.308 N 
ATOM     35  H3  UNL     1      -1.782 -36.698  -4.417  1.00  0.00     0.186 HD
BRANCH  34  36
HETATM   36  C4  UNL     1      -1.185 -38.035  -5.558  1.00  0.00     0.124 C 
BRANCH  36  37
HETATM   37  C3  UNL     1      -0.244 -37.682  -6.594  1.00  0.00     0.050 A 
HETATM   38  C2  UNL     1      -0.510 -37.827  -7.971  1.00  0.00     0.124 A 
HETATM   39  N2  UNL     1       0.564 -37.410  -8.653  1.00  0.00    -0.307 N 
HETATM   40  N1  UNL     1       1.506 -37.006  -7.851  1.00  0.00    -0.275 N 
ATOM     41  H2  UNL     1       0.635 -37.409  -9.671  1.00  0.00     0.186 HD
HETATM   42  C1  UNL     1       2.835 -36.477  -8.195  1.00  0.00     0.180 C 
HETATM   43  C14 UNL     1       1.026 -37.166  -6.583  1.00  0.00     0.170 A 
BRANCH  43  44
HETATM   44  O5  UNL     1       1.769 -36.835  -5.489  1.00  0.00    -0.344 OA
ATOM     45  H5  UNL     1       1.796 -37.390  -4.717  1.00  0.00     0.219 HD
ENDBRANCH  43  44
ENDBRANCH  36  37
ENDBRANCH  34  36
ENDBRANCH  31  34
ENDBRANCH   1  30
TORSDOF 12
ENDMDL
MODEL 5
REMARK VINA RESULT: -7.930260294      2.634      9.897
REMARK  12 active torsions:
REMARK  status: ('A' for Active; 'I' for Inactive)
REMARK    1  A    between atoms: C3_6  and  C4_7 
REMARK    2  A    between atoms: C4_7  and  N3_8 
REMARK    3  A    between atoms: N3_8  and  N4_10 
REMARK       I    between atoms: N4_10  and  C5_12 
REMARK    4  A    between atoms: C5_12  and  C6_14 
REMARK    5  A    between atoms: N5_16  and  C8_17 
REMARK    6  A    between atoms: C9_22  and  C10_23 
REMARK    7  A    between atoms: C10_23  and  N8_24 
REMARK    8  A    between atoms: C10_23  and  N9_28 
REMARK    9  A    between atoms: N9_28  and  N10_29 
REMARK   10  A    between atoms: C11_32  and  O2_33 
REMARK   11  A    between atoms: C12_35  and  C13_36 
REMARK   12  A    between atoms: C14_43  and  O5_44 
ROOT
HETATM    1  C6  UNL     1      -0.574 -37.964  -1.237  1.00  0.00     0.136 A 
HETATM    2  C7  UNL     1      -0.823 -39.171  -0.610  1.00  0.00     0.156 A 
HETATM    3  N5  UNL     1      -0.159 -39.152   0.583  1.00  0.00    -0.232 N 
HETATM    4  N11 UNL     1       0.462 -37.991   0.674  1.00  0.00    -0.234 N 
ATOM      5  H11 UNL     1       1.040 -37.692   1.459  1.00  0.00     0.209 HD
HETATM    6  N12 UNL     1       0.222 -37.284  -0.398  1.00  0.00    -0.279 N 
ATOM      7  H12 UNL     1       0.587 -36.348  -0.573  1.00  0.00     0.189 HD
ENDROOT
BRANCH   3   8
HETATM    8  C8  UNL     1      -0.165 -40.248   1.510  1.00  0.00     0.162 A 
HETATM    9  N6  UNL     1      -1.241 -40.396   2.328  1.00  0.00    -0.283 N 
HETATM   10  N7  UNL     1      -1.361 -41.359   3.216  1.00  0.00    -0.297 N 
ATOM     11  H6  UNL     1      -2.000 -39.720   2.248  1.00  0.00     0.188 HD
HETATM   12  C9  UNL     1      -0.413 -42.284   3.384  1.00  0.00     0.107 A 
ATOM     13  H7  UNL     1      -2.202 -41.400   3.791  1.00  0.00     0.187 HD
HETATM   14  C11 UNL     1       0.730 -42.186   2.566  1.00  0.00     0.114 A 
HETATM   15  C12 UNL     1       0.857 -41.163   1.623  1.00  0.00     0.123 A 
BRANCH  12  16
HETATM   16  C10 UNL     1      -0.530 -43.378   4.380  1.00  0.00     0.348 C 
BRANCH  16  17
HETATM   17  N8  UNL     1       0.529 -43.352   5.353  1.00  0.00    -0.054 N 
ATOM     18  H83 UNL     1       1.102 -44.194   5.296  1.00  0.00     0.276 HD
ATOM     19  H82 UNL     1       1.235 -42.657   5.109  1.00  0.00     0.276 HD
ATOM     20  H81 UNL     1       0.183 -43.207   6.302  1.00  0.00     0.276 HD
ENDBRANCH  16  17
BRANCH  16  21
HETATM   21  N9  UNL     1      -1.847 -43.238   5.019  1.00  0.00    -0.108 NA
BRANCH  21  22
HETATM   22  N10 UNL     1      -1.993 -44.078   6.104  1.00  0.00    -0.346 N 
ATOM     23 2H10 UNL     1      -2.871 -44.187   6.610  1.00  0.00     0.172 HD
ATOM     24 1H10 UNL     1      -1.127 -44.567   6.332  1.00  0.00     0.172 HD
ENDBRANCH  21  22
ENDBRANCH  16  21
ENDBRANCH  12  16
BRANCH  14  25
HETATM   25  O2  UNL     1       1.664 -43.130   2.759  1.00  0.00    -0.357 OA
ATOM     26  H2  UNL     1       1.928 -43.267   3.662  1.00  0.00     0.217 HD
ENDBRANCH  14  25
BRANCH  15  27
HETATM   27  C13 UNL     1       2.031 -41.044   0.768  1.00  0.00     0.216 C 
HETATM   28  O3  UNL     1       2.313 -41.908  -0.110  1.00  0.00    -0.644 OA
HETATM   29  O4  UNL     1       2.913 -39.989   0.855  1.00  0.00    -0.644 OA
ENDBRANCH  15  27
ENDBRANCH   3   8
BRANCH   1  30
HETATM   30  C5  UNL     1      -1.089 -37.564  -2.535  1.00  0.00     0.289 C 
HETATM   31  N4  UNL     1      -0.751 -36.329  -3.176  1.00  0.00    -0.265 N 
ATOM     32  H4  UNL     1      -0.114 -35.697  -2.692  1.00  0.00     0.190 HD
HETATM   33  O1  UNL     1      -1.872 -38.329  -3.144  1.00  0.00    -0.264 OA
BRANCH  31  34
HETATM   34  N3  UNL     1      -1.218 -35.954  -4.365  1.00  0.00    -0.308 N 
ATOM     35  H3  UNL     1      -2.192 -35.655  -4.303  1.00  0.00     0.186 HD
BRANCH  34  36
HETATM   36  C4  UNL     1      -0.798 -35.870  -5.511  1.00  0.00     0.124 C 
BRANCH  36  37
HETATM   37  C3  UNL     1      -0.496 -36.883  -6.494  1.00  0.00     0.050 A 
HETATM   38  C2  UNL     1       0.441 -36.707  -7.532  1.00  0.00     0.124 A 
HETATM   39  N2  UNL     1       0.480 -37.830  -8.259  1.00  0.00    -0.307 N 
HETATM   40  N1  UNL     1      -0.344 -38.724  -7.793  1.00  0.00    -0.275 N 
ATOM     41  H2  UNL     1       1.078 -37.969  -9.073  1.00  0.00     0.186 HD
HETATM   42  C1  UNL     1      -0.604 -40.080  -8.299  1.00  0.00     0.180 C 
HETATM   43  C14 UNL     1      -0.951 -38.158  -6.709  1.00  0.00     0.170 A 
BRANCH  43  44
HETATM   44  O5  UNL     1      -1.884 -38.832  -5.978  1.00  0.00    -0.344 OA
ATOM     45  H5  UNL     1      -2.177 -38.518  -5.130  1.00  0.00     0.219 HD
ENDBRANCH  43  44
ENDBRANCH  36  37
ENDBRANCH  34  36
ENDBRANCH  31  34
ENDBRANCH   1  30
TORSDOF 12
ENDMDL
