MODEL 1
REMARK VINA RESULT: -7.505930702      0.000      0.000
REMARK  11 active torsions:
REMARK  status: ('A' for Active; 'I' for Inactive)
REMARK    1  A    between atoms: N1_1  and  C1_4 
REMARK    2  A    between atoms: C2_7  and  C3_8 
REMARK    3  A    between atoms: C6_16  and  N5_17 
REMARK    4  A    between atoms: N6_21  and  C7_22 
REMARK    5  A    between atoms: N10_29  and  C8_30 
REMARK    6  A    between atoms: C8_30  and  O1_31 
REMARK    7  A    between atoms: O1_31  and  C9_32 
REMARK    8  A    between atoms: C9_32  and  O2_33 
REMARK    9  A    between atoms: C9_32  and  C10_35 
REMARK   10  A    between atoms: C10_35  and  O3_36 
REMARK   11  A    between atoms: C12_41  and  N12_42 
ROOT
HETATM    1  C3  UNL     1       0.214 -40.924   2.180  1.00  0.00     0.122 A 
HETATM    2  N3  UNL     1      -0.369 -40.679   1.030  1.00  0.00    -0.344 N 
ATOM      3  H3  UNL     1      -0.704 -41.454   0.458  1.00  0.00     0.167 HD
HETATM    4  C4  UNL     1      -0.524 -39.452   0.613  1.00  0.00     0.083 A 
HETATM    5  C5  UNL     1      -0.053 -38.448   1.427  1.00  0.00     0.103 A 
HETATM    6  S1  UNL     1       0.580 -39.338   2.737  1.00  0.00    -0.049 SA
HETATM    7  N4  UNL     1      -0.169 -37.050   1.079  1.00  0.00    -0.338 N 
ATOM      8  H4  UNL     1      -0.345 -36.342   1.792  1.00  0.00     0.164 HD
HETATM    9  C6  UNL     1      -0.027 -36.691  -0.299  1.00  0.00     0.409 C 
HETATM   10  N6  UNL     1      -0.616 -37.743  -1.118  1.00  0.00    -0.141 N 
HETATM   11  C11 UNL     1      -1.168 -38.945  -0.678  1.00  0.00     0.145 C 
ENDROOT
BRANCH  10  12
HETATM   12  C7  UNL     1      -0.556 -37.440  -2.521  1.00  0.00     0.723 A 
HETATM   13  N7  UNL     1      -1.721 -36.943  -3.083  1.00  0.00    -0.114 N 
HETATM   14  N8  UNL     1      -1.469 -36.812  -4.348  1.00  0.00    -0.213 N 
ATOM     15  H7  UNL     1      -2.594 -36.725  -2.603  1.00  0.00     0.207 HD
HETATM   16  N9  UNL     1      -0.236 -37.191  -4.602  1.00  0.00    -0.209 N 
ATOM     17  H8  UNL     1      -2.129 -36.465  -5.044  1.00  0.00     0.210 HD
HETATM   18  N10 UNL     1       0.363 -37.593  -3.445  1.00  0.00    -0.082 N 
ATOM     19  H9  UNL     1       0.204 -37.186  -5.522  1.00  0.00     0.210 HD
BRANCH  18  20
HETATM   20  C8  UNL     1       1.727 -38.002  -3.338  1.00  0.00     0.340 C 
BRANCH  20  21
HETATM   21  O1  UNL     1       1.872 -39.283  -2.939  1.00  0.00    -0.338 OA
BRANCH  21  22
HETATM   22  C9  UNL     1       2.680 -39.705  -1.966  1.00  0.00     0.282 C 
BRANCH  22  23
HETATM   23  O2  UNL     1       3.977 -39.918  -2.518  1.00  0.00    -0.369 OA
ATOM     24  H2  UNL     1       4.568 -40.157  -1.814  1.00  0.00     0.212 HD
ENDBRANCH  22  23
BRANCH  22  25
HETATM   25  C10 UNL     1       2.152 -41.086  -1.509  1.00  0.00     0.224 C 
BRANCH  25  26
HETATM   26  O3  UNL     1       2.445 -41.313  -0.181  1.00  0.00    -0.396 OA
ATOM     27  H3  UNL     1       2.367 -42.235   0.032  1.00  0.00     0.209 HD
ENDBRANCH  25  26
ENDBRANCH  22  25
ENDBRANCH  21  22
ENDBRANCH  20  21
ENDBRANCH  18  20
ENDBRANCH  10  12
BRANCH   9  28
HETATM   28  N5  UNL     1      -0.368 -35.368  -0.644  1.00  0.00    -0.040 N 
ATOM     29  H53 UNL     1      -0.089 -34.735   0.107  1.00  0.00     0.279 HD
ATOM     30  H52 UNL     1       0.239 -35.042  -1.397  1.00  0.00     0.279 HD
ATOM     31  H51 UNL     1      -1.343 -35.198  -0.891  1.00  0.00     0.279 HD
ENDBRANCH   9  28
BRANCH   1  32
HETATM   32  C2  UNL     1       0.496 -42.192   2.849  1.00  0.00     0.170 A 
HETATM   33  N2  UNL     1      -0.217 -42.592   3.893  1.00  0.00    -0.173 N 
HETATM   34  C1  UNL     1       0.046 -43.773   4.518  1.00  0.00     0.692 A 
ATOM     35  H2  UNL     1      -0.977 -42.003   4.234  1.00  0.00     0.186 HD
HETATM   36  N13 UNL     1       1.042 -44.560   4.085  1.00  0.00    -0.023 N 
HETATM   37  C12 UNL     1       1.773 -44.149   3.016  1.00  0.00     0.692 A 
ATOM     38  H13 UNL     1       1.245 -45.447   4.548  1.00  0.00     0.203 HD
HETATM   39  N11 UNL     1       1.494 -42.974   2.410  1.00  0.00    -0.173 N 
ATOM     40  H11 UNL     1       2.051 -42.678   1.608  1.00  0.00     0.186 HD
BRANCH  34  41
HETATM   41  N1  UNL     1      -0.643 -44.168   5.531  1.00  0.00    -0.234 N 
ATOM     42  H12 UNL     1      -1.654 -44.037   5.506  1.00  0.00     0.174 HD
ATOM     43  H11 UNL     1      -0.201 -44.601   6.342  1.00  0.00     0.174 HD
ENDBRANCH  34  41
BRANCH  37  44
HETATM   44  N12 UNL     1       2.722 -44.913   2.614  1.00  0.00    -0.234 N 
ATOM     45 2H12 UNL     1       2.791 -45.841   3.032  1.00  0.00     0.174 HD
ATOM     46 1H12 UNL     1       3.389 -44.618   1.901  1.00  0.00     0.174 HD
ENDBRANCH  37  44
ENDBRANCH   1  32
TORSDOF 11
ENDMDL
MODEL 2
REMARK VINA RESULT: -7.439543204      3.114      4.660
REMARK  11 active torsions:
REMARK  status: ('A' for Active; 'I' for Inactive)
REMARK    1  A    between atoms: N1_1  and  C1_4 
REMARK    2  A    between atoms: C2_7  and  C3_8 
REMARK    3  A    between atoms: C6_16  and  N5_17 
REMARK    4  A    between atoms: N6_21  and  C7_22 
REMARK    5  A    between atoms: N10_29  and  C8_30 
REMARK    6  A    between atoms: C8_30  and  O1_31 
REMARK    7  A    between atoms: O1_31  and  C9_32 
REMARK    8  A    between atoms: C9_32  and  O2_33 
REMARK    9  A    between atoms: C9_32  and  C10_35 
REMARK   10  A    between atoms: C10_35  and  O3_36 
REMARK   11  A    between atoms: C12_41  and  N12_42 
ROOT
HETATM    1  C3  UNL     1      -1.793 -41.941   4.397  1.00  0.00     0.122 A 
HETATM    2  N3  UNL     1      -1.801 -41.626   3.123  1.00  0.00    -0.344 N 
ATOM      3  H3  UNL     1      -2.535 -41.992   2.517  1.00  0.00     0.167 HD
HETATM    4  C4  UNL     1      -0.878 -40.849   2.625  1.00  0.00     0.083 A 
HETATM    5  C5  UNL     1       0.085 -40.385   3.491  1.00  0.00     0.103 A 
HETATM    6  S1  UNL     1      -0.402 -41.099   4.961  1.00  0.00    -0.049 SA
HETATM    7  N4  UNL     1       1.158 -39.515   3.062  1.00  0.00    -0.338 N 
ATOM      8  H4  UNL     1       1.510 -38.775   3.670  1.00  0.00     0.164 HD
HETATM    9  C6  UNL     1       1.709 -39.726   1.759  1.00  0.00     0.409 C 
HETATM   10  N6  UNL     1       0.636 -40.132   0.859  1.00  0.00    -0.141 N 
HETATM   11  C11 UNL     1      -0.699 -40.360   1.188  1.00  0.00     0.145 C 
ENDROOT
BRANCH  10  12
HETATM   12  C7  UNL     1       1.097 -40.324  -0.488  1.00  0.00     0.723 A 
HETATM   13  N7  UNL     1       1.670 -41.556  -0.761  1.00  0.00    -0.114 N 
HETATM   14  N8  UNL     1       2.075 -41.486  -1.991  1.00  0.00    -0.213 N 
ATOM     15  H7  UNL     1       1.756 -42.350  -0.128  1.00  0.00     0.207 HD
HETATM   16  N9  UNL     1       1.792 -40.304  -2.491  1.00  0.00    -0.209 N 
ATOM     17  H8  UNL     1       2.544 -42.238  -2.496  1.00  0.00     0.210 HD
HETATM   18  N10 UNL     1       1.163 -39.550  -1.545  1.00  0.00    -0.082 N 
ATOM     19  H9  UNL     1       2.008 -39.998  -3.439  1.00  0.00     0.210 HD
BRANCH  18  20
HETATM   20  C8  UNL     1       0.648 -38.236  -1.766  1.00  0.00     0.340 C 
BRANCH  20  21
HETATM   21  O1  UNL     1      -0.130 -37.790  -0.758  1.00  0.00    -0.338 OA
BRANCH  21  22
HETATM   22  C9  UNL     1      -0.047 -36.587  -0.189  1.00  0.00     0.282 C 
BRANCH  22  23
HETATM   23  O2  UNL     1       1.298 -36.379   0.233  1.00  0.00    -0.369 OA
ATOM     24  H2  UNL     1       1.558 -37.110   0.781  1.00  0.00     0.212 HD
ENDBRANCH  22  23
BRANCH  22  25
HETATM   25  C10 UNL     1      -0.919 -36.632   1.089  1.00  0.00     0.224 C 
BRANCH  25  26
HETATM   26  O3  UNL     1      -0.174 -37.020   2.183  1.00  0.00    -0.396 OA
ATOM     27  H3  UNL     1      -0.736 -37.251   2.913  1.00  0.00     0.209 HD
ENDBRANCH  25  26
ENDBRANCH  22  25
ENDBRANCH  21  22
ENDBRANCH  20  21
ENDBRANCH  18  20
ENDBRANCH  10  12
BRANCH   9  28
HETATM   28  N5  UNL     1       2.584 -38.733   1.277  1.00  0.00    -0.040 N 
ATOM     29  H53 UNL     1       2.346 -38.505   0.311  1.00  0.00     0.279 HD
ATOM     30  H52 UNL     1       2.380 -37.845   1.735  1.00  0.00     0.279 HD
ATOM     31  H51 UNL     1       3.583 -38.933   1.346  1.00  0.00     0.279 HD
ENDBRANCH   9  28
BRANCH   1  32
HETATM   32  C2  UNL     1      -2.704 -42.779   5.174  1.00  0.00     0.170 A 
HETATM   33  N2  UNL     1      -2.268 -43.851   5.820  1.00  0.00    -0.173 N 
HETATM   34  C1  UNL     1      -3.116 -44.634   6.544  1.00  0.00     0.692 A 
ATOM     35  H2  UNL     1      -1.278 -44.095   5.774  1.00  0.00     0.186 HD
HETATM   36  N13 UNL     1      -4.420 -44.331   6.615  1.00  0.00    -0.023 N 
HETATM   37  C12 UNL     1      -4.866 -43.232   5.952  1.00  0.00     0.692 A 
ATOM     38  H13 UNL     1      -5.062 -44.912   7.155  1.00  0.00     0.203 HD
HETATM   39  N11 UNL     1      -4.008 -42.469   5.241  1.00  0.00    -0.173 N 
ATOM     40  H11 UNL     1      -4.356 -41.647   4.748  1.00  0.00     0.186 HD
BRANCH  34  41
HETATM   41  N1  UNL     1      -2.699 -45.676   7.174  1.00  0.00    -0.234 N 
ATOM     42  H12 UNL     1      -2.634 -45.629   8.191  1.00  0.00     0.174 HD
ATOM     43  H11 UNL     1      -2.440 -46.531   6.681  1.00  0.00     0.174 HD
ENDBRANCH  34  41
BRANCH  37  44
HETATM   44  N12 UNL     1      -6.117 -42.955   6.031  1.00  0.00    -0.234 N 
ATOM     45 2H12 UNL     1      -6.407 -42.007   5.792  1.00  0.00     0.174 HD
ATOM     46 1H12 UNL     1      -6.807 -43.649   6.319  1.00  0.00     0.174 HD
ENDBRANCH  37  44
ENDBRANCH   1  32
TORSDOF 11
ENDMDL
MODEL 3
REMARK VINA RESULT: -7.422755264      2.721      4.077
REMARK  11 active torsions:
REMARK  status: ('A' for Active; 'I' for Inactive)
REMARK    1  A    between atoms: N1_1  and  C1_4 
REMARK    2  A    between atoms: C2_7  and  C3_8 
REMARK    3  A    between atoms: C6_16  and  N5_17 
REMARK    4  A    between atoms: N6_21  and  C7_22 
REMARK    5  A    between atoms: N10_29  and  C8_30 
REMARK    6  A    between atoms: C8_30  and  O1_31 
REMARK    7  A    between atoms: O1_31  and  C9_32 
REMARK    8  A    between atoms: C9_32  and  O2_33 
REMARK    9  A    between atoms: C9_32  and  C10_35 
REMARK   10  A    between atoms: C10_35  and  O3_36 
REMARK   11  A    between atoms: C12_41  and  N12_42 
ROOT
HETATM    1  C3  UNL     1       1.403 -41.369   0.811  1.00  0.00     0.122 A 
HETATM    2  N3  UNL     1       0.922 -40.153   0.931  1.00  0.00    -0.344 N 
ATOM      3  H3  UNL     1       0.630 -39.814   1.848  1.00  0.00     0.167 HD
HETATM    4  C4  UNL     1       0.813 -39.376  -0.112  1.00  0.00     0.083 A 
HETATM    5  C5  UNL     1       1.222 -39.888  -1.321  1.00  0.00     0.103 A 
HETATM    6  S1  UNL     1       1.735 -41.453  -0.876  1.00  0.00    -0.049 SA
HETATM    7  N4  UNL     1       1.155 -39.126  -2.548  1.00  0.00    -0.338 N 
ATOM      8  H4  UNL     1       1.875 -39.217  -3.265  1.00  0.00     0.164 HD
HETATM    9  C6  UNL     1       0.046 -38.239  -2.724  1.00  0.00     0.409 C 
HETATM   10  N6  UNL     1      -0.294 -37.656  -1.431  1.00  0.00    -0.141 N 
HETATM   11  C11 UNL     1       0.287 -37.943  -0.198  1.00  0.00     0.145 C 
ENDROOT
BRANCH  10  12
HETATM   12  C7  UNL     1      -1.376 -36.715  -1.525  1.00  0.00     0.723 A 
HETATM   13  N7  UNL     1      -2.640 -37.219  -1.262  1.00  0.00    -0.114 N 
HETATM   14  N8  UNL     1      -3.458 -36.235  -1.473  1.00  0.00    -0.213 N 
ATOM     15  H7  UNL     1      -2.878 -38.165  -0.965  1.00  0.00     0.207 HD
HETATM   16  N9  UNL     1      -2.788 -35.167  -1.845  1.00  0.00    -0.209 N 
ATOM     17  H8  UNL     1      -4.471 -36.283  -1.365  1.00  0.00     0.210 HD
HETATM   18  N10 UNL     1      -1.457 -35.455  -1.880  1.00  0.00    -0.082 N 
ATOM     19  H9  UNL     1      -3.201 -34.262  -2.072  1.00  0.00     0.210 HD
BRANCH  18  20
HETATM   20  C8  UNL     1      -0.429 -34.507  -2.174  1.00  0.00     0.340 C 
BRANCH  20  21
HETATM   21  O1  UNL     1      -0.401 -34.133  -3.470  1.00  0.00    -0.338 OA
BRANCH  21  22
HETATM   22  C9  UNL     1       0.690 -33.779  -4.151  1.00  0.00     0.282 C 
BRANCH  22  23
HETATM   23  O2  UNL     1       1.595 -34.880  -4.156  1.00  0.00    -0.369 OA
ATOM     24  H2  UNL     1       2.365 -34.639  -3.655  1.00  0.00     0.212 HD
ENDBRANCH  22  23
BRANCH  22  25
HETATM   25  C10 UNL     1       1.369 -32.640  -3.353  1.00  0.00     0.224 C 
BRANCH  25  26
HETATM   26  O3  UNL     1       2.575 -33.055  -2.828  1.00  0.00    -0.396 OA
ATOM     27  H3  UNL     1       2.906 -32.426  -2.198  1.00  0.00     0.209 HD
ENDBRANCH  25  26
ENDBRANCH  22  25
ENDBRANCH  21  22
ENDBRANCH  20  21
ENDBRANCH  18  20
ENDBRANCH  10  12
BRANCH   9  28
HETATM   28  N5  UNL     1       0.121 -37.345  -3.810  1.00  0.00    -0.040 N 
ATOM     29  H53 UNL     1      -0.599 -37.577  -4.495  1.00  0.00     0.279 HD
ATOM     30  H52 UNL     1      -0.193 -36.420  -3.515  1.00  0.00     0.279 HD
ATOM     31  H51 UNL     1       1.025 -37.268  -4.276  1.00  0.00     0.279 HD
ENDBRANCH   9  28
BRANCH   1  32
HETATM   32  C2  UNL     1       1.618 -42.408   1.815  1.00  0.00     0.170 A 
HETATM   33  N2  UNL     1       2.501 -43.378   1.621  1.00  0.00    -0.173 N 
HETATM   34  C1  UNL     1       2.702 -44.348   2.556  1.00  0.00     0.692 A 
ATOM     35  H2  UNL     1       3.039 -43.399   0.754  1.00  0.00     0.186 HD
HETATM   36  N13 UNL     1       2.003 -44.339   3.701  1.00  0.00    -0.023 N 
HETATM   37  C12 UNL     1       1.098 -43.345   3.898  1.00  0.00     0.692 A 
ATOM     38  H13 UNL     1       2.148 -45.062   4.406  1.00  0.00     0.203 HD
HETATM   39  N11 UNL     1       0.915 -42.392   2.958  1.00  0.00    -0.173 N 
ATOM     40  H11 UNL     1       0.233 -41.651   3.119  1.00  0.00     0.186 HD
BRANCH  34  41
HETATM   41  N1  UNL     1       3.557 -45.293   2.374  1.00  0.00    -0.234 N 
ATOM     42  H12 UNL     1       3.283 -46.243   2.621  1.00  0.00     0.174 HD
ATOM     43  H11 UNL     1       4.486 -45.107   1.995  1.00  0.00     0.174 HD
ENDBRANCH  34  41
BRANCH  37  44
HETATM   44  N12 UNL     1       0.438 -43.350   4.998  1.00  0.00    -0.234 N 
ATOM     45 2H12 UNL     1      -0.559 -43.559   4.951  1.00  0.00     0.174 HD
ATOM     46 1H12 UNL     1       0.882 -43.155   5.896  1.00  0.00     0.174 HD
ENDBRANCH  37  44
ENDBRANCH   1  32
TORSDOF 11
ENDMDL
MODEL 4
REMARK VINA RESULT: -7.337984242      2.752      3.847
REMARK  11 active torsions:
REMARK  status: ('A' for Active; 'I' for Inactive)
REMARK    1  A    between atoms: N1_1  and  C1_4 
REMARK    2  A    between atoms: C2_7  and  C3_8 
REMARK    3  A    between atoms: C6_16  and  N5_17 
REMARK    4  A    between atoms: N6_21  and  C7_22 
REMARK    5  A    between atoms: N10_29  and  C8_30 
REMARK    6  A    between atoms: C8_30  and  O1_31 
REMARK    7  A    between atoms: O1_31  and  C9_32 
REMARK    8  A    between atoms: C9_32  and  O2_33 
REMARK    9  A    between atoms: C9_32  and  C10_35 
REMARK   10  A    between atoms: C10_35  and  O3_36 
REMARK   11  A    between atoms: C12_41  and  N12_42 
ROOT
HETATM    1  C3  UNL     1       1.469 -41.408   0.791  1.00  0.00     0.122 A 
HETATM    2  N3  UNL     1       0.993 -40.189   0.895  1.00  0.00    -0.344 N 
ATOM      3  H3  UNL     1       0.690 -39.841   1.804  1.00  0.00     0.167 HD
HETATM    4  C4  UNL     1       0.903 -39.419  -0.156  1.00  0.00     0.083 A 
HETATM    5  C5  UNL     1       1.328 -39.943  -1.355  1.00  0.00     0.103 A 
HETATM    6  S1  UNL     1       1.826 -41.506  -0.890  1.00  0.00    -0.049 SA
HETATM    7  N4  UNL     1       1.283 -39.190  -2.588  1.00  0.00    -0.338 N 
ATOM      8  H4  UNL     1       2.013 -39.290  -3.294  1.00  0.00     0.164 HD
HETATM    9  C6  UNL     1       0.181 -38.299  -2.788  1.00  0.00     0.409 C 
HETATM   10  N6  UNL     1      -0.176 -37.705  -1.505  1.00  0.00    -0.141 N 
HETATM   11  C11 UNL     1       0.385 -37.985  -0.260  1.00  0.00     0.145 C 
ENDROOT
BRANCH  10  12
HETATM   12  C7  UNL     1      -1.252 -36.759  -1.622  1.00  0.00     0.723 A 
HETATM   13  N7  UNL     1      -2.530 -37.281  -1.508  1.00  0.00    -0.114 N 
HETATM   14  N8  UNL     1      -3.333 -36.284  -1.715  1.00  0.00    -0.213 N 
ATOM     15  H7  UNL     1      -2.787 -38.247  -1.304  1.00  0.00     0.207 HD
HETATM   16  N9  UNL     1      -2.641 -35.192  -1.947  1.00  0.00    -0.209 N 
ATOM     17  H8  UNL     1      -4.351 -36.340  -1.700  1.00  0.00     0.210 HD
HETATM   18  N10 UNL     1      -1.309 -35.476  -1.888  1.00  0.00    -0.082 N 
ATOM     19  H9  UNL     1      -3.038 -34.273  -2.141  1.00  0.00     0.210 HD
BRANCH  18  20
HETATM   20  C8  UNL     1      -0.266 -34.509  -2.020  1.00  0.00     0.340 C 
BRANCH  20  21
HETATM   21  O1  UNL     1      -0.313 -33.827  -3.183  1.00  0.00    -0.338 OA
BRANCH  21  22
HETATM   22  C9  UNL     1       0.710 -33.654  -4.022  1.00  0.00     0.282 C 
BRANCH  22  23
HETATM   23  O2  UNL     1       1.515 -34.830  -4.000  1.00  0.00    -0.369 OA
ATOM     24  H2  UNL     1       1.577 -35.169  -4.885  1.00  0.00     0.212 HD
ENDBRANCH  22  23
BRANCH  22  25
HETATM   25  C10 UNL     1       1.572 -32.505  -3.448  1.00  0.00     0.224 C 
BRANCH  25  26
HETATM   26  O3  UNL     1       2.679 -32.999  -2.789  1.00  0.00    -0.396 OA
ATOM     27  H3  UNL     1       2.489 -33.837  -2.384  1.00  0.00     0.209 HD
ENDBRANCH  25  26
ENDBRANCH  22  25
ENDBRANCH  21  22
ENDBRANCH  20  21
ENDBRANCH  18  20
ENDBRANCH  10  12
BRANCH   9  28
HETATM   28  N5  UNL     1       0.276 -37.414  -3.880  1.00  0.00    -0.040 N 
ATOM     29  H53 UNL     1       1.257 -37.264  -4.115  1.00  0.00     0.279 HD
ATOM     30  H52 UNL     1      -0.050 -37.879  -4.727  1.00  0.00     0.279 HD
ATOM     31  H51 UNL     1      -0.195 -36.514  -3.780  1.00  0.00     0.279 HD
ENDBRANCH   9  28
BRANCH   1  32
HETATM   32  C2  UNL     1       1.665 -42.440   1.806  1.00  0.00     0.170 A 
HETATM   33  N2  UNL     1       0.969 -42.434   2.934  1.00  0.00    -0.173 N 
HETATM   34  C1  UNL     1       1.150 -43.395   3.883  1.00  0.00     0.692 A 
ATOM     35  H2  UNL     1       0.284 -41.694   3.096  1.00  0.00     0.186 HD
HETATM   36  N13 UNL     1       2.046 -44.375   3.689  1.00  0.00    -0.023 N 
HETATM   37  C12 UNL     1       2.759 -44.380   2.533  1.00  0.00     0.692 A 
ATOM     38  H13 UNL     1       2.187 -45.099   4.393  1.00  0.00     0.203 HD
HETATM   39  N11 UNL     1       2.562 -43.417   1.606  1.00  0.00    -0.173 N 
ATOM     40  H11 UNL     1       3.104 -43.433   0.741  1.00  0.00     0.186 HD
BRANCH  34  41
HETATM   41  N1  UNL     1       0.478 -43.396   4.980  1.00  0.00    -0.234 N 
ATOM     42  H12 UNL     1       0.362 -42.511   5.473  1.00  0.00     0.174 HD
ATOM     43  H11 UNL     1       0.067 -44.251   5.355  1.00  0.00     0.174 HD
ENDBRANCH  34  41
BRANCH  37  44
HETATM   44  N12 UNL     1       3.611 -45.324   2.362  1.00  0.00    -0.234 N 
ATOM     45 2H12 UNL     1       3.582 -45.833   1.479  1.00  0.00     0.174 HD
ATOM     46 1H12 UNL     1       4.299 -45.566   3.075  1.00  0.00     0.174 HD
ENDBRANCH  37  44
ENDBRANCH   1  32
TORSDOF 11
ENDMDL
MODEL 5
REMARK VINA RESULT: -7.253905019      2.540      3.587
REMARK  11 active torsions:
REMARK  status: ('A' for Active; 'I' for Inactive)
REMARK    1  A    between atoms: N1_1  and  C1_4 
REMARK    2  A    between atoms: C2_7  and  C3_8 
REMARK    3  A    between atoms: C6_16  and  N5_17 
REMARK    4  A    between atoms: N6_21  and  C7_22 
REMARK    5  A    between atoms: N10_29  and  C8_30 
REMARK    6  A    between atoms: C8_30  and  O1_31 
REMARK    7  A    between atoms: O1_31  and  C9_32 
REMARK    8  A    between atoms: C9_32  and  O2_33 
REMARK    9  A    between atoms: C9_32  and  C10_35 
REMARK   10  A    between atoms: C10_35  and  O3_36 
REMARK   11  A    between atoms: C12_41  and  N12_42 
ROOT
HETATM    1  C3  UNL     1       0.251 -41.187   1.633  1.00  0.00     0.122 A 
HETATM    2  N3  UNL     1       0.182 -41.074   0.327  1.00  0.00    -0.344 N 
ATOM      3  H3  UNL     1       0.442 -41.863  -0.263  1.00  0.00     0.167 HD
HETATM    4  C4  UNL     1      -0.216 -39.958  -0.222  1.00  0.00     0.083 A 
HETATM    5  C5  UNL     1      -0.554 -38.928   0.624  1.00  0.00     0.103 A 
HETATM    6  S1  UNL     1      -0.276 -39.633   2.152  1.00  0.00    -0.049 SA
HETATM    7  N4  UNL     1      -1.013 -37.646   0.139  1.00  0.00    -0.338 N 
ATOM      8  H4  UNL     1      -1.729 -37.119   0.638  1.00  0.00     0.164 HD
HETATM    9  C6  UNL     1      -0.429 -37.139  -1.066  1.00  0.00     0.409 C 
HETATM   10  N6  UNL     1      -0.168 -38.259  -1.963  1.00  0.00    -0.141 N 
HETATM   11  C11 UNL     1      -0.369 -39.613  -1.704  1.00  0.00     0.145 C 
ENDROOT
BRANCH  10  12
HETATM   12  C7  UNL     1       0.381 -37.832  -3.221  1.00  0.00     0.723 A 
HETATM   13  N7  UNL     1       1.665 -37.314  -3.175  1.00  0.00    -0.114 N 
HETATM   14  N8  UNL     1       1.930 -36.931  -4.385  1.00  0.00    -0.213 N 
ATOM     15  H7  UNL     1       2.275 -37.247  -2.360  1.00  0.00     0.207 HD
HETATM   16  N9  UNL     1       0.904 -37.177  -5.168  1.00  0.00    -0.209 N 
ATOM     17  H8  UNL     1       2.806 -36.502  -4.685  1.00  0.00     0.210 HD
HETATM   18  N10 UNL     1      -0.093 -37.756  -4.441  1.00  0.00    -0.082 N 
ATOM     19  H9  UNL     1       0.860 -36.968  -6.165  1.00  0.00     0.210 HD
BRANCH  18  20
HETATM   20  C8  UNL     1      -1.328 -38.223  -4.987  1.00  0.00     0.340 C 
BRANCH  20  21
HETATM   21  O1  UNL     1      -1.492 -37.906  -6.288  1.00  0.00    -0.338 OA
BRANCH  21  22
HETATM   22  C9  UNL     1      -1.014 -38.602  -7.321  1.00  0.00     0.282 C 
BRANCH  22  23
HETATM   23  O2  UNL     1      -1.801 -38.300  -8.470  1.00  0.00    -0.369 OA
ATOM     24  H2  UNL     1      -1.627 -38.956  -9.135  1.00  0.00     0.212 HD
ENDBRANCH  22  23
BRANCH  22  25
HETATM   25  C10 UNL     1      -1.241 -40.098  -6.999  1.00  0.00     0.224 C 
BRANCH  25  26
HETATM   26  O3  UNL     1      -1.062 -40.879  -8.122  1.00  0.00    -0.396 OA
ATOM     27  H3  UNL     1      -1.749 -41.530  -8.197  1.00  0.00     0.209 HD
ENDBRANCH  25  26
ENDBRANCH  22  25
ENDBRANCH  21  22
ENDBRANCH  20  21
ENDBRANCH  18  20
ENDBRANCH  10  12
BRANCH   9  28
HETATM   28  N5  UNL     1      -1.047 -36.011  -1.639  1.00  0.00    -0.040 N 
ATOM     29  H53 UNL     1      -1.204 -35.303  -0.921  1.00  0.00     0.279 HD
ATOM     30  H52 UNL     1      -0.381 -35.523  -2.240  1.00  0.00     0.279 HD
ATOM     31  H51 UNL     1      -1.913 -36.177  -2.153  1.00  0.00     0.279 HD
ENDBRANCH   9  28
BRANCH   1  32
HETATM   32  C2  UNL     1       0.659 -42.314   2.468  1.00  0.00     0.170 A 
HETATM   33  N2  UNL     1       1.679 -43.089   2.124  1.00  0.00    -0.173 N 
HETATM   34  C1  UNL     1       2.061 -44.141   2.901  1.00  0.00     0.692 A 
ATOM     35  H2  UNL     1       2.188 -42.893   1.261  1.00  0.00     0.186 HD
HETATM   36  N13 UNL     1       1.405 -44.415   4.038  1.00  0.00    -0.023 N 
HETATM   37  C12 UNL     1       0.359 -43.622   4.388  1.00  0.00     0.692 A 
ATOM     38  H13 UNL     1       1.684 -45.201   4.625  1.00  0.00     0.203 HD
HETATM   39  N11 UNL     1      -0.002 -42.583   3.604  1.00  0.00    -0.173 N 
ATOM     40  H11 UNL     1      -0.788 -41.994   3.879  1.00  0.00     0.186 HD
BRANCH  34  41
HETATM   41  N1  UNL     1       3.050 -44.897   2.574  1.00  0.00    -0.234 N 
ATOM     42  H12 UNL     1       3.978 -44.477   2.515  1.00  0.00     0.174 HD
ATOM     43  H11 UNL     1       2.922 -45.889   2.376  1.00  0.00     0.174 HD
ENDBRANCH  34  41
BRANCH  37  44
HETATM   44  N12 UNL     1      -0.258 -43.897   5.479  1.00  0.00    -0.234 N 
ATOM     45 2H12 UNL     1       0.259 -44.399   6.201  1.00  0.00     0.174 HD
ATOM     46 1H12 UNL     1      -1.230 -43.628   5.633  1.00  0.00     0.174 HD
ENDBRANCH  37  44
ENDBRANCH   1  32
TORSDOF 11
ENDMDL
