MODEL 1
REMARK VINA RESULT: -6.717315292      0.000      0.000
REMARK  8 active torsions:
REMARK  status: ('A' for Active; 'I' for Inactive)
REMARK    1  A    between atoms: N1_2  and  C2_4 
REMARK    2  A    between atoms: N1_2  and  C3_6 
REMARK    3  A    between atoms: C3_6  and  C4_7 
REMARK    4  A    between atoms: C4_7  and  N2_8 
REMARK    5  A    between atoms: N2_8  and  C5_10 
REMARK    6  A    between atoms: C5_10  and  N3_12 
REMARK    7  A    between atoms: N3_12  and  C6_14 
REMARK    8  A    between atoms: C9_22  and  N6_23 
ROOT
HETATM    1  N3  UNL     1     -22.664  -2.490  19.814  1.00  0.00    -0.316 N 
ATOM      2  H3  UNL     1     -22.596  -2.372  18.802  1.00  0.00     0.170 HD
ENDROOT
BRANCH   1   3
HETATM    3  C5  UNL     1     -22.814  -3.782  20.360  1.00  0.00     0.173 C 
HETATM    4  S1  UNL     1     -22.280  -4.033  21.878  1.00  0.00    -0.041 SA
BRANCH   3   5
HETATM    5  N2  UNL     1     -23.405  -4.842  19.633  1.00  0.00    -0.365 N 
ATOM      6  H2  UNL     1     -23.930  -4.629  18.784  1.00  0.00     0.161 HD
BRANCH   5   7
HETATM    7  C4  UNL     1     -23.286  -6.222  20.058  1.00  0.00     0.158 C 
BRANCH   7   8
HETATM    8  C3  UNL     1     -24.589  -6.731  20.621  1.00  0.00     0.332 C 
BRANCH   8   9
HETATM    9  N1  UNL     1     -25.347  -7.503  19.694  1.00  0.00     0.020 N 
HETATM   10  C1  UNL     1     -26.370  -8.310  20.289  1.00  0.00     0.357 C 
HETATM   11  O1  UNL     1     -25.974  -6.648  18.823  1.00  0.00    -0.064 OA
BRANCH   9  12
HETATM   12  C2  UNL     1     -24.526  -8.372  18.859  1.00  0.00     0.395 C 
HETATM   13 BR1  UNL     1     -24.405 -10.152  19.560  1.00  0.00    -0.058 Br
ENDBRANCH   9  12
ENDBRANCH   8   9
ENDBRANCH   7   8
ENDBRANCH   5   7
ENDBRANCH   3   5
ENDBRANCH   1   3
BRANCH   1  14
HETATM   14  C6  UNL     1     -22.614  -1.464  20.579  1.00  0.00     0.152 A 
HETATM   15  N4  UNL     1     -23.747  -1.007  21.140  1.00  0.00    -0.346 N 
HETATM   16  C7  UNL     1     -23.762   0.073  21.957  1.00  0.00     0.127 A 
ATOM     17  H4  UNL     1     -24.624  -1.491  20.944  1.00  0.00     0.167 HD
HETATM   18  C8  UNL     1     -22.592   0.734  22.232  1.00  0.00     0.096 A 
HETATM   19 BR2  UNL     1     -22.581   2.272  23.389  1.00  0.00    -0.030 Br
HETATM   20  N5  UNL     1     -21.459   0.279  21.671  1.00  0.00    -0.333 N 
HETATM   21  C9  UNL     1     -21.439  -0.792  20.859  1.00  0.00     0.145 A 
ATOM     22  H5  UNL     1     -20.583   0.764  21.869  1.00  0.00     0.168 HD
BRANCH  21  23
HETATM   23  N6  UNL     1     -20.352  -1.223  20.326  1.00  0.00    -0.382 N 
ATOM     24  H62 UNL     1     -20.239  -1.303  19.316  1.00  0.00     0.157 HD
ATOM     25  H61 UNL     1     -19.585  -1.490  20.944  1.00  0.00     0.157 HD
ENDBRANCH  21  23
ENDBRANCH   1  14
TORSDOF 8
ENDMDL
MODEL 2
REMARK VINA RESULT: -6.590485530      1.023      1.750
REMARK  8 active torsions:
REMARK  status: ('A' for Active; 'I' for Inactive)
REMARK    1  A    between atoms: N1_2  and  C2_4 
REMARK    2  A    between atoms: N1_2  and  C3_6 
REMARK    3  A    between atoms: C3_6  and  C4_7 
REMARK    4  A    between atoms: C4_7  and  N2_8 
REMARK    5  A    between atoms: N2_8  and  C5_10 
REMARK    6  A    between atoms: C5_10  and  N3_12 
REMARK    7  A    between atoms: N3_12  and  C6_14 
REMARK    8  A    between atoms: C9_22  and  N6_23 
ROOT
HETATM    1  N3  UNL     1     -23.207  -2.383  19.858  1.00  0.00    -0.316 N 
ATOM      2  H3  UNL     1     -23.960  -2.241  19.185  1.00  0.00     0.170 HD
ENDROOT
BRANCH   1   3
HETATM    3  C5  UNL     1     -22.940  -3.678  20.348  1.00  0.00     0.173 C 
HETATM    4  S1  UNL     1     -22.246  -3.809  21.816  1.00  0.00    -0.041 SA
BRANCH   3   5
HETATM    5  N2  UNL     1     -23.256  -4.842  19.608  1.00  0.00    -0.365 N 
ATOM      6  H2  UNL     1     -23.540  -4.747  18.633  1.00  0.00     0.161 HD
BRANCH   5   7
HETATM    7  C4  UNL     1     -23.190  -6.164  20.196  1.00  0.00     0.158 C 
BRANCH   7   8
HETATM    8  C3  UNL     1     -24.545  -6.610  20.685  1.00  0.00     0.332 C 
BRANCH   8   9
HETATM    9  N1  UNL     1     -25.294  -7.331  19.711  1.00  0.00     0.020 N 
HETATM   10  C1  UNL     1     -26.380  -8.097  20.243  1.00  0.00     0.357 C 
HETATM   11  O1  UNL     1     -25.838  -6.433  18.826  1.00  0.00    -0.064 OA
BRANCH   9  12
HETATM   12  C2  UNL     1     -24.476  -8.225  18.899  1.00  0.00     0.395 C 
HETATM   13 BR1  UNL     1     -24.456 -10.015  19.585  1.00  0.00    -0.058 Br
ENDBRANCH   9  12
ENDBRANCH   8   9
ENDBRANCH   7   8
ENDBRANCH   5   7
ENDBRANCH   3   5
ENDBRANCH   1   3
BRANCH   1  14
HETATM   14  C6  UNL     1     -22.509  -1.383  20.252  1.00  0.00     0.152 A 
HETATM   15  N4  UNL     1     -21.213  -1.309  19.904  1.00  0.00    -0.346 N 
HETATM   16  C7  UNL     1     -20.421  -0.279  20.288  1.00  0.00     0.127 A 
ATOM     17  H4  UNL     1     -20.813  -2.053  19.331  1.00  0.00     0.167 HD
HETATM   18  C8  UNL     1     -20.943   0.729  21.058  1.00  0.00     0.096 A 
HETATM   19 BR2  UNL     1     -19.843   2.205  21.619  1.00  0.00    -0.030 Br
HETATM   20  N5  UNL     1     -22.237   0.656  21.407  1.00  0.00    -0.333 N 
HETATM   21  C9  UNL     1     -23.028  -0.364  21.029  1.00  0.00     0.145 A 
ATOM     22  H5  UNL     1     -22.635   1.401  21.980  1.00  0.00     0.168 HD
BRANCH  21  23
HETATM   23  N6  UNL     1     -24.266  -0.428  21.365  1.00  0.00    -0.382 N 
ATOM     24  H62 UNL     1     -24.559  -0.736  22.293  1.00  0.00     0.157 HD
ATOM     25  H61 UNL     1     -24.968  -0.160  20.675  1.00  0.00     0.157 HD
ENDBRANCH  21  23
ENDBRANCH   1  14
TORSDOF 8
ENDMDL
MODEL 3
REMARK VINA RESULT: -6.274027790      1.797      2.405
REMARK  8 active torsions:
REMARK  status: ('A' for Active; 'I' for Inactive)
REMARK    1  A    between atoms: N1_2  and  C2_4 
REMARK    2  A    between atoms: N1_2  and  C3_6 
REMARK    3  A    between atoms: C3_6  and  C4_7 
REMARK    4  A    between atoms: C4_7  and  N2_8 
REMARK    5  A    between atoms: N2_8  and  C5_10 
REMARK    6  A    between atoms: C5_10  and  N3_12 
REMARK    7  A    between atoms: N3_12  and  C6_14 
REMARK    8  A    between atoms: C9_22  and  N6_23 
ROOT
HETATM    1  N3  UNL     1     -23.281  -2.070  19.857  1.00  0.00    -0.316 N 
ATOM      2  H3  UNL     1     -24.115  -2.039  19.270  1.00  0.00     0.170 HD
ENDROOT
BRANCH   1   3
HETATM    3  C5  UNL     1     -22.928  -3.270  20.509  1.00  0.00     0.173 C 
HETATM    4  S1  UNL     1     -22.335  -3.167  22.023  1.00  0.00    -0.041 SA
BRANCH   3   5
HETATM    5  N2  UNL     1     -23.076  -4.534  19.891  1.00  0.00    -0.365 N 
ATOM      6  H2  UNL     1     -22.915  -4.616  18.886  1.00  0.00     0.161 HD
BRANCH   5   7
HETATM    7  C4  UNL     1     -23.450  -5.714  20.642  1.00  0.00     0.158 C 
BRANCH   7   8
HETATM    8  C3  UNL     1     -23.357  -6.953  19.788  1.00  0.00     0.332 C 
BRANCH   8   9
HETATM    9  N1  UNL     1     -24.336  -7.939  20.105  1.00  0.00     0.020 N 
HETATM   10  C1  UNL     1     -24.294  -9.107  19.278  1.00  0.00     0.357 C 
HETATM   11  O1  UNL     1     -24.131  -8.360  21.395  1.00  0.00    -0.064 OA
BRANCH   9  12
HETATM   12  C2  UNL     1     -25.701  -7.427  20.078  1.00  0.00     0.395 C 
HETATM   13 BR1  UNL     1     -27.001  -8.803  20.383  1.00  0.00    -0.058 Br
ENDBRANCH   9  12
ENDBRANCH   8   9
ENDBRANCH   7   8
ENDBRANCH   5   7
ENDBRANCH   3   5
ENDBRANCH   1   3
BRANCH   1  14
HETATM   14  C6  UNL     1     -22.562  -1.020  19.997  1.00  0.00     0.152 A 
HETATM   15  N4  UNL     1     -21.283  -1.039  19.584  1.00  0.00    -0.346 N 
HETATM   16  C7  UNL     1     -20.470   0.038  19.703  1.00  0.00     0.127 A 
ATOM     17  H4  UNL     1     -20.913  -1.894  19.166  1.00  0.00     0.167 HD
HETATM   18  C8  UNL     1     -20.952   1.194  20.262  1.00  0.00     0.096 A 
HETATM   19 BR2  UNL     1     -19.821   2.741  20.446  1.00  0.00    -0.030 Br
HETATM   20  N5  UNL     1     -22.229   1.215  20.675  1.00  0.00    -0.333 N 
HETATM   21  C9  UNL     1     -23.040   0.149  20.559  1.00  0.00     0.145 A 
ATOM     22  H5  UNL     1     -22.597   2.071  21.093  1.00  0.00     0.168 HD
BRANCH  21  23
HETATM   23  N6  UNL     1     -24.262   0.176  20.956  1.00  0.00    -0.382 N 
ATOM     24  H62 UNL     1     -25.001  -0.331  20.469  1.00  0.00     0.157 HD
ATOM     25  H61 UNL     1     -24.487   0.724  21.786  1.00  0.00     0.157 HD
ENDBRANCH  21  23
ENDBRANCH   1  14
TORSDOF 8
ENDMDL
MODEL 4
REMARK VINA RESULT: -6.116064515      1.824      1.954
REMARK  8 active torsions:
REMARK  status: ('A' for Active; 'I' for Inactive)
REMARK    1  A    between atoms: N1_2  and  C2_4 
REMARK    2  A    between atoms: N1_2  and  C3_6 
REMARK    3  A    between atoms: C3_6  and  C4_7 
REMARK    4  A    between atoms: C4_7  and  N2_8 
REMARK    5  A    between atoms: N2_8  and  C5_10 
REMARK    6  A    between atoms: C5_10  and  N3_12 
REMARK    7  A    between atoms: N3_12  and  C6_14 
REMARK    8  A    between atoms: C9_22  and  N6_23 
ROOT
HETATM    1  N3  UNL     1     -21.388  -2.264  20.281  1.00  0.00    -0.316 N 
ATOM      2  H3  UNL     1     -20.471  -2.589  19.973  1.00  0.00     0.170 HD
ENDROOT
BRANCH   1   3
HETATM    3  C5  UNL     1     -22.324  -3.188  20.787  1.00  0.00     0.173 C 
HETATM    4  S1  UNL     1     -22.555  -3.233  22.400  1.00  0.00    -0.041 SA
BRANCH   3   5
HETATM    5  N2  UNL     1     -23.054  -4.059  19.944  1.00  0.00    -0.365 N 
ATOM      6  H2  UNL     1     -23.527  -3.675  19.125  1.00  0.00     0.161 HD
BRANCH   5   7
HETATM    7  C4  UNL     1     -23.150  -5.480  20.209  1.00  0.00     0.158 C 
BRANCH   7   8
HETATM    8  C3  UNL     1     -23.997  -6.170  19.170  1.00  0.00     0.332 C 
BRANCH   8   9
HETATM    9  N1  UNL     1     -24.639  -7.349  19.650  1.00  0.00     0.020 N 
HETATM   10  C1  UNL     1     -24.201  -8.560  19.025  1.00  0.00     0.357 C 
HETATM   11  O1  UNL     1     -24.373  -7.476  20.991  1.00  0.00    -0.064 OA
BRANCH   9  12
HETATM   12  C2  UNL     1     -26.092  -7.298  19.548  1.00  0.00     0.395 C 
HETATM   13 BR1  UNL     1     -26.931  -8.832  20.334  1.00  0.00    -0.058 Br
ENDBRANCH   9  12
ENDBRANCH   8   9
ENDBRANCH   7   8
ENDBRANCH   5   7
ENDBRANCH   3   5
ENDBRANCH   1   3
BRANCH   1  14
HETATM   14  C6  UNL     1     -21.680  -1.019  20.204  1.00  0.00     0.152 A 
HETATM   15  N4  UNL     1     -22.788  -0.645  19.541  1.00  0.00    -0.346 N 
HETATM   16  C7  UNL     1     -23.153   0.654  19.423  1.00  0.00     0.127 A 
ATOM     17  H4  UNL     1     -23.373  -1.363  19.113  1.00  0.00     0.167 HD
HETATM   18  C8  UNL     1     -22.378   1.632  19.992  1.00  0.00     0.096 A 
HETATM   19 BR2  UNL     1     -22.870   3.487  19.841  1.00  0.00    -0.030 Br
HETATM   20  N5  UNL     1     -21.271   1.260  20.654  1.00  0.00    -0.333 N 
HETATM   21  C9  UNL     1     -20.904  -0.028  20.775  1.00  0.00     0.145 A 
ATOM     22  H5  UNL     1     -20.687   1.980  21.081  1.00  0.00     0.168 HD
BRANCH  21  23
HETATM   23  N6  UNL     1     -19.844  -0.378  21.410  1.00  0.00    -0.382 N 
ATOM     24  H62 UNL     1     -19.574  -1.356  21.515  1.00  0.00     0.157 HD
ATOM     25  H61 UNL     1     -19.261   0.354  21.817  1.00  0.00     0.157 HD
ENDBRANCH  21  23
ENDBRANCH   1  14
TORSDOF 8
ENDMDL
MODEL 5
REMARK VINA RESULT: -6.031133800      2.477      3.158
REMARK  8 active torsions:
REMARK  status: ('A' for Active; 'I' for Inactive)
REMARK    1  A    between atoms: N1_2  and  C2_4 
REMARK    2  A    between atoms: N1_2  and  C3_6 
REMARK    3  A    between atoms: C3_6  and  C4_7 
REMARK    4  A    between atoms: C4_7  and  N2_8 
REMARK    5  A    between atoms: N2_8  and  C5_10 
REMARK    6  A    between atoms: C5_10  and  N3_12 
REMARK    7  A    between atoms: N3_12  and  C6_14 
REMARK    8  A    between atoms: C9_22  and  N6_23 
ROOT
HETATM    1  N3  UNL     1     -21.332  -1.879  21.021  1.00  0.00    -0.316 N 
ATOM      2  H3  UNL     1     -20.963  -2.496  21.745  1.00  0.00     0.170 HD
ENDROOT
BRANCH   1   3
HETATM    3  C5  UNL     1     -22.638  -2.081  20.528  1.00  0.00     0.173 C 
HETATM    4  S1  UNL     1     -23.717  -0.875  20.716  1.00  0.00    -0.041 SA
BRANCH   3   5
HETATM    5  N2  UNL     1     -23.023  -3.282  19.887  1.00  0.00    -0.365 N 
ATOM      6  H2  UNL     1     -23.417  -3.238  18.947  1.00  0.00     0.161 HD
BRANCH   5   7
HETATM    7  C4  UNL     1     -22.874  -4.573  20.526  1.00  0.00     0.158 C 
BRANCH   7   8
HETATM    8  C3  UNL     1     -23.455  -5.672  19.673  1.00  0.00     0.332 C 
BRANCH   8   9
HETATM    9  N1  UNL     1     -24.053  -6.723  20.427  1.00  0.00     0.020 N 
HETATM   10  C1  UNL     1     -23.381  -7.984  20.326  1.00  0.00     0.357 C 
HETATM   11  O1  UNL     1     -24.038  -6.372  21.754  1.00  0.00    -0.064 OA
BRANCH   9  12
HETATM   12  C2  UNL     1     -25.457  -6.941  20.102  1.00  0.00     0.395 C 
HETATM   13 BR1  UNL     1     -25.956  -8.788  20.234  1.00  0.00    -0.058 Br
ENDBRANCH   9  12
ENDBRANCH   8   9
ENDBRANCH   7   8
ENDBRANCH   5   7
ENDBRANCH   3   5
ENDBRANCH   1   3
BRANCH   1  14
HETATM   14  C6  UNL     1     -20.607  -0.927  20.565  1.00  0.00     0.152 A 
HETATM   15  N4  UNL     1     -20.244  -0.939  19.271  1.00  0.00    -0.346 N 
HETATM   16  C7  UNL     1     -19.478   0.037  18.728  1.00  0.00     0.127 A 
ATOM     17  H4  UNL     1     -20.556  -1.709  18.679  1.00  0.00     0.167 HD
HETATM   18  C8  UNL     1     -19.049   1.079  19.510  1.00  0.00     0.096 A 
HETATM   19 BR2  UNL     1     -17.959   2.480  18.767  1.00  0.00    -0.030 Br
HETATM   20  N5  UNL     1     -19.411   1.093  20.803  1.00  0.00    -0.333 N 
HETATM   21  C9  UNL     1     -20.171   0.126  21.348  1.00  0.00     0.145 A 
ATOM     22  H5  UNL     1     -19.097   1.863  21.394  1.00  0.00     0.168 HD
BRANCH  21  23
HETATM   23  N6  UNL     1     -20.514   0.145  22.585  1.00  0.00    -0.382 N 
ATOM     24  H62 UNL     1     -21.293   0.710  22.923  1.00  0.00     0.157 HD
ATOM     25  H61 UNL     1     -19.982  -0.428  23.241  1.00  0.00     0.157 HD
ENDBRANCH  21  23
ENDBRANCH   1  14
TORSDOF 8
ENDMDL
