MODEL 1
REMARK VINA RESULT: -6.324106729      0.000      0.000
REMARK  5 active torsions:
REMARK  status: ('A' for Active; 'I' for Inactive)
REMARK    1  A    between atoms: C5_7  and  O1_8 
REMARK    2  A    between atoms: C6_10  and  C7_11 
REMARK    3  A    between atoms: C7_11  and  N2_12 
REMARK    4  A    between atoms: C12_17  and  C13_18 
REMARK    5  A    between atoms: C13_18  and  N3_19 
ROOT
HETATM    1  C1  UNL     1     -25.322   6.227  16.649  1.00  0.00     0.014 C 
HETATM    2  C2  UNL     1     -25.282   5.035  16.834  1.00  0.00    -0.089 C 
HETATM    3  C3  UNL     1     -25.234   3.568  17.037  1.00  0.00     0.191 C 
HETATM    4  N1  UNL     1     -24.243   2.982  16.213  1.00  0.00    -0.402 N 
ATOM      5  H1  UNL     1     -24.034   3.350  15.285  1.00  0.00     0.154 HD
HETATM    6  C4  UNL     1     -23.557   1.864  16.737  1.00  0.00     0.153 C 
HETATM    7  C5  UNL     1     -22.994   2.026  18.104  1.00  0.00     0.085 C 
HETATM    8  C6  UNL     1     -21.541   2.549  18.070  1.00  0.00     0.048 C 
HETATM    9  C18 UNL     1     -21.783   4.003  18.180  1.00  0.00     0.010 C 
HETATM   10  C19 UNL     1     -22.937   4.210  19.134  1.00  0.00     0.011 C 
HETATM   11  C20 UNL     1     -23.754   2.966  18.977  1.00  0.00     0.059 C 
HETATM   12  C21 UNL     1     -25.152   3.243  18.482  1.00  0.00     0.211 C 
HETATM   13  F1  UNL     1     -25.616   4.347  19.201  1.00  0.00    -0.246 F 
ENDROOT
BRANCH   7  14
HETATM   14  O1  UNL     1     -23.015   0.751  18.717  1.00  0.00    -0.387 OA
ATOM     15  H1  UNL     1     -22.111   0.479  18.829  1.00  0.00     0.210 HD
ENDBRANCH   7  14
BRANCH   8  16
HETATM   16  C7  UNL     1     -20.843   1.873  19.175  1.00  0.00     0.245 C 
BRANCH  16  17
HETATM   17  N2  UNL     1     -19.482   1.500  19.006  1.00  0.00    -0.062 N 
HETATM   18  C8  UNL     1     -19.205   0.904  17.724  1.00  0.00     0.273 C 
HETATM   19  C9  UNL     1     -18.669   2.656  19.311  1.00  0.00     0.238 C 
HETATM   20  C10 UNL     1     -17.294   2.397  18.758  1.00  0.00     0.028 C 
HETATM   21  C11 UNL     1     -16.697   1.260  19.516  1.00  0.00     0.010 C 
HETATM   22  C12 UNL     1     -17.641   0.371  20.230  1.00  0.00     0.039 C 
HETATM   23  C15 UNL     1     -19.079   0.488  19.999  1.00  0.00     0.127 C 
HETATM   24  C16 UNL     1     -19.619  -0.885  19.570  1.00  0.00     0.046 C 
HETATM   25  C17 UNL     1     -19.830   0.785  21.303  1.00  0.00     0.046 C 
BRANCH  22  26
HETATM   26  C13 UNL     1     -17.119  -1.070  20.047  1.00  0.00     0.129 C 
BRANCH  26  27
HETATM   27  N3  UNL     1     -15.797  -0.921  19.466  1.00  0.00    -0.366 N 
HETATM   28  C14 UNL     1     -15.055  -1.948  19.225  1.00  0.00     0.196 C 
HETATM   29  N4  UNL     1     -13.768  -1.874  18.665  1.00  0.00    -0.067 NA
HETATM   30  N5  UNL     1     -15.561  -3.239  19.541  1.00  0.00    -0.067 NA
ATOM     31  H3  UNL     1     -15.449   0.012  19.244  1.00  0.00     0.161 HD
ENDBRANCH  26  27
ENDBRANCH  22  26
ENDBRANCH  16  17
ENDBRANCH   8  16
TORSDOF 5
ENDMDL
MODEL 2
REMARK VINA RESULT: -6.313367050      3.191      8.120
REMARK  5 active torsions:
REMARK  status: ('A' for Active; 'I' for Inactive)
REMARK    1  A    between atoms: C5_7  and  O1_8 
REMARK    2  A    between atoms: C6_10  and  C7_11 
REMARK    3  A    between atoms: C7_11  and  N2_12 
REMARK    4  A    between atoms: C12_17  and  C13_18 
REMARK    5  A    between atoms: C13_18  and  N3_19 
ROOT
HETATM    1  C1  UNL     1     -12.995  -1.698  17.781  1.00  0.00     0.014 C 
HETATM    2  C2  UNL     1     -13.812  -0.883  17.429  1.00  0.00    -0.089 C 
HETATM    3  C3  UNL     1     -14.822   0.103  16.977  1.00  0.00     0.191 C 
HETATM    4  N1  UNL     1     -16.043  -0.540  16.663  1.00  0.00    -0.402 N 
ATOM      5  H1  UNL     1     -16.065  -1.476  16.257  1.00  0.00     0.154 HD
HETATM    6  C4  UNL     1     -17.230   0.177  16.937  1.00  0.00     0.153 C 
HETATM    7  C5  UNL     1     -17.342   0.754  18.303  1.00  0.00     0.085 C 
HETATM    8  C6  UNL     1     -18.035  -0.219  19.284  1.00  0.00     0.048 C 
HETATM    9  C18 UNL     1     -16.854  -0.902  19.853  1.00  0.00     0.010 C 
HETATM   10  C19 UNL     1     -15.756   0.125  20.013  1.00  0.00     0.011 C 
HETATM   11  C20 UNL     1     -16.039   1.117  18.928  1.00  0.00     0.059 C 
HETATM   12  C21 UNL     1     -14.911   1.234  17.933  1.00  0.00     0.211 C 
HETATM   13  F1  UNL     1     -13.729   1.267  18.677  1.00  0.00    -0.246 F 
ENDROOT
BRANCH   7  14
HETATM   14  O1  UNL     1     -18.116   1.933  18.194  1.00  0.00    -0.387 OA
ATOM     15  H1  UNL     1     -18.104   2.356  19.045  1.00  0.00     0.210 HD
ENDBRANCH   7  14
BRANCH   8  16
HETATM   16  C7  UNL     1     -18.852   0.620  20.174  1.00  0.00     0.245 C 
BRANCH  16  17
HETATM   17  N2  UNL     1     -20.203   0.256  20.419  1.00  0.00    -0.062 N 
HETATM   18  C8  UNL     1     -20.615  -0.930  19.711  1.00  0.00     0.273 C 
HETATM   19  C9  UNL     1     -20.387   0.185  21.851  1.00  0.00     0.238 C 
HETATM   20  C10 UNL     1     -21.661  -0.573  22.104  1.00  0.00     0.028 C 
HETATM   21  C11 UNL     1     -22.795   0.241  21.581  1.00  0.00     0.010 C 
HETATM   22  C12 UNL     1     -22.462   1.272  20.574  1.00  0.00     0.039 C 
HETATM   23  C15 UNL     1     -21.130   1.313  19.975  1.00  0.00     0.127 C 
HETATM   24  C16 UNL     1     -21.277   1.247  18.448  1.00  0.00     0.046 C 
HETATM   25  C17 UNL     1     -20.449   2.666  20.220  1.00  0.00     0.046 C 
BRANCH  22  26
HETATM   26  C13 UNL     1     -23.591   1.249  19.522  1.00  0.00     0.129 C 
BRANCH  26  27
HETATM   27  N3  UNL     1     -24.170   2.580  19.561  1.00  0.00    -0.366 N 
HETATM   28  C14 UNL     1     -24.623   3.141  18.493  1.00  0.00     0.196 C 
HETATM   29  N4  UNL     1     -25.195   4.425  18.461  1.00  0.00    -0.067 NA
HETATM   30  N5  UNL     1     -24.545   2.427  17.265  1.00  0.00    -0.067 NA
ATOM     31  H3  UNL     1     -24.219   3.079  20.449  1.00  0.00     0.161 HD
ENDBRANCH  26  27
ENDBRANCH  22  26
ENDBRANCH  16  17
ENDBRANCH   8  16
TORSDOF 5
ENDMDL
MODEL 3
REMARK VINA RESULT: -6.113393073      3.645      5.120
REMARK  5 active torsions:
REMARK  status: ('A' for Active; 'I' for Inactive)
REMARK    1  A    between atoms: C5_7  and  O1_8 
REMARK    2  A    between atoms: C6_10  and  C7_11 
REMARK    3  A    between atoms: C7_11  and  N2_12 
REMARK    4  A    between atoms: C12_17  and  C13_18 
REMARK    5  A    between atoms: C13_18  and  N3_19 
ROOT
HETATM    1  C1  UNL     1     -24.170  -0.573  21.757  1.00  0.00     0.014 C 
HETATM    2  C2  UNL     1     -23.254   0.129  22.109  1.00  0.00    -0.089 C 
HETATM    3  C3  UNL     1     -22.126   0.976  22.562  1.00  0.00     0.191 C 
HETATM    4  N1  UNL     1     -21.019   0.176  22.937  1.00  0.00    -0.402 N 
ATOM      5  H1  UNL     1     -21.143  -0.738  23.372  1.00  0.00     0.154 HD
HETATM    6  C4  UNL     1     -19.735   0.705  22.679  1.00  0.00     0.153 C 
HETATM    7  C5  UNL     1     -19.502   1.211  21.299  1.00  0.00     0.085 C 
HETATM    8  C6  UNL     1     -18.931   0.115  20.373  1.00  0.00     0.048 C 
HETATM    9  C18 UNL     1     -20.181  -0.412  19.787  1.00  0.00     0.010 C 
HETATM   10  C19 UNL     1     -21.115   0.755  19.560  1.00  0.00     0.011 C 
HETATM   11  C20 UNL     1     -20.721   1.735  20.621  1.00  0.00     0.059 C 
HETATM   12  C21 UNL     1     -21.849   2.048  21.575  1.00  0.00     0.211 C 
HETATM   13  F1  UNL     1     -22.992   2.223  20.792  1.00  0.00    -0.246 F 
ENDROOT
BRANCH   7  14
HETATM   14  O1  UNL     1     -18.570   2.271  21.396  1.00  0.00    -0.387 OA
ATOM     15  H1  UNL     1     -18.689   2.820  20.630  1.00  0.00     0.210 HD
ENDBRANCH   7  14
BRANCH   8  16
HETATM   16  C7  UNL     1     -17.977   0.796  19.483  1.00  0.00     0.245 C 
BRANCH  16  17
HETATM   17  N2  UNL     1     -16.726   0.180  19.209  1.00  0.00    -0.062 N 
HETATM   18  C8  UNL     1     -15.621   0.791  19.903  1.00  0.00     0.273 C 
HETATM   19  C9  UNL     1     -16.872  -1.237  19.459  1.00  0.00     0.238 C 
HETATM   20  C10 UNL     1     -15.489  -1.820  19.562  1.00  0.00     0.028 C 
HETATM   21  C11 UNL     1     -14.835  -1.698  18.227  1.00  0.00     0.010 C 
HETATM   22  C12 UNL     1     -15.398  -0.690  17.302  1.00  0.00     0.039 C 
HETATM   23  C15 UNL     1     -16.386   0.274  17.778  1.00  0.00     0.127 C 
HETATM   24  C16 UNL     1     -15.875   1.690  17.473  1.00  0.00     0.046 C 
HETATM   25  C17 UNL     1     -17.691   0.177  16.979  1.00  0.00     0.046 C 
BRANCH  22  26
HETATM   26  C13 UNL     1     -14.202  -0.022  16.591  1.00  0.00     0.129 C 
BRANCH  26  27
HETATM   27  N3  UNL     1     -14.104  -0.693  15.307  1.00  0.00    -0.366 N 
HETATM   28  C14 UNL     1     -13.069  -1.399  15.002  1.00  0.00     0.196 C 
HETATM   29  N4  UNL     1     -12.911  -2.074  13.778  1.00  0.00    -0.067 NA
HETATM   30  N5  UNL     1     -12.017  -1.508  15.953  1.00  0.00    -0.067 NA
ATOM     31  H3  UNL     1     -14.867  -0.606  14.636  1.00  0.00     0.161 HD
ENDBRANCH  26  27
ENDBRANCH  22  26
ENDBRANCH  16  17
ENDBRANCH   8  16
TORSDOF 5
ENDMDL
MODEL 4
REMARK VINA RESULT: -5.996160994      4.500      8.712
REMARK  5 active torsions:
REMARK  status: ('A' for Active; 'I' for Inactive)
REMARK    1  A    between atoms: C5_7  and  O1_8 
REMARK    2  A    between atoms: C6_10  and  C7_11 
REMARK    3  A    between atoms: C7_11  and  N2_12 
REMARK    4  A    between atoms: C12_17  and  C13_18 
REMARK    5  A    between atoms: C13_18  and  N3_19 
ROOT
HETATM    1  C1  UNL     1     -17.718   0.558  28.969  1.00  0.00     0.014 C 
HETATM    2  C2  UNL     1     -17.405   0.870  27.846  1.00  0.00    -0.089 C 
HETATM    3  C3  UNL     1     -17.008   1.229  26.464  1.00  0.00     0.191 C 
HETATM    4  N1  UNL     1     -17.316   0.178  25.566  1.00  0.00    -0.402 N 
ATOM      5  H1  UNL     1     -17.256  -0.800  25.849  1.00  0.00     0.154 HD
HETATM    6  C4  UNL     1     -17.711   0.550  24.262  1.00  0.00     0.153 C 
HETATM    7  C5  UNL     1     -18.786   1.574  24.172  1.00  0.00     0.085 C 
HETATM    8  C6  UNL     1     -20.190   0.930  24.112  1.00  0.00     0.048 C 
HETATM    9  C18 UNL     1     -20.541   0.932  25.547  1.00  0.00     0.010 C 
HETATM   10  C19 UNL     1     -20.012   2.212  26.153  1.00  0.00     0.011 C 
HETATM   11  C20 UNL     1     -18.818   2.536  25.310  1.00  0.00     0.059 C 
HETATM   12  C21 UNL     1     -17.535   2.568  26.102  1.00  0.00     0.211 C 
HETATM   13  F1  UNL     1     -17.815   3.258  27.283  1.00  0.00    -0.246 F 
ENDROOT
BRANCH   7  14
HETATM   14  O1  UNL     1     -18.561   2.311  22.985  1.00  0.00    -0.387 OA
ATOM     15  H1  UNL     1     -18.558   3.231  23.224  1.00  0.00     0.210 HD
ENDBRANCH   7  14
BRANCH   8  16
HETATM   16  C7  UNL     1     -20.980   1.772  23.200  1.00  0.00     0.245 C 
BRANCH  16  17
HETATM   17  N2  UNL     1     -21.694   1.157  22.136  1.00  0.00    -0.062 N 
HETATM   18  C8  UNL     1     -21.001   0.035  21.554  1.00  0.00     0.273 C 
HETATM   19  C9  UNL     1     -23.021   0.848  22.619  1.00  0.00     0.238 C 
HETATM   20  C10 UNL     1     -23.630  -0.140  21.661  1.00  0.00     0.028 C 
HETATM   21  C11 UNL     1     -23.815   0.543  20.348  1.00  0.00     0.010 C 
HETATM   22  C12 UNL     1     -22.995   1.751  20.108  1.00  0.00     0.039 C 
HETATM   23  C15 UNL     1     -21.911   2.099  21.023  1.00  0.00     0.127 C 
HETATM   24  C16 UNL     1     -20.612   2.234  20.215  1.00  0.00     0.046 C 
HETATM   25  C17 UNL     1     -22.115   3.495  21.624  1.00  0.00     0.046 C 
BRANCH  22  26
HETATM   26  C13 UNL     1     -22.540   1.694  18.634  1.00  0.00     0.129 C 
BRANCH  26  27
HETATM   27  N3  UNL     1     -23.543   2.447  17.902  1.00  0.00    -0.366 N 
HETATM   28  C14 UNL     1     -23.972   2.045  16.754  1.00  0.00     0.196 C 
HETATM   29  N4  UNL     1     -24.938   2.726  15.993  1.00  0.00    -0.067 NA
HETATM   30  N5  UNL     1     -23.440   0.841  16.215  1.00  0.00    -0.067 NA
ATOM     31  H3  UNL     1     -23.915   3.309  18.302  1.00  0.00     0.161 HD
ENDBRANCH  26  27
ENDBRANCH  22  26
ENDBRANCH  16  17
ENDBRANCH   8  16
TORSDOF 5
ENDMDL
MODEL 5
REMARK VINA RESULT: -5.938034929      1.470      2.012
REMARK  5 active torsions:
REMARK  status: ('A' for Active; 'I' for Inactive)
REMARK    1  A    between atoms: C5_7  and  O1_8 
REMARK    2  A    between atoms: C6_10  and  C7_11 
REMARK    3  A    between atoms: C7_11  and  N2_12 
REMARK    4  A    between atoms: C12_17  and  C13_18 
REMARK    5  A    between atoms: C13_18  and  N3_19 
ROOT
HETATM    1  C1  UNL     1     -24.824   6.084  16.569  1.00  0.00     0.014 C 
HETATM    2  C2  UNL     1     -24.893   4.902  16.801  1.00  0.00    -0.089 C 
HETATM    3  C3  UNL     1     -24.977   3.445  17.060  1.00  0.00     0.191 C 
HETATM    4  N1  UNL     1     -24.046   2.740  16.259  1.00  0.00    -0.402 N 
ATOM      5  H1  UNL     1     -23.807   3.052  15.318  1.00  0.00     0.154 HD
HETATM    6  C4  UNL     1     -23.463   1.585  16.827  1.00  0.00     0.153 C 
HETATM    7  C5  UNL     1     -22.883   1.748  18.187  1.00  0.00     0.085 C 
HETATM    8  C6  UNL     1     -21.388   2.135  18.133  1.00  0.00     0.048 C 
HETATM    9  C18 UNL     1     -21.497   3.608  18.187  1.00  0.00     0.010 C 
HETATM   10  C19 UNL     1     -22.625   3.956  19.131  1.00  0.00     0.011 C 
HETATM   11  C20 UNL     1     -23.551   2.786  19.022  1.00  0.00     0.059 C 
HETATM   12  C21 UNL     1     -24.921   3.170  18.516  1.00  0.00     0.211 C 
HETATM   13  F1  UNL     1     -25.280   4.338  19.193  1.00  0.00    -0.246 F 
ENDROOT
BRANCH   7  14
HETATM   14  O1  UNL     1     -23.018   0.504  18.849  1.00  0.00    -0.387 OA
ATOM     15  H1  UNL     1     -23.699   0.608  19.503  1.00  0.00     0.210 HD
ENDBRANCH   7  14
BRANCH   8  16
HETATM   16  C7  UNL     1     -20.751   1.441  19.263  1.00  0.00     0.245 C 
BRANCH  16  17
HETATM   17  N2  UNL     1     -19.550   0.715  19.039  1.00  0.00    -0.062 N 
HETATM   18  C8  UNL     1     -19.702  -0.709  19.196  1.00  0.00     0.273 C 
HETATM   19  C9  UNL     1     -19.028   1.117  17.752  1.00  0.00     0.238 C 
HETATM   20  C10 UNL     1     -18.010   0.090  17.339  1.00  0.00     0.028 C 
HETATM   21  C11 UNL     1     -16.865   0.163  18.292  1.00  0.00     0.010 C 
HETATM   22  C12 UNL     1     -17.135   0.791  19.604  1.00  0.00     0.039 C 
HETATM   23  C15 UNL     1     -18.505   1.102  20.004  1.00  0.00     0.127 C 
HETATM   24  C16 UNL     1     -18.787   0.426  21.353  1.00  0.00     0.046 C 
HETATM   25  C17 UNL     1     -18.673   2.598  20.302  1.00  0.00     0.046 C 
BRANCH  22  26
HETATM   26  C13 UNL     1     -16.377  -0.042  20.660  1.00  0.00     0.129 C 
BRANCH  26  27
HETATM   27  N3  UNL     1     -15.021   0.477  20.647  1.00  0.00    -0.366 N 
HETATM   28  C14 UNL     1     -14.597   1.257  21.582  1.00  0.00     0.196 C 
HETATM   29  N4  UNL     1     -13.299   1.795  21.630  1.00  0.00    -0.067 NA
HETATM   30  N5  UNL     1     -15.490   1.602  22.635  1.00  0.00    -0.067 NA
ATOM     31  H3  UNL     1     -14.393   0.220  19.886  1.00  0.00     0.161 HD
ENDBRANCH  26  27
ENDBRANCH  22  26
ENDBRANCH  16  17
ENDBRANCH   8  16
TORSDOF 5
ENDMDL
