MODEL 1
REMARK VINA RESULT: -6.245956981      0.000      0.000
REMARK  7 active torsions:
REMARK  status: ('A' for Active; 'I' for Inactive)
REMARK    1  A    between atoms: C3_5  and  C4_6 
REMARK    2  A    between atoms: C4_6  and  C5_7 
REMARK    3  A    between atoms: C6_9  and  C7_10 
REMARK    4  A    between atoms: C7_10  and  O1_11 
REMARK    5  A    between atoms: C8_13  and  C9_14 
REMARK    6  A    between atoms: C9_14  and  C10_15 
REMARK    7  A    between atoms: C11_18  and  C12_19 
ROOT
HETATM    1  C10 UNL     1     -19.738   0.165  18.777  1.00  0.00     0.061 A 
HETATM    2  N2  UNL     1     -19.162   0.147  17.554  1.00  0.00    -0.355 N 
ATOM      3  H2  UNL     1     -19.670   0.139  16.669  1.00  0.00     0.166 HD
HETATM    4  C11 UNL     1     -17.826   0.139  17.675  1.00  0.00     0.056 A 
HETATM    5  C13 UNL     1     -17.482   0.153  19.013  1.00  0.00     0.086 A 
HETATM    6  C14 UNL     1     -16.318   0.152  19.736  1.00  0.00     0.264 A 
HETATM    7  O2  UNL     1     -15.240   0.137  19.079  1.00  0.00    -0.267 OA
HETATM    8  N3  UNL     1     -16.321   0.167  21.091  1.00  0.00    -0.275 N 
ATOM      9  H3  UNL     1     -15.441   0.166  21.605  1.00  0.00     0.173 HD
HETATM   10  C15 UNL     1     -17.489   0.181  21.751  1.00  0.00     0.327 A 
HETATM   11  O3  UNL     1     -17.479   0.194  23.022  1.00  0.00    -0.247 OA
HETATM   12  N4  UNL     1     -18.628   0.183  21.046  1.00  0.00    -0.305 N 
ATOM     13  H4  UNL     1     -19.512   0.195  21.555  1.00  0.00     0.171 HD
HETATM   14  C16 UNL     1     -18.668   0.169  19.689  1.00  0.00     0.081 A 
ENDROOT
BRANCH   1  15
HETATM   15  C9  UNL     1     -21.120   0.109  19.174  1.00  0.00     0.046 C 
BRANCH  15  16
HETATM   16  C8  UNL     1     -22.098   0.957  19.242  1.00  0.00     0.006 A 
HETATM   17  C2  UNL     1     -22.594   1.408  20.504  1.00  0.00     0.034 A 
HETATM   18  C1  UNL     1     -22.142   1.046  21.688  1.00  0.00     0.044 C 
HETATM   19  N1  UNL     1     -23.599   2.266  20.302  1.00  0.00    -0.359 N 
HETATM   20  C3  UNL     1     -23.813   2.422  19.021  1.00  0.00     0.023 A 
ATOM     21  H1  UNL     1     -24.124   2.732  21.042  1.00  0.00     0.166 HD
HETATM   22  C6  UNL     1     -22.872   1.603  18.315  1.00  0.00     0.021 A 
BRANCH  20  23
HETATM   23  C4  UNL     1     -24.890   3.275  18.409  1.00  0.00     0.069 C 
BRANCH  23  24
HETATM   24  C5  UNL     1     -24.756   4.727  18.729  1.00  0.00     0.091 C 
HETATM   25 BR1  UNL     1     -23.070   5.439  18.056  1.00  0.00    -0.096 Br
ENDBRANCH  23  24
ENDBRANCH  20  23
BRANCH  22  26
HETATM   26  C7  UNL     1     -22.894   1.642  16.859  1.00  0.00     0.145 C 
BRANCH  26  27
HETATM   27  O1  UNL     1     -23.152   0.573  16.132  1.00  0.00    -0.372 OA
ATOM     28  H1  UNL     1     -23.675   0.613  15.339  1.00  0.00     0.216 HD
ENDBRANCH  26  27
ENDBRANCH  22  26
ENDBRANCH  15  16
ENDBRANCH   1  15
BRANCH   4  29
HETATM   29  C12 UNL     1     -16.804   0.121  16.583  1.00  0.00     0.280 C 
HETATM   30  F1  UNL     1     -16.844   1.253  15.805  1.00  0.00    -0.249 F 
ENDBRANCH   4  29
TORSDOF 7
ENDMDL
MODEL 2
REMARK VINA RESULT: -6.219530936      4.152      7.268
REMARK  7 active torsions:
REMARK  status: ('A' for Active; 'I' for Inactive)
REMARK    1  A    between atoms: C3_5  and  C4_6 
REMARK    2  A    between atoms: C4_6  and  C5_7 
REMARK    3  A    between atoms: C6_9  and  C7_10 
REMARK    4  A    between atoms: C7_10  and  O1_11 
REMARK    5  A    between atoms: C8_13  and  C9_14 
REMARK    6  A    between atoms: C9_14  and  C10_15 
REMARK    7  A    between atoms: C11_18  and  C12_19 
ROOT
HETATM    1  C10 UNL     1     -19.783  -0.435  20.465  1.00  0.00     0.061 A 
HETATM    2  N2  UNL     1     -20.290  -1.683  20.345  1.00  0.00    -0.355 N 
ATOM      3  H2  UNL     1     -19.738  -2.525  20.180  1.00  0.00     0.166 HD
HETATM    4  C11 UNL     1     -21.625  -1.650  20.475  1.00  0.00     0.056 A 
HETATM    5  C13 UNL     1     -22.038  -0.349  20.689  1.00  0.00     0.086 A 
HETATM    6  C14 UNL     1     -23.234   0.290  20.887  1.00  0.00     0.264 A 
HETATM    7  O2  UNL     1     -24.271  -0.431  20.888  1.00  0.00    -0.267 OA
HETATM    8  N3  UNL     1     -23.304   1.630  21.072  1.00  0.00    -0.275 N 
ATOM      9  H3  UNL     1     -24.206   2.082  21.217  1.00  0.00     0.173 HD
HETATM   10  C15 UNL     1     -22.178   2.360  21.063  1.00  0.00     0.327 A 
HETATM   11  O3  UNL     1     -22.255   3.616  21.237  1.00  0.00    -0.247 OA
HETATM   12  N4  UNL     1     -21.007   1.736  20.871  1.00  0.00    -0.305 N 
ATOM     13  H4  UNL     1     -20.155   2.298  20.866  1.00  0.00     0.171 HD
HETATM   14  C16 UNL     1     -20.895   0.397  20.682  1.00  0.00     0.081 A 
ENDROOT
BRANCH   1  15
HETATM   15  C9  UNL     1     -18.436   0.056  20.334  1.00  0.00     0.046 C 
BRANCH  15  16
HETATM   16  C8  UNL     1     -17.499  -0.039  19.443  1.00  0.00     0.006 A 
HETATM   17  C2  UNL     1     -17.295   0.994  18.478  1.00  0.00     0.034 A 
HETATM   18  C1  UNL     1     -17.987   2.111  18.381  1.00  0.00     0.044 C 
HETATM   19  N1  UNL     1     -16.280   0.655  17.676  1.00  0.00    -0.359 N 
HETATM   20  C3  UNL     1     -15.796  -0.511  18.024  1.00  0.00     0.023 A 
ATOM     21  H1  UNL     1     -15.933   1.223  16.904  1.00  0.00     0.166 HD
HETATM   22  C6  UNL     1     -16.549  -0.981  19.149  1.00  0.00     0.021 A 
BRANCH  20  23
HETATM   23  C4  UNL     1     -14.680  -1.239  17.329  1.00  0.00     0.069 C 
BRANCH  23  24
HETATM   24  C5  UNL     1     -14.125  -0.502  16.155  1.00  0.00     0.091 C 
HETATM   25 BR1  UNL     1     -12.952  -1.648  15.100  1.00  0.00    -0.096 Br
ENDBRANCH  23  24
ENDBRANCH  20  23
BRANCH  22  26
HETATM   26  C7  UNL     1     -16.165  -2.255  19.741  1.00  0.00     0.145 C 
BRANCH  26  27
HETATM   27  O1  UNL     1     -17.000  -3.272  19.823  1.00  0.00    -0.372 OA
ATOM     28  H1  UNL     1     -16.799  -4.123  19.450  1.00  0.00     0.216 HD
ENDBRANCH  26  27
ENDBRANCH  22  26
ENDBRANCH  15  16
ENDBRANCH   1  15
BRANCH   4  29
HETATM   29  C12 UNL     1     -22.583  -2.797  20.413  1.00  0.00     0.280 C 
HETATM   30  F1  UNL     1     -22.576  -3.553  21.561  1.00  0.00    -0.249 F 
ENDBRANCH   4  29
TORSDOF 7
ENDMDL
MODEL 3
REMARK VINA RESULT: -6.200263915      2.461      3.035
REMARK  7 active torsions:
REMARK  status: ('A' for Active; 'I' for Inactive)
REMARK    1  A    between atoms: C3_5  and  C4_6 
REMARK    2  A    between atoms: C4_6  and  C5_7 
REMARK    3  A    between atoms: C6_9  and  C7_10 
REMARK    4  A    between atoms: C7_10  and  O1_11 
REMARK    5  A    between atoms: C8_13  and  C9_14 
REMARK    6  A    between atoms: C9_14  and  C10_15 
REMARK    7  A    between atoms: C11_18  and  C12_19 
ROOT
HETATM    1  C10 UNL     1     -18.310   0.280  20.434  1.00  0.00     0.061 A 
HETATM    2  N2  UNL     1     -17.744   1.506  20.370  1.00  0.00    -0.355 N 
ATOM      3  H2  UNL     1     -18.228   2.385  20.554  1.00  0.00     0.166 HD
HETATM    4  C11 UNL     1     -16.450   1.397  20.027  1.00  0.00     0.056 A 
HETATM    5  C13 UNL     1     -16.128   0.065  19.854  1.00  0.00     0.086 A 
HETATM    6  C14 UNL     1     -15.007  -0.646  19.514  1.00  0.00     0.264 A 
HETATM    7  O2  UNL     1     -13.958   0.019  19.287  1.00  0.00    -0.267 OA
HETATM    8  N3  UNL     1     -15.021  -1.998  19.424  1.00  0.00    -0.275 N 
ATOM      9  H3  UNL     1     -14.173  -2.504  19.170  1.00  0.00     0.173 HD
HETATM   10  C15 UNL     1     -16.157  -2.667  19.672  1.00  0.00     0.327 A 
HETATM   11  O3  UNL     1     -16.159  -3.935  19.585  1.00  0.00    -0.247 OA
HETATM   12  N4  UNL     1     -17.254  -1.973  20.006  1.00  0.00    -0.305 N 
ATOM     13  H4  UNL     1     -18.115  -2.489  20.194  1.00  0.00     0.171 HD
HETATM   14  C16 UNL     1     -17.282  -0.620  20.106  1.00  0.00     0.081 A 
ENDROOT
BRANCH   1  15
HETATM   15  C9  UNL     1     -19.669  -0.122  20.686  1.00  0.00     0.046 C 
BRANCH  15  16
HETATM   16  C8  UNL     1     -20.825   0.141  20.162  1.00  0.00     0.006 A 
HETATM   17  C2  UNL     1     -21.828  -0.870  20.046  1.00  0.00     0.034 A 
HETATM   18  C1  UNL     1     -21.714  -2.122  20.442  1.00  0.00     0.044 C 
HETATM   19  N1  UNL     1     -22.916  -0.349  19.471  1.00  0.00    -0.359 N 
HETATM   20  C3  UNL     1     -22.722   0.916  19.194  1.00  0.00     0.023 A 
ATOM     21  H1  UNL     1     -23.774  -0.863  19.275  1.00  0.00     0.166 HD
HETATM   22  C6  UNL     1     -21.399   1.262  19.623  1.00  0.00     0.021 A 
BRANCH  20  23
HETATM   23  C4  UNL     1     -23.704   1.823  18.504  1.00  0.00     0.069 C 
BRANCH  23  24
HETATM   24  C5  UNL     1     -23.679   1.707  17.016  1.00  0.00     0.091 C 
HETATM   25 BR1  UNL     1     -24.582   3.221  16.181  1.00  0.00    -0.096 Br
ENDBRANCH  23  24
ENDBRANCH  20  23
BRANCH  22  26
HETATM   26  C7  UNL     1     -20.967   2.642  19.451  1.00  0.00     0.145 C 
BRANCH  26  27
HETATM   27  O1  UNL     1     -19.865   2.958  18.800  1.00  0.00    -0.372 OA
ATOM     28  H1  UNL     1     -19.849   3.624  18.123  1.00  0.00     0.216 HD
ENDBRANCH  26  27
ENDBRANCH  22  26
ENDBRANCH  15  16
ENDBRANCH   1  15
BRANCH   4  29
HETATM   29  C12 UNL     1     -15.452   2.496  19.845  1.00  0.00     0.280 C 
HETATM   30  F1  UNL     1     -15.253   2.814  18.523  1.00  0.00    -0.249 F 
ENDBRANCH   4  29
TORSDOF 7
ENDMDL
MODEL 4
REMARK VINA RESULT: -6.175047826      4.303      6.941
REMARK  7 active torsions:
REMARK  status: ('A' for Active; 'I' for Inactive)
REMARK    1  A    between atoms: C3_5  and  C4_6 
REMARK    2  A    between atoms: C4_6  and  C5_7 
REMARK    3  A    between atoms: C6_9  and  C7_10 
REMARK    4  A    between atoms: C7_10  and  O1_11 
REMARK    5  A    between atoms: C8_13  and  C9_14 
REMARK    6  A    between atoms: C9_14  and  C10_15 
REMARK    7  A    between atoms: C11_18  and  C12_19 
ROOT
HETATM    1  C10 UNL     1     -19.886  -0.002  20.683  1.00  0.00     0.061 A 
HETATM    2  N2  UNL     1     -20.306  -1.222  20.279  1.00  0.00    -0.355 N 
ATOM      3  H2  UNL     1     -19.731  -1.904  19.784  1.00  0.00     0.166 HD
HETATM    4  C11 UNL     1     -21.590  -1.403  20.624  1.00  0.00     0.056 A 
HETATM    5  C13 UNL     1     -22.056  -0.279  21.279  1.00  0.00     0.086 A 
HETATM    6  C14 UNL     1     -23.239   0.116  21.846  1.00  0.00     0.264 A 
HETATM    7  O2  UNL     1     -24.197  -0.705  21.798  1.00  0.00    -0.267 OA
HETATM    8  N3  UNL     1     -23.378   1.331  22.431  1.00  0.00    -0.275 N 
ATOM      9  H3  UNL     1     -24.269   1.602  22.846  1.00  0.00     0.173 HD
HETATM   10  C15 UNL     1     -22.336   2.176  22.460  1.00  0.00     0.327 A 
HETATM   11  O3  UNL     1     -22.477   3.312  23.010  1.00  0.00    -0.247 OA
HETATM   12  N4  UNL     1     -21.178   1.790  21.907  1.00  0.00    -0.305 N 
ATOM     13  H4  UNL     1     -20.389   2.437  21.933  1.00  0.00     0.171 HD
HETATM   14  C16 UNL     1     -20.998   0.582  21.312  1.00  0.00     0.081 A 
ENDROOT
BRANCH   1  15
HETATM   15  C9  UNL     1     -18.632   0.679  20.490  1.00  0.00     0.046 C 
BRANCH  15  16
HETATM   16  C8  UNL     1     -17.579   0.490  19.758  1.00  0.00     0.006 A 
HETATM   17  C2  UNL     1     -16.280   0.408  20.345  1.00  0.00     0.034 A 
HETATM   18  C1  UNL     1     -16.003   0.501  21.630  1.00  0.00     0.044 C 
HETATM   19  N1  UNL     1     -15.371   0.218  19.382  1.00  0.00    -0.359 N 
HETATM   20  C3  UNL     1     -15.954   0.168  18.212  1.00  0.00     0.023 A 
ATOM     21  H1  UNL     1     -14.368   0.125  19.539  1.00  0.00     0.166 HD
HETATM   22  C6  UNL     1     -17.363   0.336  18.414  1.00  0.00     0.021 A 
BRANCH  20  23
HETATM   23  C4  UNL     1     -15.254   0.010  16.890  1.00  0.00     0.069 C 
BRANCH  23  24
HETATM   24  C5  UNL     1     -14.536  -1.291  16.746  1.00  0.00     0.091 C 
HETATM   25 BR1  UNL     1     -12.607  -1.047  16.899  1.00  0.00    -0.096 Br
ENDBRANCH  23  24
ENDBRANCH  20  23
BRANCH  22  26
HETATM   26  C7  UNL     1     -18.230   0.277  17.245  1.00  0.00     0.145 C 
BRANCH  26  27
HETATM   27  O1  UNL     1     -19.357  -0.408  17.239  1.00  0.00    -0.372 OA
ATOM     28  H1  UNL     1     -19.871  -0.530  16.450  1.00  0.00     0.216 HD
ENDBRANCH  26  27
ENDBRANCH  22  26
ENDBRANCH  15  16
ENDBRANCH   1  15
BRANCH   4  29
HETATM   29  C12 UNL     1     -22.448  -2.603  20.377  1.00  0.00     0.280 C 
HETATM   30  F1  UNL     1     -22.546  -3.417  21.479  1.00  0.00    -0.249 F 
ENDBRANCH   4  29
TORSDOF 7
ENDMDL
MODEL 5
REMARK VINA RESULT: -6.152644183      3.376      5.054
REMARK  7 active torsions:
REMARK  status: ('A' for Active; 'I' for Inactive)
REMARK    1  A    between atoms: C3_5  and  C4_6 
REMARK    2  A    between atoms: C4_6  and  C5_7 
REMARK    3  A    between atoms: C6_9  and  C7_10 
REMARK    4  A    between atoms: C7_10  and  O1_11 
REMARK    5  A    between atoms: C8_13  and  C9_14 
REMARK    6  A    between atoms: C9_14  and  C10_15 
REMARK    7  A    between atoms: C11_18  and  C12_19 
ROOT
HETATM    1  C10 UNL     1     -22.860   1.898  19.612  1.00  0.00     0.061 A 
HETATM    2  N2  UNL     1     -23.555   1.292  20.601  1.00  0.00    -0.355 N 
ATOM      3  H2  UNL     1     -24.390   1.673  21.047  1.00  0.00     0.166 HD
HETATM    4  C11 UNL     1     -22.984   0.118  20.911  1.00  0.00     0.056 A 
HETATM    5  C13 UNL     1     -21.873  -0.081  20.113  1.00  0.00     0.086 A 
HETATM    6  C14 UNL     1     -20.920  -1.055  19.970  1.00  0.00     0.264 A 
HETATM    7  O2  UNL     1     -21.016  -2.062  20.726  1.00  0.00    -0.267 OA
HETATM    8  N3  UNL     1     -19.921  -0.945  19.061  1.00  0.00    -0.275 N 
ATOM      9  H3  UNL     1     -19.224  -1.684  18.973  1.00  0.00     0.173 HD
HETATM   10  C15 UNL     1     -19.855   0.141  18.277  1.00  0.00     0.327 A 
HETATM   11  O3  UNL     1     -18.913   0.234  17.428  1.00  0.00    -0.247 OA
HETATM   12  N4  UNL     1     -20.787   1.094  18.415  1.00  0.00    -0.305 N 
ATOM     13  H4  UNL     1     -20.730   1.917  17.815  1.00  0.00     0.171 HD
HETATM   14  C16 UNL     1     -21.803   1.022  19.313  1.00  0.00     0.081 A 
ENDROOT
BRANCH   1  15
HETATM   15  C9  UNL     1     -23.027   3.185  18.990  1.00  0.00     0.046 C 
BRANCH  15  16
HETATM   16  C8  UNL     1     -23.645   3.634  17.942  1.00  0.00     0.006 A 
HETATM   17  C2  UNL     1     -23.889   5.031  17.774  1.00  0.00     0.034 A 
HETATM   18  C1  UNL     1     -23.532   5.985  18.610  1.00  0.00     0.044 C 
HETATM   19  N1  UNL     1     -24.542   5.231  16.625  1.00  0.00    -0.359 N 
HETATM   20  C3  UNL     1     -24.753   4.090  16.018  1.00  0.00     0.023 A 
ATOM     21  H1  UNL     1     -24.834   6.142  16.272  1.00  0.00     0.166 HD
HETATM   22  C6  UNL     1     -24.192   3.050  16.830  1.00  0.00     0.021 A 
BRANCH  20  23
HETATM   23  C4  UNL     1     -25.496   3.910  14.723  1.00  0.00     0.069 C 
BRANCH  23  24
HETATM   24  C5  UNL     1     -25.745   5.189  13.995  1.00  0.00     0.091 C 
HETATM   25 BR1  UNL     1     -24.640   5.308  12.392  1.00  0.00    -0.096 Br
ENDBRANCH  23  24
ENDBRANCH  20  23
BRANCH  22  26
HETATM   26  C7  UNL     1     -24.272   1.683  16.336  1.00  0.00     0.145 C 
BRANCH  26  27
HETATM   27  O1  UNL     1     -23.204   0.922  16.196  1.00  0.00    -0.372 OA
ATOM     28  H1  UNL     1     -22.569   1.063  15.504  1.00  0.00     0.216 HD
ENDBRANCH  26  27
ENDBRANCH  22  26
ENDBRANCH  15  16
ENDBRANCH   1  15
BRANCH   4  29
HETATM   29  C12 UNL     1     -23.422  -0.874  21.941  1.00  0.00     0.280 C 
HETATM   30  F1  UNL     1     -24.552  -0.473  22.612  1.00  0.00    -0.249 F 
ENDBRANCH   4  29
TORSDOF 7
ENDMDL
