MODEL 1
REMARK VINA RESULT: -5.542907599      0.000      0.000
REMARK  7 active torsions:
REMARK  status: ('A' for Active; 'I' for Inactive)
REMARK    1  A    between atoms: N2_5  and  C3_6 
REMARK    2  A    between atoms: C3_6  and  C4_7 
REMARK    3  A    between atoms: C5_10  and  N4_11 
REMARK    4  A    between atoms: C6_16  and  C7_17 
REMARK    5  A    between atoms: C7_17  and  C8_18 
REMARK    6  A    between atoms: N6_19  and  N7_21 
REMARK    7  A    between atoms: C9_24  and  C10_25 
ROOT
HETATM    1  C4  UNL     1      -3.414 -15.212 -11.015  1.00  0.00     0.090 A 
HETATM    2  N3  UNL     1      -4.094 -14.764  -9.937  1.00  0.00    -0.189 N 
ATOM      3  H3  UNL     1      -4.808 -14.037  -9.966  1.00  0.00     0.184 HD
HETATM    4  C5  UNL     1      -3.699 -15.407  -8.819  1.00  0.00     0.676 A 
HETATM    5  N5  UNL     1      -2.753 -16.272  -9.218  1.00  0.00    -0.193 N 
ATOM      6  H5  UNL     1      -2.255 -16.909  -8.598  1.00  0.00     0.184 HD
HETATM    7  C6  UNL     1      -2.546 -16.186 -10.566  1.00  0.00     0.060 A 
ENDROOT
BRANCH   1   8
HETATM    8  C3  UNL     1      -3.556 -14.744 -12.384  1.00  0.00     0.148 C 
BRANCH   8   9
HETATM    9  N2  UNL     1      -2.893 -13.719 -12.855  1.00  0.00    -0.267 N 
HETATM   10  N1  UNL     1      -3.141 -12.454 -12.586  1.00  0.00    -0.294 N 
HETATM   11  C2  UNL     1      -2.262 -11.647 -13.235  1.00  0.00     0.058 A 
ATOM     12  H1  UNL     1      -3.889 -12.125 -11.976  1.00  0.00     0.187 HD
HETATM   13  C1  UNL     1      -2.182 -10.329 -13.220  1.00  0.00     0.046 C 
HETATM   14  C11 UNL     1      -1.445 -12.511 -13.931  1.00  0.00     0.063 A 
HETATM   15  C9  UNL     1      -1.840 -13.814 -13.694  1.00  0.00     0.063 A 
HETATM   16 BR2  UNL     1       0.012 -12.043 -15.053  1.00  0.00    -0.046 Br
BRANCH  15  17
HETATM   17  C10 UNL     1      -1.219 -15.037 -14.256  1.00  0.00     0.145 C 
HETATM   18 BR1  UNL     1      -1.984 -15.516 -15.967  1.00  0.00    -0.090 Br
ENDBRANCH  15  17
ENDBRANCH   8   9
ENDBRANCH   1   8
BRANCH   7  19
HETATM   19  C7  UNL     1      -1.566 -17.017 -11.307  1.00  0.00     0.106 C 
BRANCH  19  20
HETATM   20  C8  UNL     1      -0.193 -16.612 -10.989  1.00  0.00     0.085 C 
HETATM   21  N6  UNL     1       0.071 -15.482 -10.465  1.00  0.00    -0.322 N 
ATOM     22  H6  UNL     1      -0.692 -14.836 -10.258  1.00  0.00     0.185 HD
BRANCH  21  23
HETATM   23  N7  UNL     1       1.398 -15.105 -10.164  1.00  0.00    -0.346 N 
ATOM     24  H72 UNL     1       1.579 -14.635  -9.278  1.00  0.00     0.176 HD
ATOM     25  H71 UNL     1       2.162 -15.296 -10.813  1.00  0.00     0.176 HD
ENDBRANCH  21  23
ENDBRANCH  19  20
ENDBRANCH   7  19
BRANCH   4  26
HETATM   26  N4  UNL     1      -4.143 -15.224  -7.605  1.00  0.00    -0.234 N 
ATOM     27  H42 UNL     1      -3.809 -14.548  -6.919  1.00  0.00     0.174 HD
ATOM     28  H41 UNL     1      -4.900 -15.728  -7.144  1.00  0.00     0.174 HD
ENDBRANCH   4  26
TORSDOF 7
ENDMDL
MODEL 2
REMARK VINA RESULT: -5.537313671      2.064      4.963
REMARK  7 active torsions:
REMARK  status: ('A' for Active; 'I' for Inactive)
REMARK    1  A    between atoms: N2_5  and  C3_6 
REMARK    2  A    between atoms: C3_6  and  C4_7 
REMARK    3  A    between atoms: C5_10  and  N4_11 
REMARK    4  A    between atoms: C6_16  and  C7_17 
REMARK    5  A    between atoms: C7_17  and  C8_18 
REMARK    6  A    between atoms: N6_19  and  N7_21 
REMARK    7  A    between atoms: C9_24  and  C10_25 
ROOT
HETATM    1  C4  UNL     1      -1.696 -14.854 -11.098  1.00  0.00     0.090 A 
HETATM    2  N3  UNL     1      -1.253 -13.737 -11.714  1.00  0.00    -0.189 N 
ATOM      3  H3  UNL     1      -0.274 -13.540 -11.921  1.00  0.00     0.184 HD
HETATM    4  C5  UNL     1      -2.281 -12.915 -12.016  1.00  0.00     0.676 A 
HETATM    5  N5  UNL     1      -3.381 -13.543 -11.575  1.00  0.00    -0.193 N 
ATOM      6  H5  UNL     1      -4.328 -13.173 -11.656  1.00  0.00     0.184 HD
HETATM    7  C6  UNL     1      -3.067 -14.743 -11.002  1.00  0.00     0.060 A 
ENDROOT
BRANCH   1   8
HETATM    8  C3  UNL     1      -0.881 -15.956 -10.611  1.00  0.00     0.148 C 
BRANCH   8   9
HETATM    9  N2  UNL     1       0.104 -16.469 -11.303  1.00  0.00    -0.267 N 
HETATM   10  N1  UNL     1       1.385 -16.236 -11.105  1.00  0.00    -0.294 N 
HETATM   11  C2  UNL     1       2.139 -16.931 -11.996  1.00  0.00     0.058 A 
ATOM     12  H1  UNL     1       1.760 -15.619 -10.385  1.00  0.00     0.187 HD
HETATM   13  C1  UNL     1       3.453 -16.965 -12.119  1.00  0.00     0.046 C 
HETATM   14  C11 UNL     1       1.224 -17.618 -12.764  1.00  0.00     0.063 A 
HETATM   15  C9  UNL     1      -0.055 -17.328 -12.331  1.00  0.00     0.063 A 
HETATM   16 BR2  UNL     1       1.604 -18.793 -14.206  1.00  0.00    -0.046 Br
BRANCH  15  17
HETATM   17  C10 UNL     1      -1.317 -17.863 -12.896  1.00  0.00     0.145 C 
HETATM   18 BR1  UNL     1      -1.992 -16.760 -14.334  1.00  0.00    -0.090 Br
ENDBRANCH  15  17
ENDBRANCH   8   9
ENDBRANCH   1   8
BRANCH   7  19
HETATM   19  C7  UNL     1      -4.070 -15.672 -10.425  1.00  0.00     0.106 C 
BRANCH  19  20
HETATM   20  C8  UNL     1      -4.441 -15.260  -9.067  1.00  0.00     0.085 C 
HETATM   21  N6  UNL     1      -3.689 -15.490  -8.066  1.00  0.00    -0.322 N 
ATOM     22  H6  UNL     1      -2.802 -15.975  -8.207  1.00  0.00     0.185 HD
BRANCH  21  23
HETATM   23  N7  UNL     1      -4.059 -15.089  -6.764  1.00  0.00    -0.346 N 
ATOM     24  H72 UNL     1      -3.456 -14.432  -6.270  1.00  0.00     0.176 HD
ATOM     25  H71 UNL     1      -4.907 -15.443  -6.322  1.00  0.00     0.176 HD
ENDBRANCH  21  23
ENDBRANCH  19  20
ENDBRANCH   7  19
BRANCH   4  26
HETATM   26  N4  UNL     1      -2.214 -11.756 -12.610  1.00  0.00    -0.234 N 
ATOM     27  H42 UNL     1      -2.029 -11.575 -13.596  1.00  0.00     0.174 HD
ATOM     28  H41 UNL     1      -2.339 -10.837 -12.184  1.00  0.00     0.174 HD
ENDBRANCH   4  26
TORSDOF 7
ENDMDL
MODEL 3
REMARK VINA RESULT: -5.510451932      1.532      1.805
REMARK  7 active torsions:
REMARK  status: ('A' for Active; 'I' for Inactive)
REMARK    1  A    between atoms: N2_5  and  C3_6 
REMARK    2  A    between atoms: C3_6  and  C4_7 
REMARK    3  A    between atoms: C5_10  and  N4_11 
REMARK    4  A    between atoms: C6_16  and  C7_17 
REMARK    5  A    between atoms: C7_17  and  C8_18 
REMARK    6  A    between atoms: N6_19  and  N7_21 
REMARK    7  A    between atoms: C9_24  and  C10_25 
ROOT
HETATM    1  C4  UNL     1      -2.784 -14.620 -11.453  1.00  0.00     0.090 A 
HETATM    2  N3  UNL     1      -3.708 -14.617 -10.468  1.00  0.00    -0.189 N 
ATOM      3  H3  UNL     1      -4.651 -14.238 -10.561  1.00  0.00     0.184 HD
HETATM    4  C5  UNL     1      -3.217 -15.184  -9.346  1.00  0.00     0.676 A 
HETATM    5  N5  UNL     1      -1.959 -15.542  -9.648  1.00  0.00    -0.193 N 
ATOM      6  H5  UNL     1      -1.319 -16.000  -9.000  1.00  0.00     0.184 HD
HETATM    7  C6  UNL     1      -1.651 -15.214 -10.938  1.00  0.00     0.060 A 
ENDROOT
BRANCH   1   8
HETATM    8  C3  UNL     1      -2.945 -14.081 -12.794  1.00  0.00     0.148 C 
BRANCH   8   9
HETATM    9  N2  UNL     1      -2.853 -12.803 -13.060  1.00  0.00    -0.267 N 
HETATM   10  N1  UNL     1      -3.773 -11.896 -12.801  1.00  0.00    -0.294 N 
HETATM   11  C2  UNL     1      -3.356 -10.667 -13.201  1.00  0.00     0.058 A 
ATOM     12  H1  UNL     1      -4.673 -12.090 -12.362  1.00  0.00     0.187 HD
HETATM   13  C1  UNL     1      -3.986  -9.510 -13.113  1.00  0.00     0.046 C 
HETATM   14  C11 UNL     1      -2.102 -10.880 -13.729  1.00  0.00     0.063 A 
HETATM   15  C9  UNL     1      -1.784 -12.222 -13.642  1.00  0.00     0.063 A 
HETATM   16 BR2  UNL     1      -0.944  -9.573 -14.474  1.00  0.00    -0.046 Br
BRANCH  15  17
HETATM   17  C10 UNL     1      -0.527 -12.859 -14.101  1.00  0.00     0.145 C 
HETATM   18 BR1  UNL     1      -0.580 -13.293 -15.984  1.00  0.00    -0.090 Br
ENDBRANCH  15  17
ENDBRANCH   8   9
ENDBRANCH   1   8
BRANCH   7  19
HETATM   19  C7  UNL     1      -0.336 -15.487 -11.569  1.00  0.00     0.106 C 
BRANCH  19  20
HETATM   20  C8  UNL     1      -0.050 -16.925 -11.578  1.00  0.00     0.085 C 
HETATM   21  N6  UNL     1       1.141 -17.374 -11.548  1.00  0.00    -0.322 N 
ATOM     22  H6  UNL     1       1.922 -16.718 -11.515  1.00  0.00     0.185 HD
BRANCH  21  23
HETATM   23  N7  UNL     1       1.402 -18.761 -11.558  1.00  0.00    -0.346 N 
ATOM     24  H72 UNL     1       2.075 -19.123 -12.233  1.00  0.00     0.176 HD
ATOM     25  H71 UNL     1       0.933 -19.393 -10.909  1.00  0.00     0.176 HD
ENDBRANCH  21  23
ENDBRANCH  19  20
ENDBRANCH   7  19
BRANCH   4  26
HETATM   26  N4  UNL     1      -3.835 -15.346  -8.209  1.00  0.00    -0.234 N 
ATOM     27  H42 UNL     1      -3.450 -15.722  -7.342  1.00  0.00     0.174 HD
ATOM     28  H41 UNL     1      -4.807 -15.121  -7.999  1.00  0.00     0.174 HD
ENDBRANCH   4  26
TORSDOF 7
ENDMDL
MODEL 4
REMARK VINA RESULT: -5.508285510      1.889      2.303
REMARK  7 active torsions:
REMARK  status: ('A' for Active; 'I' for Inactive)
REMARK    1  A    between atoms: N2_5  and  C3_6 
REMARK    2  A    between atoms: C3_6  and  C4_7 
REMARK    3  A    between atoms: C5_10  and  N4_11 
REMARK    4  A    between atoms: C6_16  and  C7_17 
REMARK    5  A    between atoms: C7_17  and  C8_18 
REMARK    6  A    between atoms: N6_19  and  N7_21 
REMARK    7  A    between atoms: C9_24  and  C10_25 
ROOT
HETATM    1  C4  UNL     1      -3.510 -15.487 -10.820  1.00  0.00     0.090 A 
HETATM    2  N3  UNL     1      -4.165 -14.873  -9.811  1.00  0.00    -0.189 N 
ATOM      3  H3  UNL     1      -4.818 -14.099  -9.930  1.00  0.00     0.184 HD
HETATM    4  C5  UNL     1      -3.837 -15.423  -8.622  1.00  0.00     0.676 A 
HETATM    5  N5  UNL     1      -2.959 -16.396  -8.908  1.00  0.00    -0.193 N 
ATOM      6  H5  UNL     1      -2.521 -17.000  -8.213  1.00  0.00     0.184 HD
HETATM    7  C6  UNL     1      -2.729 -16.472 -10.252  1.00  0.00     0.060 A 
ENDROOT
BRANCH   1   8
HETATM    8  C3  UNL     1      -3.597 -15.159 -12.234  1.00  0.00     0.148 C 
BRANCH   8   9
HETATM    9  N2  UNL     1      -2.988 -14.127 -12.761  1.00  0.00    -0.267 N 
HETATM   10  N1  UNL     1      -3.366 -12.871 -12.648  1.00  0.00    -0.294 N 
HETATM   11  C2  UNL     1      -2.509 -12.053 -13.312  1.00  0.00     0.058 A 
ATOM     12  H1  UNL     1      -4.188 -12.555 -12.134  1.00  0.00     0.187 HD
HETATM   13  C1  UNL     1      -2.544 -10.739 -13.432  1.00  0.00     0.046 C 
HETATM   14  C11 UNL     1      -1.564 -12.901 -13.848  1.00  0.00     0.063 A 
HETATM   15  C9  UNL     1      -1.863 -14.205 -13.503  1.00  0.00     0.063 A 
HETATM   16 BR2  UNL     1      -0.063 -12.411 -14.902  1.00  0.00    -0.046 Br
BRANCH  15  17
HETATM   17  C10 UNL     1      -1.094 -15.413 -13.884  1.00  0.00     0.145 C 
HETATM   18 BR1  UNL     1       0.552 -15.572 -12.881  1.00  0.00    -0.090 Br
ENDBRANCH  15  17
ENDBRANCH   8   9
ENDBRANCH   1   8
BRANCH   7  19
HETATM   19  C7  UNL     1      -1.810 -17.452 -10.880  1.00  0.00     0.106 C 
BRANCH  19  20
HETATM   20  C8  UNL     1      -2.554 -18.597 -11.415  1.00  0.00     0.085 C 
HETATM   21  N6  UNL     1      -2.445 -18.963 -12.629  1.00  0.00    -0.322 N 
ATOM     22  H6  UNL     1      -1.823 -18.447 -13.253  1.00  0.00     0.185 HD
BRANCH  21  23
HETATM   23  N7  UNL     1      -3.168 -20.067 -13.130  1.00  0.00    -0.346 N 
ATOM     24  H72 UNL     1      -3.462 -20.790 -12.475  1.00  0.00     0.176 HD
ATOM     25  H71 UNL     1      -3.393 -20.147 -14.121  1.00  0.00     0.176 HD
ENDBRANCH  21  23
ENDBRANCH  19  20
ENDBRANCH   7  19
BRANCH   4  26
HETATM   26  N4  UNL     1      -4.280 -15.076  -7.444  1.00  0.00    -0.234 N 
ATOM     27  H42 UNL     1      -4.000 -15.456  -6.541  1.00  0.00     0.174 HD
ATOM     28  H41 UNL     1      -4.981 -14.366  -7.234  1.00  0.00     0.174 HD
ENDBRANCH   4  26
TORSDOF 7
ENDMDL
MODEL 5
REMARK VINA RESULT: -5.500058302      2.397      4.801
REMARK  7 active torsions:
REMARK  status: ('A' for Active; 'I' for Inactive)
REMARK    1  A    between atoms: N2_5  and  C3_6 
REMARK    2  A    between atoms: C3_6  and  C4_7 
REMARK    3  A    between atoms: C5_10  and  N4_11 
REMARK    4  A    between atoms: C6_16  and  C7_17 
REMARK    5  A    between atoms: C7_17  and  C8_18 
REMARK    6  A    between atoms: N6_19  and  N7_21 
REMARK    7  A    between atoms: C9_24  and  C10_25 
ROOT
HETATM    1  C4  UNL     1      -2.583 -16.316 -10.375  1.00  0.00     0.090 A 
HETATM    2  N3  UNL     1      -2.782 -16.325  -9.039  1.00  0.00    -0.189 N 
ATOM      3  H3  UNL     1      -2.267 -16.911  -8.382  1.00  0.00     0.184 HD
HETATM    4  C5  UNL     1      -3.754 -15.455  -8.692  1.00  0.00     0.676 A 
HETATM    5  N5  UNL     1      -4.163 -14.898  -9.843  1.00  0.00    -0.193 N 
ATOM      6  H5  UNL     1      -4.897 -14.194  -9.914  1.00  0.00     0.184 HD
HETATM    7  C6  UNL     1      -3.467 -15.400 -10.906  1.00  0.00     0.060 A 
ENDROOT
BRANCH   1   8
HETATM    8  C3  UNL     1      -1.633 -17.131 -11.115  1.00  0.00     0.148 C 
BRANCH   8   9
HETATM    9  N2  UNL     1      -1.982 -17.882 -12.128  1.00  0.00    -0.267 N 
HETATM   10  N1  UNL     1      -2.840 -18.880 -12.086  1.00  0.00    -0.294 N 
HETATM   11  C2  UNL     1      -2.977 -19.445 -13.314  1.00  0.00     0.058 A 
ATOM     12  H1  UNL     1      -3.334 -19.187 -11.248  1.00  0.00     0.187 HD
HETATM   13  C1  UNL     1      -3.739 -20.459 -13.678  1.00  0.00     0.046 C 
HETATM   14  C11 UNL     1      -2.134 -18.717 -14.126  1.00  0.00     0.063 A 
HETATM   15  C9  UNL     1      -1.508 -17.735 -13.383  1.00  0.00     0.063 A 
HETATM   16 BR2  UNL     1      -1.841 -18.977 -15.983  1.00  0.00    -0.046 Br
BRANCH  15  17
HETATM   17  C10 UNL     1      -0.527 -16.744 -13.885  1.00  0.00     0.145 C 
HETATM   18 BR1  UNL     1       1.290 -17.395 -13.758  1.00  0.00    -0.090 Br
ENDBRANCH  15  17
ENDBRANCH   8   9
ENDBRANCH   1   8
BRANCH   7  19
HETATM   19  C7  UNL     1      -3.687 -14.978 -12.311  1.00  0.00     0.106 C 
BRANCH  19  20
HETATM   20  C8  UNL     1      -2.835 -13.834 -12.653  1.00  0.00     0.085 C 
HETATM   21  N6  UNL     1      -3.105 -12.654 -12.259  1.00  0.00    -0.322 N 
ATOM     22  H6  UNL     1      -3.936 -12.494 -11.691  1.00  0.00     0.185 HD
BRANCH  21  23
HETATM   23  N7  UNL     1      -2.275 -11.562 -12.596  1.00  0.00    -0.346 N 
ATOM     24  H72 UNL     1      -1.317 -11.557 -12.247  1.00  0.00     0.176 HD
ATOM     25  H71 UNL     1      -2.618 -10.795 -13.173  1.00  0.00     0.176 HD
ENDBRANCH  21  23
ENDBRANCH  19  20
ENDBRANCH   7  19
BRANCH   4  26
HETATM   26  N4  UNL     1      -4.201 -15.210  -7.491  1.00  0.00    -0.234 N 
ATOM     27  H42 UNL     1      -4.050 -14.370  -6.933  1.00  0.00     0.174 HD
ATOM     28  H41 UNL     1      -4.777 -15.821  -6.911  1.00  0.00     0.174 HD
ENDBRANCH   4  26
TORSDOF 7
ENDMDL
