MODEL 1
REMARK VINA RESULT: -7.331901117      0.000      0.000
REMARK  3 active torsions:
REMARK  status: ('A' for Active; 'I' for Inactive)
REMARK    1  A    between atoms: C2_2  and  O2_4 
REMARK    2  A    between atoms: O2_4  and  C3_5 
REMARK    3  A    between atoms: C7_11  and  C8_12 
ROOT
HETATM    1  C3  UNL     1      11.808   5.176  -0.071  1.00  0.00     0.346 A 
HETATM    2  O3  UNL     1      11.403   6.465  -0.077  1.00  0.00    -0.167 OA
HETATM    3  O4  UNL     1      12.191   7.147   0.753  1.00  0.00    -0.229 OA
HETATM    4  C4  UNL     1      13.523   7.099   0.427  1.00  0.00     0.173 C 
HETATM    5  C5  UNL     1      14.143   8.467   0.316  1.00  0.00     0.029 C 
HETATM    6  C6  UNL     1      13.026   9.480   0.569  1.00  0.00     0.014 C 
HETATM    7  C7  UNL     1      15.236   8.758   1.274  1.00  0.00     0.093 C 
HETATM    8  C9  UNL     1      16.254   7.688   1.444  1.00  0.00     0.017 C 
HETATM    9  C10 UNL     1      15.784   6.314   1.065  1.00  0.00     0.013 C 
HETATM   10  C11 UNL     1      14.337   6.202   1.362  1.00  0.00    -0.009 C 
HETATM   11  C12 UNL     1      14.016   6.590   2.788  1.00  0.00     0.018 C 
HETATM   12  C13 UNL     1      13.818   4.762   1.199  1.00  0.00     0.029 C 
HETATM   13  C14 UNL     1      14.466   4.091   0.062  1.00  0.00     0.014 C 
HETATM   14  C15 UNL     1      12.370   4.868   1.250  1.00  0.00     0.228 A 
HETATM   15  O7  UNL     1      11.388   4.157   0.718  1.00  0.00    -0.315 OA
ENDROOT
BRANCH   1  16
HETATM   16  O2  UNL     1      12.313   4.698  -1.283  1.00  0.00    -0.254 OA
BRANCH  16  17
HETATM   17  C2  UNL     1      11.605   3.723  -1.980  1.00  0.00     0.259 C 
HETATM   18  C1  UNL     1      10.315   4.000  -2.668  1.00  0.00     0.126 C 
HETATM   19  O1  UNL     1      12.081   2.568  -2.023  1.00  0.00    -0.266 OA
ENDBRANCH  16  17
ENDBRANCH   1  16
BRANCH   7  20
HETATM   20  C8  UNL     1      15.962   9.975   0.757  1.00  0.00     0.177 C 
HETATM   21  O5  UNL     1      16.023  11.051   1.364  1.00  0.00    -0.648 OA
HETATM   22  O6  UNL     1      16.595   9.869  -0.473  1.00  0.00    -0.648 OA
ENDBRANCH   7  20
TORSDOF 3
ENDMDL
MODEL 2
REMARK VINA RESULT: -7.008680317      1.854      6.067
REMARK  3 active torsions:
REMARK  status: ('A' for Active; 'I' for Inactive)
REMARK    1  A    between atoms: C2_2  and  O2_4 
REMARK    2  A    between atoms: O2_4  and  C3_5 
REMARK    3  A    between atoms: C7_11  and  C8_12 
ROOT
HETATM    1  C3  UNL     1      15.470   7.626   1.232  1.00  0.00     0.346 A 
HETATM    2  O3  UNL     1      16.120   6.465   0.997  1.00  0.00    -0.167 OA
HETATM    3  O4  UNL     1      15.239   5.472   1.102  1.00  0.00    -0.229 OA
HETATM    4  C4  UNL     1      14.178   5.569   0.238  1.00  0.00     0.173 C 
HETATM    5  C5  UNL     1      13.979   4.320  -0.581  1.00  0.00     0.029 C 
HETATM    6  C6  UNL     1      15.095   3.352  -0.186  1.00  0.00     0.014 C 
HETATM    7  C7  UNL     1      12.688   3.620  -0.382  1.00  0.00     0.093 C 
HETATM    8  C9  UNL     1      11.477   4.481  -0.362  1.00  0.00     0.017 C 
HETATM    9  C10 UNL     1      11.739   5.918  -0.017  1.00  0.00     0.013 C 
HETATM   10  C11 UNL     1      12.878   5.985   0.928  1.00  0.00    -0.009 C 
HETATM   11  C12 UNL     1      12.674   5.091   2.130  1.00  0.00     0.018 C 
HETATM   12  C13 UNL     1      13.081   7.401   1.496  1.00  0.00     0.029 C 
HETATM   13  C14 UNL     1      12.815   8.425   0.474  1.00  0.00     0.014 C 
HETATM   14  C15 UNL     1      14.369   7.364   2.168  1.00  0.00     0.228 A 
HETATM   15  O7  UNL     1      15.295   8.279   2.407  1.00  0.00    -0.315 OA
ENDROOT
BRANCH   1  16
HETATM   16  O2  UNL     1      15.404   8.509   0.151  1.00  0.00    -0.254 OA
BRANCH  16  17
HETATM   17  C2  UNL     1      16.022   9.752   0.248  1.00  0.00     0.259 C 
HETATM   18  C1  UNL     1      17.438   9.982  -0.148  1.00  0.00     0.126 C 
HETATM   19  O1  UNL     1      15.352  10.711   0.689  1.00  0.00    -0.266 OA
ENDBRANCH  16  17
ENDBRANCH   1  16
BRANCH   7  20
HETATM   20  C8  UNL     1      12.526   2.661  -1.536  1.00  0.00     0.177 C 
HETATM   21  O5  UNL     1      13.181   1.621  -1.666  1.00  0.00    -0.648 OA
HETATM   22  O6  UNL     1      11.581   2.977  -2.503  1.00  0.00    -0.648 OA
ENDBRANCH   7  20
TORSDOF 3
ENDMDL
MODEL 3
REMARK VINA RESULT: -6.688153915      4.634      9.506
REMARK  3 active torsions:
REMARK  status: ('A' for Active; 'I' for Inactive)
REMARK    1  A    between atoms: C2_2  and  O2_4 
REMARK    2  A    between atoms: O2_4  and  C3_5 
REMARK    3  A    between atoms: C7_11  and  C8_12 
ROOT
HETATM    1  C3  UNL     1      18.916  13.542   3.635  1.00  0.00     0.346 A 
HETATM    2  O3  UNL     1      19.292  12.452   2.931  1.00  0.00    -0.167 OA
HETATM    3  O4  UNL     1      18.315  11.550   3.017  1.00  0.00    -0.229 OA
HETATM    4  C4  UNL     1      17.105  11.987   2.544  1.00  0.00     0.173 C 
HETATM    5  C5  UNL     1      16.511  11.057   1.518  1.00  0.00     0.029 C 
HETATM    6  C6  UNL     1      17.519   9.924   1.315  1.00  0.00     0.014 C 
HETATM    7  C7  UNL     1      15.214  10.441   1.883  1.00  0.00     0.093 C 
HETATM    8  C9  UNL     1      14.200  11.356   2.468  1.00  0.00     0.017 C 
HETATM    9  C10 UNL     1      14.767  12.600   3.089  1.00  0.00     0.013 C 
HETATM   10  C11 UNL     1      16.099  12.289   3.657  1.00  0.00    -0.009 C 
HETATM   11  C12 UNL     1      16.057  11.100   4.591  1.00  0.00     0.018 C 
HETATM   12  C13 UNL     1      16.662  13.452   4.494  1.00  0.00     0.029 C 
HETATM   13  C14 UNL     1      16.321  14.751   3.893  1.00  0.00     0.014 C 
HETATM   14  C15 UNL     1      18.052  13.109   4.740  1.00  0.00     0.228 A 
HETATM   15  O7  UNL     1      19.143  13.832   4.939  1.00  0.00    -0.315 OA
ENDROOT
BRANCH   1  16
HETATM   16  O2  UNL     1      18.729  14.707   2.886  1.00  0.00    -0.254 OA
BRANCH  16  17
HETATM   17  C2  UNL     1      19.770  15.623   2.780  1.00  0.00     0.259 C 
HETATM   18  C1  UNL     1      19.783  16.919   3.512  1.00  0.00     0.126 C 
HETATM   19  O1  UNL     1      20.733  15.338   2.034  1.00  0.00    -0.266 OA
ENDBRANCH  16  17
ENDBRANCH   1  16
BRANCH   7  20
HETATM   20  C8  UNL     1      14.619   9.882   0.613  1.00  0.00     0.177 C 
HETATM   21  O5  UNL     1      15.195   9.068  -0.118  1.00  0.00    -0.648 OA
HETATM   22  O6  UNL     1      13.350  10.316   0.256  1.00  0.00    -0.648 OA
ENDBRANCH   7  20
TORSDOF 3
ENDMDL
MODEL 4
REMARK VINA RESULT: -6.686140704      2.102      6.034
REMARK  3 active torsions:
REMARK  status: ('A' for Active; 'I' for Inactive)
REMARK    1  A    between atoms: C2_2  and  O2_4 
REMARK    2  A    between atoms: O2_4  and  C3_5 
REMARK    3  A    between atoms: C7_11  and  C8_12 
ROOT
HETATM    1  C3  UNL     1      15.393   8.078   1.542  1.00  0.00     0.346 A 
HETATM    2  O3  UNL     1      16.256   7.061   1.758  1.00  0.00    -0.167 OA
HETATM    3  O4  UNL     1      15.556   5.929   1.799  1.00  0.00    -0.229 OA
HETATM    4  C4  UNL     1      14.842   5.669   0.657  1.00  0.00     0.173 C 
HETATM    5  C5  UNL     1      15.124   4.300   0.095  1.00  0.00     0.029 C 
HETATM    6  C6  UNL     1      16.180   3.662   0.997  1.00  0.00     0.014 C 
HETATM    7  C7  UNL     1      13.965   3.377   0.040  1.00  0.00     0.093 C 
HETATM    8  C9  UNL     1      12.698   3.953  -0.482  1.00  0.00     0.017 C 
HETATM    9  C10 UNL     1      12.603   5.447  -0.380  1.00  0.00     0.013 C 
HETATM   10  C11 UNL     1      13.338   5.894   0.826  1.00  0.00    -0.009 C 
HETATM   11  C12 UNL     1      12.888   5.163   2.071  1.00  0.00     0.018 C 
HETATM   12  C13 UNL     1      13.119   7.388   1.122  1.00  0.00     0.029 C 
HETATM   13  C14 UNL     1      13.052   8.171  -0.122  1.00  0.00     0.014 C 
HETATM   14  C15 UNL     1      14.098   7.726   2.140  1.00  0.00     0.228 A 
HETATM   15  O7  UNL     1      14.738   8.843   2.449  1.00  0.00    -0.315 OA
ENDROOT
BRANCH   1  16
HETATM   16  O2  UNL     1      15.554   8.758   0.333  1.00  0.00    -0.254 OA
BRANCH  16  17
HETATM   17  C2  UNL     1      16.493   9.782   0.247  1.00  0.00     0.259 C 
HETATM   18  C1  UNL     1      16.828  10.667   1.395  1.00  0.00     0.126 C 
HETATM   19  O1  UNL     1      17.073   9.960  -0.847  1.00  0.00    -0.266 OA
ENDBRANCH  16  17
ENDBRANCH   1  16
BRANCH   7  20
HETATM   20  C8  UNL     1      14.347   2.247  -0.885  1.00  0.00     0.177 C 
HETATM   21  O5  UNL     1      15.498   1.810  -1.001  1.00  0.00    -0.648 OA
HETATM   22  O6  UNL     1      13.338   1.672  -1.644  1.00  0.00    -0.648 OA
ENDBRANCH   7  20
TORSDOF 3
ENDMDL
MODEL 5
REMARK VINA RESULT: -6.522958469      2.369      3.654
REMARK  3 active torsions:
REMARK  status: ('A' for Active; 'I' for Inactive)
REMARK    1  A    between atoms: C2_2  and  O2_4 
REMARK    2  A    between atoms: O2_4  and  C3_5 
REMARK    3  A    between atoms: C7_11  and  C8_12 
ROOT
HETATM    1  C3  UNL     1      14.393   6.575  -0.125  1.00  0.00     0.346 A 
HETATM    2  O3  UNL     1      15.280   7.213  -0.921  1.00  0.00    -0.167 OA
HETATM    3  O4  UNL     1      15.315   8.493  -0.554  1.00  0.00    -0.229 OA
HETATM    4  C4  UNL     1      15.673   8.691   0.755  1.00  0.00     0.173 C 
HETATM    5  C5  UNL     1      16.821   9.655   0.905  1.00  0.00     0.029 C 
HETATM    6  C6  UNL     1      17.240  10.065  -0.507  1.00  0.00     0.014 C 
HETATM    7  C7  UNL     1      16.525  10.895   1.661  1.00  0.00     0.093 C 
HETATM    8  C9  UNL     1      15.765  10.720   2.926  1.00  0.00     0.017 C 
HETATM    9  C10 UNL     1      14.964   9.454   3.004  1.00  0.00     0.013 C 
HETATM   10  C11 UNL     1      14.495   9.098   1.644  1.00  0.00    -0.009 C 
HETATM   11  C12 UNL     1      13.772  10.244   0.973  1.00  0.00     0.018 C 
HETATM   12  C13 UNL     1      13.494   7.929   1.659  1.00  0.00     0.029 C 
HETATM   13  C14 UNL     1      13.860   6.931   2.676  1.00  0.00     0.014 C 
HETATM   14  C15 UNL     1      13.350   7.530   0.270  1.00  0.00     0.228 A 
HETATM   15  O7  UNL     1      13.067   6.378  -0.319  1.00  0.00    -0.315 OA
ENDROOT
BRANCH   1  16
HETATM   16  O2  UNL     1      14.932   5.592   0.709  1.00  0.00    -0.254 OA
BRANCH  16  17
HETATM   17  C2  UNL     1      15.389   4.402   0.152  1.00  0.00     0.259 C 
HETATM   18  C1  UNL     1      16.435   3.560   0.794  1.00  0.00     0.126 C 
HETATM   19  O1  UNL     1      14.894   4.031  -0.936  1.00  0.00    -0.266 OA
ENDBRANCH  16  17
ENDBRANCH   1  16
BRANCH   7  20
HETATM   20  C8  UNL     1      17.851  11.514   2.027  1.00  0.00     0.177 C 
HETATM   21  O5  UNL     1      18.295  11.560   3.181  1.00  0.00    -0.648 OA
HETATM   22  O6  UNL     1      18.609  12.060   1.001  1.00  0.00    -0.648 OA
ENDBRANCH   7  20
TORSDOF 3
ENDMDL
