MODEL 1
REMARK VINA RESULT: -5.900222441      0.000      0.000
REMARK  3 active torsions:
REMARK  status: ('A' for Active; 'I' for Inactive)
REMARK    1  A    between atoms: O1_2  and  C2_3 
REMARK    2  A    between atoms: C12_15  and  O4_16 
REMARK    3  A    between atoms: C15_21  and  O6_22 
ROOT
HETATM    1  C2  UNL     1      23.158  15.839   4.552  1.00  0.00     0.190 C 
HETATM    2  C3  UNL     1      23.097  14.779   3.809  1.00  0.00     0.040 C 
HETATM    3  C4  UNL     1      23.190  13.391   4.155  1.00  0.00    -0.035 C 
HETATM    4  C5  UNL     1      24.255  12.911   4.897  1.00  0.00     0.024 C 
HETATM    5  C6  UNL     1      21.967  12.760   3.831  1.00  0.00    -0.002 C 
HETATM    6  C7  UNL     1      20.909  13.680   3.244  1.00  0.00     0.096 C 
HETATM    7  C8  UNL     1      19.685  13.162   3.904  1.00  0.00     0.203 C 
HETATM    8  O2  UNL     1      19.289  11.962   3.730  1.00  0.00    -0.288 OA
HETATM    9  C9  UNL     1      18.899  13.995   4.766  1.00  0.00     0.201 C 
HETATM   10  O3  UNL     1      18.472  13.615   5.904  1.00  0.00    -0.289 OA
HETATM   11  C10 UNL     1      18.598  15.381   4.238  1.00  0.00     0.089 C 
HETATM   12  C11 UNL     1      18.618  16.406   5.326  1.00  0.00     0.021 C 
HETATM   13  C12 UNL     1      19.560  15.659   3.108  1.00  0.00     0.137 C 
HETATM   14  C13 UNL     1      20.971  15.147   3.482  1.00  0.00     0.063 C 
HETATM   15  C14 UNL     1      21.856  16.106   2.785  1.00  0.00     0.172 C 
HETATM   16  O5  UNL     1      22.826  16.912   3.673  1.00  0.00    -0.321 OA
HETATM   17  C15 UNL     1      23.106  15.278   2.349  1.00  0.00     0.189 C 
ENDROOT
BRANCH   1  18
HETATM   18  O1  UNL     1      23.425  15.751   5.896  1.00  0.00    -0.335 OA
HETATM   19  C1  UNL     1      23.666  16.954   6.625  1.00  0.00     0.212 C 
ENDBRANCH   1  18
BRANCH  17  20
HETATM   20  O6  UNL     1      22.848  14.365   1.411  1.00  0.00    -0.383 OA
HETATM   21  C16 UNL     1      24.052  13.789   0.974  1.00  0.00     0.202 C 
ENDBRANCH  17  20
BRANCH  13  22
HETATM   22  O4  UNL     1      19.580  16.987   2.746  1.00  0.00    -0.394 OA
ATOM     23  H4  UNL     1      19.843  17.115   1.843  1.00  0.00     0.210 HD
ENDBRANCH  13  22
TORSDOF 3
ENDMDL
MODEL 2
REMARK VINA RESULT: -5.636505140     10.092     12.906
REMARK  3 active torsions:
REMARK  status: ('A' for Active; 'I' for Inactive)
REMARK    1  A    between atoms: O1_2  and  C2_3 
REMARK    2  A    between atoms: C12_15  and  O4_16 
REMARK    3  A    between atoms: C15_21  and  O6_22 
ROOT
HETATM    1  C2  UNL     1      10.919  11.654  -0.943  1.00  0.00     0.190 C 
HETATM    2  C3  UNL     1      10.033  10.766  -0.619  1.00  0.00     0.040 C 
HETATM    3  C4  UNL     1       9.482   9.679  -1.374  1.00  0.00    -0.035 C 
HETATM    4  C5  UNL     1       8.935   9.888  -2.628  1.00  0.00     0.024 C 
HETATM    5  C6  UNL     1       9.823   8.464  -0.737  1.00  0.00    -0.002 C 
HETATM    6  C7  UNL     1      10.665   8.617   0.520  1.00  0.00     0.096 C 
HETATM    7  C8  UNL     1      11.604   7.478   0.372  1.00  0.00     0.203 C 
HETATM    8  O2  UNL     1      11.190   6.271   0.331  1.00  0.00    -0.288 OA
HETATM    9  C9  UNL     1      13.018   7.690   0.267  1.00  0.00     0.201 C 
HETATM   10  O3  UNL     1      13.748   7.114  -0.603  1.00  0.00    -0.289 OA
HETATM   11  C10 UNL     1      13.607   8.658   1.270  1.00  0.00     0.089 C 
HETATM   12  C11 UNL     1      14.694   9.489   0.667  1.00  0.00     0.021 C 
HETATM   13  C12 UNL     1      12.470   9.460   1.857  1.00  0.00     0.137 C 
HETATM   14  C13 UNL     1      11.471   9.847   0.741  1.00  0.00     0.063 C 
HETATM   15  C14 UNL     1      10.957  11.153   1.210  1.00  0.00     0.172 C 
HETATM   16  O5  UNL     1      11.183  12.355   0.271  1.00  0.00    -0.321 OA
HETATM   17  C15 UNL     1       9.467  11.204   0.748  1.00  0.00     0.189 C 
ENDROOT
BRANCH   1  18
HETATM   18  O1  UNL     1      11.435  11.714  -2.213  1.00  0.00    -0.335 OA
HETATM   19  C1  UNL     1      11.086  12.822  -3.041  1.00  0.00     0.212 C 
ENDBRANCH   1  18
BRANCH  17  20
HETATM   20  O6  UNL     1       8.678  10.325   1.370  1.00  0.00    -0.383 OA
HETATM   21  C16 UNL     1       7.423  10.907   1.609  1.00  0.00     0.202 C 
ENDBRANCH  17  20
BRANCH  13  22
HETATM   22  O4  UNL     1      12.906  10.562   2.555  1.00  0.00    -0.394 OA
ATOM     23  H4  UNL     1      12.638  10.546   3.466  1.00  0.00     0.210 HD
ENDBRANCH  13  22
TORSDOF 3
ENDMDL
MODEL 3
REMARK VINA RESULT: -5.150837165      8.141     10.849
REMARK  3 active torsions:
REMARK  status: ('A' for Active; 'I' for Inactive)
REMARK    1  A    between atoms: O1_2  and  C2_3 
REMARK    2  A    between atoms: C12_15  and  O4_16 
REMARK    3  A    between atoms: C15_21  and  O6_22 
ROOT
HETATM    1  C2  UNL     1      14.878   6.200   2.510  1.00  0.00     0.190 C 
HETATM    2  C3  UNL     1      14.262   6.293   1.374  1.00  0.00     0.040 C 
HETATM    3  C4  UNL     1      12.862   6.387   1.076  1.00  0.00    -0.035 C 
HETATM    4  C5  UNL     1      11.963   5.464   1.583  1.00  0.00     0.024 C 
HETATM    5  C6  UNL     1      12.614   7.628   0.448  1.00  0.00    -0.002 C 
HETATM    6  C7  UNL     1      13.838   8.513   0.274  1.00  0.00     0.096 C 
HETATM    7  C8  UNL     1      13.267   9.849   0.577  1.00  0.00     0.203 C 
HETATM    8  O2  UNL     1      12.328  10.350  -0.127  1.00  0.00    -0.288 OA
HETATM    9  C9  UNL     1      13.751  10.630   1.678  1.00  0.00     0.201 C 
HETATM   10  O3  UNL     1      12.983  11.214   2.509  1.00  0.00    -0.289 OA
HETATM   11  C10 UNL     1      15.256  10.722   1.800  1.00  0.00     0.089 C 
HETATM   12  C11 UNL     1      15.699  10.710   3.228  1.00  0.00     0.021 C 
HETATM   13  C12 UNL     1      15.853   9.620   0.958  1.00  0.00     0.137 C 
HETATM   14  C13 UNL     1      15.034   8.321   1.137  1.00  0.00     0.063 C 
HETATM   15  C14 UNL     1      16.062   7.269   0.979  1.00  0.00     0.172 C 
HETATM   16  O5  UNL     1      16.260   6.319   2.178  1.00  0.00    -0.321 OA
HETATM   17  C15 UNL     1      15.334   6.075   0.285  1.00  0.00     0.189 C 
ENDROOT
BRANCH   1  18
HETATM   18  O1  UNL     1      14.184   6.089   3.688  1.00  0.00    -0.335 OA
HETATM   19  C1  UNL     1      13.948   4.787   4.223  1.00  0.00     0.212 C 
ENDBRANCH   1  18
BRANCH  17  20
HETATM   20  O6  UNL     1      14.960   6.327  -0.971  1.00  0.00    -0.383 OA
HETATM   21  C16 UNL     1      14.501   5.143  -1.570  1.00  0.00     0.202 C 
ENDBRANCH  17  20
BRANCH  13  22
HETATM   22  O4  UNL     1      17.189   9.421   1.220  1.00  0.00    -0.394 OA
ATOM     23  H4  UNL     1      17.335   8.947   2.030  1.00  0.00     0.210 HD
ENDBRANCH  13  22
TORSDOF 3
ENDMDL
MODEL 4
REMARK VINA RESULT: -5.014049006     10.435     13.148
REMARK  3 active torsions:
REMARK  status: ('A' for Active; 'I' for Inactive)
REMARK    1  A    between atoms: O1_2  and  C2_3 
REMARK    2  A    between atoms: C12_15  and  O4_16 
REMARK    3  A    between atoms: C15_21  and  O6_22 
ROOT
HETATM    1  C2  UNL     1      10.667  12.013  -1.939  1.00  0.00     0.190 C 
HETATM    2  C3  UNL     1       9.594  11.616  -1.331  1.00  0.00     0.040 C 
HETATM    3  C4  UNL     1       8.716  10.517  -1.611  1.00  0.00    -0.035 C 
HETATM    4  C5  UNL     1       8.166  10.347  -2.869  1.00  0.00     0.024 C 
HETATM    5  C6  UNL     1       8.750   9.619  -0.520  1.00  0.00    -0.002 C 
HETATM    6  C7  UNL     1       9.684  10.023   0.611  1.00  0.00     0.096 C 
HETATM    7  C8  UNL     1      10.260   8.708   0.985  1.00  0.00     0.203 C 
HETATM    8  O2  UNL     1       9.528   7.754   1.414  1.00  0.00    -0.288 OA
HETATM    9  C9  UNL     1      11.667   8.457   0.879  1.00  0.00     0.201 C 
HETATM   10  O3  UNL     1      12.151   7.402   0.355  1.00  0.00    -0.289 OA
HETATM   11  C10 UNL     1      12.567   9.541   1.434  1.00  0.00     0.089 C 
HETATM   12  C11 UNL     1      13.798   9.720   0.605  1.00  0.00     0.021 C 
HETATM   13  C12 UNL     1      11.736  10.792   1.586  1.00  0.00     0.137 C 
HETATM   14  C13 UNL     1      10.810  10.960   0.358  1.00  0.00     0.063 C 
HETATM   15  C14 UNL     1      10.708  12.431   0.232  1.00  0.00     0.172 C 
HETATM   16  O5  UNL     1      11.194  13.039  -1.099  1.00  0.00    -0.321 OA
HETATM   17  C15 UNL     1       9.262  12.704  -0.289  1.00  0.00     0.189 C 
ENDROOT
BRANCH   1  18
HETATM   18  O1  UNL     1      11.093  11.411  -3.096  1.00  0.00    -0.335 OA
HETATM   19  C1  UNL     1      11.129  12.182  -4.295  1.00  0.00     0.212 C 
ENDBRANCH   1  18
BRANCH  17  20
HETATM   20  O6  UNL     1       8.305  12.407   0.592  1.00  0.00    -0.383 OA
HETATM   21  C16 UNL     1       8.275  13.385   1.599  1.00  0.00     0.202 C 
ENDBRANCH  17  20
BRANCH  13  22
HETATM   22  O4  UNL     1      12.504  11.913   1.802  1.00  0.00    -0.394 OA
ATOM     23  H4  UNL     1      12.274  12.363   2.606  1.00  0.00     0.210 HD
ENDBRANCH  13  22
TORSDOF 3
ENDMDL
MODEL 5
REMARK VINA RESULT: -5.007379408     11.131     13.640
REMARK  3 active torsions:
REMARK  status: ('A' for Active; 'I' for Inactive)
REMARK    1  A    between atoms: O1_2  and  C2_3 
REMARK    2  A    between atoms: C12_15  and  O4_16 
REMARK    3  A    between atoms: C15_21  and  O6_22 
ROOT
HETATM    1  C2  UNL     1      10.443  11.098  -2.490  1.00  0.00     0.190 C 
HETATM    2  C3  UNL     1       9.454  11.180  -1.657  1.00  0.00     0.040 C 
HETATM    3  C4  UNL     1       8.230  10.437  -1.586  1.00  0.00    -0.035 C 
HETATM    4  C5  UNL     1       7.401  10.324  -2.689  1.00  0.00     0.024 C 
HETATM    5  C6  UNL     1       8.203   9.722  -0.367  1.00  0.00    -0.002 C 
HETATM    6  C7  UNL     1       9.434   9.902   0.507  1.00  0.00     0.096 C 
HETATM    7  C8  UNL     1       9.619   8.524   1.022  1.00  0.00     0.203 C 
HETATM    8  O2  UNL     1       8.726   7.948   1.730  1.00  0.00    -0.288 OA
HETATM    9  C9  UNL     1      10.813   7.781   0.743  1.00  0.00     0.201 C 
HETATM   10  O3  UNL     1      10.807   6.568   0.354  1.00  0.00    -0.289 OA
HETATM   11  C10 UNL     1      12.111   8.536   0.939  1.00  0.00     0.089 C 
HETATM   12  C11 UNL     1      13.128   8.168  -0.094  1.00  0.00     0.021 C 
HETATM   13  C12 UNL     1      11.782  10.008   0.986  1.00  0.00     0.137 C 
HETATM   14  C13 UNL     1      10.722  10.344  -0.090  1.00  0.00     0.063 C 
HETATM   15  C14 UNL     1      11.077  11.730  -0.468  1.00  0.00     0.172 C 
HETATM   16  O5  UNL     1      11.440  11.963  -1.949  1.00  0.00    -0.321 OA
HETATM   17  C15 UNL     1       9.722  12.432  -0.796  1.00  0.00     0.189 C 
ENDROOT
BRANCH   1  18
HETATM   18  O1  UNL     1      10.396  10.250  -3.568  1.00  0.00    -0.335 OA
HETATM   19  C1  UNL     1      10.524  10.801  -4.878  1.00  0.00     0.212 C 
ENDBRANCH   1  18
BRANCH  17  20
HETATM   20  O6  UNL     1       8.930  12.600   0.266  1.00  0.00    -0.383 OA
HETATM   21  C16 UNL     1       9.427  13.645   1.061  1.00  0.00     0.202 C 
ENDBRANCH  17  20
BRANCH  13  22
HETATM   22  O4  UNL     1      12.899  10.803   0.866  1.00  0.00    -0.394 OA
ATOM     23  H4  UNL     1      12.684  11.725   0.789  1.00  0.00     0.210 HD
ENDBRANCH  13  22
TORSDOF 3
ENDMDL
