MODEL 1
REMARK VINA RESULT: -8.177165801      0.000      0.000
REMARK  8 active torsions:
REMARK  status: ('A' for Active; 'I' for Inactive)
REMARK    1  A    between atoms: C3_3  and  C5_5 
REMARK    2  A    between atoms: C5_5  and  O2_7 
REMARK    3  A    between atoms: O2_7  and  C6_8 
REMARK    4  A    between atoms: C6_8  and  O3_9 
REMARK    5  A    between atoms: C6_8  and  N1_15 
REMARK    6  A    between atoms: O3_9  and  C7_10 
REMARK    7  A    between atoms: C7_10  and  O5_12 
REMARK    8  A    between atoms: O5_12  and  C8_13 
ROOT
HETATM    1  N1  UNL     1      11.050   7.888  10.850  1.00  0.00    -0.355 N 
HETATM    2  C10 UNL     1      10.657   8.912   9.952  1.00  0.00     0.148 C 
HETATM    3  C11 UNL     1       9.901   9.960  10.749  1.00  0.00     0.187 C 
HETATM    4  O6  UNL     1       9.204   9.455  11.808  1.00  0.00    -0.382 OA
HETATM    5  C12 UNL     1      10.004   8.839  12.775  1.00  0.00     0.146 C 
HETATM    6  C13 UNL     1      10.125   9.762  13.920  1.00  0.00     0.050 C 
HETATM    7  C14 UNL     1      11.489   9.908  14.518  1.00  0.00     0.017 C 
HETATM    8  C15 UNL     1      11.727   8.787  15.517  1.00  0.00     0.023 C 
HETATM    9  C16 UNL     1      11.504  11.199  15.318  1.00  0.00     0.023 C 
HETATM   10  C17 UNL     1      12.519   9.990  13.492  1.00  0.00     0.154 C 
HETATM   11  O7  UNL     1      13.430  10.786  13.598  1.00  0.00    -0.296 OA
HETATM   12  C18 UNL     1      12.475   9.120  12.322  1.00  0.00     0.188 C 
HETATM   13  C19 UNL     1      13.681   8.254  12.373  1.00  0.00     0.073 C 
HETATM   14  N2  UNL     1      14.622   7.583  12.425  1.00  0.00    -0.196 NA
HETATM   15  C20 UNL     1      11.255   8.271  12.206  1.00  0.00     0.137 C 
ENDROOT
BRANCH   1  16
HETATM   16  C6  UNL     1      10.774   6.575  10.512  1.00  0.00     0.389 C 
BRANCH  16  17
HETATM   17  O2  UNL     1      11.819   6.014   9.730  1.00  0.00    -0.267 OA
BRANCH  17  18
HETATM   18  C5  UNL     1      11.865   4.697   9.359  1.00  0.00     0.292 C 
HETATM   19  O1  UNL     1      11.747   4.499   8.091  1.00  0.00    -0.259 OA
BRANCH  18  20
HETATM   20  C3  UNL     1      12.028   3.560  10.239  1.00  0.00     0.009 C 
HETATM   21  C2  UNL     1      13.208   3.189  10.668  1.00  0.00    -0.018 C 
HETATM   22  C1  UNL     1      14.426   3.898  10.286  1.00  0.00     0.036 C 
HETATM   23  C4  UNL     1      10.839   2.766  10.692  1.00  0.00     0.054 C 
ENDBRANCH  18  20
ENDBRANCH  17  18
ENDBRANCH  16  17
BRANCH  16  24
HETATM   24  O3  UNL     1       9.596   6.357   9.759  1.00  0.00    -0.247 OA
BRANCH  24  25
HETATM   25  C7  UNL     1       8.430   5.934  10.354  1.00  0.00     0.410 C 
HETATM   26  O4  UNL     1       8.184   4.683  10.317  1.00  0.00    -0.229 OA
BRANCH  25  27
HETATM   27  O5  UNL     1       7.519   6.766  10.983  1.00  0.00    -0.298 OA
BRANCH  27  28
HETATM   28  C8  UNL     1       6.661   7.624  10.212  1.00  0.00     0.176 C 
HETATM   29  C9  UNL     1       5.636   6.850   9.460  1.00  0.00     0.034 C 
ENDBRANCH  27  28
ENDBRANCH  25  27
ENDBRANCH  24  25
ENDBRANCH  16  24
ENDBRANCH   1  16
TORSDOF 8
ENDMDL
MODEL 2
REMARK VINA RESULT: -7.943352489      0.316      1.039
REMARK  8 active torsions:
REMARK  status: ('A' for Active; 'I' for Inactive)
REMARK    1  A    between atoms: C3_3  and  C5_5 
REMARK    2  A    between atoms: C5_5  and  O2_7 
REMARK    3  A    between atoms: O2_7  and  C6_8 
REMARK    4  A    between atoms: C6_8  and  O3_9 
REMARK    5  A    between atoms: C6_8  and  N1_15 
REMARK    6  A    between atoms: O3_9  and  C7_10 
REMARK    7  A    between atoms: C7_10  and  O5_12 
REMARK    8  A    between atoms: O5_12  and  C8_13 
ROOT
HETATM    1  N1  UNL     1      11.004   7.991  10.726  1.00  0.00    -0.355 N 
HETATM    2  C10 UNL     1      10.600   9.070   9.900  1.00  0.00     0.148 C 
HETATM    3  C11 UNL     1       9.851  10.063  10.771  1.00  0.00     0.187 C 
HETATM    4  O6  UNL     1       9.166   9.488  11.803  1.00  0.00    -0.382 OA
HETATM    5  C12 UNL     1       9.976   8.813  12.719  1.00  0.00     0.146 C 
HETATM    6  C13 UNL     1      10.108   9.660  13.921  1.00  0.00     0.050 C 
HETATM    7  C14 UNL     1      11.478   9.769  14.512  1.00  0.00     0.017 C 
HETATM    8  C15 UNL     1      11.728   8.586  15.434  1.00  0.00     0.023 C 
HETATM    9  C16 UNL     1      11.500  11.006  15.394  1.00  0.00     0.023 C 
HETATM   10  C17 UNL     1      12.497   9.920  13.484  1.00  0.00     0.154 C 
HETATM   11  O7  UNL     1      13.409  10.709  13.631  1.00  0.00    -0.296 OA
HETATM   12  C18 UNL     1      12.442   9.128  12.260  1.00  0.00     0.188 C 
HETATM   13  C19 UNL     1      13.650   8.262  12.243  1.00  0.00     0.073 C 
HETATM   14  N2  UNL     1      14.592   7.590  12.241  1.00  0.00    -0.196 NA
HETATM   15  C20 UNL     1      11.222   8.285  12.101  1.00  0.00     0.137 C 
ENDROOT
BRANCH   1  16
HETATM   16  C6  UNL     1      10.725   6.702  10.306  1.00  0.00     0.389 C 
BRANCH  16  17
HETATM   17  O2  UNL     1      11.657   6.267   9.326  1.00  0.00    -0.267 OA
BRANCH  17  18
HETATM   18  C5  UNL     1      12.026   4.960   9.158  1.00  0.00     0.292 C 
HETATM   19  O1  UNL     1      11.592   4.421   8.070  1.00  0.00    -0.259 OA
BRANCH  18  20
HETATM   20  C3  UNL     1      12.830   4.169  10.065  1.00  0.00     0.009 C 
HETATM   21  C2  UNL     1      12.330   3.145  10.709  1.00  0.00    -0.018 C 
HETATM   22  C1  UNL     1      10.935   2.742  10.552  1.00  0.00     0.036 C 
HETATM   23  C4  UNL     1      14.275   4.499  10.294  1.00  0.00     0.054 C 
ENDBRANCH  18  20
ENDBRANCH  17  18
ENDBRANCH  16  17
BRANCH  16  24
HETATM   24  O3  UNL     1       9.454   6.495   9.720  1.00  0.00    -0.247 OA
BRANCH  24  25
HETATM   25  C7  UNL     1       8.386   6.043  10.460  1.00  0.00     0.410 C 
HETATM   26  O4  UNL     1       8.256   4.778  10.573  1.00  0.00    -0.229 OA
BRANCH  25  27
HETATM   27  O5  UNL     1       7.456   6.858  11.083  1.00  0.00    -0.298 OA
BRANCH  27  28
HETATM   28  C8  UNL     1       6.572   7.683  10.306  1.00  0.00     0.176 C 
HETATM   29  C9  UNL     1       5.641   6.867   9.478  1.00  0.00     0.034 C 
ENDBRANCH  27  28
ENDBRANCH  25  27
ENDBRANCH  24  25
ENDBRANCH  16  24
ENDBRANCH   1  16
TORSDOF 8
ENDMDL
MODEL 3
REMARK VINA RESULT: -7.918078274      1.019      1.116
REMARK  8 active torsions:
REMARK  status: ('A' for Active; 'I' for Inactive)
REMARK    1  A    between atoms: C3_3  and  C5_5 
REMARK    2  A    between atoms: C5_5  and  O2_7 
REMARK    3  A    between atoms: O2_7  and  C6_8 
REMARK    4  A    between atoms: C6_8  and  O3_9 
REMARK    5  A    between atoms: C6_8  and  N1_15 
REMARK    6  A    between atoms: O3_9  and  C7_10 
REMARK    7  A    between atoms: C7_10  and  O5_12 
REMARK    8  A    between atoms: O5_12  and  C8_13 
ROOT
HETATM    1  N1  UNL     1      11.560   7.736  10.686  1.00  0.00    -0.355 N 
HETATM    2  C10 UNL     1      11.148   8.811   9.859  1.00  0.00     0.148 C 
HETATM    3  C11 UNL     1      10.718   9.952  10.764  1.00  0.00     0.187 C 
HETATM    4  O6  UNL     1      10.177   9.545  11.950  1.00  0.00    -0.382 OA
HETATM    5  C12 UNL     1      11.055   8.816  12.756  1.00  0.00     0.146 C 
HETATM    6  C13 UNL     1      11.527   9.705  13.835  1.00  0.00     0.050 C 
HETATM    7  C14 UNL     1      12.989   9.650  14.153  1.00  0.00     0.017 C 
HETATM    8  C15 UNL     1      13.256   8.501  15.112  1.00  0.00     0.023 C 
HETATM    9  C16 UNL     1      13.343  10.921  14.906  1.00  0.00     0.023 C 
HETATM   10  C17 UNL     1      13.799   9.590  12.945  1.00  0.00     0.154 C 
HETATM   11  O7  UNL     1      14.817  10.246  12.854  1.00  0.00    -0.296 OA
HETATM   12  C18 UNL     1      13.405   8.742  11.825  1.00  0.00     0.188 C 
HETATM   13  C19 UNL     1      14.462   7.712  11.661  1.00  0.00     0.073 C 
HETATM   14  N2  UNL     1      15.290   6.912  11.544  1.00  0.00    -0.196 NA
HETATM   15  C20 UNL     1      12.077   8.077  11.968  1.00  0.00     0.137 C 
ENDROOT
BRANCH   1  16
HETATM   16  C6  UNL     1      11.039   6.478  10.438  1.00  0.00     0.389 C 
BRANCH  16  17
HETATM   17  O2  UNL     1      11.829   5.772   9.492  1.00  0.00    -0.267 OA
BRANCH  17  18
HETATM   18  C5  UNL     1      11.714   4.427   9.261  1.00  0.00     0.292 C 
HETATM   19  O1  UNL     1      11.523   4.116   8.025  1.00  0.00    -0.259 OA
BRANCH  18  20
HETATM   20  C3  UNL     1      11.785   3.374  10.251  1.00  0.00     0.009 C 
HETATM   21  C2  UNL     1      12.931   2.958  10.727  1.00  0.00    -0.018 C 
HETATM   22  C1  UNL     1      14.202   3.528  10.288  1.00  0.00     0.036 C 
HETATM   23  C4  UNL     1      10.537   2.723  10.767  1.00  0.00     0.054 C 
ENDBRANCH  18  20
ENDBRANCH  17  18
ENDBRANCH  16  17
BRANCH  16  24
HETATM   24  O3  UNL     1       9.723   6.436   9.919  1.00  0.00    -0.247 OA
BRANCH  24  25
HETATM   25  C7  UNL     1       8.651   6.081  10.706  1.00  0.00     0.410 C 
HETATM   26  O4  UNL     1       7.961   5.079  10.323  1.00  0.00    -0.229 OA
BRANCH  25  27
HETATM   27  O5  UNL     1       8.279   6.731  11.871  1.00  0.00    -0.298 OA
BRANCH  27  28
HETATM   28  C8  UNL     1       7.143   7.610  11.885  1.00  0.00     0.176 C 
HETATM   29  C9  UNL     1       7.110   8.489  10.683  1.00  0.00     0.034 C 
ENDBRANCH  27  28
ENDBRANCH  25  27
ENDBRANCH  24  25
ENDBRANCH  16  24
ENDBRANCH   1  16
TORSDOF 8
ENDMDL
MODEL 4
REMARK VINA RESULT: -7.890124569      1.807      2.550
REMARK  8 active torsions:
REMARK  status: ('A' for Active; 'I' for Inactive)
REMARK    1  A    between atoms: C3_3  and  C5_5 
REMARK    2  A    between atoms: C5_5  and  O2_7 
REMARK    3  A    between atoms: O2_7  and  C6_8 
REMARK    4  A    between atoms: C6_8  and  O3_9 
REMARK    5  A    between atoms: C6_8  and  N1_15 
REMARK    6  A    between atoms: O3_9  and  C7_10 
REMARK    7  A    between atoms: C7_10  and  O5_12 
REMARK    8  A    between atoms: O5_12  and  C8_13 
ROOT
HETATM    1  N1  UNL     1      11.361   8.129  11.844  1.00  0.00    -0.355 N 
HETATM    2  C10 UNL     1      12.778   8.104  11.807  1.00  0.00     0.148 C 
HETATM    3  C11 UNL     1      13.260   9.529  11.606  1.00  0.00     0.187 C 
HETATM    4  O6  UNL     1      12.411  10.304  10.870  1.00  0.00    -0.382 OA
HETATM    5  C12 UNL     1      11.150  10.475  11.447  1.00  0.00     0.146 C 
HETATM    6  C13 UNL     1      11.097  11.829  12.032  1.00  0.00     0.050 C 
HETATM    7  C14 UNL     1      10.483  11.945  13.392  1.00  0.00     0.017 C 
HETATM    8  C15 UNL     1       8.972  12.046  13.259  1.00  0.00     0.023 C 
HETATM    9  C16 UNL     1      10.945  13.261  13.993  1.00  0.00     0.023 C 
HETATM   10  C17 UNL     1      10.911  10.864  14.268  1.00  0.00     0.154 C 
HETATM   11  O7  UNL     1      11.201  11.088  15.426  1.00  0.00    -0.296 OA
HETATM   12  C18 UNL     1      10.999   9.494  13.772  1.00  0.00     0.188 C 
HETATM   13  C19 UNL     1      10.011   8.688  14.535  1.00  0.00     0.073 C 
HETATM   14  N2  UNL     1       9.237   8.069  15.133  1.00  0.00    -0.196 NA
HETATM   15  C20 UNL     1      10.755   9.330  12.310  1.00  0.00     0.137 C 
ENDROOT
BRANCH   1  16
HETATM   16  C6  UNL     1      10.666   7.244  11.039  1.00  0.00     0.389 C 
BRANCH  16  17
HETATM   17  O2  UNL     1      11.505   6.694  10.034  1.00  0.00    -0.267 OA
BRANCH  17  18
HETATM   18  C5  UNL     1      11.339   5.441   9.508  1.00  0.00     0.292 C 
HETATM   19  O1  UNL     1      11.667   5.339   8.266  1.00  0.00    -0.259 OA
BRANCH  18  20
HETATM   20  C3  UNL     1      10.845   4.273  10.206  1.00  0.00     0.009 C 
HETATM   21  C2  UNL     1      11.653   3.337  10.633  1.00  0.00    -0.018 C 
HETATM   22  C1  UNL     1      13.098   3.414  10.430  1.00  0.00     0.036 C 
HETATM   23  C4  UNL     1       9.378   4.100  10.465  1.00  0.00     0.054 C 
ENDBRANCH  18  20
ENDBRANCH  17  18
ENDBRANCH  16  17
BRANCH  16  24
HETATM   24  O3  UNL     1       9.555   7.774  10.339  1.00  0.00    -0.247 OA
BRANCH  24  25
HETATM   25  C7  UNL     1       8.274   7.645  10.823  1.00  0.00     0.410 C 
HETATM   26  O4  UNL     1       8.131   7.010  11.920  1.00  0.00    -0.229 OA
BRANCH  25  27
HETATM   27  O5  UNL     1       7.143   8.154  10.204  1.00  0.00    -0.298 OA
BRANCH  27  28
HETATM   28  C8  UNL     1       5.983   7.329  10.012  1.00  0.00     0.176 C 
HETATM   29  C9  UNL     1       6.280   6.150   9.153  1.00  0.00     0.034 C 
ENDBRANCH  27  28
ENDBRANCH  25  27
ENDBRANCH  24  25
ENDBRANCH  16  24
ENDBRANCH   1  16
TORSDOF 8
ENDMDL
MODEL 5
REMARK VINA RESULT: -7.790955109      1.370      1.645
REMARK  8 active torsions:
REMARK  status: ('A' for Active; 'I' for Inactive)
REMARK    1  A    between atoms: C3_3  and  C5_5 
REMARK    2  A    between atoms: C5_5  and  O2_7 
REMARK    3  A    between atoms: O2_7  and  C6_8 
REMARK    4  A    between atoms: C6_8  and  O3_9 
REMARK    5  A    between atoms: C6_8  and  N1_15 
REMARK    6  A    between atoms: O3_9  and  C7_10 
REMARK    7  A    between atoms: C7_10  and  O5_12 
REMARK    8  A    between atoms: O5_12  and  C8_13 
ROOT
HETATM    1  N1  UNL     1      11.859   8.196  10.887  1.00  0.00    -0.355 N 
HETATM    2  C10 UNL     1      11.450   9.406  10.272  1.00  0.00     0.148 C 
HETATM    3  C11 UNL     1      11.252  10.438  11.367  1.00  0.00     0.187 C 
HETATM    4  O6  UNL     1      10.831   9.913  12.554  1.00  0.00    -0.382 OA
HETATM    5  C12 UNL     1      11.729   9.011  13.129  1.00  0.00     0.146 C 
HETATM    6  C13 UNL     1      12.420   9.699  14.237  1.00  0.00     0.050 C 
HETATM    7  C14 UNL     1      13.898   9.485  14.338  1.00  0.00     0.017 C 
HETATM    8  C15 UNL     1      14.173   8.195  15.094  1.00  0.00     0.023 C 
HETATM    9  C16 UNL     1      14.466  10.606  15.191  1.00  0.00     0.023 C 
HETATM   10  C17 UNL     1      14.537   9.532  13.031  1.00  0.00     0.154 C 
HETATM   11  O7  UNL     1      15.594  10.113  12.884  1.00  0.00    -0.296 OA
HETATM   12  C18 UNL     1      13.923   8.884  11.877  1.00  0.00     0.188 C 
HETATM   13  C19 UNL     1      14.846   7.808  11.436  1.00  0.00     0.073 C 
HETATM   14  N2  UNL     1      15.571   6.969  11.102  1.00  0.00    -0.196 NA
HETATM   15  C20 UNL     1      12.566   8.312  12.117  1.00  0.00     0.137 C 
ENDROOT
BRANCH   1  16
HETATM   16  C6  UNL     1      11.191   7.031  10.554  1.00  0.00     0.389 C 
BRANCH  16  17
HETATM   17  O2  UNL     1      11.965   6.229   9.673  1.00  0.00    -0.267 OA
BRANCH  17  18
HETATM   18  C5  UNL     1      11.621   4.954   9.309  1.00  0.00     0.292 C 
HETATM   19  O1  UNL     1      11.714   4.720   8.045  1.00  0.00    -0.259 OA
BRANCH  18  20
HETATM   20  C3  UNL     1      11.182   3.895  10.192  1.00  0.00     0.009 C 
HETATM   21  C2  UNL     1      12.023   3.022  10.686  1.00  0.00    -0.018 C 
HETATM   22  C1  UNL     1      13.449   3.063  10.374  1.00  0.00     0.036 C 
HETATM   23  C4  UNL     1       9.738   3.767  10.575  1.00  0.00     0.054 C 
ENDBRANCH  18  20
ENDBRANCH  17  18
ENDBRANCH  16  17
BRANCH  16  24
HETATM   24  O3  UNL     1       9.943   7.187   9.906  1.00  0.00    -0.247 OA
BRANCH  24  25
HETATM   25  C7  UNL     1       8.782   7.379  10.619  1.00  0.00     0.410 C 
HETATM   26  O4  UNL     1       8.756   6.929  11.813  1.00  0.00    -0.229 OA
BRANCH  25  27
HETATM   27  O5  UNL     1       7.655   8.020  10.133  1.00  0.00    -0.298 OA
BRANCH  27  28
HETATM   28  C8  UNL     1       6.381   7.355  10.130  1.00  0.00     0.176 C 
HETATM   29  C9  UNL     1       6.373   6.181   9.215  1.00  0.00     0.034 C 
ENDBRANCH  27  28
ENDBRANCH  25  27
ENDBRANCH  24  25
ENDBRANCH  16  24
ENDBRANCH   1  16
TORSDOF 8
ENDMDL
