MODEL 1
REMARK VINA RESULT: -8.781103851      0.000      0.000
REMARK  4 active torsions:
REMARK  status: ('A' for Active; 'I' for Inactive)
REMARK    1  A    between atoms: O1_2  and  C2_3 
REMARK    2  A    between atoms: C2_3  and  C3_5 
REMARK    3  A    between atoms: C3_5  and  C6_8 
REMARK    4  A    between atoms: C18_26  and  C19_27 
ROOT
HETATM    1  C6  UNL     1      13.300   7.922  10.749  1.00  0.00     0.284 C 
HETATM    2  O3  UNL     1      12.970   9.076  11.583  1.00  0.00    -0.327 OA
HETATM    3  C7  UNL     1      11.618   8.990  11.582  1.00  0.00     0.300 C 
HETATM    4  O4  UNL     1      11.440   9.095  10.255  1.00  0.00    -0.347 OA
HETATM    5  C8  UNL     1      10.480   8.499   9.608  1.00  0.00     0.190 C 
HETATM    6  C9  UNL     1      10.911   7.738   8.333  1.00  0.00     0.043 C 
HETATM    7  C10 UNL     1      11.831   6.615   8.612  1.00  0.00     0.071 C 
HETATM    8  C11 UNL     1      11.571   6.350  10.090  1.00  0.00     0.167 C 
HETATM    9  C12 UNL     1      11.803   4.813  10.188  1.00  0.00     0.079 C 
HETATM   10  O5  UNL     1      12.467   6.893  10.833  1.00  0.00    -0.324 OA
HETATM   11  O6  UNL     1      10.184   6.427  10.284  1.00  0.00    -0.314 OA
HETATM   12  C13 UNL     1       9.722   7.694  10.584  1.00  0.00     0.230 C 
HETATM   13  O7  UNL     1       9.756   7.685  11.900  1.00  0.00    -0.196 OA
HETATM   14  O8  UNL     1       9.649   8.615  12.735  1.00  0.00    -0.222 OA
HETATM   15  C14 UNL     1      10.521   9.642  12.220  1.00  0.00     0.142 C 
HETATM   16  C15 UNL     1      10.946  10.454  13.400  1.00  0.00     0.054 C 
HETATM   17  C16 UNL     1       9.446  10.300  11.380  1.00  0.00     0.047 C 
HETATM   18  C17 UNL     1       8.267   9.541  10.970  1.00  0.00     0.014 C 
HETATM   19  C18 UNL     1       8.349   8.141  10.364  1.00  0.00     0.057 C 
ENDROOT
BRANCH   1  20
HETATM   20  C3  UNL     1      14.687   7.549  11.295  1.00  0.00     0.090 C 
HETATM   21  C4  UNL     1      14.705   7.574  12.809  1.00  0.00     0.031 C 
HETATM   22  C5  UNL     1      15.006   6.099  10.903  1.00  0.00     0.031 C 
BRANCH  20  23
HETATM   23  C2  UNL     1      15.747   8.447  10.808  1.00  0.00     0.271 C 
HETATM   24  O2  UNL     1      15.668   8.928   9.642  1.00  0.00    -0.264 OA
BRANCH  23  25
HETATM   25  O1  UNL     1      16.832   8.776  11.606  1.00  0.00    -0.326 OA
HETATM   26  C1  UNL     1      18.150   8.759  11.043  1.00  0.00     0.213 C 
ENDBRANCH  23  25
ENDBRANCH  20  23
ENDBRANCH   1  20
BRANCH  19  27
HETATM   27  C19 UNL     1       7.236   7.253  10.783  1.00  0.00    -0.013 C 
HETATM   28  C20 UNL     1       6.624   6.622   9.522  1.00  0.00     0.010 C 
HETATM   29  C21 UNL     1       6.121   7.817  11.564  1.00  0.00     0.010 C 
ENDBRANCH  19  27
TORSDOF 4
ENDMDL
MODEL 2
REMARK VINA RESULT: -8.487768395      1.153      1.747
REMARK  4 active torsions:
REMARK  status: ('A' for Active; 'I' for Inactive)
REMARK    1  A    between atoms: O1_2  and  C2_3 
REMARK    2  A    between atoms: C2_3  and  C3_5 
REMARK    3  A    between atoms: C3_5  and  C6_8 
REMARK    4  A    between atoms: C18_26  and  C19_27 
ROOT
HETATM    1  C6  UNL     1      13.027   7.854  10.556  1.00  0.00     0.284 C 
HETATM    2  O3  UNL     1      12.799   8.897  11.553  1.00  0.00    -0.327 OA
HETATM    3  C7  UNL     1      11.446   8.873  11.618  1.00  0.00     0.300 C 
HETATM    4  O4  UNL     1      11.208   9.165  10.329  1.00  0.00    -0.347 OA
HETATM    5  C8  UNL     1      10.187   8.706   9.663  1.00  0.00     0.190 C 
HETATM    6  C9  UNL     1      10.514   8.107   8.275  1.00  0.00     0.043 C 
HETATM    7  C10 UNL     1      11.388   6.917   8.350  1.00  0.00     0.071 C 
HETATM    8  C11 UNL     1      11.188   6.465   9.792  1.00  0.00     0.167 C 
HETATM    9  C12 UNL     1      11.346   4.920   9.670  1.00  0.00     0.079 C 
HETATM   10  O5  UNL     1      12.147   6.861  10.549  1.00  0.00    -0.324 OA
HETATM   11  O6  UNL     1       9.818   6.577  10.072  1.00  0.00    -0.314 OA
HETATM   12  C13 UNL     1       9.438   7.810  10.564  1.00  0.00     0.230 C 
HETATM   13  O7  UNL     1       9.537   7.620  11.863  1.00  0.00    -0.196 OA
HETATM   14  O8  UNL     1       9.520   8.432  12.819  1.00  0.00    -0.222 OA
HETATM   15  C14 UNL     1      10.418   9.480  12.398  1.00  0.00     0.142 C 
HETATM   16  C15 UNL     1      10.942  10.104  13.650  1.00  0.00     0.054 C 
HETATM   17  C16 UNL     1       9.337  10.293  11.715  1.00  0.00     0.047 C 
HETATM   18  C17 UNL     1       8.101   9.650  11.275  1.00  0.00     0.014 C 
HETATM   19  C18 UNL     1       8.081   8.344  10.484  1.00  0.00     0.057 C 
ENDROOT
BRANCH   1  20
HETATM   20  C3  UNL     1      14.418   7.349  10.968  1.00  0.00     0.090 C 
HETATM   21  C4  UNL     1      15.502   8.314  10.538  1.00  0.00     0.031 C 
HETATM   22  C5  UNL     1      14.498   7.296  12.500  1.00  0.00     0.031 C 
BRANCH  20  23
HETATM   23  C2  UNL     1      14.731   6.026  10.402  1.00  0.00     0.271 C 
HETATM   24  O2  UNL     1      14.733   5.871   9.148  1.00  0.00    -0.264 OA
BRANCH  23  25
HETATM   25  O1  UNL     1      15.022   4.945  11.221  1.00  0.00    -0.326 OA
HETATM   26  C1  UNL     1      14.645   3.627  10.806  1.00  0.00     0.213 C 
ENDBRANCH  23  25
ENDBRANCH  20  23
ENDBRANCH   1  20
BRANCH  19  27
HETATM   27  C19 UNL     1       6.946   7.457  10.842  1.00  0.00    -0.013 C 
HETATM   28  C20 UNL     1       6.465   6.752   9.564  1.00  0.00     0.010 C 
HETATM   29  C21 UNL     1       5.755   8.039  11.485  1.00  0.00     0.010 C 
ENDBRANCH  19  27
TORSDOF 4
ENDMDL
MODEL 3
REMARK VINA RESULT: -8.385637410      2.263      4.475
REMARK  4 active torsions:
REMARK  status: ('A' for Active; 'I' for Inactive)
REMARK    1  A    between atoms: O1_2  and  C2_3 
REMARK    2  A    between atoms: C2_3  and  C3_5 
REMARK    3  A    between atoms: C3_5  and  C6_8 
REMARK    4  A    between atoms: C18_26  and  C19_27 
ROOT
HETATM    1  C6  UNL     1      11.162   7.098  10.360  1.00  0.00     0.284 C 
HETATM    2  O3  UNL     1       9.981   6.300  10.034  1.00  0.00    -0.327 OA
HETATM    3  C7  UNL     1       9.006   7.125  10.488  1.00  0.00     0.300 C 
HETATM    4  O4  UNL     1       9.405   7.173  11.769  1.00  0.00    -0.347 OA
HETATM    5  C8  UNL     1       9.260   8.219  12.530  1.00  0.00     0.190 C 
HETATM    6  C9  UNL     1      10.518   8.646  13.320  1.00  0.00     0.043 C 
HETATM    7  C10 UNL     1      11.638   9.058  12.447  1.00  0.00     0.071 C 
HETATM    8  C11 UNL     1      10.922   9.383  11.142  1.00  0.00     0.167 C 
HETATM    9  C12 UNL     1      11.808  10.527  10.564  1.00  0.00     0.079 C 
HETATM   10  O5  UNL     1      11.003   8.413  10.304  1.00  0.00    -0.324 OA
HETATM   11  O6  UNL     1       9.755  10.086  11.477  1.00  0.00    -0.314 OA
HETATM   12  C13 UNL     1       8.655   9.284  11.706  1.00  0.00     0.230 C 
HETATM   13  O7  UNL     1       8.106   9.237  10.511  1.00  0.00    -0.196 OA
HETATM   14  O8  UNL     1       7.202   8.501  10.046  1.00  0.00    -0.222 OA
HETATM   15  C14 UNL     1       7.581   7.177  10.474  1.00  0.00     0.142 C 
HETATM   16  C15 UNL     1       6.983   6.235   9.481  1.00  0.00     0.054 C 
HETATM   17  C16 UNL     1       6.820   7.253  11.781  1.00  0.00     0.047 C 
HETATM   18  C17 UNL     1       6.484   8.551  12.362  1.00  0.00     0.014 C 
HETATM   19  C18 UNL     1       7.500   9.683  12.506  1.00  0.00     0.057 C 
ENDROOT
BRANCH   1  20
HETATM   20  C3  UNL     1      12.148   6.620   9.282  1.00  0.00     0.090 C 
HETATM   21  C4  UNL     1      11.784   7.174   7.921  1.00  0.00     0.031 C 
HETATM   22  C5  UNL     1      13.543   7.180   9.596  1.00  0.00     0.031 C 
BRANCH  20  23
HETATM   23  C2  UNL     1      12.207   5.152   9.180  1.00  0.00     0.271 C 
HETATM   24  O2  UNL     1      11.876   4.591   8.098  1.00  0.00    -0.264 OA
BRANCH  23  25
HETATM   25  O1  UNL     1      12.619   4.374  10.251  1.00  0.00    -0.326 OA
HETATM   26  C1  UNL     1      11.895   3.180  10.573  1.00  0.00     0.213 C 
ENDBRANCH  23  25
ENDBRANCH  20  23
ENDBRANCH   1  20
BRANCH  19  27
HETATM   27  C19 UNL     1       6.913  11.029  12.286  1.00  0.00    -0.013 C 
HETATM   28  C20 UNL     1       7.376  11.947  13.429  1.00  0.00     0.010 C 
HETATM   29  C21 UNL     1       5.450  11.168  12.190  1.00  0.00     0.010 C 
ENDBRANCH  19  27
TORSDOF 4
ENDMDL
MODEL 4
REMARK VINA RESULT: -8.297217862      0.861      1.561
REMARK  4 active torsions:
REMARK  status: ('A' for Active; 'I' for Inactive)
REMARK    1  A    between atoms: O1_2  and  C2_3 
REMARK    2  A    between atoms: C2_3  and  C3_5 
REMARK    3  A    between atoms: C3_5  and  C6_8 
REMARK    4  A    between atoms: C18_26  and  C19_27 
ROOT
HETATM    1  C6  UNL     1      13.336   8.118  10.726  1.00  0.00     0.284 C 
HETATM    2  O3  UNL     1      12.951   9.268  11.542  1.00  0.00    -0.327 OA
HETATM    3  C7  UNL     1      11.604   9.118  11.543  1.00  0.00     0.300 C 
HETATM    4  O4  UNL     1      11.422   9.193  10.215  1.00  0.00    -0.347 OA
HETATM    5  C8  UNL     1      10.493   8.542   9.576  1.00  0.00     0.190 C 
HETATM    6  C9  UNL     1      10.960   7.783   8.313  1.00  0.00     0.043 C 
HETATM    7  C10 UNL     1      11.933   6.709   8.611  1.00  0.00     0.071 C 
HETATM    8  C11 UNL     1      11.685   6.455  10.092  1.00  0.00     0.167 C 
HETATM    9  C12 UNL     1      11.990   4.932  10.214  1.00  0.00     0.079 C 
HETATM   10  O5  UNL     1      12.553   7.052  10.827  1.00  0.00    -0.324 OA
HETATM   11  O6  UNL     1      10.295   6.469  10.285  1.00  0.00    -0.314 OA
HETATM   12  C13 UNL     1       9.773   7.717  10.565  1.00  0.00     0.230 C 
HETATM   13  O7  UNL     1       9.807   7.730  11.881  1.00  0.00    -0.196 OA
HETATM   14  O8  UNL     1       9.655   8.667  12.701  1.00  0.00    -0.222 OA
HETATM   15  C14 UNL     1      10.477   9.726  12.171  1.00  0.00     0.142 C 
HETATM   16  C15 UNL     1      10.862  10.575  13.338  1.00  0.00     0.054 C 
HETATM   17  C16 UNL     1       9.373  10.319  11.320  1.00  0.00     0.047 C 
HETATM   18  C17 UNL     1       8.231   9.498  10.922  1.00  0.00     0.014 C 
HETATM   19  C18 UNL     1       8.381   8.095  10.338  1.00  0.00     0.057 C 
ENDROOT
BRANCH   1  20
HETATM   20  C3  UNL     1      14.739   7.820  11.278  1.00  0.00     0.090 C 
HETATM   21  C4  UNL     1      15.026   6.333  11.275  1.00  0.00     0.031 C 
HETATM   22  C5  UNL     1      15.786   8.444  10.346  1.00  0.00     0.031 C 
BRANCH  20  23
HETATM   23  C2  UNL     1      14.925   8.320  12.651  1.00  0.00     0.271 C 
HETATM   24  O2  UNL     1      15.627   9.353  12.846  1.00  0.00    -0.264 OA
BRANCH  23  25
HETATM   25  O1  UNL     1      14.344   7.679  13.734  1.00  0.00    -0.326 OA
HETATM   26  C1  UNL     1      13.780   8.460  14.795  1.00  0.00     0.213 C 
ENDBRANCH  23  25
ENDBRANCH  20  23
ENDBRANCH   1  20
BRANCH  19  27
HETATM   27  C19 UNL     1       7.311   7.161  10.771  1.00  0.00    -0.013 C 
HETATM   28  C20 UNL     1       6.781   6.429   9.528  1.00  0.00     0.010 C 
HETATM   29  C21 UNL     1       6.139   7.693  11.488  1.00  0.00     0.010 C 
ENDBRANCH  19  27
TORSDOF 4
ENDMDL
MODEL 5
REMARK VINA RESULT: -8.216139490      1.641      6.665
REMARK  4 active torsions:
REMARK  status: ('A' for Active; 'I' for Inactive)
REMARK    1  A    between atoms: O1_2  and  C2_3 
REMARK    2  A    between atoms: C2_3  and  C3_5 
REMARK    3  A    between atoms: C3_5  and  C6_8 
REMARK    4  A    between atoms: C18_26  and  C19_27 
ROOT
HETATM    1  C6  UNL     1       9.008   7.740  10.505  1.00  0.00     0.284 C 
HETATM    2  O3  UNL     1       9.493   6.731   9.565  1.00  0.00    -0.327 OA
HETATM    3  C7  UNL     1      10.829   6.854   9.755  1.00  0.00     0.300 C 
HETATM    4  O4  UNL     1      10.934   8.147   9.407  1.00  0.00    -0.347 OA
HETATM    5  C8  UNL     1      11.793   8.969   9.938  1.00  0.00     0.190 C 
HETATM    6  C9  UNL     1      11.216  10.327  10.400  1.00  0.00     0.043 C 
HETATM    7  C10 UNL     1      10.216  10.194  11.480  1.00  0.00     0.071 C 
HETATM    8  C11 UNL     1      10.541   8.818  12.048  1.00  0.00     0.167 C 
HETATM    9  C12 UNL     1      10.174   8.994  13.552  1.00  0.00     0.079 C 
HETATM   10  O5  UNL     1       9.746   7.917  11.592  1.00  0.00    -0.324 OA
HETATM   11  O6  UNL     1      11.939   8.722  12.119  1.00  0.00    -0.314 OA
HETATM   12  C13 UNL     1      12.532   8.224  10.976  1.00  0.00     0.230 C 
HETATM   13  O7  UNL     1      12.579   6.936  11.239  1.00  0.00    -0.196 OA
HETATM   14  O8  UNL     1      12.822   5.951  10.501  1.00  0.00    -0.222 OA
HETATM   15  C14 UNL     1      12.018   6.192   9.328  1.00  0.00     0.142 C 
HETATM   16  C15 UNL     1      11.743   4.850   8.731  1.00  0.00     0.054 C 
HETATM   17  C16 UNL     1      13.095   6.974   8.605  1.00  0.00     0.047 C 
HETATM   18  C17 UNL     1      14.173   7.611   9.359  1.00  0.00     0.014 C 
HETATM   19  C18 UNL     1      13.924   8.462  10.603  1.00  0.00     0.057 C 
ENDROOT
BRANCH   1  20
HETATM   20  C3  UNL     1       7.629   7.168  10.867  1.00  0.00     0.090 C 
HETATM   21  C4  UNL     1       7.116   6.242   9.783  1.00  0.00     0.031 C 
HETATM   22  C5  UNL     1       7.763   6.296  12.124  1.00  0.00     0.031 C 
BRANCH  20  23
HETATM   23  C2  UNL     1       6.620   8.218  11.089  1.00  0.00     0.271 C 
HETATM   24  O2  UNL     1       6.861   9.400  10.712  1.00  0.00    -0.264 OA
BRANCH  23  25
HETATM   25  O1  UNL     1       5.410   7.933  11.703  1.00  0.00    -0.326 OA
HETATM   26  C1  UNL     1       4.190   8.120  10.976  1.00  0.00     0.213 C 
ENDBRANCH  23  25
ENDBRANCH  20  23
ENDBRANCH   1  20
BRANCH  19  27
HETATM   27  C19 UNL     1      14.975   8.308  11.640  1.00  0.00    -0.013 C 
HETATM   28  C20 UNL     1      15.169   9.666  12.333  1.00  0.00     0.010 C 
HETATM   29  C21 UNL     1      16.312   7.834  11.244  1.00  0.00     0.010 C 
ENDBRANCH  19  27
TORSDOF 4
ENDMDL
