MODEL 1
REMARK VINA RESULT: -7.867008982      0.000      0.000
REMARK  6 active torsions:
REMARK  status: ('A' for Active; 'I' for Inactive)
REMARK    1  A    between atoms: O1_2  and  C2_3 
REMARK    2  A    between atoms: C5_6  and  O2_7 
REMARK    3  A    between atoms: O2_7  and  C6_8 
REMARK       I    between atoms: C6_8  and  N1_10 
REMARK    4  A    between atoms: N1_10  and  C8_12 
REMARK    5  A    between atoms: C13_17  and  O4_18 
REMARK    6  A    between atoms: O4_18  and  C14_19 
ROOT
HETATM    1  C2  UNL     1       6.229   8.858  11.006  1.00  0.00     0.116 A 
HETATM    2  C3  UNL     1       6.474   7.726  10.207  1.00  0.00     0.141 A 
HETATM    3  C4  UNL     1       7.711   7.135  10.123  1.00  0.00     0.144 A 
HETATM    4  C5  UNL     1       8.740   7.687  10.857  1.00  0.00     0.151 A 
HETATM    5  C11 UNL     1       8.565   8.787  11.650  1.00  0.00     0.118 A 
HETATM    6  C12 UNL     1       7.272   9.347  11.694  1.00  0.00     0.044 A 
HETATM    7  C13 UNL     1       7.162  10.554  12.550  1.00  0.00     0.173 C 
HETATM    8  C16 UNL     1       7.874  10.320  13.878  1.00  0.00     0.075 C 
HETATM    9  C17 UNL     1       9.284   9.828  13.698  1.00  0.00     0.063 C 
HETATM   10  C18 UNL     1       9.604   8.745  14.733  1.00  0.00     0.046 C 
HETATM   11  C19 UNL     1      10.220  11.015  13.928  1.00  0.00     0.046 C 
HETATM   12  O6  UNL     1       9.573   9.364  12.398  1.00  0.00    -0.337 OA
HETATM   13  O7  UNL     1       7.600   6.060   9.261  1.00  0.00    -0.320 OA
HETATM   14  C20 UNL     1       6.226   5.780   9.101  1.00  0.00     0.352 C 
HETATM   15  O8  UNL     1       5.606   7.012   9.398  1.00  0.00    -0.320 OA
ENDROOT
BRANCH   4  16
HETATM   16  O2  UNL     1       9.982   7.088  10.767  1.00  0.00    -0.255 OA
BRANCH  16  17
HETATM   17  C6  UNL     1      10.690   7.000   9.578  1.00  0.00     0.368 C 
HETATM   18  O3  UNL     1      10.658   7.923   8.751  1.00  0.00    -0.238 OA
HETATM   19  N1  UNL     1      11.449   5.829   9.336  1.00  0.00    -0.328 N 
HETATM   20  C7  UNL     1      12.188   5.730   8.100  1.00  0.00     0.155 C 
BRANCH  19  21
HETATM   21  C8  UNL     1      11.482   4.745  10.317  1.00  0.00     0.080 C 
HETATM   22  C9  UNL     1      10.294   3.814  10.114  1.00  0.00     0.032 C 
HETATM   23  C10 UNL     1      12.784   3.994  10.274  1.00  0.00     0.032 C 
ENDBRANCH  19  21
ENDBRANCH  16  17
ENDBRANCH   4  16
BRANCH   1  24
HETATM   24  O1  UNL     1       4.958   9.403  11.047  1.00  0.00    -0.352 OA
HETATM   25  C1  UNL     1       3.925   8.510  11.511  1.00  0.00     0.210 C 
ENDBRANCH   1  24
BRANCH   7  26
HETATM   26  O4  UNL     1       5.915  11.123  12.652  1.00  0.00    -0.311 OA
BRANCH  26  27
HETATM   27  C14 UNL     1       5.648  12.468  12.414  1.00  0.00     0.255 C 
HETATM   28  C15 UNL     1       4.646  12.849  11.392  1.00  0.00     0.126 C 
HETATM   29  O5  UNL     1       6.270  13.331  13.078  1.00  0.00    -0.266 OA
ENDBRANCH  26  27
ENDBRANCH   7  26
TORSDOF 6
ENDMDL
MODEL 2
REMARK VINA RESULT: -7.759668515      2.921      6.593
REMARK  6 active torsions:
REMARK  status: ('A' for Active; 'I' for Inactive)
REMARK    1  A    between atoms: O1_2  and  C2_3 
REMARK    2  A    between atoms: C5_6  and  O2_7 
REMARK    3  A    between atoms: O2_7  and  C6_8 
REMARK       I    between atoms: C6_8  and  N1_10 
REMARK    4  A    between atoms: N1_10  and  C8_12 
REMARK    5  A    between atoms: C13_17  and  O4_18 
REMARK    6  A    between atoms: O4_18  and  C14_19 
ROOT
HETATM    1  C2  UNL     1      11.680   6.667  10.285  1.00  0.00     0.116 A 
HETATM    2  C3  UNL     1      13.047   6.720  10.615  1.00  0.00     0.141 A 
HETATM    3  C4  UNL     1      13.553   7.610  11.529  1.00  0.00     0.144 A 
HETATM    4  C5  UNL     1      12.670   8.479  12.138  1.00  0.00     0.151 A 
HETATM    5  C11 UNL     1      11.332   8.477  11.859  1.00  0.00     0.118 A 
HETATM    6  C12 UNL     1      10.876   7.539  10.910  1.00  0.00     0.044 A 
HETATM    7  C13 UNL     1       9.419   7.614  10.635  1.00  0.00     0.173 C 
HETATM    8  C16 UNL     1       8.645   7.727  11.943  1.00  0.00     0.075 C 
HETATM    9  C17 UNL     1       9.155   8.835  12.823  1.00  0.00     0.063 C 
HETATM   10  C18 UNL     1       9.169   8.388  14.287  1.00  0.00     0.046 C 
HETATM   11  C19 UNL     1       8.194  10.017  12.681  1.00  0.00     0.046 C 
HETATM   12  O6  UNL     1      10.422   9.332  12.450  1.00  0.00    -0.337 OA
HETATM   13  O7  UNL     1      14.915   7.393  11.612  1.00  0.00    -0.320 OA
HETATM   14  C20 UNL     1      15.185   6.141  11.021  1.00  0.00     0.352 C 
HETATM   15  O8  UNL     1      14.100   5.957  10.138  1.00  0.00    -0.320 OA
ENDROOT
BRANCH   4  16
HETATM   16  O2  UNL     1      13.185   9.373  13.057  1.00  0.00    -0.255 OA
BRANCH  16  17
HETATM   17  C6  UNL     1      12.975   9.253  14.422  1.00  0.00     0.368 C 
HETATM   18  O3  UNL     1      13.224   8.191  15.011  1.00  0.00    -0.238 OA
HETATM   19  N1  UNL     1      12.469  10.375  15.123  1.00  0.00    -0.328 N 
HETATM   20  C7  UNL     1      12.247  10.256  16.544  1.00  0.00     0.155 C 
BRANCH  19  21
HETATM   21  C8  UNL     1      12.179  11.624  14.421  1.00  0.00     0.080 C 
HETATM   22  C9  UNL     1      10.741  12.054  14.683  1.00  0.00     0.032 C 
HETATM   23  C10 UNL     1      13.152  12.710  14.788  1.00  0.00     0.032 C 
ENDBRANCH  19  21
ENDBRANCH  16  17
ENDBRANCH   4  16
BRANCH   1  24
HETATM   24  O1  UNL     1      11.237   5.744   9.355  1.00  0.00    -0.352 OA
HETATM   25  C1  UNL     1      11.291   4.368   9.786  1.00  0.00     0.210 C 
ENDBRANCH   1  24
BRANCH   7  26
HETATM   26  O4  UNL     1       8.917   6.700   9.739  1.00  0.00    -0.311 OA
BRANCH  26  27
HETATM   27  C14 UNL     1       7.753   5.965   9.943  1.00  0.00     0.255 C 
HETATM   28  C15 UNL     1       6.447   6.522   9.519  1.00  0.00     0.126 C 
HETATM   29  O5  UNL     1       7.841   4.838  10.486  1.00  0.00    -0.266 OA
ENDBRANCH  26  27
ENDBRANCH   7  26
TORSDOF 6
ENDMDL
MODEL 3
REMARK VINA RESULT: -7.746729748      3.504      6.560
REMARK  6 active torsions:
REMARK  status: ('A' for Active; 'I' for Inactive)
REMARK    1  A    between atoms: O1_2  and  C2_3 
REMARK    2  A    between atoms: C5_6  and  O2_7 
REMARK    3  A    between atoms: O2_7  and  C6_8 
REMARK       I    between atoms: C6_8  and  N1_10 
REMARK    4  A    between atoms: N1_10  and  C8_12 
REMARK    5  A    between atoms: C13_17  and  O4_18 
REMARK    6  A    between atoms: O4_18  and  C14_19 
ROOT
HETATM    1  C2  UNL     1      11.679   6.874  10.400  1.00  0.00     0.116 A 
HETATM    2  C3  UNL     1      13.037   6.996  10.751  1.00  0.00     0.141 A 
HETATM    3  C4  UNL     1      13.473   7.861  11.723  1.00  0.00     0.144 A 
HETATM    4  C5  UNL     1      12.530   8.632  12.370  1.00  0.00     0.151 A 
HETATM    5  C11 UNL     1      11.197   8.559  12.074  1.00  0.00     0.118 A 
HETATM    6  C12 UNL     1      10.813   7.652  11.066  1.00  0.00     0.044 A 
HETATM    7  C13 UNL     1       9.357   7.648  10.777  1.00  0.00     0.173 C 
HETATM    8  C16 UNL     1       8.565   7.631  12.079  1.00  0.00     0.075 C 
HETATM    9  C17 UNL     1       8.993   8.716  13.029  1.00  0.00     0.063 C 
HETATM   10  C18 UNL     1       9.023   8.184  14.465  1.00  0.00     0.046 C 
HETATM   11  C19 UNL     1       7.957   9.838  12.945  1.00  0.00     0.046 C 
HETATM   12  O6  UNL     1      10.227   9.316  12.704  1.00  0.00    -0.337 OA
HETATM   13  O7  UNL     1      14.847   7.729  11.811  1.00  0.00    -0.320 OA
HETATM   14  C20 UNL     1      15.204   6.535  11.150  1.00  0.00     0.352 C 
HETATM   15  O8  UNL     1      14.142   6.334  10.244  1.00  0.00    -0.320 OA
ENDROOT
BRANCH   4  16
HETATM   16  O2  UNL     1      12.976   9.501  13.348  1.00  0.00    -0.255 OA
BRANCH  16  17
HETATM   17  C6  UNL     1      13.292   9.089  14.633  1.00  0.00     0.368 C 
HETATM   18  O3  UNL     1      12.478   8.445  15.310  1.00  0.00    -0.238 OA
HETATM   19  N1  UNL     1      14.567   9.424  15.150  1.00  0.00    -0.328 N 
HETATM   20  C7  UNL     1      14.902   8.999  16.488  1.00  0.00     0.155 C 
BRANCH  19  21
HETATM   21  C8  UNL     1      15.522  10.185  14.345  1.00  0.00     0.080 C 
HETATM   22  C9  UNL     1      15.650  11.605  14.880  1.00  0.00     0.032 C 
HETATM   23  C10 UNL     1      16.860   9.501  14.273  1.00  0.00     0.032 C 
ENDBRANCH  19  21
ENDBRANCH  16  17
ENDBRANCH   4  16
BRANCH   1  24
HETATM   24  O1  UNL     1      11.307   5.981   9.412  1.00  0.00    -0.352 OA
HETATM   25  C1  UNL     1      11.401   4.589   9.778  1.00  0.00     0.210 C 
ENDBRANCH   1  24
BRANCH   7  26
HETATM   26  O4  UNL     1       8.924   6.759   9.822  1.00  0.00    -0.311 OA
BRANCH  26  27
HETATM   27  C14 UNL     1       7.788   5.967   9.950  1.00  0.00     0.255 C 
HETATM   28  C15 UNL     1       6.471   6.495   9.525  1.00  0.00     0.126 C 
HETATM   29  O5  UNL     1       7.910   4.813  10.427  1.00  0.00    -0.266 OA
ENDBRANCH  26  27
ENDBRANCH   7  26
TORSDOF 6
ENDMDL
MODEL 4
REMARK VINA RESULT: -7.719351353      1.492      1.865
REMARK  6 active torsions:
REMARK  status: ('A' for Active; 'I' for Inactive)
REMARK    1  A    between atoms: O1_2  and  C2_3 
REMARK    2  A    between atoms: C5_6  and  O2_7 
REMARK    3  A    between atoms: O2_7  and  C6_8 
REMARK       I    between atoms: C6_8  and  N1_10 
REMARK    4  A    between atoms: N1_10  and  C8_12 
REMARK    5  A    between atoms: C13_17  and  O4_18 
REMARK    6  A    between atoms: O4_18  and  C14_19 
ROOT
HETATM    1  C2  UNL     1       7.523   7.642  11.387  1.00  0.00     0.116 A 
HETATM    2  C3  UNL     1       8.151   6.486  10.889  1.00  0.00     0.141 A 
HETATM    3  C4  UNL     1       9.512   6.392  10.735  1.00  0.00     0.144 A 
HETATM    4  C5  UNL     1      10.276   7.485  11.087  1.00  0.00     0.151 A 
HETATM    5  C11 UNL     1       9.725   8.637  11.575  1.00  0.00     0.118 A 
HETATM    6  C12 UNL     1       8.322   8.670  11.709  1.00  0.00     0.044 A 
HETATM    7  C13 UNL     1       7.791   9.960  12.216  1.00  0.00     0.173 C 
HETATM    8  C16 UNL     1       8.624  10.440  13.400  1.00  0.00     0.075 C 
HETATM    9  C17 UNL     1      10.097  10.466  13.097  1.00  0.00     0.063 C 
HETATM   10  C18 UNL     1      10.897   9.967  14.304  1.00  0.00     0.046 C 
HETATM   11  C19 UNL     1      10.486  11.919  12.819  1.00  0.00     0.046 C 
HETATM   12  O6  UNL     1      10.462   9.749  11.937  1.00  0.00    -0.337 OA
HETATM   13  O7  UNL     1       9.788   5.136  10.229  1.00  0.00    -0.320 OA
HETATM   14  C20 UNL     1       8.638   4.339  10.412  1.00  0.00     0.352 C 
HETATM   15  O8  UNL     1       7.594   5.286  10.479  1.00  0.00    -0.320 OA
ENDROOT
BRANCH   4  16
HETATM   16  O2  UNL     1      11.645   7.385  10.929  1.00  0.00    -0.255 OA
BRANCH  16  17
HETATM   17  C6  UNL     1      12.252   7.252   9.689  1.00  0.00     0.368 C 
HETATM   18  O3  UNL     1      11.976   8.027   8.762  1.00  0.00    -0.238 OA
HETATM   19  N1  UNL     1      13.192   6.208   9.512  1.00  0.00    -0.328 N 
HETATM   20  C7  UNL     1      13.827   6.064   8.223  1.00  0.00     0.155 C 
BRANCH  19  21
HETATM   21  C8  UNL     1      13.513   5.298  10.610  1.00  0.00     0.080 C 
HETATM   22  C9  UNL     1      13.015   3.894  10.294  1.00  0.00     0.032 C 
HETATM   23  C10 UNL     1      14.982   5.302  10.928  1.00  0.00     0.032 C 
ENDBRANCH  19  21
ENDBRANCH  16  17
ENDBRANCH   4  16
BRANCH   1  24
HETATM   24  O1  UNL     1       6.146   7.669  11.519  1.00  0.00    -0.352 OA
HETATM   25  C1  UNL     1       5.412   7.611  10.278  1.00  0.00     0.210 C 
ENDBRANCH   1  24
BRANCH   7  26
HETATM   26  O4  UNL     1       6.430  10.036  12.394  1.00  0.00    -0.311 OA
BRANCH  26  27
HETATM   27  C14 UNL     1       5.671  11.174  12.140  1.00  0.00     0.255 C 
HETATM   28  C15 UNL     1       4.899  11.276  10.879  1.00  0.00     0.126 C 
HETATM   29  O5  UNL     1       5.660  12.092  12.993  1.00  0.00    -0.266 OA
ENDBRANCH  26  27
ENDBRANCH   7  26
TORSDOF 6
ENDMDL
MODEL 5
REMARK VINA RESULT: -7.712937216      3.905      6.782
REMARK  6 active torsions:
REMARK  status: ('A' for Active; 'I' for Inactive)
REMARK    1  A    between atoms: O1_2  and  C2_3 
REMARK    2  A    between atoms: C5_6  and  O2_7 
REMARK    3  A    between atoms: O2_7  and  C6_8 
REMARK       I    between atoms: C6_8  and  N1_10 
REMARK    4  A    between atoms: N1_10  and  C8_12 
REMARK    5  A    between atoms: C13_17  and  O4_18 
REMARK    6  A    between atoms: O4_18  and  C14_19 
ROOT
HETATM    1  C2  UNL     1      14.308   9.326  12.564  1.00  0.00     0.116 A 
HETATM    2  C3  UNL     1      15.487   8.842  11.968  1.00  0.00     0.141 A 
HETATM    3  C4  UNL     1      15.487   7.812  11.060  1.00  0.00     0.144 A 
HETATM    4  C5  UNL     1      14.274   7.242  10.732  1.00  0.00     0.151 A 
HETATM    5  C11 UNL     1      13.095   7.668  11.278  1.00  0.00     0.118 A 
HETATM    6  C12 UNL     1      13.162   8.729  12.204  1.00  0.00     0.044 A 
HETATM    7  C13 UNL     1      11.849   9.118  12.777  1.00  0.00     0.173 C 
HETATM    8  C16 UNL     1      10.803   9.212  11.672  1.00  0.00     0.075 C 
HETATM    9  C17 UNL     1      10.751   7.975  10.819  1.00  0.00     0.063 C 
HETATM   10  C18 UNL     1      10.567   8.351   9.346  1.00  0.00     0.046 C 
HETATM   11  C19 UNL     1       9.541   7.154  11.269  1.00  0.00     0.046 C 
HETATM   12  O6  UNL     1      11.864   7.120  10.971  1.00  0.00    -0.337 OA
HETATM   13  O7  UNL     1      16.798   7.593  10.679  1.00  0.00    -0.320 OA
HETATM   14  C20 UNL     1      17.552   8.717  11.078  1.00  0.00     0.352 C 
HETATM   15  O8  UNL     1      16.798   9.254  12.142  1.00  0.00    -0.320 OA
ENDROOT
BRANCH   4  16
HETATM   16  O2  UNL     1      14.281   6.206   9.819  1.00  0.00    -0.255 OA
BRANCH  16  17
HETATM   17  C6  UNL     1      14.611   4.904  10.161  1.00  0.00     0.368 C 
HETATM   18  O3  UNL     1      15.791   4.581  10.362  1.00  0.00    -0.238 OA
HETATM   19  N1  UNL     1      13.566   3.955  10.274  1.00  0.00    -0.328 N 
HETATM   20  C7  UNL     1      13.903   2.597  10.630  1.00  0.00     0.155 C 
BRANCH  19  21
HETATM   21  C8  UNL     1      12.176   4.344  10.036  1.00  0.00     0.080 C 
HETATM   22  C9  UNL     1      11.931   4.537   8.545  1.00  0.00     0.032 C 
HETATM   23  C10 UNL     1      11.211   3.355  10.629  1.00  0.00     0.032 C 
ENDBRANCH  19  21
ENDBRANCH  16  17
ENDBRANCH   4  16
BRANCH   1  24
HETATM   24  O1  UNL     1      14.379  10.369  13.470  1.00  0.00    -0.352 OA
HETATM   25  C1  UNL     1      15.054  10.058  14.706  1.00  0.00     0.210 C 
ENDBRANCH   1  24
BRANCH   7  26
HETATM   26  O4  UNL     1      11.855  10.168  13.664  1.00  0.00    -0.311 OA
BRANCH  26  27
HETATM   27  C14 UNL     1      11.378  10.092  14.968  1.00  0.00     0.255 C 
HETATM   28  C15 UNL     1      11.445   8.807  15.702  1.00  0.00     0.126 C 
HETATM   29  O5  UNL     1      10.897  11.124  15.494  1.00  0.00    -0.266 OA
ENDBRANCH  26  27
ENDBRANCH   7  26
TORSDOF 6
ENDMDL
