MODEL 1
REMARK VINA RESULT: -9.774285813      0.000      0.000
REMARK  6 active torsions:
REMARK  status: ('A' for Active; 'I' for Inactive)
REMARK    1  A    between atoms: N3_11  and  N4_12 
REMARK    2  A    between atoms: N4_12  and  C9_13 
REMARK    3  A    between atoms: C9_13  and  C10_14 
REMARK    4  A    between atoms: C9_13  and  C16_20 
REMARK    5  A    between atoms: C19_23  and  N5_24 
REMARK    6  A    between atoms: C21_28  and  N6_29 
ROOT
HETATM    1  N1  UNL     1      14.516   2.872  10.186  1.00  0.00    -0.195 NA
HETATM    2  C1  UNL     1      13.489   3.402  10.120  1.00  0.00     0.087 C 
HETATM    3  C2  UNL     1      12.166   4.063  10.052  1.00  0.00     0.165 C 
HETATM    4  C3  UNL     1      11.195   3.164  10.600  1.00  0.00     0.087 C 
HETATM    5  N2  UNL     1      10.424   2.439  11.039  1.00  0.00    -0.195 NA
HETATM    6  C4  UNL     1      11.898   4.455   8.610  1.00  0.00     0.074 C 
HETATM    7  C5  UNL     1      11.990   5.944   8.664  1.00  0.00     0.141 C 
HETATM    8  C6  UNL     1      13.361   6.335   9.028  1.00  0.00    -0.001 C 
HETATM    9  C7  UNL     1      13.554   5.998  10.316  1.00  0.00     0.002 C 
HETATM   10  C8  UNL     1      12.288   5.386  10.769  1.00  0.00     0.175 C 
HETATM   11  N3  UNL     1      11.323   6.190   9.972  1.00  0.00    -0.244 N 
ENDROOT
BRANCH  11  12
HETATM   12  N4  UNL     1      10.309   6.821  10.389  1.00  0.00    -0.325 NA
BRANCH  12  13
HETATM   13  C9  UNL     1       9.422   7.443  10.965  1.00  0.00     0.154 C 
BRANCH  13  14
HETATM   14  C10 UNL     1       8.060   7.344  10.467  1.00  0.00     0.008 A 
HETATM   15  C11 UNL     1       7.083   8.285  10.697  1.00  0.00     0.015 A 
HETATM   16  C12 UNL     1       5.809   8.085  10.225  1.00  0.00     0.001 A 
HETATM   17  C13 UNL     1       5.447   6.941   9.503  1.00  0.00     0.000 A 
HETATM   18  C14 UNL     1       6.419   6.006   9.274  1.00  0.00     0.001 A 
HETATM   19  C15 UNL     1       7.685   6.197   9.738  1.00  0.00     0.015 A 
ENDBRANCH  13  14
BRANCH  13  20
HETATM   20  C16 UNL     1       9.831   8.326  12.051  1.00  0.00     0.041 A 
HETATM   21  C17 UNL     1       9.249   7.984  13.314  1.00  0.00     0.020 A 
HETATM   22  C18 UNL     1       9.699   8.528  14.473  1.00  0.00     0.037 A 
HETATM   23  C19 UNL     1      10.742   9.442  14.508  1.00  0.00     0.105 A 
HETATM   24  C20 UNL     1      11.280   9.760  13.296  1.00  0.00     0.073 A 
HETATM   25  C21 UNL     1      10.831   9.217  12.090  1.00  0.00     0.118 A 
BRANCH  23  26
HETATM   26  N5  UNL     1      11.194   9.990  15.736  1.00  0.00    -0.116 N 
HETATM   27  O1  UNL     1      11.325  11.213  15.922  1.00  0.00    -0.532 OA
HETATM   28  O2  UNL     1      11.507   9.154  16.777  1.00  0.00    -0.532 OA
ENDBRANCH  23  26
BRANCH  25  29
HETATM   29  N6  UNL     1      11.349   9.812  10.876  1.00  0.00    -0.115 N 
HETATM   30  O3  UNL     1      10.704  10.617  10.201  1.00  0.00    -0.532 OA
HETATM   31  O4  UNL     1      12.632   9.521  10.538  1.00  0.00    -0.532 OA
ENDBRANCH  25  29
ENDBRANCH  13  20
ENDBRANCH  12  13
ENDBRANCH  11  12
TORSDOF 6
ENDMDL
MODEL 2
REMARK VINA RESULT: -9.187108013      3.004      6.049
REMARK  6 active torsions:
REMARK  status: ('A' for Active; 'I' for Inactive)
REMARK    1  A    between atoms: N3_11  and  N4_12 
REMARK    2  A    between atoms: N4_12  and  C9_13 
REMARK    3  A    between atoms: C9_13  and  C10_14 
REMARK    4  A    between atoms: C9_13  and  C16_20 
REMARK    5  A    between atoms: C19_23  and  N5_24 
REMARK    6  A    between atoms: C21_28  and  N6_29 
ROOT
HETATM    1  N1  UNL     1       4.862   9.622  10.973  1.00  0.00    -0.195 NA
HETATM    2  C1  UNL     1       5.750   8.879  10.962  1.00  0.00     0.087 C 
HETATM    3  C2  UNL     1       6.876   7.919  10.927  1.00  0.00     0.165 C 
HETATM    4  C3  UNL     1       6.540   6.880  10.000  1.00  0.00     0.087 C 
HETATM    5  N2  UNL     1       6.264   6.052   9.258  1.00  0.00    -0.195 NA
HETATM    6  C4  UNL     1       7.131   7.426  12.340  1.00  0.00     0.074 C 
HETATM    7  C5  UNL     1       8.445   8.059  12.663  1.00  0.00     0.141 C 
HETATM    8  C6  UNL     1       8.290   9.522  12.679  1.00  0.00    -0.001 C 
HETATM    9  C7  UNL     1       8.091   9.926  11.411  1.00  0.00     0.002 C 
HETATM   10  C8  UNL     1       8.121   8.701  10.586  1.00  0.00     0.175 C 
HETATM   11  N3  UNL     1       9.126   7.912  11.347  1.00  0.00    -0.244 N 
ENDROOT
BRANCH  11  12
HETATM   12  N4  UNL     1      10.168   7.349  10.904  1.00  0.00    -0.325 NA
BRANCH  12  13
HETATM   13  C9  UNL     1      11.132   6.655  10.597  1.00  0.00     0.154 C 
BRANCH  13  14
HETATM   14  C10 UNL     1      10.966   5.212  10.536  1.00  0.00     0.008 A 
HETATM   15  C11 UNL     1       9.752   4.570  10.609  1.00  0.00     0.015 A 
HETATM   16  C12 UNL     1       9.695   3.198  10.589  1.00  0.00     0.001 A 
HETATM   17  C13 UNL     1      10.843   2.401  10.493  1.00  0.00     0.000 A 
HETATM   18  C14 UNL     1      12.051   3.040  10.418  1.00  0.00     0.001 A 
HETATM   19  C15 UNL     1      12.115   4.400  10.438  1.00  0.00     0.015 A 
ENDBRANCH  13  14
BRANCH  13  20
HETATM   20  C16 UNL     1      12.409   7.336  10.419  1.00  0.00     0.041 A 
HETATM   21  C17 UNL     1      12.923   7.907  11.628  1.00  0.00     0.020 A 
HETATM   22  C18 UNL     1      14.201   8.357  11.713  1.00  0.00     0.037 A 
HETATM   23  C19 UNL     1      15.082   8.294  10.644  1.00  0.00     0.105 A 
HETATM   24  C20 UNL     1      14.574   7.753   9.500  1.00  0.00     0.073 A 
HETATM   25  C21 UNL     1      13.262   7.287   9.387  1.00  0.00     0.118 A 
BRANCH  23  26
HETATM   26  N5  UNL     1      16.414   8.768  10.763  1.00  0.00    -0.116 N 
HETATM   27  O1  UNL     1      17.205   8.812   9.804  1.00  0.00    -0.532 OA
HETATM   28  O2  UNL     1      16.872   9.202  11.981  1.00  0.00    -0.532 OA
ENDBRANCH  23  26
BRANCH  25  29
HETATM   29  N6  UNL     1      12.805   6.946   8.057  1.00  0.00    -0.115 N 
HETATM   30  O3  UNL     1      13.301   6.031   7.397  1.00  0.00    -0.532 OA
HETATM   31  O4  UNL     1      11.729   7.620   7.575  1.00  0.00    -0.532 OA
ENDBRANCH  25  29
ENDBRANCH  13  20
ENDBRANCH  12  13
ENDBRANCH  11  12
TORSDOF 6
ENDMDL
MODEL 3
REMARK VINA RESULT: -9.171505591      1.822      2.407
REMARK  6 active torsions:
REMARK  status: ('A' for Active; 'I' for Inactive)
REMARK    1  A    between atoms: N3_11  and  N4_12 
REMARK    2  A    between atoms: N4_12  and  C9_13 
REMARK    3  A    between atoms: C9_13  and  C10_14 
REMARK    4  A    between atoms: C9_13  and  C16_20 
REMARK    5  A    between atoms: C19_23  and  N5_24 
REMARK    6  A    between atoms: C21_28  and  N6_29 
ROOT
HETATM    1  N1  UNL     1      14.578   3.300  10.277  1.00  0.00    -0.195 NA
HETATM    2  C1  UNL     1      13.539   3.797  10.163  1.00  0.00     0.087 C 
HETATM    3  C2  UNL     1      12.201   4.416  10.031  1.00  0.00     0.165 C 
HETATM    4  C3  UNL     1      11.234   3.488  10.541  1.00  0.00     0.087 C 
HETATM    5  N2  UNL     1      10.468   2.742  10.948  1.00  0.00    -0.195 NA
HETATM    6  C4  UNL     1      11.986   4.793   8.577  1.00  0.00     0.074 C 
HETATM    7  C5  UNL     1      12.028   6.285   8.628  1.00  0.00     0.141 C 
HETATM    8  C6  UNL     1      13.369   6.720   9.050  1.00  0.00    -0.001 C 
HETATM    9  C7  UNL     1      13.514   6.394  10.347  1.00  0.00     0.002 C 
HETATM   10  C8  UNL     1      12.249   5.744  10.746  1.00  0.00     0.175 C 
HETATM   11  N3  UNL     1      11.297   6.515   9.903  1.00  0.00    -0.244 N 
ENDROOT
BRANCH  11  12
HETATM   12  N4  UNL     1      10.245   7.115  10.270  1.00  0.00    -0.325 NA
BRANCH  12  13
HETATM   13  C9  UNL     1       9.347   7.810  10.734  1.00  0.00     0.154 C 
BRANCH  13  14
HETATM   14  C10 UNL     1       7.977   7.555  10.319  1.00  0.00     0.008 A 
HETATM   15  C11 UNL     1       6.922   8.399  10.576  1.00  0.00     0.015 A 
HETATM   16  C12 UNL     1       5.652   8.054  10.184  1.00  0.00     0.001 A 
HETATM   17  C13 UNL     1       5.373   6.855   9.517  1.00  0.00     0.000 A 
HETATM   18  C14 UNL     1       6.423   6.016   9.259  1.00  0.00     0.001 A 
HETATM   19  C15 UNL     1       7.685   6.352   9.645  1.00  0.00     0.015 A 
ENDBRANCH  13  14
BRANCH  13  20
HETATM   20  C16 UNL     1       9.745   8.919  11.595  1.00  0.00     0.041 A 
HETATM   21  C17 UNL     1      10.381   9.989  10.886  1.00  0.00     0.020 A 
HETATM   22  C18 UNL     1      10.592  11.197  11.468  1.00  0.00     0.037 A 
HETATM   23  C19 UNL     1      10.210  11.469  12.774  1.00  0.00     0.105 A 
HETATM   24  C20 UNL     1       9.612  10.437  13.434  1.00  0.00     0.073 A 
HETATM   25  C21 UNL     1       9.388   9.184  12.858  1.00  0.00     0.118 A 
BRANCH  23  26
HETATM   26  N5  UNL     1      10.440  12.743  13.354  1.00  0.00    -0.116 N 
HETATM   27  O1  UNL     1       9.775  13.180  14.310  1.00  0.00    -0.532 OA
HETATM   28  O2  UNL     1      11.433  13.546  12.854  1.00  0.00    -0.532 OA
ENDBRANCH  23  26
BRANCH  25  29
HETATM   29  N6  UNL     1       8.947   8.130  13.746  1.00  0.00    -0.115 N 
HETATM   30  O3  UNL     1       8.436   7.084  13.338  1.00  0.00    -0.532 OA
HETATM   31  O4  UNL     1       9.196   8.287  15.072  1.00  0.00    -0.532 OA
ENDBRANCH  25  29
ENDBRANCH  13  20
ENDBRANCH  12  13
ENDBRANCH  11  12
TORSDOF 6
ENDMDL
MODEL 4
REMARK VINA RESULT: -9.073446059      3.118      5.574
REMARK  6 active torsions:
REMARK  status: ('A' for Active; 'I' for Inactive)
REMARK    1  A    between atoms: N3_11  and  N4_12 
REMARK    2  A    between atoms: N4_12  and  C9_13 
REMARK    3  A    between atoms: C9_13  and  C10_14 
REMARK    4  A    between atoms: C9_13  and  C16_20 
REMARK    5  A    between atoms: C19_23  and  N5_24 
REMARK    6  A    between atoms: C21_28  and  N6_29 
ROOT
HETATM    1  N1  UNL     1      15.817   9.759  13.563  1.00  0.00    -0.195 NA
HETATM    2  C1  UNL     1      15.070   9.240  12.848  1.00  0.00     0.087 C 
HETATM    3  C2  UNL     1      14.127   8.555  11.935  1.00  0.00     0.165 C 
HETATM    4  C3  UNL     1      14.715   7.305  11.552  1.00  0.00     0.087 C 
HETATM    5  N2  UNL     1      15.191   6.308  11.249  1.00  0.00    -0.195 NA
HETATM    6  C4  UNL     1      13.829   9.478  10.768  1.00  0.00     0.074 C 
HETATM    7  C5  UNL     1      12.405   9.852  11.017  1.00  0.00     0.141 C 
HETATM    8  C6  UNL     1      12.312  10.610  12.274  1.00  0.00    -0.001 C 
HETATM    9  C7  UNL     1      12.556   9.757  13.285  1.00  0.00     0.002 C 
HETATM   10  C8  UNL     1      12.806   8.444  12.656  1.00  0.00     0.175 C 
HETATM   11  N3  UNL     1      11.881   8.544  11.495  1.00  0.00    -0.244 N 
ENDROOT
BRANCH  11  12
HETATM   12  N4  UNL     1      10.991   7.718  11.138  1.00  0.00    -0.325 NA
BRANCH  12  13
HETATM   13  C9  UNL     1      10.085   6.906  10.984  1.00  0.00     0.154 C 
BRANCH  13  14
HETATM   14  C10 UNL     1      10.424   5.525  10.683  1.00  0.00     0.008 A 
HETATM   15  C11 UNL     1       9.561   4.466  10.838  1.00  0.00     0.015 A 
HETATM   16  C12 UNL     1       9.984   3.187  10.570  1.00  0.00     0.001 A 
HETATM   17  C13 UNL     1      11.284   2.902  10.136  1.00  0.00     0.000 A 
HETATM   18  C14 UNL     1      12.143   3.957   9.980  1.00  0.00     0.001 A 
HETATM   19  C15 UNL     1      11.731   5.227  10.244  1.00  0.00     0.015 A 
ENDBRANCH  13  14
BRANCH  13  20
HETATM   20  C16 UNL     1       8.721   7.423  11.011  1.00  0.00     0.041 A 
HETATM   21  C17 UNL     1       7.973   7.118   9.830  1.00  0.00     0.020 A 
HETATM   22  C18 UNL     1       6.628   7.295   9.776  1.00  0.00     0.037 A 
HETATM   23  C19 UNL     1       5.900   7.779  10.853  1.00  0.00     0.105 A 
HETATM   24  C20 UNL     1       6.630   8.070  11.968  1.00  0.00     0.073 A 
HETATM   25  C21 UNL     1       8.015   7.900  12.044  1.00  0.00     0.118 A 
BRANCH  23  26
HETATM   26  N5  UNL     1       4.494   7.950  10.770  1.00  0.00    -0.116 N 
HETATM   27  O1  UNL     1       3.793   7.378   9.915  1.00  0.00    -0.532 OA
HETATM   28  O2  UNL     1       3.858   8.777  11.660  1.00  0.00    -0.532 OA
ENDBRANCH  23  26
BRANCH  25  29
HETATM   29  N6  UNL     1       8.674   8.455  13.207  1.00  0.00    -0.115 N 
HETATM   30  O3  UNL     1       8.978   7.774  14.189  1.00  0.00    -0.532 OA
HETATM   31  O4  UNL     1       9.038   9.763  13.153  1.00  0.00    -0.532 OA
ENDBRANCH  25  29
ENDBRANCH  13  20
ENDBRANCH  12  13
ENDBRANCH  11  12
TORSDOF 6
ENDMDL
MODEL 5
REMARK VINA RESULT: -8.872598697      3.006      6.283
REMARK  6 active torsions:
REMARK  status: ('A' for Active; 'I' for Inactive)
REMARK    1  A    between atoms: N3_11  and  N4_12 
REMARK    2  A    between atoms: N4_12  and  C9_13 
REMARK    3  A    between atoms: C9_13  and  C10_14 
REMARK    4  A    between atoms: C9_13  and  C16_20 
REMARK    5  A    between atoms: C19_23  and  N5_24 
REMARK    6  A    between atoms: C21_28  and  N6_29 
ROOT
HETATM    1  N1  UNL     1       7.348  11.228  14.017  1.00  0.00    -0.195 NA
HETATM    2  C1  UNL     1       7.987  10.719  13.197  1.00  0.00     0.087 C 
HETATM    3  C2  UNL     1       8.823  10.084  12.153  1.00  0.00     0.165 C 
HETATM    4  C3  UNL     1       9.954  10.933  11.917  1.00  0.00     0.087 C 
HETATM    5  N2  UNL     1      10.853  11.616  11.733  1.00  0.00    -0.195 NA
HETATM    6  C4  UNL     1       7.963   9.847  10.925  1.00  0.00     0.074 C 
HETATM    7  C5  UNL     1       7.839   8.359  10.908  1.00  0.00     0.141 C 
HETATM    8  C6  UNL     1       7.109   7.917  12.106  1.00  0.00    -0.001 C 
HETATM    9  C7  UNL     1       7.909   8.117  13.169  1.00  0.00     0.002 C 
HETATM   10  C8  UNL     1       9.159   8.693  12.633  1.00  0.00     0.175 C 
HETATM   11  N3  UNL     1       9.218   7.987  11.326  1.00  0.00    -0.244 N 
ENDROOT
BRANCH  11  12
HETATM   12  N4  UNL     1      10.184   7.327  10.842  1.00  0.00    -0.325 NA
BRANCH  12  13
HETATM   13  C9  UNL     1      11.154   6.632  10.561  1.00  0.00     0.154 C 
BRANCH  13  14
HETATM   14  C10 UNL     1      10.996   5.188  10.527  1.00  0.00     0.008 A 
HETATM   15  C11 UNL     1       9.788   4.540  10.633  1.00  0.00     0.015 A 
HETATM   16  C12 UNL     1       9.739   3.167  10.637  1.00  0.00     0.001 A 
HETATM   17  C13 UNL     1      10.890   2.376  10.535  1.00  0.00     0.000 A 
HETATM   18  C14 UNL     1      12.093   3.021  10.428  1.00  0.00     0.001 A 
HETATM   19  C15 UNL     1      12.148   4.381  10.424  1.00  0.00     0.015 A 
ENDBRANCH  13  14
BRANCH  13  20
HETATM   20  C16 UNL     1      12.430   7.317  10.384  1.00  0.00     0.041 A 
HETATM   21  C17 UNL     1      12.939   7.893  11.593  1.00  0.00     0.020 A 
HETATM   22  C18 UNL     1      14.216   8.346  11.680  1.00  0.00     0.037 A 
HETATM   23  C19 UNL     1      15.100   8.282  10.613  1.00  0.00     0.105 A 
HETATM   24  C20 UNL     1      14.596   7.736   9.469  1.00  0.00     0.073 A 
HETATM   25  C21 UNL     1      13.286   7.267   9.355  1.00  0.00     0.118 A 
BRANCH  23  26
HETATM   26  N5  UNL     1      16.430   8.760  10.734  1.00  0.00    -0.116 N 
HETATM   27  O1  UNL     1      17.217   8.822   9.772  1.00  0.00    -0.532 OA
HETATM   28  O2  UNL     1      16.891   9.178  11.957  1.00  0.00    -0.532 OA
ENDBRANCH  23  26
BRANCH  25  29
HETATM   29  N6  UNL     1      12.833   6.920   8.024  1.00  0.00    -0.115 N 
HETATM   30  O3  UNL     1      13.303   5.976   7.386  1.00  0.00    -0.532 OA
HETATM   31  O4  UNL     1      11.789   7.626   7.517  1.00  0.00    -0.532 OA
ENDBRANCH  25  29
ENDBRANCH  13  20
ENDBRANCH  12  13
ENDBRANCH  11  12
TORSDOF 6
ENDMDL
