MODEL 1
REMARK VINA RESULT: -7.630909850      0.000      0.000
REMARK  5 active torsions:
REMARK  status: ('A' for Active; 'I' for Inactive)
REMARK    1  A    between atoms: C2_2  and  N1_3 
REMARK    2  A    between atoms: C2_2  and  C3_7 
REMARK       I    between atoms: C3_7  and  N2_9 
REMARK       I    between atoms: N2_9  and  C4_11 
REMARK    3  A    between atoms: C4_11  and  C5_13 
REMARK    4  A    between atoms: C7_20  and  C8_21 
REMARK    5  A    between atoms: N5_22  and  N6_24 
ROOT
HETATM    1  C5  UNL     1       4.143  21.391  22.338  1.00  0.00     0.133 A 
HETATM    2  N3  UNL     1       3.886  20.937  23.573  1.00  0.00    -0.302 N 
ATOM      3  H3  UNL     1       4.552  20.434  24.160  1.00  0.00     0.171 HD
HETATM    4  C6  UNL     1       2.627  21.240  23.924  1.00  0.00     0.325 A 
HETATM    5  O3  UNL     1       2.038  20.978  25.005  1.00  0.00    -0.247 OA
HETATM    6  N4  UNL     1       2.044  21.910  22.885  1.00  0.00    -0.305 N 
ATOM      7  H4  UNL     1       1.088  22.265  22.864  1.00  0.00     0.171 HD
HETATM    8  C7  UNL     1       2.944  22.019  21.900  1.00  0.00     0.086 A 
ENDROOT
BRANCH   1   9
HETATM    9  C4  UNL     1       5.349  21.353  21.547  1.00  0.00     0.277 C 
HETATM   10  N2  UNL     1       6.011  20.216  21.108  1.00  0.00    -0.290 N 
HETATM   11  C3  UNL     1       5.794  18.873  21.409  1.00  0.00     0.254 C 
ATOM     12  H2  UNL     1       6.781  20.392  20.462  1.00  0.00     0.172 HD
HETATM   13  O1  UNL     1       4.914  18.432  22.159  1.00  0.00    -0.271 OA
HETATM   14  O2  UNL     1       5.882  22.477  21.203  1.00  0.00    -0.266 OA
BRANCH  11  15
HETATM   15  C2  UNL     1       6.682  17.818  20.792  1.00  0.00     0.271 C 
HETATM   16  C1  UNL     1       6.580  18.018  19.288  1.00  0.00     0.050 C 
BRANCH  15  17
HETATM   17  N1  UNL     1       8.016  18.021  21.272  1.00  0.00    -0.067 N 
ATOM     18  H13 UNL     1       8.659  17.333  20.880  1.00  0.00     0.275 HD
ATOM     19  H12 UNL     1       8.426  18.868  20.878  1.00  0.00     0.275 HD
ATOM     20  H11 UNL     1       8.060  18.028  22.291  1.00  0.00     0.275 HD
ENDBRANCH  15  17
ENDBRANCH  11  15
ENDBRANCH   1   9
BRANCH   8  21
HETATM   21  C8  UNL     1       2.790  22.665  20.609  1.00  0.00     0.139 C 
HETATM   22  N5  UNL     1       2.289  23.806  20.435  1.00  0.00    -0.308 N 
ATOM     23  H5  UNL     1       2.264  24.099  19.459  1.00  0.00     0.186 HD
BRANCH  22  24
HETATM   24  N6  UNL     1       1.779  24.713  21.288  1.00  0.00    -0.276 N 
HETATM   25  C9  UNL     1       0.547  24.746  21.688  1.00  0.00     0.215 C 
HETATM   26  N7  UNL     1       0.129  25.746  22.584  1.00  0.00    -0.065 NA
HETATM   27  N8  UNL     1      -0.319  23.746  21.182  1.00  0.00    -0.065 NA
ATOM     28  H6  UNL     1       2.411  25.429  21.647  1.00  0.00     0.189 HD
ENDBRANCH  22  24
ENDBRANCH   8  21
TORSDOF 5
ENDMDL
MODEL 2
REMARK VINA RESULT: -7.376581352      1.652      6.336
REMARK  5 active torsions:
REMARK  status: ('A' for Active; 'I' for Inactive)
REMARK    1  A    between atoms: C2_2  and  N1_3 
REMARK    2  A    between atoms: C2_2  and  C3_7 
REMARK       I    between atoms: C3_7  and  N2_9 
REMARK       I    between atoms: N2_9  and  C4_11 
REMARK    3  A    between atoms: C4_11  and  C5_13 
REMARK    4  A    between atoms: C7_20  and  C8_21 
REMARK    5  A    between atoms: N5_22  and  N6_24 
ROOT
HETATM    1  C5  UNL     1       3.734  21.690  22.168  1.00  0.00     0.133 A 
HETATM    2  N3  UNL     1       2.980  21.170  23.147  1.00  0.00    -0.302 N 
ATOM      3  H3  UNL     1       1.963  21.230  23.196  1.00  0.00     0.171 HD
HETATM    4  C6  UNL     1       3.758  20.559  24.054  1.00  0.00     0.325 A 
HETATM    5  O3  UNL     1       3.405  19.960  25.103  1.00  0.00    -0.247 OA
HETATM    6  N4  UNL     1       5.059  20.687  23.655  1.00  0.00    -0.305 N 
ATOM      7  H4  UNL     1       5.874  20.323  24.148  1.00  0.00     0.171 HD
HETATM    8  C7  UNL     1       5.079  21.373  22.505  1.00  0.00     0.086 A 
ENDROOT
BRANCH   1   9
HETATM    9  C4  UNL     1       3.367  22.392  20.962  1.00  0.00     0.277 C 
HETATM   10  N2  UNL     1       2.246  23.189  20.781  1.00  0.00    -0.290 N 
HETATM   11  C3  UNL     1       1.151  23.408  21.615  1.00  0.00     0.254 C 
ATOM     12  H2  UNL     1       2.219  23.695  19.896  1.00  0.00     0.172 HD
HETATM   13  O1  UNL     1       0.981  22.907  22.732  1.00  0.00    -0.271 OA
HETATM   14  O2  UNL     1       4.143  22.280  19.936  1.00  0.00    -0.266 OA
BRANCH  11  15
HETATM   15  C2  UNL     1       0.045  24.333  21.163  1.00  0.00     0.271 C 
HETATM   16  C1  UNL     1       0.447  25.722  21.633  1.00  0.00     0.050 C 
BRANCH  15  17
HETATM   17  N1  UNL     1      -0.049  24.254  19.736  1.00  0.00    -0.067 N 
ATOM     18  H13 UNL     1      -1.020  24.183  19.433  1.00  0.00     0.275 HD
ATOM     19  H12 UNL     1       0.193  25.144  19.300  1.00  0.00     0.275 HD
ATOM     20  H11 UNL     1       0.513  23.491  19.357  1.00  0.00     0.275 HD
ENDBRANCH  15  17
ENDBRANCH  11  15
ENDBRANCH   1   9
BRANCH   8  21
HETATM   21  C8  UNL     1       6.227  21.738  21.696  1.00  0.00     0.139 C 
HETATM   22  N5  UNL     1       6.641  21.083  20.704  1.00  0.00    -0.308 N 
ATOM     23  H5  UNL     1       7.460  21.491  20.255  1.00  0.00     0.186 HD
BRANCH  22  24
HETATM   24  N6  UNL     1       6.211  19.948  20.123  1.00  0.00    -0.276 N 
HETATM   25  C9  UNL     1       6.949  18.909  19.890  1.00  0.00     0.215 C 
HETATM   26  N7  UNL     1       6.386  17.776  19.274  1.00  0.00    -0.065 NA
HETATM   27  N8  UNL     1       8.308  18.984  20.282  1.00  0.00    -0.065 NA
ATOM     28  H6  UNL     1       5.231  19.903  19.844  1.00  0.00     0.189 HD
ENDBRANCH  22  24
ENDBRANCH   8  21
TORSDOF 5
ENDMDL
MODEL 3
REMARK VINA RESULT: -7.365185688      1.814      6.423
REMARK  5 active torsions:
REMARK  status: ('A' for Active; 'I' for Inactive)
REMARK    1  A    between atoms: C2_2  and  N1_3 
REMARK    2  A    between atoms: C2_2  and  C3_7 
REMARK       I    between atoms: C3_7  and  N2_9 
REMARK       I    between atoms: N2_9  and  C4_11 
REMARK    3  A    between atoms: C4_11  and  C5_13 
REMARK    4  A    between atoms: C7_20  and  C8_21 
REMARK    5  A    between atoms: N5_22  and  N6_24 
ROOT
HETATM    1  C5  UNL     1       4.187  21.718  21.507  1.00  0.00     0.133 A 
HETATM    2  N3  UNL     1       4.099  21.485  22.824  1.00  0.00    -0.302 N 
ATOM      3  H3  UNL     1       3.697  22.130  23.505  1.00  0.00     0.171 HD
HETATM    4  C6  UNL     1       4.616  20.282  23.116  1.00  0.00     0.325 A 
HETATM    5  O3  UNL     1       4.704  19.727  24.242  1.00  0.00    -0.247 OA
HETATM    6  N4  UNL     1       5.057  19.714  21.954  1.00  0.00    -0.305 N 
ATOM      7  H4  UNL     1       5.498  18.799  21.866  1.00  0.00     0.171 HD
HETATM    8  C7  UNL     1       4.809  20.566  20.951  1.00  0.00     0.086 A 
ENDROOT
BRANCH   1   9
HETATM    9  C4  UNL     1       3.736  22.833  20.710  1.00  0.00     0.277 C 
HETATM   10  N2  UNL     1       2.498  23.454  20.787  1.00  0.00    -0.290 N 
HETATM   11  C3  UNL     1       1.358  23.106  21.510  1.00  0.00     0.254 C 
ATOM     12  H2  UNL     1       2.408  24.300  20.224  1.00  0.00     0.172 HD
HETATM   13  O1  UNL     1       1.247  22.129  22.260  1.00  0.00    -0.271 OA
HETATM   14  O2  UNL     1       4.549  23.317  19.831  1.00  0.00    -0.266 OA
BRANCH  11  15
HETATM   15  C2  UNL     1       0.119  23.964  21.404  1.00  0.00     0.271 C 
HETATM   16  C1  UNL     1       0.616  25.389  21.215  1.00  0.00     0.050 C 
BRANCH  15  17
HETATM   17  N1  UNL     1      -0.646  23.508  20.283  1.00  0.00    -0.067 N 
ATOM     18  H13 UNL     1      -0.200  23.765  19.402  1.00  0.00     0.275 HD
ATOM     19  H12 UNL     1      -0.604  22.493  20.195  1.00  0.00     0.275 HD
ATOM     20  H11 UNL     1      -1.611  23.837  20.318  1.00  0.00     0.275 HD
ENDBRANCH  15  17
ENDBRANCH  11  15
ENDBRANCH   1   9
BRANCH   8  21
HETATM   21  C8  UNL     1       5.082  20.393  19.537  1.00  0.00     0.139 C 
HETATM   22  N5  UNL     1       6.227  20.216  19.045  1.00  0.00    -0.308 N 
ATOM     23  H5  UNL     1       6.227  20.112  18.031  1.00  0.00     0.186 HD
BRANCH  22  24
HETATM   24  N6  UNL     1       7.450  20.138  19.599  1.00  0.00    -0.276 N 
HETATM   25  C9  UNL     1       7.954  19.073  20.138  1.00  0.00     0.215 C 
HETATM   26  N7  UNL     1       9.249  19.113  20.688  1.00  0.00    -0.065 NA
HETATM   27  N8  UNL     1       7.147  17.909  20.137  1.00  0.00    -0.065 NA
ATOM     28  H6  UNL     1       8.024  20.981  19.595  1.00  0.00     0.189 HD
ENDBRANCH  22  24
ENDBRANCH   8  21
TORSDOF 5
ENDMDL
MODEL 4
REMARK VINA RESULT: -7.293353384      1.694      6.514
REMARK  5 active torsions:
REMARK  status: ('A' for Active; 'I' for Inactive)
REMARK    1  A    between atoms: C2_2  and  N1_3 
REMARK    2  A    between atoms: C2_2  and  C3_7 
REMARK       I    between atoms: C3_7  and  N2_9 
REMARK       I    between atoms: N2_9  and  C4_11 
REMARK    3  A    between atoms: C4_11  and  C5_13 
REMARK    4  A    between atoms: C7_20  and  C8_21 
REMARK    5  A    between atoms: N5_22  and  N6_24 
ROOT
HETATM    1  C5  UNL     1       4.078  21.632  21.775  1.00  0.00     0.133 A 
HETATM    2  N3  UNL     1       3.747  21.461  23.063  1.00  0.00    -0.302 N 
ATOM      3  H3  UNL     1       3.147  22.089  23.600  1.00  0.00     0.171 HD
HETATM    4  C6  UNL     1       4.318  20.346  23.543  1.00  0.00     0.325 A 
HETATM    5  O3  UNL     1       4.232  19.867  24.703  1.00  0.00    -0.247 OA
HETATM    6  N4  UNL     1       5.046  19.773  22.538  1.00  0.00    -0.305 N 
ATOM      7  H4  UNL     1       5.591  18.915  22.609  1.00  0.00     0.171 HD
HETATM    8  C7  UNL     1       4.920  20.535  21.444  1.00  0.00     0.086 A 
ENDROOT
BRANCH   1   9
HETATM    9  C4  UNL     1       3.685  22.642  20.823  1.00  0.00     0.277 C 
HETATM   10  N2  UNL     1       2.459  23.289  20.766  1.00  0.00    -0.290 N 
HETATM   11  C3  UNL     1       1.285  23.059  21.480  1.00  0.00     0.254 C 
ATOM     12  H2  UNL     1       2.410  24.055  20.095  1.00  0.00     0.172 HD
HETATM   13  O1  UNL     1       1.122  22.191  22.346  1.00  0.00    -0.271 OA
HETATM   14  O2  UNL     1       4.542  22.992  19.923  1.00  0.00    -0.266 OA
BRANCH  11  15
HETATM   15  C2  UNL     1       0.070  23.917  21.213  1.00  0.00     0.271 C 
HETATM   16  C1  UNL     1       0.591  25.339  21.070  1.00  0.00     0.050 C 
BRANCH  15  17
HETATM   17  N1  UNL     1      -0.552  23.449  20.010  1.00  0.00    -0.067 N 
ATOM     18  H13 UNL     1      -1.256  22.740  20.211  1.00  0.00     0.275 HD
ATOM     19  H12 UNL     1      -1.155  24.165  19.603  1.00  0.00     0.275 HD
ATOM     20  H11 UNL     1       0.131  23.111  19.332  1.00  0.00     0.275 HD
ENDBRANCH  15  17
ENDBRANCH  11  15
ENDBRANCH   1   9
BRANCH   8  21
HETATM   21  C8  UNL     1       5.495  20.321  20.128  1.00  0.00     0.139 C 
HETATM   22  N5  UNL     1       5.859  19.203  19.680  1.00  0.00    -0.308 N 
ATOM     23  H5  UNL     1       6.239  19.244  18.734  1.00  0.00     0.186 HD
BRANCH  22  24
HETATM   24  N6  UNL     1       5.844  17.965  20.206  1.00  0.00    -0.276 N 
HETATM   25  C9  UNL     1       6.829  17.418  20.845  1.00  0.00     0.215 C 
HETATM   26  N7  UNL     1       6.696  16.113  21.351  1.00  0.00    -0.065 NA
HETATM   27  N8  UNL     1       8.007  18.192  20.994  1.00  0.00    -0.065 NA
ATOM     28  H6  UNL     1       4.992  17.416  20.093  1.00  0.00     0.189 HD
ENDBRANCH  22  24
ENDBRANCH   8  21
TORSDOF 5
ENDMDL
MODEL 5
REMARK VINA RESULT: -6.845742096      2.245      4.326
REMARK  5 active torsions:
REMARK  status: ('A' for Active; 'I' for Inactive)
REMARK    1  A    between atoms: C2_2  and  N1_3 
REMARK    2  A    between atoms: C2_2  and  C3_7 
REMARK       I    between atoms: C3_7  and  N2_9 
REMARK       I    between atoms: N2_9  and  C4_11 
REMARK    3  A    between atoms: C4_11  and  C5_13 
REMARK    4  A    between atoms: C7_20  and  C8_21 
REMARK    5  A    between atoms: N5_22  and  N6_24 
ROOT
HETATM    1  C5  UNL     1       4.077  21.560  22.180  1.00  0.00     0.133 A 
HETATM    2  N3  UNL     1       2.945  22.097  21.704  1.00  0.00    -0.302 N 
ATOM      3  H3  UNL     1       2.861  22.587  20.812  1.00  0.00     0.171 HD
HETATM    4  C6  UNL     1       1.939  21.897  22.569  1.00  0.00     0.325 A 
HETATM    5  O3  UNL     1       0.738  22.256  22.460  1.00  0.00    -0.247 OA
HETATM    6  N4  UNL     1       2.431  21.211  23.644  1.00  0.00    -0.305 N 
ATOM      7  H4  UNL     1       1.897  20.918  24.462  1.00  0.00     0.171 HD
HETATM    8  C7  UNL     1       3.735  20.989  23.437  1.00  0.00     0.086 A 
ENDROOT
BRANCH   1   9
HETATM    9  C4  UNL     1       5.399  21.475  21.608  1.00  0.00     0.277 C 
HETATM   10  N2  UNL     1       6.034  20.323  21.169  1.00  0.00    -0.290 N 
HETATM   11  C3  UNL     1       5.656  18.986  21.282  1.00  0.00     0.254 C 
ATOM     12  H2  UNL     1       6.919  20.479  20.687  1.00  0.00     0.172 HD
HETATM   13  O1  UNL     1       4.623  18.569  21.818  1.00  0.00    -0.271 OA
HETATM   14  O2  UNL     1       6.076  22.568  21.484  1.00  0.00    -0.266 OA
BRANCH  11  15
HETATM   15  C2  UNL     1       6.552  17.909  20.716  1.00  0.00     0.271 C 
HETATM   16  C1  UNL     1       6.565  18.129  19.211  1.00  0.00     0.050 C 
BRANCH  15  17
HETATM   17  N1  UNL     1       7.854  18.062  21.293  1.00  0.00    -0.067 N 
ATOM     18  H13 UNL     1       7.794  18.313  22.279  1.00  0.00     0.275 HD
ATOM     19  H12 UNL     1       8.326  17.162  21.384  1.00  0.00     0.275 HD
ATOM     20  H11 UNL     1       8.426  18.730  20.776  1.00  0.00     0.275 HD
ENDBRANCH  15  17
ENDBRANCH  11  15
ENDBRANCH   1   9
BRANCH   8  21
HETATM   21  C8  UNL     1       4.674  20.285  24.291  1.00  0.00     0.139 C 
HETATM   22  N5  UNL     1       4.410  19.860  25.446  1.00  0.00    -0.308 N 
ATOM     23  H5  UNL     1       5.192  19.387  25.898  1.00  0.00     0.186 HD
BRANCH  22  24
HETATM   24  N6  UNL     1       3.297  19.911  26.200  1.00  0.00    -0.276 N 
HETATM   25  C9  UNL     1       3.148  19.320  27.343  1.00  0.00     0.215 C 
HETATM   26  N7  UNL     1       1.933  19.446  28.042  1.00  0.00    -0.065 NA
HETATM   27  N8  UNL     1       4.247  18.568  27.826  1.00  0.00    -0.065 NA
ATOM     28  H6  UNL     1       2.511  20.455  25.844  1.00  0.00     0.189 HD
ENDBRANCH  22  24
ENDBRANCH   8  21
TORSDOF 5
ENDMDL
