MODEL 1
REMARK VINA RESULT: -7.171972113      0.000      0.000
REMARK  8 active torsions:
REMARK  status: ('A' for Active; 'I' for Inactive)
REMARK    1  A    between atoms: C2_2  and  C3_4 
REMARK       I    between atoms: C3_4  and  N2_6 
REMARK    2  A    between atoms: N2_6  and  N3_8 
REMARK    3  A    between atoms: C4_10  and  C5_11 
REMARK       I    between atoms: C5_11  and  N4_13 
REMARK    4  A    between atoms: N4_13  and  C6_15 
REMARK    5  A    between atoms: C6_15  and  O3_16 
REMARK    6  A    between atoms: C6_15  and  N5_18 
REMARK    7  A    between atoms: N5_18  and  N6_19 
REMARK    8  A    between atoms: N6_19  and  C7_21 
ROOT
HETATM    1  C5  UNL     1       1.786  23.358  21.397  1.00  0.00     0.266 C 
HETATM    2  O2  UNL     1       1.186  22.910  22.160  1.00  0.00    -0.267 OA
HETATM    3  N4  UNL     1       1.578  24.837  20.781  1.00  0.00    -0.275 N 
ATOM      4  H4  UNL     1       2.091  25.296  20.027  1.00  0.00     0.173 HD
ENDROOT
BRANCH   1   5
HETATM    5  C4  UNL     1       2.943  22.782  20.756  1.00  0.00     0.181 C 
HETATM    6  N3  UNL     1       4.009  22.284  21.370  1.00  0.00    -0.304 N 
ATOM      7  H3  UNL     1       4.234  22.204  22.362  1.00  0.00     0.186 HD
BRANCH   6   8
HETATM    8  N2  UNL     1       4.786  21.873  20.138  1.00  0.00    -0.265 N 
HETATM    9  C3  UNL     1       5.263  20.582  20.109  1.00  0.00     0.279 C 
HETATM   10  O1  UNL     1       5.403  19.747  20.928  1.00  0.00    -0.265 OA
ATOM     11  H2  UNL     1       4.948  22.520  19.366  1.00  0.00     0.190 HD
BRANCH   9  12
HETATM   12  C2  UNL     1       5.617  20.285  18.580  1.00  0.00     0.089 C 
HETATM   13  C1  UNL     1       6.511  19.167  18.449  1.00  0.00     0.070 C 
HETATM   14  N1  UNL     1       4.962  21.056  17.631  1.00  0.00    -0.102 NA
ENDBRANCH   9  12
ENDBRANCH   6   8
ENDBRANCH   1   5
BRANCH   3  15
HETATM   15  C6  UNL     1       0.447  25.360  21.592  1.00  0.00     0.321 C 
BRANCH  15  16
HETATM   16  O3  UNL     1      -0.498  24.386  21.418  1.00  0.00    -0.320 OA
ATOM     17  H3  UNL     1      -1.262  24.780  21.822  1.00  0.00     0.222 HD
ENDBRANCH  15  16
BRANCH  15  18
HETATM   18  N5  UNL     1       0.440  26.440  22.241  1.00  0.00    -0.278 NA
BRANCH  18  19
HETATM   19  N6  UNL     1       0.421  27.639  22.949  1.00  0.00    -0.207 N 
ATOM     20  H6  UNL     1      -0.477  28.106  23.066  1.00  0.00     0.204 HD
BRANCH  19  21
HETATM   21  C7  UNL     1       1.546  28.247  23.511  1.00  0.00     0.210 C 
HETATM   22  N7  UNL     1       2.657  28.649  22.607  1.00  0.00    -0.068 NA
HETATM   23  S1  UNL     1       1.676  28.539  25.058  1.00  0.00    -0.042 SA
ENDBRANCH  19  21
ENDBRANCH  18  19
ENDBRANCH  15  18
ENDBRANCH   3  15
TORSDOF 8
ENDMDL
MODEL 2
REMARK VINA RESULT: -7.102529542      5.921      7.133
REMARK  8 active torsions:
REMARK  status: ('A' for Active; 'I' for Inactive)
REMARK    1  A    between atoms: C2_2  and  C3_4 
REMARK       I    between atoms: C3_4  and  N2_6 
REMARK    2  A    between atoms: N2_6  and  N3_8 
REMARK    3  A    between atoms: C4_10  and  C5_11 
REMARK       I    between atoms: C5_11  and  N4_13 
REMARK    4  A    between atoms: N4_13  and  C6_15 
REMARK    5  A    between atoms: C6_15  and  O3_16 
REMARK    6  A    between atoms: C6_15  and  N5_18 
REMARK    7  A    between atoms: N5_18  and  N6_19 
REMARK    8  A    between atoms: N6_19  and  C7_21 
ROOT
HETATM    1  C5  UNL     1       3.134  20.693  24.573  1.00  0.00     0.266 C 
HETATM    2  O2  UNL     1       2.206  21.155  24.835  1.00  0.00    -0.267 OA
HETATM    3  N4  UNL     1       3.989  19.694  25.512  1.00  0.00    -0.275 N 
ATOM      4  H4  UNL     1       4.895  19.262  25.330  1.00  0.00     0.173 HD
ENDROOT
BRANCH   1   5
HETATM    5  C4  UNL     1       3.834  20.811  23.317  1.00  0.00     0.181 C 
HETATM    6  N3  UNL     1       4.732  19.960  22.840  1.00  0.00    -0.304 N 
ATOM      7  H3  UNL     1       5.104  19.092  23.227  1.00  0.00     0.186 HD
BRANCH   6   8
HETATM    8  N2  UNL     1       5.032  20.677  21.542  1.00  0.00    -0.265 N 
HETATM    9  C3  UNL     1       5.593  19.926  20.534  1.00  0.00     0.279 C 
HETATM   10  O1  UNL     1       6.111  18.869  20.498  1.00  0.00    -0.265 OA
ATOM     11  H2  UNL     1       4.829  21.670  21.420  1.00  0.00     0.190 HD
BRANCH   9  12
HETATM   12  C2  UNL     1       5.381  20.771  19.195  1.00  0.00     0.089 C 
HETATM   13  C1  UNL     1       5.904  20.084  18.045  1.00  0.00     0.070 C 
HETATM   14  N1  UNL     1       4.664  21.952  19.315  1.00  0.00    -0.102 NA
ENDBRANCH   9  12
ENDBRANCH   6   8
ENDBRANCH   1   5
BRANCH   3  15
HETATM   15  C6  UNL     1       3.118  19.566  26.709  1.00  0.00     0.321 C 
BRANCH  15  16
HETATM   16  O3  UNL     1       1.917  20.018  26.233  1.00  0.00    -0.320 OA
ATOM     17  H3  UNL     1       1.511  20.359  27.022  1.00  0.00     0.222 HD
ENDBRANCH  15  16
BRANCH  15  18
HETATM   18  N5  UNL     1       3.475  19.144  27.842  1.00  0.00    -0.278 NA
BRANCH  18  19
HETATM   19  N6  UNL     1       3.863  18.690  29.099  1.00  0.00    -0.207 N 
ATOM     20  H6  UNL     1       4.862  18.603  29.285  1.00  0.00     0.204 HD
BRANCH  19  21
HETATM   21  C7  UNL     1       2.981  18.345  30.127  1.00  0.00     0.210 C 
HETATM   22  N7  UNL     1       1.520  18.442  29.865  1.00  0.00    -0.068 NA
HETATM   23  S1  UNL     1       3.473  17.845  31.541  1.00  0.00    -0.042 SA
ENDBRANCH  19  21
ENDBRANCH  18  19
ENDBRANCH  15  18
ENDBRANCH   3  15
TORSDOF 8
ENDMDL
MODEL 3
REMARK VINA RESULT: -6.984003059      1.834      2.071
REMARK  8 active torsions:
REMARK  status: ('A' for Active; 'I' for Inactive)
REMARK    1  A    between atoms: C2_2  and  C3_4 
REMARK       I    between atoms: C3_4  and  N2_6 
REMARK    2  A    between atoms: N2_6  and  N3_8 
REMARK    3  A    between atoms: C4_10  and  C5_11 
REMARK       I    between atoms: C5_11  and  N4_13 
REMARK    4  A    between atoms: N4_13  and  C6_15 
REMARK    5  A    between atoms: C6_15  and  O3_16 
REMARK    6  A    between atoms: C6_15  and  N5_18 
REMARK    7  A    between atoms: N5_18  and  N6_19 
REMARK    8  A    between atoms: N6_19  and  C7_21 
ROOT
HETATM    1  C5  UNL     1       2.057  22.487  21.984  1.00  0.00     0.266 C 
HETATM    2  O2  UNL     1       1.443  22.440  22.858  1.00  0.00    -0.267 OA
HETATM    3  N4  UNL     1       1.769  23.391  20.676  1.00  0.00    -0.275 N 
ATOM      4  H4  UNL     1       2.295  23.441  19.803  1.00  0.00     0.173 HD
ENDROOT
BRANCH   1   5
HETATM    5  C4  UNL     1       3.303  21.793  21.764  1.00  0.00     0.181 C 
HETATM    6  N3  UNL     1       3.978  21.096  22.667  1.00  0.00    -0.304 N 
ATOM      7  H3  UNL     1       3.783  20.907  23.651  1.00  0.00     0.186 HD
BRANCH   6   8
HETATM    8  N2  UNL     1       5.128  20.666  21.782  1.00  0.00    -0.265 N 
HETATM    9  C3  UNL     1       5.353  19.313  21.671  1.00  0.00     0.279 C 
HETATM   10  O1  UNL     1       4.990  18.374  22.283  1.00  0.00    -0.265 OA
ATOM     11  H2  UNL     1       5.710  21.347  21.292  1.00  0.00     0.190 HD
BRANCH   9  12
HETATM   12  C2  UNL     1       6.274  19.131  20.379  1.00  0.00     0.089 C 
HETATM   13  C1  UNL     1       5.814  19.937  19.281  1.00  0.00     0.070 C 
HETATM   14  N1  UNL     1       7.397  18.330  20.526  1.00  0.00    -0.102 NA
ENDBRANCH   9  12
ENDBRANCH   6   8
ENDBRANCH   1   5
BRANCH   3  15
HETATM   15  C6  UNL     1       0.541  24.131  21.070  1.00  0.00     0.321 C 
BRANCH  15  16
HETATM   16  O3  UNL     1      -0.405  23.144  21.036  1.00  0.00    -0.320 OA
ATOM     17  H3  UNL     1      -0.349  22.790  21.916  1.00  0.00     0.222 HD
ENDBRANCH  15  16
BRANCH  15  18
HETATM   18  N5  UNL     1       0.474  25.360  21.342  1.00  0.00    -0.278 NA
BRANCH  18  19
HETATM   19  N6  UNL     1       0.390  26.719  21.631  1.00  0.00    -0.207 N 
ATOM     20  H6  UNL     1       0.114  27.348  20.878  1.00  0.00     0.204 HD
BRANCH  19  21
HETATM   21  C7  UNL     1       0.657  27.283  22.882  1.00  0.00     0.210 C 
HETATM   22  N7  UNL     1      -0.013  26.702  24.076  1.00  0.00    -0.068 NA
HETATM   23  S1  UNL     1       1.649  28.496  23.076  1.00  0.00    -0.042 SA
ENDBRANCH  19  21
ENDBRANCH  18  19
ENDBRANCH  15  18
ENDBRANCH   3  15
TORSDOF 8
ENDMDL
MODEL 4
REMARK VINA RESULT: -6.913770812      5.690      6.737
REMARK  8 active torsions:
REMARK  status: ('A' for Active; 'I' for Inactive)
REMARK    1  A    between atoms: C2_2  and  C3_4 
REMARK       I    between atoms: C3_4  and  N2_6 
REMARK    2  A    between atoms: N2_6  and  N3_8 
REMARK    3  A    between atoms: C4_10  and  C5_11 
REMARK       I    between atoms: C5_11  and  N4_13 
REMARK    4  A    between atoms: N4_13  and  C6_15 
REMARK    5  A    between atoms: C6_15  and  O3_16 
REMARK    6  A    between atoms: C6_15  and  N5_18 
REMARK    7  A    between atoms: N5_18  and  N6_19 
REMARK    8  A    between atoms: N6_19  and  C7_21 
ROOT
HETATM    1  C5  UNL     1       3.157  20.356  25.205  1.00  0.00     0.266 C 
HETATM    2  O2  UNL     1       2.143  20.518  25.505  1.00  0.00    -0.267 OA
HETATM    3  N4  UNL     1       4.307  19.659  26.101  1.00  0.00    -0.275 N 
ATOM      4  H4  UNL     1       5.293  19.518  25.882  1.00  0.00     0.173 HD
ENDROOT
BRANCH   1   5
HETATM    5  C4  UNL     1       3.742  20.679  23.927  1.00  0.00     0.181 C 
HETATM    6  N3  UNL     1       4.626  19.945  23.264  1.00  0.00    -0.304 N 
ATOM      7  H3  UNL     1       5.062  19.051  23.494  1.00  0.00     0.186 HD
BRANCH   6   8
HETATM    8  N2  UNL     1       4.787  20.849  22.061  1.00  0.00    -0.265 N 
HETATM    9  C3  UNL     1       5.293  20.273  20.917  1.00  0.00     0.279 C 
HETATM   10  O1  UNL     1       5.851  19.259  20.694  1.00  0.00    -0.265 OA
ATOM     11  H2  UNL     1       4.534  21.836  22.095  1.00  0.00     0.190 HD
BRANCH   9  12
HETATM   12  C2  UNL     1       4.936  21.280  19.730  1.00  0.00     0.089 C 
HETATM   13  C1  UNL     1       5.349  20.764  18.453  1.00  0.00     0.070 C 
HETATM   14  N1  UNL     1       4.221  22.417  20.077  1.00  0.00    -0.102 NA
ENDBRANCH   9  12
ENDBRANCH   6   8
ENDBRANCH   1   5
BRANCH   3  15
HETATM   15  C6  UNL     1       3.560  19.274  27.327  1.00  0.00     0.321 C 
BRANCH  15  16
HETATM   16  O3  UNL     1       4.303  18.223  27.791  1.00  0.00    -0.320 OA
ATOM     17  H3  UNL     1       4.084  17.539  27.169  1.00  0.00     0.222 HD
ENDBRANCH  15  16
BRANCH  15  18
HETATM   18  N5  UNL     1       2.510  19.824  27.757  1.00  0.00    -0.278 NA
BRANCH  18  19
HETATM   19  N6  UNL     1       1.350  20.421  28.242  1.00  0.00    -0.207 N 
ATOM     20  H6  UNL     1       0.720  20.851  27.566  1.00  0.00     0.204 HD
BRANCH  19  21
HETATM   21  C7  UNL     1       0.988  20.474  29.591  1.00  0.00     0.210 C 
HETATM   22  N7  UNL     1      -0.440  20.263  29.947  1.00  0.00    -0.068 NA
HETATM   23  S1  UNL     1       2.034  20.731  30.746  1.00  0.00    -0.042 SA
ENDBRANCH  19  21
ENDBRANCH  18  19
ENDBRANCH  15  18
ENDBRANCH   3  15
TORSDOF 8
ENDMDL
MODEL 5
REMARK VINA RESULT: -6.809383993      5.690      6.687
REMARK  8 active torsions:
REMARK  status: ('A' for Active; 'I' for Inactive)
REMARK    1  A    between atoms: C2_2  and  C3_4 
REMARK       I    between atoms: C3_4  and  N2_6 
REMARK    2  A    between atoms: N2_6  and  N3_8 
REMARK    3  A    between atoms: C4_10  and  C5_11 
REMARK       I    between atoms: C5_11  and  N4_13 
REMARK    4  A    between atoms: N4_13  and  C6_15 
REMARK    5  A    between atoms: C6_15  and  O3_16 
REMARK    6  A    between atoms: C6_15  and  N5_18 
REMARK    7  A    between atoms: N5_18  and  N6_19 
REMARK    8  A    between atoms: N6_19  and  C7_21 
ROOT
HETATM    1  C5  UNL     1       3.436  20.540  24.018  1.00  0.00     0.266 C 
HETATM    2  O2  UNL     1       2.593  21.197  23.983  1.00  0.00    -0.267 OA
HETATM    3  N4  UNL     1       3.898  19.665  25.295  1.00  0.00    -0.275 N 
ATOM      4  H4  UNL     1       4.713  19.059  25.396  1.00  0.00     0.173 HD
ENDROOT
BRANCH   1   5
HETATM    5  C4  UNL     1       4.344  20.241  22.937  1.00  0.00     0.181 C 
HETATM    6  N3  UNL     1       4.907  19.065  22.694  1.00  0.00    -0.304 N 
ATOM      7  H3  UNL     1       4.832  18.172  23.181  1.00  0.00     0.186 HD
BRANCH   6   8
HETATM    8  N2  UNL     1       5.697  19.462  21.465  1.00  0.00    -0.265 N 
HETATM    9  C3  UNL     1       6.243  18.440  20.722  1.00  0.00     0.279 C 
HETATM   10  O1  UNL     1       6.432  17.295  20.927  1.00  0.00    -0.265 OA
ATOM     11  H2  UNL     1       5.820  20.440  21.201  1.00  0.00     0.190 HD
BRANCH   9  12
HETATM   12  C2  UNL     1       6.603  19.080  19.304  1.00  0.00     0.089 C 
HETATM   13  C1  UNL     1       5.681  20.122  18.942  1.00  0.00     0.070 C 
HETATM   14  N1  UNL     1       7.763  18.624  18.695  1.00  0.00    -0.102 NA
ENDBRANCH   9  12
ENDBRANCH   6   8
ENDBRANCH   1   5
BRANCH   3  15
HETATM   15  C6  UNL     1       2.833  19.969  26.286  1.00  0.00     0.321 C 
BRANCH  15  16
HETATM   16  O3  UNL     1       1.975  20.740  25.550  1.00  0.00    -0.320 OA
ATOM     17  H3  UNL     1       2.488  21.529  25.415  1.00  0.00     0.222 HD
ENDBRANCH  15  16
BRANCH  15  18
HETATM   18  N5  UNL     1       2.806  19.581  27.485  1.00  0.00    -0.278 NA
BRANCH  18  19
HETATM   19  N6  UNL     1       2.771  19.167  28.813  1.00  0.00    -0.207 N 
ATOM     20  H6  UNL     1       3.600  18.707  29.188  1.00  0.00     0.204 HD
BRANCH  19  21
HETATM   21  C7  UNL     1       1.680  19.335  29.670  1.00  0.00     0.210 C 
HETATM   22  N7  UNL     1       0.879  18.138  30.038  1.00  0.00    -0.068 NA
HETATM   23  S1  UNL     1       1.277  20.739  30.272  1.00  0.00    -0.042 SA
ENDBRANCH  19  21
ENDBRANCH  18  19
ENDBRANCH  15  18
ENDBRANCH   3  15
TORSDOF 8
ENDMDL
