MODEL 1
REMARK VINA RESULT: -7.498380757      0.000      0.000
REMARK  7 active torsions:
REMARK  status: ('A' for Active; 'I' for Inactive)
REMARK    1  A    between atoms: N1_2  and  C2_4 
REMARK    2  A    between atoms: C2_4  and  N2_6 
REMARK    3  A    between atoms: N2_6  and  C3_8 
REMARK    4  A    between atoms: C3_8  and  C4_9 
REMARK       I    between atoms: C4_9  and  N3_11 
REMARK    5  A    between atoms: N3_11  and  N4_12 
REMARK    6  A    between atoms: N4_12  and  C5_14 
REMARK    7  A    between atoms: C6_17  and  N6_18 
ROOT
HETATM    1  N4  UNL     1       5.248  22.142  20.487  1.00  0.00    -0.208 N 
ATOM      2  H4  UNL     1       5.857  22.951  20.615  1.00  0.00     0.204 HD
ENDROOT
BRANCH   1   3
HETATM    3  N3  UNL     1       5.301  21.499  19.244  1.00  0.00    -0.283 NA
HETATM    4  C4  UNL     1       5.303  20.962  18.095  1.00  0.00     0.330 C 
HETATM    5  O1  UNL     1       4.708  21.187  16.992  1.00  0.00    -0.253 OA
BRANCH   4   6
HETATM    6  C3  UNL     1       6.232  19.693  17.863  1.00  0.00     0.243 C 
BRANCH   6   7
HETATM    7  N2  UNL     1       6.078  18.742  18.871  1.00  0.00    -0.357 N 
ATOM      8  H2  UNL     1       5.502  17.947  18.595  1.00  0.00     0.162 HD
BRANCH   7   9
HETATM    9  C2  UNL     1       6.555  18.658  20.188  1.00  0.00     0.167 C 
HETATM   10  S1  UNL     1       6.050  17.430  21.181  1.00  0.00    -0.041 SA
BRANCH   9  11
HETATM   11  N1  UNL     1       7.482  19.550  20.720  1.00  0.00    -0.372 N 
HETATM   12  C1  UNL     1       8.895  19.643  20.393  1.00  0.00     0.148 C 
ATOM     13  H1  UNL     1       7.131  20.211  21.413  1.00  0.00     0.161 HD
ENDBRANCH   9  11
ENDBRANCH   7   9
ENDBRANCH   6   7
ENDBRANCH   4   6
ENDBRANCH   1   3
BRANCH   1  14
HETATM   14  C5  UNL     1       4.537  21.824  21.440  1.00  0.00     0.193 A 
HETATM   15  N5  UNL     1       4.918  21.039  22.483  1.00  0.00    -0.168 N 
HETATM   16  C6  UNL     1       4.149  20.715  23.505  1.00  0.00     0.681 A 
ATOM     17  H5  UNL     1       5.870  20.673  22.475  1.00  0.00     0.186 HD
HETATM   18  N7  UNL     1       2.900  21.055  23.749  1.00  0.00    -0.150 N 
HETATM   19  C7  UNL     1       2.124  21.833  22.973  1.00  0.00     0.305 A 
ATOM     20  H7  UNL     1       2.482  20.695  24.607  1.00  0.00     0.188 HD
HETATM   21  O2  UNL     1       0.920  22.139  23.251  1.00  0.00    -0.259 OA
HETATM   22  S2  UNL     1       2.921  22.374  21.569  1.00  0.00     0.010 SA
BRANCH  16  23
HETATM   23  N6  UNL     1       4.685  19.942  24.438  1.00  0.00    -0.234 N 
ATOM     24  H62 UNL     1       4.506  18.947  24.301  1.00  0.00     0.174 HD
ATOM     25  H61 UNL     1       5.205  20.407  25.181  1.00  0.00     0.174 HD
ENDBRANCH  16  23
ENDBRANCH   1  14
TORSDOF 7
ENDMDL
MODEL 2
REMARK VINA RESULT: -7.488719289      2.315      6.304
REMARK  7 active torsions:
REMARK  status: ('A' for Active; 'I' for Inactive)
REMARK    1  A    between atoms: N1_2  and  C2_4 
REMARK    2  A    between atoms: C2_4  and  N2_6 
REMARK    3  A    between atoms: N2_6  and  C3_8 
REMARK    4  A    between atoms: C3_8  and  C4_9 
REMARK       I    between atoms: C4_9  and  N3_11 
REMARK    5  A    between atoms: N3_11  and  N4_12 
REMARK    6  A    between atoms: N4_12  and  C5_14 
REMARK    7  A    between atoms: C6_17  and  N6_18 
ROOT
HETATM    1  N4  UNL     1       5.177  21.103  22.178  1.00  0.00    -0.208 N 
ATOM      2  H4  UNL     1       5.997  21.420  22.696  1.00  0.00     0.204 HD
ENDROOT
BRANCH   1   3
HETATM    3  N3  UNL     1       3.941  21.191  22.833  1.00  0.00    -0.283 NA
HETATM    4  C4  UNL     1       2.850  21.238  23.478  1.00  0.00     0.330 C 
HETATM    5  O1  UNL     1       2.464  20.847  24.626  1.00  0.00    -0.253 OA
BRANCH   4   6
HETATM    6  C3  UNL     1       1.597  21.924  22.782  1.00  0.00     0.243 C 
BRANCH   6   7
HETATM    7  N2  UNL     1       1.977  22.780  21.749  1.00  0.00    -0.357 N 
ATOM      8  H2  UNL     1       2.963  22.705  21.502  1.00  0.00     0.162 HD
BRANCH   7   9
HETATM    9  C2  UNL     1       1.277  23.724  20.980  1.00  0.00     0.167 C 
HETATM   10  S1  UNL     1       0.215  23.224  19.810  1.00  0.00    -0.041 SA
BRANCH   9  11
HETATM   11  N1  UNL     1       1.399  25.098  21.169  1.00  0.00    -0.372 N 
HETATM   12  C1  UNL     1       0.493  25.965  21.901  1.00  0.00     0.148 C 
ATOM     13  H1  UNL     1       2.214  25.544  20.748  1.00  0.00     0.161 HD
ENDBRANCH   9  11
ENDBRANCH   7   9
ENDBRANCH   6   7
ENDBRANCH   4   6
ENDBRANCH   1   3
BRANCH   1  14
HETATM   14  C5  UNL     1       5.366  20.680  21.039  1.00  0.00     0.193 A 
HETATM   15  N5  UNL     1       5.998  19.518  20.722  1.00  0.00    -0.168 N 
HETATM   16  C6  UNL     1       6.185  19.069  19.495  1.00  0.00     0.681 A 
ATOM     17  H5  UNL     1       6.356  18.951  21.491  1.00  0.00     0.186 HD
HETATM   18  N7  UNL     1       5.821  19.605  18.347  1.00  0.00    -0.150 N 
HETATM   19  C7  UNL     1       5.161  20.766  18.188  1.00  0.00     0.305 A 
ATOM     20  H7  UNL     1       6.063  19.091  17.500  1.00  0.00     0.188 HD
HETATM   21  O2  UNL     1       4.828  21.244  17.057  1.00  0.00    -0.259 OA
HETATM   22  S2  UNL     1       4.813  21.539  19.664  1.00  0.00     0.010 SA
BRANCH  16  23
HETATM   23  N6  UNL     1       6.819  17.914  19.369  1.00  0.00    -0.234 N 
ATOM     24  H62 UNL     1       7.722  17.886  19.843  1.00  0.00     0.174 HD
ATOM     25  H61 UNL     1       6.355  17.188  18.822  1.00  0.00     0.174 HD
ENDBRANCH  16  23
ENDBRANCH   1  14
TORSDOF 7
ENDMDL
MODEL 3
REMARK VINA RESULT: -7.460880647      1.112      1.359
REMARK  7 active torsions:
REMARK  status: ('A' for Active; 'I' for Inactive)
REMARK    1  A    between atoms: N1_2  and  C2_4 
REMARK    2  A    between atoms: C2_4  and  N2_6 
REMARK    3  A    between atoms: N2_6  and  C3_8 
REMARK    4  A    between atoms: C3_8  and  C4_9 
REMARK       I    between atoms: C4_9  and  N3_11 
REMARK    5  A    between atoms: N3_11  and  N4_12 
REMARK    6  A    between atoms: N4_12  and  C5_14 
REMARK    7  A    between atoms: C6_17  and  N6_18 
ROOT
HETATM    1  N4  UNL     1       5.439  22.005  20.542  1.00  0.00    -0.208 N 
ATOM      2  H4  UNL     1       6.168  22.693  20.733  1.00  0.00     0.204 HD
ENDROOT
BRANCH   1   3
HETATM    3  N3  UNL     1       5.399  21.465  19.250  1.00  0.00    -0.283 NA
HETATM    4  C4  UNL     1       5.313  21.020  18.065  1.00  0.00     0.330 C 
HETATM    5  O1  UNL     1       4.591  21.288  17.051  1.00  0.00    -0.253 OA
BRANCH   4   6
HETATM    6  C3  UNL     1       6.288  19.840  17.636  1.00  0.00     0.243 C 
BRANCH   6   7
HETATM    7  N2  UNL     1       6.186  18.743  18.488  1.00  0.00    -0.357 N 
ATOM      8  H2  UNL     1       5.463  18.079  18.212  1.00  0.00     0.162 HD
BRANCH   7   9
HETATM    9  C2  UNL     1       6.878  18.365  19.651  1.00  0.00     0.167 C 
HETATM   10  S1  UNL     1       8.213  19.216  20.140  1.00  0.00    -0.041 SA
BRANCH   9  11
HETATM   11  N1  UNL     1       6.478  17.307  20.463  1.00  0.00    -0.372 N 
HETATM   12  C1  UNL     1       5.653  17.382  21.656  1.00  0.00     0.148 C 
ATOM     13  H1  UNL     1       6.798  16.378  20.189  1.00  0.00     0.161 HD
ENDBRANCH   9  11
ENDBRANCH   7   9
ENDBRANCH   6   7
ENDBRANCH   4   6
ENDBRANCH   1   3
BRANCH   1  14
HETATM   14  C5  UNL     1       4.678  21.728  21.469  1.00  0.00     0.193 A 
HETATM   15  N5  UNL     1       4.993  20.966  22.550  1.00  0.00    -0.168 N 
HETATM   16  C6  UNL     1       4.171  20.686  23.543  1.00  0.00     0.681 A 
ATOM     17  H5  UNL     1       5.937  20.581  22.597  1.00  0.00     0.186 HD
HETATM   18  N7  UNL     1       2.919  21.059  23.719  1.00  0.00    -0.150 N 
HETATM   19  C7  UNL     1       2.197  21.830  22.886  1.00  0.00     0.305 A 
ATOM     20  H7  UNL     1       2.454  20.732  24.565  1.00  0.00     0.188 HD
HETATM   21  O2  UNL     1       0.988  22.167  23.099  1.00  0.00    -0.259 OA
HETATM   22  S2  UNL     1       3.069  22.315  21.507  1.00  0.00     0.010 SA
BRANCH  16  23
HETATM   23  N6  UNL     1       4.646  19.930  24.520  1.00  0.00    -0.234 N 
ATOM     24  H62 UNL     1       5.239  20.433  25.180  1.00  0.00     0.174 HD
ATOM     25  H61 UNL     1       4.381  18.945  24.513  1.00  0.00     0.174 HD
ENDBRANCH  16  23
ENDBRANCH   1  14
TORSDOF 7
ENDMDL
MODEL 4
REMARK VINA RESULT: -7.394135825      2.368      6.341
REMARK  7 active torsions:
REMARK  status: ('A' for Active; 'I' for Inactive)
REMARK    1  A    between atoms: N1_2  and  C2_4 
REMARK    2  A    between atoms: C2_4  and  N2_6 
REMARK    3  A    between atoms: N2_6  and  C3_8 
REMARK    4  A    between atoms: C3_8  and  C4_9 
REMARK       I    between atoms: C4_9  and  N3_11 
REMARK    5  A    between atoms: N3_11  and  N4_12 
REMARK    6  A    between atoms: N4_12  and  C5_14 
REMARK    7  A    between atoms: C6_17  and  N6_18 
ROOT
HETATM    1  N4  UNL     1       5.021  21.167  22.330  1.00  0.00    -0.208 N 
ATOM      2  H4  UNL     1       5.811  21.547  22.851  1.00  0.00     0.204 HD
ENDROOT
BRANCH   1   3
HETATM    3  N3  UNL     1       3.771  21.194  22.963  1.00  0.00    -0.283 NA
HETATM    4  C4  UNL     1       2.670  21.200  23.593  1.00  0.00     0.330 C 
HETATM    5  O1  UNL     1       2.314  20.945  24.788  1.00  0.00    -0.253 OA
BRANCH   4   6
HETATM    6  C3  UNL     1       1.354  21.601  22.798  1.00  0.00     0.243 C 
BRANCH   6   7
HETATM    7  N2  UNL     1       1.572  22.673  21.935  1.00  0.00    -0.357 N 
ATOM      8  H2  UNL     1       2.558  22.908  21.819  1.00  0.00     0.162 HD
BRANCH   7   9
HETATM    9  C2  UNL     1       0.711  23.496  21.191  1.00  0.00     0.167 C 
HETATM   10  S1  UNL     1       0.805  25.145  21.330  1.00  0.00    -0.041 SA
BRANCH   9  11
HETATM   11  N1  UNL     1      -0.226  22.996  20.290  1.00  0.00    -0.372 N 
HETATM   12  C1  UNL     1      -0.159  23.045  18.840  1.00  0.00     0.148 C 
ATOM     13  H1  UNL     1      -1.049  22.547  20.692  1.00  0.00     0.161 HD
ENDBRANCH   9  11
ENDBRANCH   7   9
ENDBRANCH   6   7
ENDBRANCH   4   6
ENDBRANCH   1   3
BRANCH   1  14
HETATM   14  C5  UNL     1       5.255  20.727  21.205  1.00  0.00     0.193 A 
HETATM   15  N5  UNL     1       5.903  19.563  20.930  1.00  0.00    -0.168 N 
HETATM   16  C6  UNL     1       6.137  19.096  19.718  1.00  0.00     0.681 A 
ATOM     17  H5  UNL     1       6.232  19.009  21.720  1.00  0.00     0.186 HD
HETATM   18  N7  UNL     1       5.817  19.614  18.549  1.00  0.00    -0.150 N 
HETATM   19  C7  UNL     1       5.160  20.770  18.347  1.00  0.00     0.305 A 
ATOM     20  H7  UNL     1       6.093  19.088  17.720  1.00  0.00     0.188 HD
HETATM   21  O2  UNL     1       4.869  21.230  17.197  1.00  0.00    -0.259 OA
HETATM   22  S2  UNL     1       4.752  21.564  19.797  1.00  0.00     0.010 SA
BRANCH  16  23
HETATM   23  N6  UNL     1       6.780  17.942  19.634  1.00  0.00    -0.234 N 
ATOM     24  H62 UNL     1       6.227  17.139  19.935  1.00  0.00     0.174 HD
ATOM     25  H61 UNL     1       7.740  17.971  19.290  1.00  0.00     0.174 HD
ENDBRANCH  16  23
ENDBRANCH   1  14
TORSDOF 7
ENDMDL
MODEL 5
REMARK VINA RESULT: -7.178343285      1.506      2.074
REMARK  7 active torsions:
REMARK  status: ('A' for Active; 'I' for Inactive)
REMARK    1  A    between atoms: N1_2  and  C2_4 
REMARK    2  A    between atoms: C2_4  and  N2_6 
REMARK    3  A    between atoms: N2_6  and  C3_8 
REMARK    4  A    between atoms: C3_8  and  C4_9 
REMARK       I    between atoms: C4_9  and  N3_11 
REMARK    5  A    between atoms: N3_11  and  N4_12 
REMARK    6  A    between atoms: N4_12  and  C5_14 
REMARK    7  A    between atoms: C6_17  and  N6_18 
ROOT
HETATM    1  N4  UNL     1       4.954  22.345  20.294  1.00  0.00    -0.208 N 
ATOM      2  H4  UNL     1       5.731  22.942  20.579  1.00  0.00     0.204 HD
ENDROOT
BRANCH   1   3
HETATM    3  N3  UNL     1       5.094  21.656  19.082  1.00  0.00    -0.283 NA
HETATM    4  C4  UNL     1       5.177  21.076  17.957  1.00  0.00     0.330 C 
HETATM    5  O1  UNL     1       4.650  21.249  16.812  1.00  0.00    -0.253 OA
BRANCH   4   6
HETATM    6  C3  UNL     1       6.138  19.816  17.834  1.00  0.00     0.243 C 
BRANCH   6   7
HETATM    7  N2  UNL     1       5.937  18.903  18.867  1.00  0.00    -0.357 N 
ATOM      8  H2  UNL     1       5.256  18.178  18.643  1.00  0.00     0.162 HD
BRANCH   7   9
HETATM    9  C2  UNL     1       6.483  18.779  20.155  1.00  0.00     0.167 C 
HETATM   10  S1  UNL     1       6.100  17.472  21.101  1.00  0.00    -0.041 SA
BRANCH   9  11
HETATM   11  N1  UNL     1       7.382  19.697  20.692  1.00  0.00    -0.372 N 
HETATM   12  C1  UNL     1       8.824  19.712  20.522  1.00  0.00     0.148 C 
ATOM     13  H1  UNL     1       6.984  20.441  21.266  1.00  0.00     0.161 HD
ENDBRANCH   9  11
ENDBRANCH   7   9
ENDBRANCH   6   7
ENDBRANCH   4   6
ENDBRANCH   1   3
BRANCH   1  14
HETATM   14  C5  UNL     1       3.982  22.299  21.047  1.00  0.00     0.193 A 
HETATM   15  N5  UNL     1       2.797  22.937  20.849  1.00  0.00    -0.168 N 
HETATM   16  C6  UNL     1       1.757  22.869  21.659  1.00  0.00     0.681 A 
ATOM     17  H5  UNL     1       2.705  23.511  20.012  1.00  0.00     0.186 HD
HETATM   18  N7  UNL     1       1.623  22.202  22.788  1.00  0.00    -0.150 N 
HETATM   19  C7  UNL     1       2.556  21.426  23.367  1.00  0.00     0.305 A 
ATOM     20  H7  UNL     1       0.726  22.283  23.268  1.00  0.00     0.188 HD
HETATM   21  O2  UNL     1       2.380  20.798  24.460  1.00  0.00    -0.259 OA
HETATM   22  S2  UNL     1       4.011  21.367  22.485  1.00  0.00     0.010 SA
BRANCH  16  23
HETATM   23  N6  UNL     1       0.679  23.553  21.310  1.00  0.00    -0.234 N 
ATOM     24  H62 UNL     1       0.251  23.233  20.441  1.00  0.00     0.174 HD
ATOM     25  H61 UNL     1       0.395  24.314  21.926  1.00  0.00     0.174 HD
ENDBRANCH  16  23
ENDBRANCH   1  14
TORSDOF 7
ENDMDL
