MODEL 1
REMARK VINA RESULT: -6.219619632      0.000      0.000
REMARK  6 active torsions:
REMARK  status: ('A' for Active; 'I' for Inactive)
REMARK    1  A    between atoms: N1_2  and  C2_4 
REMARK    2  A    between atoms: C2_4  and  N2_6 
REMARK    3  A    between atoms: C4_11  and  O1_12 
REMARK    4  A    between atoms: C4_11  and  C5_14 
REMARK    5  A    between atoms: C7_18  and  N4_19 
REMARK    6  A    between atoms: C7_18  and  C8_23 
ROOT
HETATM    1  N2  UNL     1       6.281  20.273  20.140  1.00  0.00    -0.268 N 
HETATM    2  C3  UNL     1       5.266  20.573  21.097  1.00  0.00     0.128 C 
HETATM    3  N3  UNL     1       4.698  19.757  21.907  1.00  0.00    -0.386 N 
ATOM      4  H31 UNL     1       3.973  19.971  22.591  1.00  0.00     0.157 HD
ATOM      5  H32 UNL     1       4.909  18.761  21.968  1.00  0.00     0.157 HD
HETATM    6  C4  UNL     1       4.954  22.045  21.005  1.00  0.00     0.208 C 
HETATM    7  C6  UNL     1       5.235  22.320  19.569  1.00  0.00     0.129 C 
HETATM    8  C7  UNL     1       6.082  21.210  19.051  1.00  0.00     0.286 C 
ENDROOT
BRANCH   8   9
HETATM    9  N4  UNL     1       7.364  21.699  18.596  1.00  0.00    -0.043 N 
ATOM     10  H43 UNL     1       7.298  22.630  18.185  1.00  0.00     0.278 HD
ATOM     11  H42 UNL     1       7.987  21.925  19.371  1.00  0.00     0.278 HD
ATOM     12  H41 UNL     1       7.776  21.023  17.953  1.00  0.00     0.278 HD
ENDBRANCH   8   9
BRANCH   8  13
HETATM   13  C8  UNL     1       5.401  20.595  17.894  1.00  0.00     0.288 C 
HETATM   14  N5  UNL     1       4.588  21.286  16.980  1.00  0.00    -0.058 NA
HETATM   15  O4  UNL     1       5.565  19.361  17.721  1.00  0.00    -0.272 OA
ENDBRANCH   8  13
BRANCH   1  16
HETATM   16  C2  UNL     1       7.280  19.285  20.218  1.00  0.00     0.177 C 
HETATM   17  S1  UNL     1       8.828  19.754  20.574  1.00  0.00    -0.041 SA
BRANCH  16  18
HETATM   18  N1  UNL     1       7.105  17.895  20.021  1.00  0.00    -0.371 N 
HETATM   19  C1  UNL     1       6.436  17.025  20.944  1.00  0.00     0.148 C 
ATOM     20  H1  UNL     1       7.478  17.484  19.165  1.00  0.00     0.161 HD
ENDBRANCH  16  18
ENDBRANCH   1  16
BRANCH   6  21
HETATM   21  O1  UNL     1       5.857  22.698  21.811  1.00  0.00    -0.372 OA
ATOM     22  H1  UNL     1       5.770  22.329  22.682  1.00  0.00     0.211 HD
ENDBRANCH   6  21
BRANCH   6  23
HETATM   23  C5  UNL     1       3.547  22.306  21.392  1.00  0.00     0.217 C 
HETATM   24  O2  UNL     1       2.814  22.919  20.605  1.00  0.00    -0.645 OA
HETATM   25  O3  UNL     1       3.055  21.882  22.597  1.00  0.00    -0.645 OA
ENDBRANCH   6  23
TORSDOF 6
ENDMDL
MODEL 2
REMARK VINA RESULT: -5.201765550      1.195      1.245
REMARK  6 active torsions:
REMARK  status: ('A' for Active; 'I' for Inactive)
REMARK    1  A    between atoms: N1_2  and  C2_4 
REMARK    2  A    between atoms: C2_4  and  N2_6 
REMARK    3  A    between atoms: C4_11  and  O1_12 
REMARK    4  A    between atoms: C4_11  and  C5_14 
REMARK    5  A    between atoms: C7_18  and  N4_19 
REMARK    6  A    between atoms: C7_18  and  C8_23 
ROOT
HETATM    1  N2  UNL     1       6.337  20.182  20.285  1.00  0.00    -0.268 N 
HETATM    2  C3  UNL     1       5.457  20.097  21.406  1.00  0.00     0.128 C 
HETATM    3  N3  UNL     1       5.030  19.031  21.978  1.00  0.00    -0.386 N 
ATOM      4  H31 UNL     1       4.402  18.970  22.779  1.00  0.00     0.157 HD
ATOM      5  H32 UNL     1       5.276  18.083  21.694  1.00  0.00     0.157 HD
HETATM    6  C4  UNL     1       5.093  21.499  21.824  1.00  0.00     0.208 C 
HETATM    7  C6  UNL     1       5.163  22.225  20.527  1.00  0.00     0.129 C 
HETATM    8  C7  UNL     1       5.961  21.393  19.583  1.00  0.00     0.286 C 
ENDROOT
BRANCH   8   9
HETATM    9  N4  UNL     1       7.153  22.089  19.152  1.00  0.00    -0.043 N 
ATOM     10  H43 UNL     1       7.285  22.971  19.648  1.00  0.00     0.278 HD
ATOM     11  H42 UNL     1       8.005  21.620  19.458  1.00  0.00     0.278 HD
ATOM     12  H41 UNL     1       7.124  22.216  18.140  1.00  0.00     0.278 HD
ENDBRANCH   8   9
BRANCH   8  13
HETATM   13  C8  UNL     1       5.143  21.122  18.384  1.00  0.00     0.288 C 
HETATM   14  N5  UNL     1       5.567  20.372  17.275  1.00  0.00    -0.058 NA
HETATM   15  O4  UNL     1       3.982  21.602  18.361  1.00  0.00    -0.272 OA
ENDBRANCH   8  13
BRANCH   1  16
HETATM   16  C2  UNL     1       7.365  19.291  19.922  1.00  0.00     0.177 C 
HETATM   17  S1  UNL     1       8.878  19.534  20.551  1.00  0.00    -0.041 SA
BRANCH  16  18
HETATM   18  N1  UNL     1       7.246  18.180  19.055  1.00  0.00    -0.371 N 
HETATM   19  C1  UNL     1       6.025  17.468  18.814  1.00  0.00     0.148 C 
ATOM     20  H1  UNL     1       8.086  17.864  18.568  1.00  0.00     0.161 HD
ENDBRANCH  16  18
ENDBRANCH   1  16
BRANCH   6  21
HETATM   21  O1  UNL     1       6.081  21.931  22.678  1.00  0.00    -0.372 OA
ATOM     22  H1  UNL     1       6.685  22.452  22.162  1.00  0.00     0.211 HD
ENDBRANCH   6  21
BRANCH   6  23
HETATM   23  C5  UNL     1       3.747  21.526  22.444  1.00  0.00     0.217 C 
HETATM   24  O2  UNL     1       2.848  22.177  21.896  1.00  0.00    -0.645 OA
HETATM   25  O3  UNL     1       3.489  20.847  23.604  1.00  0.00    -0.645 OA
ENDBRANCH   6  23
TORSDOF 6
ENDMDL
MODEL 3
REMARK VINA RESULT: -4.820633069      1.084      1.308
REMARK  6 active torsions:
REMARK  status: ('A' for Active; 'I' for Inactive)
REMARK    1  A    between atoms: N1_2  and  C2_4 
REMARK    2  A    between atoms: C2_4  and  N2_6 
REMARK    3  A    between atoms: C4_11  and  O1_12 
REMARK    4  A    between atoms: C4_11  and  C5_14 
REMARK    5  A    between atoms: C7_18  and  N4_19 
REMARK    6  A    between atoms: C7_18  and  C8_23 
ROOT
HETATM    1  N2  UNL     1       6.192  20.375  20.352  1.00  0.00    -0.268 N 
HETATM    2  C3  UNL     1       5.112  20.730  21.215  1.00  0.00     0.128 C 
HETATM    3  N3  UNL     1       4.489  19.964  22.032  1.00  0.00    -0.386 N 
ATOM      4  H31 UNL     1       3.717  20.218  22.649  1.00  0.00     0.157 HD
ATOM      5  H32 UNL     1       4.695  18.975  22.172  1.00  0.00     0.157 HD
HETATM    6  C4  UNL     1       4.806  22.192  21.007  1.00  0.00     0.208 C 
HETATM    7  C6  UNL     1       5.188  22.377  19.580  1.00  0.00     0.129 C 
HETATM    8  C7  UNL     1       6.070  21.240  19.194  1.00  0.00     0.286 C 
ENDROOT
BRANCH   8   9
HETATM    9  N4  UNL     1       7.381  21.706  18.801  1.00  0.00    -0.043 N 
ATOM     10  H43 UNL     1       7.716  22.463  19.396  1.00  0.00     0.278 HD
ATOM     11  H42 UNL     1       8.110  21.024  19.007  1.00  0.00     0.278 HD
ATOM     12  H41 UNL     1       7.366  21.968  17.815  1.00  0.00     0.278 HD
ENDBRANCH   8   9
BRANCH   8  13
HETATM   13  C8  UNL     1       5.473  20.550  18.034  1.00  0.00     0.288 C 
HETATM   14  N5  UNL     1       4.676  21.166  17.055  1.00  0.00    -0.058 NA
HETATM   15  O4  UNL     1       5.699  19.319  17.920  1.00  0.00    -0.272 OA
ENDBRANCH   8  13
BRANCH   1  16
HETATM   16  C2  UNL     1       7.184  19.399  20.563  1.00  0.00     0.177 C 
HETATM   17  S1  UNL     1       6.725  17.809  20.634  1.00  0.00    -0.041 SA
BRANCH  16  18
HETATM   18  N1  UNL     1       8.570  19.632  20.728  1.00  0.00    -0.371 N 
HETATM   19  C1  UNL     1       9.576  19.212  19.796  1.00  0.00     0.148 C 
ATOM     20  H1  UNL     1       8.874  20.130  21.564  1.00  0.00     0.161 HD
ENDBRANCH  16  18
ENDBRANCH   1  16
BRANCH   6  21
HETATM   21  O1  UNL     1       5.650  22.899  21.832  1.00  0.00    -0.372 OA
ATOM     22  H1  UNL     1       6.505  22.489  21.771  1.00  0.00     0.211 HD
ENDBRANCH   6  21
BRANCH   6  23
HETATM   23  C5  UNL     1       3.375  22.469  21.276  1.00  0.00     0.217 C 
HETATM   24  O2  UNL     1       2.713  23.078  20.426  1.00  0.00    -0.645 OA
HETATM   25  O3  UNL     1       2.784  22.066  22.443  1.00  0.00    -0.645 OA
ENDBRANCH   6  23
TORSDOF 6
ENDMDL
MODEL 4
REMARK VINA RESULT: -4.589515099      1.327      1.696
REMARK  6 active torsions:
REMARK  status: ('A' for Active; 'I' for Inactive)
REMARK    1  A    between atoms: N1_2  and  C2_4 
REMARK    2  A    between atoms: C2_4  and  N2_6 
REMARK    3  A    between atoms: C4_11  and  O1_12 
REMARK    4  A    between atoms: C4_11  and  C5_14 
REMARK    5  A    between atoms: C7_18  and  N4_19 
REMARK    6  A    between atoms: C7_18  and  C8_23 
ROOT
HETATM    1  N2  UNL     1       6.211  20.373  20.383  1.00  0.00    -0.268 N 
HETATM    2  C3  UNL     1       5.126  20.724  21.242  1.00  0.00     0.128 C 
HETATM    3  N3  UNL     1       4.509  19.958  22.064  1.00  0.00    -0.386 N 
ATOM      4  H31 UNL     1       3.734  20.209  22.678  1.00  0.00     0.157 HD
ATOM      5  H32 UNL     1       4.724  18.972  22.210  1.00  0.00     0.157 HD
HETATM    6  C4  UNL     1       4.808  22.182  21.023  1.00  0.00     0.208 C 
HETATM    7  C6  UNL     1       5.190  22.360  19.595  1.00  0.00     0.129 C 
HETATM    8  C7  UNL     1       6.082  21.228  19.219  1.00  0.00     0.286 C 
ENDROOT
BRANCH   8   9
HETATM    9  N4  UNL     1       7.389  21.703  18.823  1.00  0.00    -0.043 N 
ATOM     10  H43 UNL     1       7.399  22.708  18.652  1.00  0.00     0.278 HD
ATOM     11  H42 UNL     1       8.057  21.679  19.594  1.00  0.00     0.278 HD
ATOM     12  H41 UNL     1       7.713  21.171  18.015  1.00  0.00     0.278 HD
ENDBRANCH   8   9
BRANCH   8  13
HETATM   13  C8  UNL     1       5.492  20.525  18.062  1.00  0.00     0.288 C 
HETATM   14  N5  UNL     1       5.837  19.228  17.649  1.00  0.00    -0.058 NA
HETATM   15  O4  UNL     1       4.617  21.140  17.403  1.00  0.00    -0.272 OA
ENDBRANCH   8  13
BRANCH   1  16
HETATM   16  C2  UNL     1       7.211  19.407  20.602  1.00  0.00     0.177 C 
HETATM   17  S1  UNL     1       6.767  17.813  20.675  1.00  0.00    -0.041 SA
BRANCH  16  18
HETATM   18  N1  UNL     1       8.594  19.653  20.772  1.00  0.00    -0.371 N 
HETATM   19  C1  UNL     1       9.606  19.262  19.834  1.00  0.00     0.148 C 
ATOM     20  H1  UNL     1       8.891  20.141  21.618  1.00  0.00     0.161 HD
ENDBRANCH  16  18
ENDBRANCH   1  16
BRANCH   6  21
HETATM   21  O1  UNL     1       5.645  22.902  21.844  1.00  0.00    -0.372 OA
ATOM     22  H1  UNL     1       5.106  23.270  22.535  1.00  0.00     0.211 HD
ENDBRANCH   6  21
BRANCH   6  23
HETATM   23  C5  UNL     1       3.374  22.448  21.289  1.00  0.00     0.217 C 
HETATM   24  O2  UNL     1       2.884  22.070  22.361  1.00  0.00    -0.645 OA
HETATM   25  O3  UNL     1       2.595  23.101  20.373  1.00  0.00    -0.645 OA
ENDBRANCH   6  23
TORSDOF 6
ENDMDL
MODEL 5
REMARK VINA RESULT: -4.164116489      2.625      4.926
REMARK  6 active torsions:
REMARK  status: ('A' for Active; 'I' for Inactive)
REMARK    1  A    between atoms: N1_2  and  C2_4 
REMARK    2  A    between atoms: C2_4  and  N2_6 
REMARK    3  A    between atoms: C4_11  and  O1_12 
REMARK    4  A    between atoms: C4_11  and  C5_14 
REMARK    5  A    between atoms: C7_18  and  N4_19 
REMARK    6  A    between atoms: C7_18  and  C8_23 
ROOT
HETATM    1  N2  UNL     1       4.752  21.308  20.843  1.00  0.00    -0.268 N 
HETATM    2  C3  UNL     1       5.229  20.904  19.559  1.00  0.00     0.128 C 
HETATM    3  N3  UNL     1       4.550  20.804  18.476  1.00  0.00    -0.386 N 
ATOM      4  H31 UNL     1       4.890  20.516  17.559  1.00  0.00     0.157 HD
ATOM      5  H32 UNL     1       3.554  21.008  18.396  1.00  0.00     0.157 HD
HETATM    6  C4  UNL     1       6.701  20.603  19.679  1.00  0.00     0.208 C 
HETATM    7  C6  UNL     1       6.797  20.137  21.090  1.00  0.00     0.129 C 
HETATM    8  C7  UNL     1       5.577  20.604  21.806  1.00  0.00     0.286 C 
ENDROOT
BRANCH   8   9
HETATM    9  N4  UNL     1       5.917  21.497  22.891  1.00  0.00    -0.043 N 
ATOM     10  H43 UNL     1       5.910  22.475  22.603  1.00  0.00     0.278 HD
ATOM     11  H42 UNL     1       5.181  21.546  23.595  1.00  0.00     0.278 HD
ATOM     12  H41 UNL     1       6.814  21.219  23.290  1.00  0.00     0.278 HD
ENDBRANCH   8   9
BRANCH   8  13
HETATM   13  C8  UNL     1       4.892  19.432  22.388  1.00  0.00     0.288 C 
HETATM   14  N5  UNL     1       5.134  18.098  22.024  1.00  0.00    -0.058 NA
HETATM   15  O4  UNL     1       4.030  19.654  23.275  1.00  0.00    -0.272 OA
ENDBRANCH   8  13
BRANCH   1  16
HETATM   16  C2  UNL     1       3.707  22.204  21.136  1.00  0.00     0.177 C 
HETATM   17  S1  UNL     1       3.668  23.658  20.343  1.00  0.00    -0.041 SA
BRANCH  16  18
HETATM   18  N1  UNL     1       2.656  21.995  22.059  1.00  0.00    -0.371 N 
HETATM   19  C1  UNL     1       1.402  22.691  22.028  1.00  0.00     0.148 C 
ATOM     20  H1  UNL     1       2.799  21.304  22.796  1.00  0.00     0.161 HD
ENDBRANCH  16  18
ENDBRANCH   1  16
BRANCH   6  21
HETATM   21  O1  UNL     1       7.369  21.794  19.513  1.00  0.00    -0.372 OA
ATOM     22  H1  UNL     1       8.141  21.608  18.992  1.00  0.00     0.211 HD
ENDBRANCH   6  21
BRANCH   6  23
HETATM   23  C5  UNL     1       7.106  19.576  18.689  1.00  0.00     0.217 C 
HETATM   24  O2  UNL     1       6.973  19.822  17.483  1.00  0.00    -0.645 OA
HETATM   25  O3  UNL     1       7.618  18.371  19.090  1.00  0.00    -0.645 OA
ENDBRANCH   6  23
TORSDOF 6
ENDMDL
