MODEL 1
REMARK VINA RESULT: -5.959405843      0.000      0.000
REMARK  4 active torsions:
REMARK  status: ('A' for Active; 'I' for Inactive)
REMARK       I    between atoms: C2_5  and  N3_6 
REMARK       I    between atoms: C2_5  and  N8_20 
REMARK       I    between atoms: C3_8  and  N5_10 
REMARK    1  A    between atoms: N5_10  and  N6_12 
REMARK    2  A    between atoms: C4_14  and  C5_15 
REMARK    3  A    between atoms: C5_15  and  N7_16 
REMARK    4  A    between atoms: N8_20  and  C6_22 
ROOT
HETATM    1  N1  UNL     1      16.283  34.971  15.493  1.00  0.00    -0.171 NA
HETATM    2  C1  UNL     1      17.286  35.296  15.948  1.00  0.00     0.196 C 
HETATM    3  N2  UNL     1      18.505  35.705  16.484  1.00  0.00    -0.126 N 
ATOM      4  H2  UNL     1      18.652  35.683  17.493  1.00  0.00     0.197 HD
HETATM    5  C2  UNL     1      19.442  36.111  15.708  1.00  0.00     0.695 C 
HETATM    6  N3  UNL     1      20.652  36.511  16.329  1.00  0.00    -0.161 N 
ATOM      7  H3  UNL     1      20.594  37.119  17.147  1.00  0.00     0.187 HD
HETATM    8  C3  UNL     1      21.812  36.155  15.927  1.00  0.00     0.221 C 
HETATM    9  N4  UNL     1      21.939  35.307  14.793  1.00  0.00    -0.061 NA
HETATM   10  N5  UNL     1      22.968  36.602  16.609  1.00  0.00    -0.274 N 
ATOM     11  H5  UNL     1      23.242  37.581  16.521  1.00  0.00     0.189 HD
HETATM   12  N8  UNL     1      19.228  36.138  14.316  1.00  0.00    -0.168 N 
ATOM     13  H8  UNL     1      19.220  35.265  13.789  1.00  0.00     0.186 HD
ENDROOT
BRANCH  12  14
HETATM   14  C6  UNL     1      19.038  37.278  13.687  1.00  0.00     0.183 A 
HETATM   15  N9  UNL     1      18.303  37.505  12.594  1.00  0.00    -0.276 N 
HETATM   16  N10 UNL     1      18.241  38.688  12.129  1.00  0.00    -0.258 N 
ATOM     17  H9  UNL     1      17.801  36.742  12.140  1.00  0.00     0.189 HD
HETATM   18  C7  UNL     1      18.907  39.665  12.742  1.00  0.00     0.305 A 
ATOM     19  H10 UNL     1      17.687  38.885  11.296  1.00  0.00     0.191 HD
HETATM   20  O1  UNL     1      18.962  40.907  12.420  1.00  0.00    -0.258 OA
HETATM   21  S1  UNL     1      19.649  38.832  14.040  1.00  0.00     0.010 SA
ENDBRANCH  12  14
BRANCH  10  22
HETATM   22  N6  UNL     1      23.745  35.760  17.395  1.00  0.00    -0.312 N 
HETATM   23  C4  UNL     1      24.994  36.024  17.553  1.00  0.00     0.107 C 
ATOM     24  H6  UNL     1      23.330  34.942  17.841  1.00  0.00     0.185 HD
BRANCH  23  25
HETATM   25  C5  UNL     1      25.898  35.183  18.372  1.00  0.00     0.275 C 
BRANCH  25  26
HETATM   26  N7  UNL     1      26.511  35.996  19.420  1.00  0.00    -0.075 N 
ATOM     27  H73 UNL     1      26.366  35.598  20.348  1.00  0.00     0.274 HD
ATOM     28  H72 UNL     1      27.529  35.950  19.396  1.00  0.00     0.274 HD
ATOM     29  H71 UNL     1      26.169  36.955  19.356  1.00  0.00     0.274 HD
ENDBRANCH  25  26
ENDBRANCH  23  25
ENDBRANCH  10  22
TORSDOF 4
ENDMDL
MODEL 2
REMARK VINA RESULT: -5.908420338      3.220      7.036
REMARK  4 active torsions:
REMARK  status: ('A' for Active; 'I' for Inactive)
REMARK       I    between atoms: C2_5  and  N3_6 
REMARK       I    between atoms: C2_5  and  N8_20 
REMARK       I    between atoms: C3_8  and  N5_10 
REMARK    1  A    between atoms: N5_10  and  N6_12 
REMARK    2  A    between atoms: C4_14  and  C5_15 
REMARK    3  A    between atoms: C5_15  and  N7_16 
REMARK    4  A    between atoms: N8_20  and  C6_22 
ROOT
HETATM    1  N1  UNL     1      16.559  34.930  13.685  1.00  0.00    -0.171 NA
HETATM    2  C1  UNL     1      17.045  35.822  13.149  1.00  0.00     0.196 C 
HETATM    3  N2  UNL     1      17.654  36.900  12.511  1.00  0.00    -0.126 N 
ATOM      4  H2  UNL     1      17.424  37.115  11.541  1.00  0.00     0.197 HD
HETATM    5  C2  UNL     1      18.505  37.621  13.143  1.00  0.00     0.695 C 
HETATM    6  N3  UNL     1      19.081  38.700  12.425  1.00  0.00    -0.161 N 
ATOM      7  H3  UNL     1      19.417  38.522  11.478  1.00  0.00     0.187 HD
HETATM    8  C3  UNL     1      19.204  39.884  12.893  1.00  0.00     0.221 C 
HETATM    9  N4  UNL     1      18.748  40.177  14.207  1.00  0.00    -0.061 NA
HETATM   10  N5  UNL     1      19.792  40.901  12.104  1.00  0.00    -0.274 N 
ATOM     11  H5  UNL     1      20.797  40.868  11.931  1.00  0.00     0.189 HD
HETATM   12  N8  UNL     1      18.816  37.315  14.483  1.00  0.00    -0.168 N 
ATOM     13  H8  UNL     1      18.143  37.529  15.219  1.00  0.00     0.186 HD
ENDROOT
BRANCH  12  14
HETATM   14  C6  UNL     1      19.965  36.757  14.795  1.00  0.00     0.183 A 
HETATM   15  N9  UNL     1      20.558  35.709  14.215  1.00  0.00    -0.276 N 
HETATM   16  N10 UNL     1      21.680  35.311  14.663  1.00  0.00    -0.258 N 
ATOM     17  H9  UNL     1      20.118  35.237  13.425  1.00  0.00     0.189 HD
HETATM   18  C7  UNL     1      22.233  35.946  15.696  1.00  0.00     0.305 A 
ATOM     19  H10 UNL     1      22.152  34.513  14.237  1.00  0.00     0.191 HD
HETATM   20  O1  UNL     1      23.348  35.689  16.277  1.00  0.00    -0.258 OA
HETATM   21  S1  UNL     1      21.078  37.166  16.024  1.00  0.00     0.010 SA
ENDBRANCH  12  14
BRANCH  10  22
HETATM   22  N6  UNL     1      19.054  41.942  11.556  1.00  0.00    -0.312 N 
HETATM   23  C4  UNL     1      19.473  43.150  11.696  1.00  0.00     0.107 C 
ATOM     24  H6  UNL     1      18.190  41.751  11.049  1.00  0.00     0.185 HD
BRANCH  23  25
HETATM   25  C5  UNL     1      18.752  44.321  11.146  1.00  0.00     0.275 C 
BRANCH  25  26
HETATM   26  N7  UNL     1      17.394  43.932  10.770  1.00  0.00    -0.075 N 
ATOM     27  H73 UNL     1      17.322  42.934  10.570  1.00  0.00     0.274 HD
ATOM     28  H72 UNL     1      16.750  43.971  11.559  1.00  0.00     0.274 HD
ATOM     29  H71 UNL     1      17.077  44.504   9.987  1.00  0.00     0.274 HD
ENDBRANCH  25  26
ENDBRANCH  23  25
ENDBRANCH  10  22
TORSDOF 4
ENDMDL
MODEL 3
REMARK VINA RESULT: -5.859851253      5.384      8.783
REMARK  4 active torsions:
REMARK  status: ('A' for Active; 'I' for Inactive)
REMARK       I    between atoms: C2_5  and  N3_6 
REMARK       I    between atoms: C2_5  and  N8_20 
REMARK       I    between atoms: C3_8  and  N5_10 
REMARK    1  A    between atoms: N5_10  and  N6_12 
REMARK    2  A    between atoms: C4_14  and  C5_15 
REMARK    3  A    between atoms: C5_15  and  N7_16 
REMARK    4  A    between atoms: N8_20  and  C6_22 
ROOT
HETATM    1  N1  UNL     1      17.822  46.189   9.062  1.00  0.00    -0.171 NA
HETATM    2  C1  UNL     1      17.748  45.297   9.783  1.00  0.00     0.196 C 
HETATM    3  N2  UNL     1      17.678  44.224  10.668  1.00  0.00    -0.126 N 
ATOM      4  H2  UNL     1      16.771  43.855  10.951  1.00  0.00     0.197 HD
HETATM    5  C2  UNL     1      18.754  43.700  11.127  1.00  0.00     0.695 C 
HETATM    6  N3  UNL     1      18.600  42.611  12.022  1.00  0.00    -0.161 N 
ATOM      7  H3  UNL     1      17.913  42.700  12.772  1.00  0.00     0.187 HD
HETATM    8  C3  UNL     1      19.270  41.525  11.946  1.00  0.00     0.221 C 
HETATM    9  N4  UNL     1      20.235  41.358  10.917  1.00  0.00    -0.061 NA
HETATM   10  N5  UNL     1      19.049  40.489  12.884  1.00  0.00    -0.274 N 
ATOM     11  H5  UNL     1      19.373  40.617  13.843  1.00  0.00     0.189 HD
HETATM   12  N8  UNL     1      20.003  44.219  10.730  1.00  0.00    -0.168 N 
ATOM     13  H8  UNL     1      20.354  44.027   9.792  1.00  0.00     0.186 HD
ENDROOT
BRANCH  12  14
HETATM   14  C6  UNL     1      20.722  44.947  11.556  1.00  0.00     0.183 A 
HETATM   15  N9  UNL     1      21.331  46.112  11.313  1.00  0.00    -0.276 N 
HETATM   16  N10 UNL     1      21.987  46.670  12.250  1.00  0.00    -0.258 N 
ATOM     17  H9  UNL     1      21.271  46.546  10.392  1.00  0.00     0.189 HD
HETATM   18  C7  UNL     1      22.049  46.082  13.444  1.00  0.00     0.305 A 
ATOM     19  H10 UNL     1      22.460  47.559  12.088  1.00  0.00     0.191 HD
HETATM   20  O1  UNL     1      22.657  46.493  14.497  1.00  0.00    -0.258 OA
HETATM   21  S1  UNL     1      21.119  44.667  13.192  1.00  0.00     0.010 SA
ENDBRANCH  12  14
BRANCH  10  22
HETATM   22  N6  UNL     1      18.407  39.302  12.550  1.00  0.00    -0.312 N 
HETATM   23  C4  UNL     1      18.789  38.206  13.102  1.00  0.00     0.107 C 
ATOM     24  H6  UNL     1      17.643  39.301  11.875  1.00  0.00     0.185 HD
BRANCH  23  25
HETATM   25  C5  UNL     1      18.164  36.895  12.807  1.00  0.00     0.275 C 
BRANCH  25  26
HETATM   26  N7  UNL     1      19.131  35.825  13.040  1.00  0.00    -0.075 N 
ATOM     27  H73 UNL     1      19.267  35.243  12.214  1.00  0.00     0.274 HD
ATOM     28  H72 UNL     1      20.083  36.179  13.129  1.00  0.00     0.274 HD
ATOM     29  H71 UNL     1      18.848  35.277  13.853  1.00  0.00     0.274 HD
ENDBRANCH  25  26
ENDBRANCH  23  25
ENDBRANCH  10  22
TORSDOF 4
ENDMDL
MODEL 4
REMARK VINA RESULT: -5.749994214      3.213      7.176
REMARK  4 active torsions:
REMARK  status: ('A' for Active; 'I' for Inactive)
REMARK       I    between atoms: C2_5  and  N3_6 
REMARK       I    between atoms: C2_5  and  N8_20 
REMARK       I    between atoms: C3_8  and  N5_10 
REMARK    1  A    between atoms: N5_10  and  N6_12 
REMARK    2  A    between atoms: C4_14  and  C5_15 
REMARK    3  A    between atoms: C5_15  and  N7_16 
REMARK    4  A    between atoms: N8_20  and  C6_22 
ROOT
HETATM    1  N1  UNL     1      17.004  34.929  13.535  1.00  0.00    -0.171 NA
HETATM    2  C1  UNL     1      17.474  35.861  13.053  1.00  0.00     0.196 C 
HETATM    3  N2  UNL     1      18.062  36.988  12.485  1.00  0.00    -0.126 N 
ATOM      4  H2  UNL     1      17.960  37.168  11.487  1.00  0.00     0.197 HD
HETATM    5  C2  UNL     1      18.733  37.799  13.218  1.00  0.00     0.695 C 
HETATM    6  N3  UNL     1      19.300  38.923  12.565  1.00  0.00    -0.161 N 
ATOM      7  H3  UNL     1      19.791  38.769  11.684  1.00  0.00     0.187 HD
HETATM    8  C3  UNL     1      19.234  40.118  13.016  1.00  0.00     0.221 C 
HETATM    9  N4  UNL     1      18.560  40.378  14.239  1.00  0.00    -0.061 NA
HETATM   10  N5  UNL     1      19.831  41.181  12.297  1.00  0.00    -0.274 N 
ATOM     11  H5  UNL     1      20.848  41.249  12.275  1.00  0.00     0.189 HD
HETATM   12  N8  UNL     1      18.868  37.541  14.596  1.00  0.00    -0.168 N 
ATOM     13  H8  UNL     1      18.075  37.692  15.218  1.00  0.00     0.186 HD
ENDROOT
BRANCH  12  14
HETATM   14  C6  UNL     1      20.007  37.105  15.089  1.00  0.00     0.183 A 
HETATM   15  N9  UNL     1      20.784  37.686  16.008  1.00  0.00    -0.276 N 
HETATM   16  N10 UNL     1      21.860  37.105  16.361  1.00  0.00    -0.258 N 
ATOM     17  H9  UNL     1      20.519  38.582  16.420  1.00  0.00     0.189 HD
HETATM   18  C7  UNL     1      22.182  35.937  15.808  1.00  0.00     0.305 A 
ATOM     19  H10 UNL     1      22.469  37.530  17.060  1.00  0.00     0.191 HD
HETATM   20  O1  UNL     1      23.216  35.212  16.037  1.00  0.00    -0.258 OA
HETATM   21  S1  UNL     1      20.872  35.676  14.737  1.00  0.00     0.010 SA
ENDBRANCH  12  14
BRANCH  10  22
HETATM   22  N6  UNL     1      19.083  42.136  11.618  1.00  0.00    -0.312 N 
HETATM   23  C4  UNL     1      19.464  43.364  11.642  1.00  0.00     0.107 C 
ATOM     24  H6  UNL     1      18.243  41.866  11.107  1.00  0.00     0.185 HD
BRANCH  23  25
HETATM   25  C5  UNL     1      18.731  44.448  10.949  1.00  0.00     0.275 C 
BRANCH  25  26
HETATM   26  N7  UNL     1      17.385  43.993  10.608  1.00  0.00    -0.075 N 
ATOM     27  H73 UNL     1      17.221  43.998   9.601  1.00  0.00     0.274 HD
ATOM     28  H72 UNL     1      17.264  42.994  10.773  1.00  0.00     0.274 HD
ATOM     29  H71 UNL     1      16.696  44.551  11.112  1.00  0.00     0.274 HD
ENDBRANCH  25  26
ENDBRANCH  23  25
ENDBRANCH  10  22
TORSDOF 4
ENDMDL
MODEL 5
REMARK VINA RESULT: -5.202645599      5.645      8.546
REMARK  4 active torsions:
REMARK  status: ('A' for Active; 'I' for Inactive)
REMARK       I    between atoms: C2_5  and  N3_6 
REMARK       I    between atoms: C2_5  and  N8_20 
REMARK       I    between atoms: C3_8  and  N5_10 
REMARK    1  A    between atoms: N5_10  and  N6_12 
REMARK    2  A    between atoms: C4_14  and  C5_15 
REMARK    3  A    between atoms: C5_15  and  N7_16 
REMARK    4  A    between atoms: N8_20  and  C6_22 
ROOT
HETATM    1  N1  UNL     1      18.088  46.032   9.578  1.00  0.00    -0.171 NA
HETATM    2  C1  UNL     1      17.936  45.070  10.189  1.00  0.00     0.196 C 
HETATM    3  N2  UNL     1      17.771  43.912  10.944  1.00  0.00    -0.126 N 
ATOM      4  H2  UNL     1      16.836  43.533  11.098  1.00  0.00     0.197 HD
HETATM    5  C2  UNL     1      18.792  43.321  11.444  1.00  0.00     0.695 C 
HETATM    6  N3  UNL     1      18.541  42.147  12.199  1.00  0.00    -0.161 N 
ATOM      7  H3  UNL     1      17.787  42.170  12.885  1.00  0.00     0.187 HD
HETATM    8  C3  UNL     1      19.204  41.061  12.071  1.00  0.00     0.221 C 
HETATM    9  N4  UNL     1      20.263  40.984  11.126  1.00  0.00    -0.061 NA
HETATM   10  N5  UNL     1      18.884  39.936  12.868  1.00  0.00    -0.274 N 
ATOM     11  H5  UNL     1      19.115  39.956  13.861  1.00  0.00     0.189 HD
HETATM   12  N8  UNL     1      20.079  43.853  11.225  1.00  0.00    -0.168 N 
ATOM     13  H8  UNL     1      20.516  43.754  10.309  1.00  0.00     0.186 HD
ENDROOT
BRANCH  12  14
HETATM   14  C6  UNL     1      20.722  44.475  12.188  1.00  0.00     0.183 A 
HETATM   15  N9  UNL     1      20.928  44.063  13.443  1.00  0.00    -0.276 N 
HETATM   16  N10 UNL     1      21.580  44.813  14.237  1.00  0.00    -0.258 N 
ATOM     17  H9  UNL     1      20.568  43.162  13.758  1.00  0.00     0.189 HD
HETATM   18  C7  UNL     1      22.039  45.985  13.800  1.00  0.00     0.305 A 
ATOM     19  H10 UNL     1      21.750  44.520  15.200  1.00  0.00     0.191 HD
HETATM   20  O1  UNL     1      22.710  46.864  14.451  1.00  0.00    -0.258 OA
HETATM   21  S1  UNL     1      21.502  45.994  12.174  1.00  0.00     0.010 SA
ENDBRANCH  12  14
BRANCH  10  22
HETATM   22  N6  UNL     1      18.265  38.805  12.349  1.00  0.00    -0.312 N 
HETATM   23  C4  UNL     1      18.398  37.681  12.960  1.00  0.00     0.107 C 
ATOM     24  H6  UNL     1      17.712  38.865  11.495  1.00  0.00     0.185 HD
BRANCH  23  25
HETATM   25  C5  UNL     1      17.776  36.425  12.481  1.00  0.00     0.275 C 
BRANCH  25  26
HETATM   26  N7  UNL     1      18.816  35.445  12.177  1.00  0.00    -0.075 N 
ATOM     27  H73 UNL     1      19.352  35.184  13.005  1.00  0.00     0.274 HD
ATOM     28  H72 UNL     1      18.428  34.528  11.957  1.00  0.00     0.274 HD
ATOM     29  H71 UNL     1      19.413  35.798  11.429  1.00  0.00     0.274 HD
ENDBRANCH  25  26
ENDBRANCH  23  25
ENDBRANCH  10  22
TORSDOF 4
ENDMDL
