MODEL 1
REMARK VINA RESULT: -6.985393297      0.000      0.000
REMARK  3 active torsions:
REMARK  status: ('A' for Active; 'I' for Inactive)
REMARK    1  A    between atoms: S1_2  and  N1_5 
REMARK    2  A    between atoms: C4_8  and  N2_9 
REMARK       I    between atoms: N2_9  and  C5_11 
REMARK       I    between atoms: C5_11  and  N4_15 
REMARK       I    between atoms: N4_15  and  C6_17 
REMARK       I    between atoms: C6_17  and  N6_21 
REMARK    3  A    between atoms: N6_21  and  C7_23 
ROOT
HETATM    1  N2  UNL     1     -27.501 -20.533 -21.441  1.00  0.00    -0.213 N 
ATOM      2  H2  UNL     1     -27.423 -20.998 -22.345  1.00  0.00     0.178 HD
HETATM    3  C5  UNL     1     -28.098 -21.229 -20.358  1.00  0.00     0.686 C 
HETATM    4  N3  UNL     1     -27.421 -22.176 -19.804  1.00  0.00    -0.234 N 
ATOM      5  H31 UNL     1     -27.850 -22.676 -19.025  1.00  0.00     0.174 HD
ATOM      6  H32 UNL     1     -26.487 -22.401 -20.147  1.00  0.00     0.174 HD
HETATM    7  N4  UNL     1     -29.393 -20.917 -19.882  1.00  0.00    -0.023 N 
ATOM      8  H4  UNL     1     -29.763 -19.977 -20.017  1.00  0.00     0.203 HD
HETATM    9  C6  UNL     1     -30.180 -21.888 -19.223  1.00  0.00     0.692 C 
HETATM   10  N5  UNL     1     -30.553 -22.979 -19.843  1.00  0.00    -0.234 N 
ATOM     11  H51 UNL     1     -31.122 -23.680 -19.367  1.00  0.00     0.174 HD
ATOM     12  H52 UNL     1     -30.250 -23.092 -20.811  1.00  0.00     0.174 HD
HETATM   13  N6  UNL     1     -30.602 -21.731 -17.876  1.00  0.00    -0.167 N 
ATOM     14  H6  UNL     1     -31.170 -22.458 -17.440  1.00  0.00     0.186 HD
ENDROOT
BRANCH   1  15
HETATM   15  C4  UNL     1     -27.003 -19.195 -21.303  1.00  0.00     0.194 C 
HETATM   16  C3  UNL     1     -26.349 -18.670 -22.536  1.00  0.00     0.056 C 
HETATM   17  C2  UNL     1     -24.862 -18.571 -22.273  1.00  0.00     0.147 C 
HETATM   18  N1  UNL     1     -24.831 -18.326 -20.846  1.00  0.00    -0.244 N 
HETATM   19  C8  UNL     1     -25.913 -19.066 -20.300  1.00  0.00     0.256 C 
HETATM   20  O4  UNL     1     -25.918 -19.535 -19.124  1.00  0.00    -0.270 OA
BRANCH  18  21
HETATM   21  S1  UNL     1     -23.683 -17.327 -20.021  1.00  0.00     0.231 S 
HETATM   22  C1  UNL     1     -24.079 -17.155 -18.305  1.00  0.00     0.186 C 
HETATM   23  O1  UNL     1     -22.301 -17.858 -20.167  1.00  0.00    -0.206 OA
HETATM   24  O2  UNL     1     -23.719 -15.973 -20.670  1.00  0.00    -0.206 OA
ENDBRANCH  18  21
ENDBRANCH   1  15
BRANCH  13  25
HETATM   25  C7  UNL     1     -30.249 -20.588 -17.128  1.00  0.00     0.368 C 
HETATM   26  O3  UNL     1     -29.088 -20.157 -17.061  1.00  0.00    -0.283 OA
ENDBRANCH  13  25
TORSDOF 3
ENDMDL
MODEL 2
REMARK VINA RESULT: -6.770676835      0.860      1.008
REMARK  3 active torsions:
REMARK  status: ('A' for Active; 'I' for Inactive)
REMARK    1  A    between atoms: S1_2  and  N1_5 
REMARK    2  A    between atoms: C4_8  and  N2_9 
REMARK       I    between atoms: N2_9  and  C5_11 
REMARK       I    between atoms: C5_11  and  N4_15 
REMARK       I    between atoms: N4_15  and  C6_17 
REMARK       I    between atoms: C6_17  and  N6_21 
REMARK    3  A    between atoms: N6_21  and  C7_23 
ROOT
HETATM    1  N2  UNL     1     -27.505 -20.540 -21.477  1.00  0.00    -0.213 N 
ATOM      2  H2  UNL     1     -27.407 -21.021 -22.371  1.00  0.00     0.178 HD
HETATM    3  C5  UNL     1     -28.077 -21.236 -20.381  1.00  0.00     0.686 C 
HETATM    4  N3  UNL     1     -27.365 -22.143 -19.804  1.00  0.00    -0.234 N 
ATOM      5  H31 UNL     1     -27.776 -22.642 -19.016  1.00  0.00     0.174 HD
ATOM      6  H32 UNL     1     -26.422 -22.338 -20.141  1.00  0.00     0.174 HD
HETATM    7  N4  UNL     1     -29.384 -20.965 -19.914  1.00  0.00    -0.023 N 
ATOM      8  H4  UNL     1     -29.791 -20.043 -20.070  1.00  0.00     0.203 HD
HETATM    9  C6  UNL     1     -30.134 -21.951 -19.235  1.00  0.00     0.692 C 
HETATM   10  N5  UNL     1     -30.462 -23.070 -19.832  1.00  0.00    -0.234 N 
ATOM     11  H51 UNL     1     -31.004 -23.781 -19.341  1.00  0.00     0.174 HD
ATOM     12  H52 UNL     1     -30.153 -23.191 -20.796  1.00  0.00     0.174 HD
HETATM   13  N6  UNL     1     -30.566 -21.782 -17.892  1.00  0.00    -0.167 N 
ATOM     14  H6  UNL     1     -31.106 -22.521 -17.442  1.00  0.00     0.186 HD
ENDROOT
BRANCH   1  15
HETATM   15  C4  UNL     1     -27.060 -19.181 -21.368  1.00  0.00     0.194 C 
HETATM   16  C3  UNL     1     -26.415 -18.661 -22.607  1.00  0.00     0.056 C 
HETATM   17  C2  UNL     1     -24.936 -18.498 -22.333  1.00  0.00     0.147 C 
HETATM   18  N1  UNL     1     -24.928 -18.217 -20.912  1.00  0.00    -0.244 N 
HETATM   19  C8  UNL     1     -25.987 -18.985 -20.358  1.00  0.00     0.256 C 
HETATM   20  O4  UNL     1     -25.986 -19.425 -19.171  1.00  0.00    -0.270 OA
BRANCH  18  21
HETATM   21  S1  UNL     1     -23.828 -17.155 -20.102  1.00  0.00     0.231 S 
HETATM   22  C1  UNL     1     -22.191 -17.822 -20.051  1.00  0.00     0.186 C 
HETATM   23  O1  UNL     1     -23.804 -15.812 -20.741  1.00  0.00    -0.206 OA
HETATM   24  O2  UNL     1     -24.329 -16.978 -18.696  1.00  0.00    -0.206 OA
ENDBRANCH  18  21
ENDBRANCH   1  15
BRANCH  13  25
HETATM   25  C7  UNL     1     -30.260 -20.609 -17.169  1.00  0.00     0.368 C 
HETATM   26  O3  UNL     1     -29.103 -20.185 -17.029  1.00  0.00    -0.283 OA
ENDBRANCH  13  25
TORSDOF 3
ENDMDL
MODEL 3
REMARK VINA RESULT: -5.856027389      3.850      5.638
REMARK  3 active torsions:
REMARK  status: ('A' for Active; 'I' for Inactive)
REMARK    1  A    between atoms: S1_2  and  N1_5 
REMARK    2  A    between atoms: C4_8  and  N2_9 
REMARK       I    between atoms: N2_9  and  C5_11 
REMARK       I    between atoms: C5_11  and  N4_15 
REMARK       I    between atoms: N4_15  and  C6_17 
REMARK       I    between atoms: C6_17  and  N6_21 
REMARK    3  A    between atoms: N6_21  and  C7_23 
ROOT
HETATM    1  N2  UNL     1     -26.226 -19.398 -21.804  1.00  0.00    -0.213 N 
ATOM      2  H2  UNL     1     -26.838 -20.112 -21.410  1.00  0.00     0.178 HD
HETATM    3  C5  UNL     1     -26.691 -18.622 -22.898  1.00  0.00     0.686 C 
HETATM    4  N3  UNL     1     -27.580 -17.719 -22.661  1.00  0.00    -0.234 N 
ATOM      5  H31 UNL     1     -27.914 -17.161 -23.447  1.00  0.00     0.174 HD
ATOM      6  H32 UNL     1     -27.925 -17.582 -21.711  1.00  0.00     0.174 HD
HETATM    7  N4  UNL     1     -26.213 -18.811 -24.215  1.00  0.00    -0.023 N 
ATOM      8  H4  UNL     1     -25.283 -19.205 -24.359  1.00  0.00     0.203 HD
HETATM    9  C6  UNL     1     -27.002 -18.464 -25.334  1.00  0.00     0.692 C 
HETATM   10  N5  UNL     1     -28.151 -19.055 -25.549  1.00  0.00    -0.234 N 
ATOM     11  H51 UNL     1     -28.721 -18.804 -26.357  1.00  0.00     0.174 HD
ATOM     12  H52 UNL     1     -28.442 -19.766 -24.879  1.00  0.00     0.174 HD
HETATM   13  N6  UNL     1     -26.598 -17.473 -26.268  1.00  0.00    -0.167 N 
ATOM     14  H6  UNL     1     -27.200 -17.256 -27.061  1.00  0.00     0.186 HD
ENDROOT
BRANCH   1  15
HETATM   15  C4  UNL     1     -24.923 -19.208 -21.235  1.00  0.00     0.194 C 
HETATM   16  C3  UNL     1     -24.713 -19.949 -19.959  1.00  0.00     0.056 C 
HETATM   17  C2  UNL     1     -24.653 -18.939 -18.834  1.00  0.00     0.147 C 
HETATM   18  N1  UNL     1     -24.114 -17.777 -19.509  1.00  0.00    -0.244 N 
HETATM   19  C8  UNL     1     -24.652 -17.805 -20.823  1.00  0.00     0.256 C 
HETATM   20  O4  UNL     1     -24.859 -16.767 -21.517  1.00  0.00    -0.270 OA
BRANCH  18  21
HETATM   21  S1  UNL     1     -23.036 -16.617 -18.810  1.00  0.00     0.231 S 
HETATM   22  C1  UNL     1     -21.602 -16.367 -19.816  1.00  0.00     0.186 C 
HETATM   23  O1  UNL     1     -23.719 -15.316 -18.577  1.00  0.00    -0.206 OA
HETATM   24  O2  UNL     1     -22.608 -17.151 -17.473  1.00  0.00    -0.206 OA
ENDBRANCH  18  21
ENDBRANCH   1  15
BRANCH  13  25
HETATM   25  C7  UNL     1     -25.375 -16.784 -26.117  1.00  0.00     0.368 C 
HETATM   26  O3  UNL     1     -24.350 -17.318 -25.667  1.00  0.00    -0.283 OA
ENDBRANCH  13  25
TORSDOF 3
ENDMDL
MODEL 4
REMARK VINA RESULT: -5.777278078      4.100      7.752
REMARK  3 active torsions:
REMARK  status: ('A' for Active; 'I' for Inactive)
REMARK    1  A    between atoms: S1_2  and  N1_5 
REMARK    2  A    between atoms: C4_8  and  N2_9 
REMARK       I    between atoms: N2_9  and  C5_11 
REMARK       I    between atoms: C5_11  and  N4_15 
REMARK       I    between atoms: N4_15  and  C6_17 
REMARK       I    between atoms: C6_17  and  N6_21 
REMARK    3  A    between atoms: N6_21  and  C7_23 
ROOT
HETATM    1  N2  UNL     1     -28.827 -21.668 -18.985  1.00  0.00    -0.213 N 
ATOM      2  H2  UNL     1     -28.454 -22.136 -18.160  1.00  0.00     0.178 HD
HETATM    3  C5  UNL     1     -27.961 -21.399 -20.075  1.00  0.00     0.686 C 
HETATM    4  N3  UNL     1     -27.597 -22.391 -20.814  1.00  0.00    -0.234 N 
ATOM      5  H31 UNL     1     -26.974 -22.198 -21.599  1.00  0.00     0.174 HD
ATOM      6  H32 UNL     1     -27.933 -23.331 -20.605  1.00  0.00     0.174 HD
HETATM    7  N4  UNL     1     -27.494 -20.096 -20.366  1.00  0.00    -0.023 N 
ATOM      8  H4  UNL     1     -28.045 -19.290 -20.074  1.00  0.00     0.203 HD
HETATM    9  C6  UNL     1     -26.276 -19.895 -21.053  1.00  0.00     0.692 C 
HETATM   10  N5  UNL     1     -25.143 -20.304 -20.538  1.00  0.00    -0.234 N 
ATOM     11  H51 UNL     1     -24.264 -20.158 -21.035  1.00  0.00     0.174 HD
ATOM     12  H52 UNL     1     -25.184 -20.768 -19.631  1.00  0.00     0.174 HD
HETATM   13  N6  UNL     1     -26.218 -19.248 -22.316  1.00  0.00    -0.167 N 
ATOM     14  H6  UNL     1     -25.315 -19.125 -22.776  1.00  0.00     0.186 HD
ENDROOT
BRANCH   1  15
HETATM   15  C4  UNL     1     -30.214 -21.300 -19.006  1.00  0.00     0.194 C 
HETATM   16  C3  UNL     1     -30.649 -20.534 -17.803  1.00  0.00     0.056 C 
HETATM   17  C2  UNL     1     -31.554 -21.426 -16.981  1.00  0.00     0.147 C 
HETATM   18  N1  UNL     1     -32.149 -22.263 -18.002  1.00  0.00    -0.244 N 
HETATM   19  C8  UNL     1     -31.139 -22.464 -18.979  1.00  0.00     0.256 C 
HETATM   20  O4  UNL     1     -31.064 -23.498 -19.707  1.00  0.00    -0.270 OA
BRANCH  18  21
HETATM   21  S1  UNL     1     -33.769 -22.872 -17.985  1.00  0.00     0.231 S 
HETATM   22  C1  UNL     1     -34.542 -22.719 -19.569  1.00  0.00     0.186 C 
HETATM   23  O1  UNL     1     -33.809 -24.292 -17.543  1.00  0.00    -0.206 OA
HETATM   24  O2  UNL     1     -34.542 -22.063 -16.983  1.00  0.00    -0.206 OA
ENDBRANCH  18  21
ENDBRANCH   1  15
BRANCH  13  25
HETATM   25  C7  UNL     1     -27.387 -18.774 -22.948  1.00  0.00     0.368 C 
HETATM   26  O3  UNL     1     -28.140 -19.503 -23.610  1.00  0.00    -0.283 OA
ENDBRANCH  13  25
TORSDOF 3
ENDMDL
MODEL 5
REMARK VINA RESULT: -5.619488255      7.420      9.388
REMARK  3 active torsions:
REMARK  status: ('A' for Active; 'I' for Inactive)
REMARK    1  A    between atoms: S1_2  and  N1_5 
REMARK    2  A    between atoms: C4_8  and  N2_9 
REMARK       I    between atoms: N2_9  and  C5_11 
REMARK       I    between atoms: C5_11  and  N4_15 
REMARK       I    between atoms: N4_15  and  C6_17 
REMARK       I    between atoms: C6_17  and  N6_21 
REMARK    3  A    between atoms: N6_21  and  C7_23 
ROOT
HETATM    1  N2  UNL     1     -31.688 -21.317 -16.831  1.00  0.00    -0.213 N 
ATOM      2  H2  UNL     1     -31.668 -20.339 -16.542  1.00  0.00     0.178 HD
HETATM    3  C5  UNL     1     -31.918 -21.626 -18.197  1.00  0.00     0.686 C 
HETATM    4  N3  UNL     1     -30.962 -21.407 -19.034  1.00  0.00    -0.234 N 
ATOM      5  H31 UNL     1     -31.127 -21.630 -20.015  1.00  0.00     0.174 HD
ATOM      6  H32 UNL     1     -30.076 -21.025 -18.704  1.00  0.00     0.174 HD
HETATM    7  N4  UNL     1     -33.147 -22.156 -18.654  1.00  0.00    -0.023 N 
ATOM      8  H4  UNL     1     -33.735 -22.685 -18.011  1.00  0.00     0.203 HD
HETATM    9  C6  UNL     1     -33.572 -21.964 -19.988  1.00  0.00     0.692 C 
HETATM   10  N5  UNL     1     -33.794 -20.759 -20.451  1.00  0.00    -0.234 N 
ATOM     11  H51 UNL     1     -34.101 -20.620 -21.414  1.00  0.00     0.174 HD
ATOM     12  H52 UNL     1     -33.647 -19.979 -19.810  1.00  0.00     0.174 HD
HETATM   13  N6  UNL     1     -33.777 -23.049 -20.881  1.00  0.00    -0.167 N 
ATOM     14  H6  UNL     1     -34.085 -22.862 -21.835  1.00  0.00     0.186 HD
ENDROOT
BRANCH   1  15
HETATM   15  C4  UNL     1     -31.484 -22.337 -15.844  1.00  0.00     0.194 C 
HETATM   16  C3  UNL     1     -31.502 -23.720 -16.399  1.00  0.00     0.056 C 
HETATM   17  C2  UNL     1     -32.766 -24.401 -15.919  1.00  0.00     0.147 C 
HETATM   18  N1  UNL     1     -32.991 -23.744 -14.648  1.00  0.00    -0.244 N 
HETATM   19  C8  UNL     1     -32.562 -22.401 -14.822  1.00  0.00     0.256 C 
HETATM   20  O4  UNL     1     -33.050 -21.423 -14.184  1.00  0.00    -0.270 OA
BRANCH  18  21
HETATM   21  S1  UNL     1     -33.653 -24.490 -13.234  1.00  0.00     0.231 S 
HETATM   22  C1  UNL     1     -34.541 -23.329 -12.237  1.00  0.00     0.186 C 
HETATM   23  O1  UNL     1     -34.540 -25.630 -13.588  1.00  0.00    -0.206 OA
HETATM   24  O2  UNL     1     -32.504 -25.040 -12.437  1.00  0.00    -0.206 OA
ENDBRANCH  18  21
ENDBRANCH   1  15
BRANCH  13  25
HETATM   25  C7  UNL     1     -33.563 -24.382 -20.470  1.00  0.00     0.368 C 
HETATM   26  O3  UNL     1     -34.091 -24.871 -19.461  1.00  0.00    -0.283 OA
ENDBRANCH  13  25
TORSDOF 3
ENDMDL
