MODEL 1
REMARK VINA RESULT: -4.958589636      0.000      0.000
REMARK  3 active torsions:
REMARK  status: ('A' for Active; 'I' for Inactive)
REMARK    1  A    between atoms: C3_4  and  C4_5 
REMARK    2  A    between atoms: C4_5  and  N1_6 
REMARK    3  A    between atoms: N1_6  and  C5_9 
ROOT
HETATM    1  N1  UNL     1      16.360 -35.401 -21.274  1.00  0.00    -0.067 N 
ATOM      2  H11 UNL     1      15.603 -35.341 -21.956  1.00  0.00     0.277 HD
ATOM      3  H12 UNL     1      15.835 -35.707 -20.455  1.00  0.00     0.277 HD
ENDROOT
BRANCH   1   4
HETATM    4  C4  UNL     1      16.929 -34.104 -21.046  1.00  0.00     0.264 C 
BRANCH   4   5
HETATM    5  C3  UNL     1      16.322 -33.142 -22.014  1.00  0.00     0.147 C 
HETATM    6  O1  UNL     1      17.290 -32.421 -22.692  1.00  0.00    -0.384 OA
HETATM    7  C2  UNL     1      16.930 -32.335 -24.015  1.00  0.00     0.168 C 
HETATM    8  C1  UNL     1      15.482 -32.758 -24.146  1.00  0.00     0.029 C 
HETATM    9  C9  UNL     1      15.404 -33.789 -23.013  1.00  0.00     0.036 C 
ENDBRANCH   4   5
ENDBRANCH   1   4
BRANCH   1  10
HETATM   10  C5  UNL     1      17.302 -36.401 -21.663  1.00  0.00     0.213 C 
HETATM   11  C6  UNL     1      16.756 -37.817 -21.441  1.00  0.00     0.062 C 
HETATM   12  C7  UNL     1      17.916 -38.607 -20.866  1.00  0.00     0.234 C 
HETATM   13  N2  UNL     1      19.074 -37.738 -21.062  1.00  0.00    -0.073 N 
HETATM   14  C8  UNL     1      18.509 -36.441 -20.719  1.00  0.00     0.265 C 
ATOM     15  H22 UNL     1      19.912 -38.001 -20.544  1.00  0.00     0.277 HD
ATOM     16  H21 UNL     1      19.516 -37.795 -21.979  1.00  0.00     0.277 HD
ENDBRANCH   1  10
TORSDOF 3
ENDMDL
MODEL 2
REMARK VINA RESULT: -4.572354199      1.080      1.228
REMARK  3 active torsions:
REMARK  status: ('A' for Active; 'I' for Inactive)
REMARK    1  A    between atoms: C3_4  and  C4_5 
REMARK    2  A    between atoms: C4_5  and  N1_6 
REMARK    3  A    between atoms: N1_6  and  C5_9 
ROOT
HETATM    1  N1  UNL     1      16.271 -35.633 -21.246  1.00  0.00    -0.067 N 
ATOM      2  H11 UNL     1      15.405 -35.830 -21.746  1.00  0.00     0.277 HD
ATOM      3  H12 UNL     1      15.969 -35.823 -20.290  1.00  0.00     0.277 HD
ENDROOT
BRANCH   1   4
HETATM    4  C4  UNL     1      16.628 -34.251 -21.390  1.00  0.00     0.264 C 
BRANCH   4   5
HETATM    5  C3  UNL     1      15.686 -33.616 -22.359  1.00  0.00     0.147 C 
HETATM    6  O1  UNL     1      14.865 -32.690 -21.740  1.00  0.00    -0.384 OA
HETATM    7  C2  UNL     1      14.763 -31.582 -22.547  1.00  0.00     0.168 C 
HETATM    8  C1  UNL     1      15.297 -31.937 -23.917  1.00  0.00     0.029 C 
HETATM    9  C9  UNL     1      16.370 -32.961 -23.526  1.00  0.00     0.036 C 
ENDBRANCH   4   5
ENDBRANCH   1   4
BRANCH   1  10
HETATM   10  C5  UNL     1      17.291 -36.553 -21.637  1.00  0.00     0.213 C 
HETATM   11  C6  UNL     1      16.879 -38.007 -21.378  1.00  0.00     0.062 C 
HETATM   12  C7  UNL     1      18.115 -38.679 -20.814  1.00  0.00     0.234 C 
HETATM   13  N2  UNL     1      19.187 -37.714 -21.050  1.00  0.00    -0.073 N 
HETATM   14  C8  UNL     1      18.515 -36.466 -20.719  1.00  0.00     0.265 C 
ATOM     15  H22 UNL     1      20.056 -37.891 -20.546  1.00  0.00     0.277 HD
ATOM     16  H21 UNL     1      19.614 -37.750 -21.976  1.00  0.00     0.277 HD
ENDBRANCH   1  10
TORSDOF 3
ENDMDL
MODEL 3
REMARK VINA RESULT: -4.524143330      0.780      1.214
REMARK  3 active torsions:
REMARK  status: ('A' for Active; 'I' for Inactive)
REMARK    1  A    between atoms: C3_4  and  C4_5 
REMARK    2  A    between atoms: C4_5  and  N1_6 
REMARK    3  A    between atoms: N1_6  and  C5_9 
ROOT
HETATM    1  N1  UNL     1      16.398 -35.104 -21.748  1.00  0.00    -0.067 N 
ATOM      2  H11 UNL     1      16.620 -35.166 -22.742  1.00  0.00     0.277 HD
ATOM      3  H12 UNL     1      15.382 -35.178 -21.791  1.00  0.00     0.277 HD
ENDROOT
BRANCH   1   4
HETATM    4  C4  UNL     1      16.784 -33.824 -21.230  1.00  0.00     0.264 C 
BRANCH   4   5
HETATM    5  C3  UNL     1      16.317 -32.768 -22.177  1.00  0.00     0.147 C 
HETATM    6  O1  UNL     1      17.355 -32.283 -22.952  1.00  0.00    -0.384 OA
HETATM    7  C2  UNL     1      16.911 -32.140 -24.245  1.00  0.00     0.168 C 
HETATM    8  C1  UNL     1      15.401 -32.242 -24.247  1.00  0.00     0.029 C 
HETATM    9  C9  UNL     1      15.200 -33.216 -23.078  1.00  0.00     0.036 C 
ENDBRANCH   4   5
ENDBRANCH   1   4
BRANCH   1  10
HETATM   10  C5  UNL     1      16.949 -36.219 -21.045  1.00  0.00     0.213 C 
HETATM   11  C6  UNL     1      18.402 -35.966 -20.623  1.00  0.00     0.062 C 
HETATM   12  C7  UNL     1      19.129 -37.268 -20.896  1.00  0.00     0.234 C 
HETATM   13  N2  UNL     1      18.060 -38.229 -21.158  1.00  0.00    -0.073 N 
HETATM   14  C8  UNL     1      17.156 -37.424 -21.967  1.00  0.00     0.265 C 
ATOM     15  H22 UNL     1      18.356 -39.111 -21.576  1.00  0.00     0.277 HD
ATOM     16  H21 UNL     1      17.644 -38.658 -20.331  1.00  0.00     0.277 HD
ENDBRANCH   1  10
TORSDOF 3
ENDMDL
MODEL 4
REMARK VINA RESULT: -4.508903835      1.139      1.300
REMARK  3 active torsions:
REMARK  status: ('A' for Active; 'I' for Inactive)
REMARK    1  A    between atoms: C3_4  and  C4_5 
REMARK    2  A    between atoms: C4_5  and  N1_6 
REMARK    3  A    between atoms: N1_6  and  C5_9 
ROOT
HETATM    1  N1  UNL     1      16.914 -35.848 -21.296  1.00  0.00    -0.067 N 
ATOM      2  H11 UNL     1      16.384 -36.027 -20.444  1.00  0.00     0.277 HD
ATOM      3  H12 UNL     1      17.480 -35.057 -20.987  1.00  0.00     0.277 HD
ENDROOT
BRANCH   1   4
HETATM    4  C4  UNL     1      16.035 -35.448 -22.357  1.00  0.00     0.264 C 
BRANCH   4   5
HETATM    5  C3  UNL     1      16.207 -33.983 -22.590  1.00  0.00     0.147 C 
HETATM    6  O1  UNL     1      16.093 -33.664 -23.932  1.00  0.00    -0.384 OA
HETATM    7  C2  UNL     1      15.348 -32.515 -24.049  1.00  0.00     0.168 C 
HETATM    8  C1  UNL     1      15.236 -31.875 -22.682  1.00  0.00     0.029 C 
HETATM    9  C9  UNL     1      15.255 -33.130 -21.800  1.00  0.00     0.036 C 
ENDBRANCH   4   5
ENDBRANCH   1   4
BRANCH   1  10
HETATM   10  C5  UNL     1      17.749 -36.964 -21.607  1.00  0.00     0.213 C 
HETATM   11  C6  UNL     1      17.083 -38.296 -21.235  1.00  0.00     0.062 C 
HETATM   12  C7  UNL     1      18.184 -39.132 -20.613  1.00  0.00     0.234 C 
HETATM   13  N2  UNL     1      19.410 -38.398 -20.919  1.00  0.00    -0.073 N 
HETATM   14  C8  UNL     1      18.976 -37.027 -20.692  1.00  0.00     0.265 C 
ATOM     15  H22 UNL     1      20.236 -38.688 -20.397  1.00  0.00     0.277 HD
ATOM     16  H21 UNL     1      19.815 -38.583 -21.836  1.00  0.00     0.277 HD
ENDBRANCH   1  10
TORSDOF 3
ENDMDL
MODEL 5
REMARK VINA RESULT: -4.283057208      2.154      5.162
REMARK  3 active torsions:
REMARK  status: ('A' for Active; 'I' for Inactive)
REMARK    1  A    between atoms: C3_4  and  C4_5 
REMARK    2  A    between atoms: C4_5  and  N1_6 
REMARK    3  A    between atoms: N1_6  and  C5_9 
ROOT
HETATM    1  N1  UNL     1      15.662 -33.733 -21.153  1.00  0.00    -0.067 N 
ATOM      2  H11 UNL     1      15.425 -33.044 -20.439  1.00  0.00     0.277 HD
ATOM      3  H12 UNL     1      15.071 -34.508 -20.851  1.00  0.00     0.277 HD
ENDROOT
BRANCH   1   4
HETATM    4  C4  UNL     1      17.047 -34.095 -21.057  1.00  0.00     0.264 C 
BRANCH   4   5
HETATM    5  C3  UNL     1      17.136 -35.537 -20.678  1.00  0.00     0.147 C 
HETATM    6  O1  UNL     1      16.194 -36.299 -21.346  1.00  0.00    -0.384 OA
HETATM    7  C2  UNL     1      16.786 -37.469 -21.759  1.00  0.00     0.168 C 
HETATM    8  C1  UNL     1      18.111 -37.614 -21.043  1.00  0.00     0.029 C 
HETATM    9  C9  UNL     1      18.497 -36.136 -20.898  1.00  0.00     0.036 C 
ENDBRANCH   4   5
ENDBRANCH   1   4
BRANCH   1  10
HETATM   10  C5  UNL     1      15.257 -33.273 -22.443  1.00  0.00     0.213 C 
HETATM   11  C6  UNL     1      16.426 -33.257 -23.436  1.00  0.00     0.062 C 
HETATM   12  C7  UNL     1      16.272 -31.964 -24.213  1.00  0.00     0.234 C 
HETATM   13  N2  UNL     1      14.938 -31.486 -23.855  1.00  0.00    -0.073 N 
HETATM   14  C8  UNL     1      14.911 -31.780 -22.429  1.00  0.00     0.265 C 
ATOM     15  H22 UNL     1      14.736 -30.519 -24.107  1.00  0.00     0.277 HD
ATOM     16  H21 UNL     1      14.171 -31.881 -24.398  1.00  0.00     0.277 HD
ENDBRANCH   1  10
TORSDOF 3
ENDMDL
