MODEL 1
REMARK VINA RESULT: -4.307910619      0.000      0.000
REMARK  5 active torsions:
REMARK  status: ('A' for Active; 'I' for Inactive)
REMARK    1  A    between atoms: N1_1  and  C1_5 
REMARK    2  A    between atoms: C1_5  and  C2_6 
REMARK    3  A    between atoms: C2_6  and  N2_7 
REMARK    4  A    between atoms: N2_7  and  C3_10 
REMARK    5  A    between atoms: C3_10  and  C4_11 
ROOT
HETATM    1  C3  UNL     1      17.483 -35.889 -21.282  1.00  0.00     0.265 C 
ENDROOT
BRANCH   1   2
HETATM    2  N2  UNL     1      17.780 -37.159 -21.907  1.00  0.00    -0.071 N 
ATOM      3  H22 UNL     1      18.782 -37.322 -22.009  1.00  0.00     0.277 HD
ATOM      4  H21 UNL     1      17.535 -37.177 -22.896  1.00  0.00     0.277 HD
BRANCH   2   5
HETATM    5  C2  UNL     1      17.122 -38.197 -21.150  1.00  0.00     0.259 C 
BRANCH   5   6
HETATM    6  C1  UNL     1      18.050 -39.395 -20.887  1.00  0.00     0.257 C 
BRANCH   6   7
HETATM    7  N1  UNL     1      17.233 -40.561 -21.185  1.00  0.00    -0.078 N 
ATOM      8  H13 UNL     1      17.118 -41.202 -20.399  1.00  0.00     0.274 HD
ATOM      9  H12 UNL     1      16.242 -40.354 -21.308  1.00  0.00     0.274 HD
ATOM     10  H11 UNL     1      17.676 -40.980 -22.003  1.00  0.00     0.274 HD
ENDBRANCH   6   7
ENDBRANCH   5   6
ENDBRANCH   2   5
ENDBRANCH   1   2
BRANCH   1  11
HETATM   11  C4  UNL     1      16.126 -35.350 -21.570  1.00  0.00     0.172 C 
HETATM   12  C5  UNL     1      15.857 -34.164 -20.674  1.00  0.00     0.265 C 
HETATM   13  N3  UNL     1      14.744 -33.369 -21.144  1.00  0.00    -0.073 N 
HETATM   14  C6  UNL     1      15.326 -32.296 -21.946  1.00  0.00     0.234 C 
ATOM     15  H32 UNL     1      14.037 -33.911 -21.641  1.00  0.00     0.277 HD
ATOM     16  H31 UNL     1      14.138 -33.034 -20.395  1.00  0.00     0.277 HD
HETATM   17  C7  UNL     1      15.424 -32.806 -23.368  1.00  0.00     0.054 C 
HETATM   18  C8  UNL     1      16.448 -33.919 -23.362  1.00  0.00     0.170 C 
HETATM   19  O1  UNL     1      15.897 -35.111 -22.911  1.00  0.00    -0.382 OA
ENDBRANCH   1  11
TORSDOF 5
ENDMDL
MODEL 2
REMARK VINA RESULT: -4.206513925      1.300      1.791
REMARK  5 active torsions:
REMARK  status: ('A' for Active; 'I' for Inactive)
REMARK    1  A    between atoms: N1_1  and  C1_5 
REMARK    2  A    between atoms: C1_5  and  C2_6 
REMARK    3  A    between atoms: C2_6  and  N2_7 
REMARK    4  A    between atoms: N2_7  and  C3_10 
REMARK    5  A    between atoms: C3_10  and  C4_11 
ROOT
HETATM    1  C3  UNL     1      17.442 -35.909 -21.322  1.00  0.00     0.265 C 
ENDROOT
BRANCH   1   2
HETATM    2  N2  UNL     1      17.615 -37.291 -21.712  1.00  0.00    -0.071 N 
ATOM      3  H22 UNL     1      17.720 -37.405 -22.720  1.00  0.00     0.277 HD
ATOM      4  H21 UNL     1      16.764 -37.841 -21.599  1.00  0.00     0.277 HD
BRANCH   2   5
HETATM    5  C2  UNL     1      18.731 -37.831 -20.972  1.00  0.00     0.259 C 
BRANCH   5   6
HETATM    6  C1  UNL     1      19.715 -36.735 -20.530  1.00  0.00     0.257 C 
BRANCH   6   7
HETATM    7  N1  UNL     1      21.005 -37.181 -21.032  1.00  0.00    -0.078 N 
ATOM      8  H13 UNL     1      21.792 -36.948 -20.423  1.00  0.00     0.274 HD
ATOM      9  H12 UNL     1      21.136 -38.192 -21.003  1.00  0.00     0.274 HD
ATOM     10  H11 UNL     1      21.069 -36.778 -21.966  1.00  0.00     0.274 HD
ENDBRANCH   6   7
ENDBRANCH   5   6
ENDBRANCH   2   5
ENDBRANCH   1   2
BRANCH   1  11
HETATM   11  C4  UNL     1      16.092 -35.344 -21.593  1.00  0.00     0.172 C 
HETATM   12  C5  UNL     1      15.860 -34.150 -20.698  1.00  0.00     0.265 C 
HETATM   13  N3  UNL     1      14.756 -33.334 -21.155  1.00  0.00    -0.073 N 
HETATM   14  C6  UNL     1      15.348 -32.276 -21.969  1.00  0.00     0.234 C 
ATOM     15  H32 UNL     1      14.032 -33.864 -21.640  1.00  0.00     0.277 HD
ATOM     16  H31 UNL     1      14.168 -32.984 -20.399  1.00  0.00     0.277 HD
HETATM   17  C7  UNL     1      15.416 -32.793 -23.390  1.00  0.00     0.054 C 
HETATM   18  C8  UNL     1      16.417 -33.926 -23.395  1.00  0.00     0.170 C 
HETATM   19  O1  UNL     1      15.850 -35.105 -22.932  1.00  0.00    -0.382 OA
ENDBRANCH   1  11
TORSDOF 5
ENDMDL
MODEL 3
REMARK VINA RESULT: -3.896457481      1.208      1.238
REMARK  5 active torsions:
REMARK  status: ('A' for Active; 'I' for Inactive)
REMARK    1  A    between atoms: N1_1  and  C1_5 
REMARK    2  A    between atoms: C1_5  and  C2_6 
REMARK    3  A    between atoms: C2_6  and  N2_7 
REMARK    4  A    between atoms: N2_7  and  C3_10 
REMARK    5  A    between atoms: C3_10  and  C4_11 
ROOT
HETATM    1  C3  UNL     1      17.369 -36.915 -22.457  1.00  0.00     0.265 C 
ENDROOT
BRANCH   1   2
HETATM    2  N2  UNL     1      18.170 -37.582 -21.456  1.00  0.00    -0.071 N 
ATOM      3  H22 UNL     1      18.456 -36.959 -20.701  1.00  0.00     0.277 HD
ATOM      4  H21 UNL     1      19.101 -37.825 -21.794  1.00  0.00     0.277 HD
BRANCH   2   5
HETATM    5  C2  UNL     1      17.432 -38.729 -20.981  1.00  0.00     0.259 C 
BRANCH   5   6
HETATM    6  C1  UNL     1      18.322 -39.978 -20.864  1.00  0.00     0.257 C 
BRANCH   6   7
HETATM    7  N1  UNL     1      19.681 -39.460 -20.887  1.00  0.00    -0.078 N 
ATOM      8  H13 UNL     1      20.210 -39.640 -20.032  1.00  0.00     0.274 HD
ATOM      9  H12 UNL     1      20.308 -39.964 -21.515  1.00  0.00     0.274 HD
ATOM     10  H11 UNL     1      19.574 -38.471 -21.110  1.00  0.00     0.274 HD
ENDBRANCH   6   7
ENDBRANCH   5   6
ENDBRANCH   2   5
ENDBRANCH   1   2
BRANCH   1  11
HETATM   11  C4  UNL     1      16.267 -36.070 -21.920  1.00  0.00     0.172 C 
HETATM   12  C5  UNL     1      16.821 -35.121 -20.885  1.00  0.00     0.265 C 
HETATM   13  N3  UNL     1      15.910 -34.034 -20.600  1.00  0.00    -0.073 N 
HETATM   14  C6  UNL     1      16.325 -32.925 -21.455  1.00  0.00     0.234 C 
ATOM     15  H32 UNL     1      14.928 -34.287 -20.710  1.00  0.00     0.277 HD
ATOM     16  H31 UNL     1      15.864 -33.790 -19.610  1.00  0.00     0.277 HD
HETATM   17  C7  UNL     1      15.578 -33.068 -22.763  1.00  0.00     0.054 C 
HETATM   18  C8  UNL     1      16.100 -34.322 -23.429  1.00  0.00     0.170 C 
HETATM   19  O1  UNL     1      15.508 -35.460 -22.901  1.00  0.00    -0.382 OA
ENDBRANCH   1  11
TORSDOF 5
ENDMDL
MODEL 4
REMARK VINA RESULT: -3.877314686      7.819      9.529
REMARK  5 active torsions:
REMARK  status: ('A' for Active; 'I' for Inactive)
REMARK    1  A    between atoms: N1_1  and  C1_5 
REMARK    2  A    between atoms: C1_5  and  C2_6 
REMARK    3  A    between atoms: C2_6  and  N2_7 
REMARK    4  A    between atoms: N2_7  and  C3_10 
REMARK    5  A    between atoms: C3_10  and  C4_11 
ROOT
HETATM    1  C3  UNL     1      21.244 -33.256 -15.959  1.00  0.00     0.265 C 
ENDROOT
BRANCH   1   2
HETATM    2  N2  UNL     1      21.425 -32.272 -14.916  1.00  0.00    -0.071 N 
ATOM      3  H22 UNL     1      21.666 -32.690 -14.018  1.00  0.00     0.277 HD
ATOM      4  H21 UNL     1      20.549 -31.833 -14.633  1.00  0.00     0.277 HD
BRANCH   2   5
HETATM    5  C2  UNL     1      22.408 -31.315 -15.367  1.00  0.00     0.259 C 
BRANCH   5   6
HETATM    6  C1  UNL     1      22.246 -30.982 -16.860  1.00  0.00     0.257 C 
BRANCH   6   7
HETATM    7  N1  UNL     1      21.855 -29.581 -16.880  1.00  0.00    -0.078 N 
ATOM      8  H13 UNL     1      22.211 -29.037 -16.093  1.00  0.00     0.274 HD
ATOM      9  H12 UNL     1      22.309 -29.032 -17.610  1.00  0.00     0.274 HD
ATOM     10  H11 UNL     1      20.837 -29.601 -16.945  1.00  0.00     0.274 HD
ENDBRANCH   6   7
ENDBRANCH   5   6
ENDBRANCH   2   5
ENDBRANCH   1   2
BRANCH   1  11
HETATM   11  C4  UNL     1      21.961 -34.543 -15.740  1.00  0.00     0.172 C 
HETATM   12  C5  UNL     1      21.115 -35.683 -16.255  1.00  0.00     0.265 C 
HETATM   13  N3  UNL     1      21.883 -36.897 -16.425  1.00  0.00    -0.073 N 
HETATM   14  C6  UNL     1      22.296 -36.919 -17.825  1.00  0.00     0.234 C 
ATOM     15  H32 UNL     1      22.660 -36.981 -15.769  1.00  0.00     0.277 HD
ATOM     16  H31 UNL     1      21.383 -37.738 -16.134  1.00  0.00     0.277 HD
HETATM   17  C7  UNL     1      23.622 -36.195 -17.909  1.00  0.00     0.054 C 
HETATM   18  C8  UNL     1      23.348 -34.744 -17.583  1.00  0.00     0.170 C 
HETATM   19  O1  UNL     1      23.259 -34.541 -16.213  1.00  0.00    -0.382 OA
ENDBRANCH   1  11
TORSDOF 5
ENDMDL
MODEL 5
REMARK VINA RESULT: -3.634744757      1.867      2.451
REMARK  5 active torsions:
REMARK  status: ('A' for Active; 'I' for Inactive)
REMARK    1  A    between atoms: N1_1  and  C1_5 
REMARK    2  A    between atoms: C1_5  and  C2_6 
REMARK    3  A    between atoms: C2_6  and  N2_7 
REMARK    4  A    between atoms: N2_7  and  C3_10 
REMARK    5  A    between atoms: C3_10  and  C4_11 
ROOT
HETATM    1  C3  UNL     1      16.217 -34.686 -21.104  1.00  0.00     0.265 C 
ENDROOT
BRANCH   1   2
HETATM    2  N2  UNL     1      17.222 -35.723 -21.033  1.00  0.00    -0.071 N 
ATOM      3  H22 UNL     1      17.598 -35.844 -20.093  1.00  0.00     0.277 HD
ATOM      4  H21 UNL     1      18.092 -35.460 -21.496  1.00  0.00     0.277 HD
BRANCH   2   5
HETATM    5  C2  UNL     1      16.653 -36.938 -21.567  1.00  0.00     0.259 C 
BRANCH   5   6
HETATM    6  C1  UNL     1      17.475 -38.179 -21.177  1.00  0.00     0.257 C 
BRANCH   6   7
HETATM    7  N1  UNL     1      18.844 -37.694 -21.085  1.00  0.00    -0.078 N 
ATOM      8  H13 UNL     1      19.036 -37.146 -20.246  1.00  0.00     0.274 HD
ATOM      9  H12 UNL     1      19.533 -38.424 -20.904  1.00  0.00     0.274 HD
ATOM     10  H11 UNL     1      18.994 -37.186 -21.957  1.00  0.00     0.274 HD
ENDBRANCH   6   7
ENDBRANCH   5   6
ENDBRANCH   2   5
ENDBRANCH   1   2
BRANCH   1  11
HETATM   11  C4  UNL     1      16.635 -33.454 -21.827  1.00  0.00     0.172 C 
HETATM   12  C5  UNL     1      16.523 -33.684 -23.316  1.00  0.00     0.265 C 
HETATM   13  N3  UNL     1      16.543 -32.444 -24.061  1.00  0.00    -0.073 N 
HETATM   14  C6  UNL     1      15.145 -32.083 -24.279  1.00  0.00     0.234 C 
ATOM     15  H32 UNL     1      17.088 -31.708 -23.612  1.00  0.00     0.277 HD
ATOM     16  H31 UNL     1      17.089 -32.495 -24.921  1.00  0.00     0.277 HD
HETATM   17  C7  UNL     1      14.713 -31.242 -23.096  1.00  0.00     0.054 C 
HETATM   18  C8  UNL     1      14.721 -32.152 -21.888  1.00  0.00     0.170 C 
HETATM   19  O1  UNL     1      16.004 -32.309 -21.381  1.00  0.00    -0.382 OA
ENDBRANCH   1  11
TORSDOF 5
ENDMDL
