MODEL 1
REMARK VINA RESULT: -3.736887074      0.000      0.000
REMARK  4 active torsions:
REMARK  status: ('A' for Active; 'I' for Inactive)
REMARK    1  A    between atoms: C2_2  and  C3_3 
REMARK    2  A    between atoms: C2_2  and  N2_8 
REMARK    3  A    between atoms: C3_3  and  N1_4 
REMARK    4  A    between atoms: N2_8  and  C4_11 
ROOT
HETATM    1  N2  UNL     1      16.329 -35.984 -21.106  1.00  0.00    -0.065 N 
ATOM      2  H21 UNL     1      16.268 -35.983 -20.089  1.00  0.00     0.278 HD
ATOM      3  H22 UNL     1      15.430 -36.409 -21.330  1.00  0.00     0.278 HD
ENDROOT
BRANCH   1   4
HETATM    4  C2  UNL     1      17.401 -36.812 -21.547  1.00  0.00     0.207 C 
HETATM    5  C1  UNL     1      18.643 -36.373 -20.764  1.00  0.00     0.041 C 
BRANCH   4   6
HETATM    6  C3  UNL     1      17.208 -38.277 -21.227  1.00  0.00     0.262 C 
BRANCH   6   7
HETATM    7  N1  UNL     1      18.551 -38.820 -21.008  1.00  0.00    -0.077 N 
ATOM      8  H13 UNL     1      19.258 -38.421 -21.625  1.00  0.00     0.274 HD
ATOM      9  H12 UNL     1      18.973 -38.522 -20.129  1.00  0.00     0.274 HD
ATOM     10  H11 UNL     1      18.460 -39.832 -21.094  1.00  0.00     0.274 HD
ENDBRANCH   6   7
ENDBRANCH   4   6
ENDBRANCH   1   4
BRANCH   1  11
HETATM   11  C4  UNL     1      16.398 -34.621 -21.620  1.00  0.00     0.189 C 
HETATM   12  C5  UNL     1      16.012 -34.728 -23.092  1.00  0.00     0.060 C 
HETATM   13  C6  UNL     1      15.643 -33.429 -23.706  1.00  0.00     0.234 C 
HETATM   14  N3  UNL     1      15.733 -32.298 -22.829  1.00  0.00    -0.075 N 
HETATM   15  C7  UNL     1      15.071 -32.488 -21.568  1.00  0.00     0.234 C 
ATOM     16  H32 UNL     1      16.707 -32.031 -22.687  1.00  0.00     0.277 HD
ATOM     17  H31 UNL     1      15.391 -31.456 -23.293  1.00  0.00     0.277 HD
HETATM   18  C8  UNL     1      15.336 -33.818 -20.933  1.00  0.00     0.060 C 
ENDBRANCH   1  11
TORSDOF 4
ENDMDL
MODEL 2
REMARK VINA RESULT: -3.655103486      6.352      7.302
REMARK  4 active torsions:
REMARK  status: ('A' for Active; 'I' for Inactive)
REMARK    1  A    between atoms: C2_2  and  C3_3 
REMARK    2  A    between atoms: C2_2  and  N2_8 
REMARK    3  A    between atoms: C3_3  and  N1_4 
REMARK    4  A    between atoms: N2_8  and  C4_11 
ROOT
HETATM    1  N2  UNL     1      21.817 -36.440 -16.667  1.00  0.00    -0.065 N 
ATOM      2  H21 UNL     1      22.520 -36.473 -15.929  1.00  0.00     0.278 HD
ATOM      3  H22 UNL     1      21.229 -37.221 -16.376  1.00  0.00     0.278 HD
ENDROOT
BRANCH   1   4
HETATM    4  C2  UNL     1      22.406 -36.698 -17.937  1.00  0.00     0.207 C 
HETATM    5  C1  UNL     1      22.689 -38.203 -17.990  1.00  0.00     0.041 C 
BRANCH   4   6
HETATM    6  C3  UNL     1      21.488 -36.408 -19.103  1.00  0.00     0.262 C 
BRANCH   6   7
HETATM    7  N1  UNL     1      22.364 -36.089 -20.234  1.00  0.00    -0.077 N 
ATOM      8  H13 UNL     1      22.861 -35.205 -20.127  1.00  0.00     0.274 HD
ATOM      9  H12 UNL     1      23.188 -36.687 -20.292  1.00  0.00     0.274 HD
ATOM     10  H11 UNL     1      21.773 -36.126 -21.063  1.00  0.00     0.274 HD
ENDBRANCH   6   7
ENDBRANCH   4   6
ENDBRANCH   1   4
BRANCH   1  11
HETATM   11  C4  UNL     1      21.072 -35.187 -16.613  1.00  0.00     0.189 C 
HETATM   12  C5  UNL     1      20.070 -35.365 -15.477  1.00  0.00     0.060 C 
HETATM   13  C6  UNL     1      19.481 -34.091 -14.998  1.00  0.00     0.234 C 
HETATM   14  N3  UNL     1      19.929 -32.919 -15.692  1.00  0.00    -0.075 N 
HETATM   15  C7  UNL     1      21.359 -32.824 -15.807  1.00  0.00     0.234 C 
ATOM     16  H32 UNL     1      19.490 -32.855 -16.610  1.00  0.00     0.277 HD
ATOM     17  H31 UNL     1      19.546 -32.078 -15.261  1.00  0.00     0.277 HD
HETATM   18  C8  UNL     1      22.025 -34.105 -16.208  1.00  0.00     0.060 C 
ENDBRANCH   1  11
TORSDOF 4
ENDMDL
MODEL 3
REMARK VINA RESULT: -3.596889600      1.067      5.067
REMARK  4 active torsions:
REMARK  status: ('A' for Active; 'I' for Inactive)
REMARK    1  A    between atoms: C2_2  and  C3_3 
REMARK    2  A    between atoms: C2_2  and  N2_8 
REMARK    3  A    between atoms: C3_3  and  N1_4 
REMARK    4  A    between atoms: N2_8  and  C4_11 
ROOT
HETATM    1  N2  UNL     1      16.218 -36.192 -21.711  1.00  0.00    -0.065 N 
ATOM      2  H21 UNL     1      15.612 -36.417 -22.500  1.00  0.00     0.278 HD
ATOM      3  H22 UNL     1      15.610 -36.477 -20.944  1.00  0.00     0.278 HD
ENDROOT
BRANCH   1   4
HETATM    4  C2  UNL     1      16.477 -34.793 -21.658  1.00  0.00     0.207 C 
HETATM    5  C1  UNL     1      15.899 -34.192 -22.944  1.00  0.00     0.041 C 
BRANCH   4   6
HETATM    6  C3  UNL     1      15.772 -34.088 -20.521  1.00  0.00     0.262 C 
BRANCH   6   7
HETATM    7  N1  UNL     1      14.789 -33.200 -21.147  1.00  0.00    -0.077 N 
ATOM      8  H13 UNL     1      13.822 -33.475 -20.974  1.00  0.00     0.274 HD
ATOM      9  H12 UNL     1      14.734 -32.280 -20.710  1.00  0.00     0.274 HD
ATOM     10  H11 UNL     1      15.032 -33.168 -22.137  1.00  0.00     0.274 HD
ENDBRANCH   6   7
ENDBRANCH   4   6
ENDBRANCH   1   4
BRANCH   1  11
HETATM   11  C4  UNL     1      17.427 -37.007 -21.741  1.00  0.00     0.189 C 
HETATM   12  C5  UNL     1      18.435 -36.259 -20.874  1.00  0.00     0.060 C 
HETATM   13  C6  UNL     1      19.590 -37.089 -20.453  1.00  0.00     0.234 C 
HETATM   14  N3  UNL     1      19.579 -38.435 -20.947  1.00  0.00    -0.075 N 
HETATM   15  C7  UNL     1      18.335 -39.122 -20.732  1.00  0.00     0.234 C 
ATOM     16  H32 UNL     1      19.836 -38.458 -21.934  1.00  0.00     0.277 HD
ATOM     17  H31 UNL     1      20.356 -38.968 -20.556  1.00  0.00     0.277 HD
HETATM   18  C8  UNL     1      17.122 -38.305 -21.060  1.00  0.00     0.060 C 
ENDBRANCH   1  11
TORSDOF 4
ENDMDL
MODEL 4
REMARK VINA RESULT: -3.575048761      1.644      4.728
REMARK  4 active torsions:
REMARK  status: ('A' for Active; 'I' for Inactive)
REMARK    1  A    between atoms: C2_2  and  C3_3 
REMARK    2  A    between atoms: C2_2  and  N2_8 
REMARK    3  A    between atoms: C3_3  and  N1_4 
REMARK    4  A    between atoms: N2_8  and  C4_11 
ROOT
HETATM    1  N2  UNL     1      15.477 -32.422 -22.424  1.00  0.00    -0.065 N 
ATOM      2  H21 UNL     1      14.532 -32.071 -22.270  1.00  0.00     0.278 HD
ATOM      3  H22 UNL     1      16.008 -31.697 -21.943  1.00  0.00     0.278 HD
ENDROOT
BRANCH   1   4
HETATM    4  C2  UNL     1      15.789 -32.439 -23.813  1.00  0.00     0.207 C 
HETATM    5  C1  UNL     1      14.686 -31.642 -24.519  1.00  0.00     0.041 C 
BRANCH   4   6
HETATM    6  C3  UNL     1      17.085 -31.739 -24.153  1.00  0.00     0.262 C 
BRANCH   6   7
HETATM    7  N1  UNL     1      17.780 -32.618 -25.097  1.00  0.00    -0.077 N 
ATOM      8  H13 UNL     1      17.166 -33.290 -25.557  1.00  0.00     0.274 HD
ATOM      9  H12 UNL     1      18.094 -32.141 -25.942  1.00  0.00     0.274 HD
ATOM     10  H11 UNL     1      18.537 -33.052 -24.569  1.00  0.00     0.274 HD
ENDBRANCH   6   7
ENDBRANCH   4   6
ENDBRANCH   1   4
BRANCH   1  11
HETATM   11  C4  UNL     1      15.659 -33.714 -21.771  1.00  0.00     0.189 C 
HETATM   12  C5  UNL     1      15.741 -34.728 -22.907  1.00  0.00     0.060 C 
HETATM   13  C6  UNL     1      16.307 -36.036 -22.496  1.00  0.00     0.234 C 
HETATM   14  N3  UNL     1      16.655 -36.136 -21.109  1.00  0.00    -0.075 N 
HETATM   15  C7  UNL     1      17.461 -35.045 -20.634  1.00  0.00     0.234 C 
ATOM     16  H32 UNL     1      15.818 -36.242 -20.535  1.00  0.00     0.277 HD
ATOM     17  H31 UNL     1      17.108 -37.030 -20.915  1.00  0.00     0.277 HD
HETATM   18  C8  UNL     1      16.990 -33.697 -21.085  1.00  0.00     0.060 C 
ENDBRANCH   1  11
TORSDOF 4
ENDMDL
MODEL 5
REMARK VINA RESULT: -3.548224534      5.631      7.154
REMARK  4 active torsions:
REMARK  status: ('A' for Active; 'I' for Inactive)
REMARK    1  A    between atoms: C2_2  and  C3_3 
REMARK    2  A    between atoms: C2_2  and  N2_8 
REMARK    3  A    between atoms: C3_3  and  N1_4 
REMARK    4  A    between atoms: N2_8  and  C4_11 
ROOT
HETATM    1  N2  UNL     1      22.268 -36.737 -17.649  1.00  0.00    -0.065 N 
ATOM      2  H21 UNL     1      23.219 -36.741 -17.280  1.00  0.00     0.278 HD
ATOM      3  H22 UNL     1      21.882 -37.525 -17.130  1.00  0.00     0.278 HD
ENDROOT
BRANCH   1   4
HETATM    4  C2  UNL     1      22.271 -37.008 -19.047  1.00  0.00     0.207 C 
HETATM    5  C1  UNL     1      22.258 -38.533 -19.198  1.00  0.00     0.041 C 
BRANCH   4   6
HETATM    6  C3  UNL     1      21.035 -36.513 -19.764  1.00  0.00     0.262 C 
BRANCH   6   7
HETATM    7  N1  UNL     1      21.034 -37.178 -21.070  1.00  0.00    -0.077 N 
ATOM      8  H13 UNL     1      21.803 -36.889 -21.676  1.00  0.00     0.274 HD
ATOM      9  H12 UNL     1      21.281 -38.167 -21.023  1.00  0.00     0.274 HD
ATOM     10  H11 UNL     1      20.113 -37.006 -21.470  1.00  0.00     0.274 HD
ENDBRANCH   6   7
ENDBRANCH   4   6
ENDBRANCH   1   4
BRANCH   1  11
HETATM   11  C4  UNL     1      21.582 -35.500 -17.297  1.00  0.00     0.189 C 
HETATM   12  C5  UNL     1      20.811 -35.821 -16.020  1.00  0.00     0.060 C 
HETATM   13  C6  UNL     1      20.358 -34.618 -15.280  1.00  0.00     0.234 C 
HETATM   14  N3  UNL     1      20.696 -33.367 -15.895  1.00  0.00    -0.075 N 
HETATM   15  C7  UNL     1      22.080 -33.261 -16.270  1.00  0.00     0.234 C 
ATOM     16  H32 UNL     1      20.091 -33.185 -16.696  1.00  0.00     0.277 HD
ATOM     17  H31 UNL     1      20.425 -32.587 -15.295  1.00  0.00     0.277 HD
HETATM   18  C8  UNL     1      22.623 -34.481 -16.950  1.00  0.00     0.060 C 
ENDBRANCH   1  11
TORSDOF 4
ENDMDL
