MODEL 1
REMARK VINA RESULT: -4.701050025      0.000      0.000
REMARK  0 active torsions:
REMARK  status: ('A' for Active; 'I' for Inactive)
ROOT
HETATM    1  C1  UNL     1       4.529   8.855   0.121  1.00  0.00     0.046 C 
HETATM    2  C2  UNL     1       3.407   9.049   0.783  1.00  0.00     0.037 C 
HETATM    3  C3  UNL     1       2.202   8.212   0.680  1.00  0.00     0.066 C 
HETATM    4  C4  UNL     1       1.437   8.606   1.948  1.00  0.00     0.033 C 
HETATM    5  C5  UNL     1       1.752  10.083   1.998  1.00  0.00     0.175 C 
HETATM    6  O1  UNL     1       3.155  10.062   1.688  1.00  0.00    -0.356 OA
ENDROOT
TORSDOF 0
ENDMDL
MODEL 2
REMARK VINA RESULT: -4.550741408      1.458      2.018
REMARK  0 active torsions:
REMARK  status: ('A' for Active; 'I' for Inactive)
ROOT
HETATM    1  C1  UNL     1       4.684  10.932   0.864  1.00  0.00     0.046 C 
HETATM    2  C2  UNL     1       3.852   9.912   0.860  1.00  0.00     0.037 C 
HETATM    3  C3  UNL     1       2.519   9.898   1.483  1.00  0.00     0.066 C 
HETATM    4  C4  UNL     1       1.863   8.696   0.793  1.00  0.00     0.033 C 
HETATM    5  C5  UNL     1       3.049   7.764   0.705  1.00  0.00     0.175 C 
HETATM    6  O1  UNL     1       4.071   8.678   0.278  1.00  0.00    -0.356 OA
ENDROOT
TORSDOF 0
ENDMDL
MODEL 3
REMARK VINA RESULT: -4.486984217      1.107      1.158
REMARK  0 active torsions:
REMARK  status: ('A' for Active; 'I' for Inactive)
ROOT
HETATM    1  C1  UNL     1       4.614  10.709   0.914  1.00  0.00     0.046 C 
HETATM    2  C2  UNL     1       3.473  10.131   1.227  1.00  0.00     0.037 C 
HETATM    3  C3  UNL     1       2.799   9.093   0.432  1.00  0.00     0.066 C 
HETATM    4  C4  UNL     1       1.827   8.496   1.456  1.00  0.00     0.033 C 
HETATM    5  C5  UNL     1       1.427   9.749   2.201  1.00  0.00     0.175 C 
HETATM    6  O1  UNL     1       2.705  10.387   2.346  1.00  0.00    -0.356 OA
ENDROOT
TORSDOF 0
ENDMDL
MODEL 4
REMARK VINA RESULT: -4.454016654      1.264      1.897
REMARK  0 active torsions:
REMARK  status: ('A' for Active; 'I' for Inactive)
ROOT
HETATM    1  C1  UNL     1       4.688  10.927   1.060  1.00  0.00     0.046 C 
HETATM    2  C2  UNL     1       3.893   9.903   0.828  1.00  0.00     0.037 C 
HETATM    3  C3  UNL     1       4.322   8.587   0.329  1.00  0.00     0.066 C 
HETATM    4  C4  UNL     1       3.118   7.709   0.686  1.00  0.00     0.033 C 
HETATM    5  C5  UNL     1       1.992   8.679   0.410  1.00  0.00     0.175 C 
HETATM    6  O1  UNL     1       2.523   9.873   1.008  1.00  0.00    -0.356 OA
ENDROOT
TORSDOF 0
ENDMDL
MODEL 5
REMARK VINA RESULT: -4.320716462      1.232      2.478
REMARK  0 active torsions:
REMARK  status: ('A' for Active; 'I' for Inactive)
ROOT
HETATM    1  C1  UNL     1       1.887   8.366   0.959  1.00  0.00     0.046 C 
HETATM    2  C2  UNL     1       2.886   9.218   1.052  1.00  0.00     0.037 C 
HETATM    3  C3  UNL     1       4.199   9.066   0.404  1.00  0.00     0.066 C 
HETATM    4  C4  UNL     1       4.749  10.495   0.472  1.00  0.00     0.033 C 
HETATM    5  C5  UNL     1       4.231  10.913   1.829  1.00  0.00     0.175 C 
HETATM    6  O1  UNL     1       2.891  10.400   1.767  1.00  0.00    -0.356 OA
ENDROOT
TORSDOF 0
ENDMDL
