MODEL 1
REMARK VINA RESULT: -4.833732064      0.000      0.000
REMARK  0 active torsions:
REMARK  status: ('A' for Active; 'I' for Inactive)
ROOT
HETATM    1  C1  UNL     1       1.422   8.488   1.873  1.00  0.00     0.005 C 
HETATM    2  C2  UNL     1       1.989   9.855   2.121  1.00  0.00     0.005 C 
HETATM    3  C3  UNL     1       2.613   9.768   0.728  1.00  0.00    -0.010 A 
HETATM    4  C4  UNL     1       3.622   8.705   0.503  1.00  0.00     0.010 A 
HETATM    5  C5  UNL     1       2.213   8.332   0.622  1.00  0.00    -0.010 A 
ENDROOT
TORSDOF 0
ENDMDL
MODEL 2
REMARK VINA RESULT: -4.735311132      0.697      1.614
REMARK  0 active torsions:
REMARK  status: ('A' for Active; 'I' for Inactive)
ROOT
HETATM    1  C1  UNL     1       2.998  10.237   1.597  1.00  0.00     0.005 C 
HETATM    2  C2  UNL     1       1.625   9.972   2.139  1.00  0.00     0.005 C 
HETATM    3  C3  UNL     1       1.753   8.559   1.570  1.00  0.00    -0.010 A 
HETATM    4  C4  UNL     1       1.878   8.430   0.098  1.00  0.00     0.010 A 
HETATM    5  C5  UNL     1       3.014   8.942   0.865  1.00  0.00    -0.010 A 
ENDROOT
TORSDOF 0
ENDMDL
MODEL 3
REMARK VINA RESULT: -4.707669327      0.659      1.810
REMARK  0 active torsions:
REMARK  status: ('A' for Active; 'I' for Inactive)
ROOT
HETATM    1  C1  UNL     1       2.274   8.443   0.647  1.00  0.00     0.005 C 
HETATM    2  C2  UNL     1       1.494   8.345   1.924  1.00  0.00     0.005 C 
HETATM    3  C3  UNL     1       1.578   9.869   2.006  1.00  0.00    -0.010 A 
HETATM    4  C4  UNL     1       2.927  10.466   2.144  1.00  0.00     0.010 A 
HETATM    5  C5  UNL     1       2.534   9.893   0.858  1.00  0.00    -0.010 A 
ENDROOT
TORSDOF 0
ENDMDL
MODEL 4
REMARK VINA RESULT: -4.698139555      0.589      2.310
REMARK  0 active torsions:
REMARK  status: ('A' for Active; 'I' for Inactive)
ROOT
HETATM    1  C1  UNL     1       3.724   9.599   0.831  1.00  0.00     0.005 C 
HETATM    2  C2  UNL     1       3.632   8.159   0.421  1.00  0.00     0.005 C 
HETATM    3  C3  UNL     1       2.114   8.302   0.529  1.00  0.00    -0.010 A 
HETATM    4  C4  UNL     1       1.556   8.605   1.869  1.00  0.00     0.010 A 
HETATM    5  C5  UNL     1       2.270   9.655   1.143  1.00  0.00    -0.010 A 
ENDROOT
TORSDOF 0
ENDMDL
MODEL 5
REMARK VINA RESULT: -4.555030442      0.616      2.250
REMARK  0 active torsions:
REMARK  status: ('A' for Active; 'I' for Inactive)
ROOT
HETATM    1  C1  UNL     1       3.783   8.880   0.479  1.00  0.00     0.005 C 
HETATM    2  C2  UNL     1       2.721   7.854   0.747  1.00  0.00     0.005 C 
HETATM    3  C3  UNL     1       1.766   9.018   1.011  1.00  0.00    -0.010 A 
HETATM    4  C4  UNL     1       2.080   9.905   2.157  1.00  0.00     0.010 A 
HETATM    5  C5  UNL     1       2.905   9.984   0.951  1.00  0.00    -0.010 A 
ENDROOT
TORSDOF 0
ENDMDL
