MODEL 1
REMARK VINA RESULT: -5.557254340      0.000      0.000
REMARK  0 active torsions:
REMARK  status: ('A' for Active; 'I' for Inactive)
ROOT
HETATM    1  C1  UNL     1       4.897  10.888   0.880  1.00  0.00     0.036 C 
HETATM    2  C2  UNL     1       4.236   9.633   0.466  1.00  0.00    -0.028 C 
HETATM    3  C3  UNL     1       3.010   9.294   0.845  1.00  0.00    -0.084 C 
HETATM    4  C4  UNL     1       1.956   9.914   1.696  1.00  0.00     0.034 C 
HETATM    5  C5  UNL     1       1.472   8.504   2.005  1.00  0.00     0.009 C 
HETATM    6  C6  UNL     1       2.066   8.162   0.634  1.00  0.00     0.034 C 
ENDROOT
TORSDOF 0
ENDMDL
MODEL 2
REMARK VINA RESULT: -4.955118922      0.776      1.449
REMARK  0 active torsions:
REMARK  status: ('A' for Active; 'I' for Inactive)
ROOT
HETATM    1  C1  UNL     1       5.088  10.947   0.432  1.00  0.00     0.036 C 
HETATM    2  C2  UNL     1       3.843  10.769   1.207  1.00  0.00    -0.028 C 
HETATM    3  C3  UNL     1       3.123   9.654   1.186  1.00  0.00    -0.084 C 
HETATM    4  C4  UNL     1       3.233   8.336   0.499  1.00  0.00     0.034 C 
HETATM    5  C5  UNL     1       1.715   8.249   0.570  1.00  0.00     0.009 C 
HETATM    6  C6  UNL     1       1.873   9.139   1.809  1.00  0.00     0.034 C 
ENDROOT
TORSDOF 0
ENDMDL
MODEL 3
REMARK VINA RESULT: -4.862468583      1.327      1.622
REMARK  0 active torsions:
REMARK  status: ('A' for Active; 'I' for Inactive)
ROOT
HETATM    1  C1  UNL     1       4.900   8.352   0.041  1.00  0.00     0.036 C 
HETATM    2  C2  UNL     1       3.617   7.887   0.608  1.00  0.00    -0.028 C 
HETATM    3  C3  UNL     1       2.659   8.709   1.017  1.00  0.00    -0.084 C 
HETATM    4  C4  UNL     1       2.486  10.188   1.074  1.00  0.00     0.034 C 
HETATM    5  C5  UNL     1       1.564   9.966   2.265  1.00  0.00     0.009 C 
HETATM    6  C6  UNL     1       1.299   8.604   1.613  1.00  0.00     0.034 C 
ENDROOT
TORSDOF 0
ENDMDL
MODEL 4
REMARK VINA RESULT: -4.813350835      0.759      3.058
REMARK  0 active torsions:
REMARK  status: ('A' for Active; 'I' for Inactive)
ROOT
HETATM    1  C1  UNL     1       1.262   8.720   1.723  1.00  0.00     0.036 C 
HETATM    2  C2  UNL     1       2.477   8.473   0.920  1.00  0.00    -0.028 C 
HETATM    3  C3  UNL     1       3.529   9.283   0.918  1.00  0.00    -0.084 C 
HETATM    4  C4  UNL     1       3.882  10.560   1.600  1.00  0.00     0.034 C 
HETATM    5  C5  UNL     1       4.769  10.875   0.403  1.00  0.00     0.009 C 
HETATM    6  C6  UNL     1       4.866   9.351   0.266  1.00  0.00     0.034 C 
ENDROOT
TORSDOF 0
ENDMDL
MODEL 5
REMARK VINA RESULT: -4.684955111      0.882      3.145
REMARK  0 active torsions:
REMARK  status: ('A' for Active; 'I' for Inactive)
ROOT
HETATM    1  C1  UNL     1       1.053   8.976   1.944  1.00  0.00     0.036 C 
HETATM    2  C2  UNL     1       2.183   9.907   1.751  1.00  0.00    -0.028 C 
HETATM    3  C3  UNL     1       3.253   9.616   1.020  1.00  0.00    -0.084 C 
HETATM    4  C4  UNL     1       3.700   8.441   0.220  1.00  0.00     0.034 C 
HETATM    5  C5  UNL     1       5.130   8.872   0.514  1.00  0.00     0.009 C 
HETATM    6  C6  UNL     1       4.525  10.277   0.620  1.00  0.00     0.034 C 
ENDROOT
TORSDOF 0
ENDMDL
