MODEL 1
REMARK VINA RESULT: -5.410893483      0.000      0.000
REMARK  0 active torsions:
REMARK  status: ('A' for Active; 'I' for Inactive)
ROOT
HETATM    1  C1  UNL     1       3.812   9.967   0.978  1.00  0.00     0.015 C 
HETATM    2  C2  UNL     1       2.304   9.781   0.918  1.00  0.00    -0.040 A 
HETATM    3  C3  UNL     1       1.977   8.649  -0.015  1.00  0.00     0.010 C 
HETATM    4  C4  UNL     1       2.545   7.821   1.156  1.00  0.00     0.006 C 
HETATM    5  C5  UNL     1       1.658   8.739   1.922  1.00  0.00    -0.006 A 
HETATM    6  C6  UNL     1       1.702  10.135   2.166  1.00  0.00     0.015 A 
ENDROOT
TORSDOF 0
ENDMDL
MODEL 2
REMARK VINA RESULT: -4.851427095      0.954      1.062
REMARK  0 active torsions:
REMARK  status: ('A' for Active; 'I' for Inactive)
ROOT
HETATM    1  C1  UNL     1       4.164   8.550   0.526  1.00  0.00     0.015 C 
HETATM    2  C2  UNL     1       2.975   9.495   0.606  1.00  0.00    -0.040 A 
HETATM    3  C3  UNL     1       1.738   8.781   0.137  1.00  0.00     0.010 C 
HETATM    4  C4  UNL     1       1.912   8.068   1.494  1.00  0.00     0.006 C 
HETATM    5  C5  UNL     1       2.117   9.474   1.937  1.00  0.00    -0.006 A 
HETATM    6  C6  UNL     1       3.139  10.422   1.682  1.00  0.00     0.015 A 
ENDROOT
TORSDOF 0
ENDMDL
MODEL 3
REMARK VINA RESULT: -4.463849385      0.821      1.554
REMARK  0 active torsions:
REMARK  status: ('A' for Active; 'I' for Inactive)
ROOT
HETATM    1  C1  UNL     1       2.460  10.305   2.338  1.00  0.00     0.015 C 
HETATM    2  C2  UNL     1       1.865   9.368   1.299  1.00  0.00    -0.040 A 
HETATM    3  C3  UNL     1       2.532   9.604  -0.028  1.00  0.00     0.010 C 
HETATM    4  C4  UNL     1       3.697   8.892   0.689  1.00  0.00     0.006 C 
HETATM    5  C5  UNL     1       2.588   7.977   1.073  1.00  0.00    -0.006 A 
HETATM    6  C6  UNL     1       1.451   8.141   1.904  1.00  0.00     0.015 A 
ENDROOT
TORSDOF 0
ENDMDL
MODEL 4
REMARK VINA RESULT: -4.437146538      0.680      1.973
REMARK  0 active torsions:
REMARK  status: ('A' for Active; 'I' for Inactive)
ROOT
HETATM    1  C1  UNL     1       1.567  10.202   2.051  1.00  0.00     0.015 C 
HETATM    2  C2  UNL     1       2.799   9.358   1.764  1.00  0.00    -0.040 A 
HETATM    3  C3  UNL     1       2.377   7.951   1.443  1.00  0.00     0.010 C 
HETATM    4  C4  UNL     1       1.913   8.631   0.139  1.00  0.00     0.006 C 
HETATM    5  C5  UNL     1       3.265   9.240   0.255  1.00  0.00    -0.006 A 
HETATM    6  C6  UNL     1       3.831  10.155   1.178  1.00  0.00     0.015 A 
ENDROOT
TORSDOF 0
ENDMDL
MODEL 5
REMARK VINA RESULT: -4.429684141      0.705      2.029
REMARK  0 active torsions:
REMARK  status: ('A' for Active; 'I' for Inactive)
ROOT
HETATM    1  C1  UNL     1       1.779   8.521  -0.374  1.00  0.00     0.015 C 
HETATM    2  C2  UNL     1       2.426   8.440   0.999  1.00  0.00    -0.040 A 
HETATM    3  C3  UNL     1       3.833   8.965   0.920  1.00  0.00     0.010 C 
HETATM    4  C4  UNL     1       3.082  10.306   0.792  1.00  0.00     0.006 C 
HETATM    5  C5  UNL     1       2.324   9.718   1.930  1.00  0.00    -0.006 A 
HETATM    6  C6  UNL     1       1.449   8.607   2.029  1.00  0.00     0.015 A 
ENDROOT
TORSDOF 0
ENDMDL
