MODEL 1
REMARK VINA RESULT: -5.466192599      0.000      0.000
REMARK  0 active torsions:
REMARK  status: ('A' for Active; 'I' for Inactive)
ROOT
HETATM    1  C1  UNL     1       4.550  10.796   1.372  1.00  0.00     0.014 C 
HETATM    2  C2  UNL     1       3.841   9.796   0.883  1.00  0.00    -0.085 C 
HETATM    3  C3  UNL     1       4.224   8.576   0.136  1.00  0.00     0.034 C 
HETATM    4  C4  UNL     1       2.970   7.924   0.735  1.00  0.00     0.013 C 
HETATM    5  C5  UNL     1       2.436   9.363   0.802  1.00  0.00     0.010 C 
HETATM    6  C6  UNL     1       1.596   9.615   2.017  1.00  0.00     0.015 C 
ENDROOT
TORSDOF 0
ENDMDL
MODEL 2
REMARK VINA RESULT: -5.360197601      0.839      2.645
REMARK  0 active torsions:
REMARK  status: ('A' for Active; 'I' for Inactive)
ROOT
HETATM    1  C1  UNL     1       3.411   7.628   0.478  1.00  0.00     0.014 C 
HETATM    2  C2  UNL     1       2.738   8.664   0.941  1.00  0.00    -0.085 C 
HETATM    3  C3  UNL     1       1.431   8.777   1.627  1.00  0.00     0.034 C 
HETATM    4  C4  UNL     1       1.987  10.047   2.285  1.00  0.00     0.013 C 
HETATM    5  C5  UNL     1       2.874  10.127   1.034  1.00  0.00     0.010 C 
HETATM    6  C6  UNL     1       4.249  10.646   1.330  1.00  0.00     0.015 C 
ENDROOT
TORSDOF 0
ENDMDL
MODEL 3
REMARK VINA RESULT: -5.209396488      0.898      1.097
REMARK  0 active torsions:
REMARK  status: ('A' for Active; 'I' for Inactive)
ROOT
HETATM    1  C1  UNL     1       4.772   9.659   0.754  1.00  0.00     0.014 C 
HETATM    2  C2  UNL     1       3.545   9.175   0.767  1.00  0.00    -0.085 C 
HETATM    3  C3  UNL     1       2.987   7.865   0.361  1.00  0.00     0.034 C 
HETATM    4  C4  UNL     1       1.884   8.114   1.399  1.00  0.00     0.013 C 
HETATM    5  C5  UNL     1       2.185   9.598   1.143  1.00  0.00     0.010 C 
HETATM    6  C6  UNL     1       2.073  10.435   2.381  1.00  0.00     0.015 C 
ENDROOT
TORSDOF 0
ENDMDL
MODEL 4
REMARK VINA RESULT: -5.006067774      0.803      2.241
REMARK  0 active torsions:
REMARK  status: ('A' for Active; 'I' for Inactive)
ROOT
HETATM    1  C1  UNL     1       1.875  10.212   2.239  1.00  0.00     0.014 C 
HETATM    2  C2  UNL     1       2.908  10.024   1.441  1.00  0.00    -0.085 C 
HETATM    3  C3  UNL     1       4.175  10.770   1.260  1.00  0.00     0.034 C 
HETATM    4  C4  UNL     1       4.790   9.438   0.807  1.00  0.00     0.013 C 
HETATM    5  C5  UNL     1       3.352   9.086   0.397  1.00  0.00     0.010 C 
HETATM    6  C6  UNL     1       3.021   7.642   0.622  1.00  0.00     0.015 C 
ENDROOT
TORSDOF 0
ENDMDL
MODEL 5
REMARK VINA RESULT: -4.874277577      1.035      3.037
REMARK  0 active torsions:
REMARK  status: ('A' for Active; 'I' for Inactive)
ROOT
HETATM    1  C1  UNL     1       1.717   8.079   1.295  1.00  0.00     0.014 C 
HETATM    2  C2  UNL     1       2.227   9.292   1.392  1.00  0.00    -0.085 C 
HETATM    3  C3  UNL     1       1.877  10.455   2.239  1.00  0.00     0.034 C 
HETATM    4  C4  UNL     1       3.349  10.874   2.117  1.00  0.00     0.013 C 
HETATM    5  C5  UNL     1       3.304  10.098   0.792  1.00  0.00     0.010 C 
HETATM    6  C6  UNL     1       4.585   9.376   0.499  1.00  0.00     0.015 C 
ENDROOT
TORSDOF 0
ENDMDL
