MODEL 1
REMARK VINA RESULT: -4.407399938      0.000      0.000
REMARK  0 active torsions:
REMARK  status: ('A' for Active; 'I' for Inactive)
ROOT
HETATM    1  C1  UNL     1       4.544   8.450   0.444  1.00  0.00     0.015 C 
HETATM    2  C2  UNL     1       3.243   8.699   0.437  1.00  0.00    -0.080 A 
HETATM    3  C3  UNL     1       1.912   8.882  -0.184  1.00  0.00     0.047 A 
HETATM    4  C4  UNL     1       1.996   9.036   1.259  1.00  0.00    -0.021 A 
HETATM    5  C5  UNL     1       2.048  10.420   1.852  1.00  0.00     0.020 C 
HETATM    6  C6  UNL     1       1.620   7.927   2.214  1.00  0.00     0.020 C 
ENDROOT
TORSDOF 0
ENDMDL
MODEL 2
REMARK VINA RESULT: -4.365849441      1.066      1.791
REMARK  0 active torsions:
REMARK  status: ('A' for Active; 'I' for Inactive)
ROOT
HETATM    1  C1  UNL     1       4.533  10.220   0.795  1.00  0.00     0.015 C 
HETATM    2  C2  UNL     1       3.804   9.114   0.758  1.00  0.00    -0.080 A 
HETATM    3  C3  UNL     1       3.580   7.652   0.721  1.00  0.00     0.047 A 
HETATM    4  C4  UNL     1       2.401   8.503   0.722  1.00  0.00    -0.021 A 
HETATM    5  C5  UNL     1       1.684   8.772  -0.575  1.00  0.00     0.020 C 
HETATM    6  C6  UNL     1       1.614   8.793   1.979  1.00  0.00     0.020 C 
ENDROOT
TORSDOF 0
ENDMDL
MODEL 3
REMARK VINA RESULT: -4.219020806      0.931      2.755
REMARK  0 active torsions:
REMARK  status: ('A' for Active; 'I' for Inactive)
ROOT
HETATM    1  C1  UNL     1       1.611   9.925   2.287  1.00  0.00     0.015 C 
HETATM    2  C2  UNL     1       2.054   9.333   1.189  1.00  0.00    -0.080 A 
HETATM    3  C3  UNL     1       1.957   8.826  -0.199  1.00  0.00     0.047 A 
HETATM    4  C4  UNL     1       3.221   8.630   0.491  1.00  0.00    -0.021 A 
HETATM    5  C5  UNL     1       3.534   7.285   1.093  1.00  0.00     0.020 C 
HETATM    6  C6  UNL     1       4.405   9.548   0.285  1.00  0.00     0.020 C 
ENDROOT
TORSDOF 0
ENDMDL
MODEL 4
REMARK VINA RESULT: -4.204516566      0.765      2.657
REMARK  0 active torsions:
REMARK  status: ('A' for Active; 'I' for Inactive)
ROOT
HETATM    1  C1  UNL     1       2.307  10.600   2.330  1.00  0.00     0.015 C 
HETATM    2  C2  UNL     1       2.030   9.387   1.877  1.00  0.00    -0.080 A 
HETATM    3  C3  UNL     1       1.394   8.051   1.911  1.00  0.00     0.047 A 
HETATM    4  C4  UNL     1       2.243   8.350   0.770  1.00  0.00    -0.021 A 
HETATM    5  C5  UNL     1       3.651   7.817   0.737  1.00  0.00     0.020 C 
HETATM    6  C6  UNL     1       1.682   8.804  -0.558  1.00  0.00     0.020 C 
ENDROOT
TORSDOF 0
ENDMDL
MODEL 5
REMARK VINA RESULT: -4.123894958      0.884      2.705
REMARK  0 active torsions:
REMARK  status: ('A' for Active; 'I' for Inactive)
ROOT
HETATM    1  C1  UNL     1       1.533   8.339   2.269  1.00  0.00     0.015 C 
HETATM    2  C2  UNL     1       2.133   8.688   1.141  1.00  0.00    -0.080 A 
HETATM    3  C3  UNL     1       2.210   8.972  -0.310  1.00  0.00     0.047 A 
HETATM    4  C4  UNL     1       3.434   9.120   0.460  1.00  0.00    -0.021 A 
HETATM    5  C5  UNL     1       4.465   8.022   0.427  1.00  0.00     0.020 C 
HETATM    6  C6  UNL     1       3.923  10.463   0.953  1.00  0.00     0.020 C 
ENDROOT
TORSDOF 0
ENDMDL
