MODEL 1
REMARK VINA RESULT: -3.943036311      0.000      0.000
REMARK  0 active torsions:
REMARK  status: ('A' for Active; 'I' for Inactive)
ROOT
HETATM    1  O1  UNL     1       4.770   8.839   1.095  1.00  0.00    -0.258 OA
HETATM    2  S1  UNL     1       3.512   9.859   0.580  1.00  0.00     0.014 S 
HETATM    3  C1  UNL     1       2.770  10.525   2.072  1.00  0.00     0.108 C 
HETATM    4  C2  UNL     1       1.805   9.494   2.509  1.00  0.00     0.013 C 
HETATM    5  C3  UNL     1       1.780   8.341   1.609  1.00  0.00     0.013 C 
HETATM    6  C4  UNL     1       2.147   8.736   0.221  1.00  0.00     0.108 C 
ENDROOT
TORSDOF 0
ENDMDL
MODEL 2
REMARK VINA RESULT: -3.747519637      1.409      1.778
REMARK  0 active torsions:
REMARK  status: ('A' for Active; 'I' for Inactive)
ROOT
HETATM    1  O1  UNL     1       3.257   7.371   1.045  1.00  0.00    -0.258 OA
HETATM    2  S1  UNL     1       2.306   8.646   0.445  1.00  0.00     0.014 S 
HETATM    3  C1  UNL     1       3.269  10.140   0.687  1.00  0.00     0.108 C 
HETATM    4  C2  UNL     1       2.997  10.546   2.081  1.00  0.00     0.013 C 
HETATM    5  C3  UNL     1       2.069   9.635   2.752  1.00  0.00     0.013 C 
HETATM    6  C4  UNL     1       1.142   8.999   1.776  1.00  0.00     0.108 C 
ENDROOT
TORSDOF 0
ENDMDL
MODEL 3
REMARK VINA RESULT: -3.604796065      1.919      2.335
REMARK  0 active torsions:
REMARK  status: ('A' for Active; 'I' for Inactive)
ROOT
HETATM    1  O1  UNL     1       1.655   8.757  -0.449  1.00  0.00    -0.258 OA
HETATM    2  S1  UNL     1       2.419   8.240   0.978  1.00  0.00     0.014 S 
HETATM    3  C1  UNL     1       1.829   9.325   2.279  1.00  0.00     0.108 C 
HETATM    4  C2  UNL     1       2.698  10.518   2.202  1.00  0.00     0.013 C 
HETATM    5  C3  UNL     1       3.703  10.403   1.145  1.00  0.00     0.013 C 
HETATM    6  C4  UNL     1       4.061   8.979   0.898  1.00  0.00     0.108 C 
ENDROOT
TORSDOF 0
ENDMDL
MODEL 4
REMARK VINA RESULT: -3.587884440      1.690      2.394
REMARK  0 active torsions:
REMARK  status: ('A' for Active; 'I' for Inactive)
ROOT
HETATM    1  O1  UNL     1       4.689  11.331  -0.142  1.00  0.00    -0.258 OA
HETATM    2  S1  UNL     1       4.750  10.234   1.155  1.00  0.00     0.014 S 
HETATM    3  C1  UNL     1       4.326   8.631   0.470  1.00  0.00     0.108 C 
HETATM    4  C2  UNL     1       2.848   8.599   0.464  1.00  0.00     0.013 C 
HETATM    5  C3  UNL     1       2.266   9.827   1.005  1.00  0.00     0.013 C 
HETATM    6  C4  UNL     1       3.174  10.458   2.002  1.00  0.00     0.108 C 
ENDROOT
TORSDOF 0
ENDMDL
MODEL 5
REMARK VINA RESULT: -3.492695918      2.039      2.675
REMARK  0 active torsions:
REMARK  status: ('A' for Active; 'I' for Inactive)
ROOT
HETATM    1  O1  UNL     1       2.410  10.053   2.885  1.00  0.00    -0.258 OA
HETATM    2  S1  UNL     1       2.321  10.146   1.191  1.00  0.00     0.014 S 
HETATM    3  C1  UNL     1       2.170   8.456   0.607  1.00  0.00     0.108 C 
HETATM    4  C2  UNL     1       3.558   7.952   0.543  1.00  0.00     0.013 C 
HETATM    5  C3  UNL     1       4.534   8.962   0.949  1.00  0.00     0.013 C 
HETATM    6  C4  UNL     1       4.035  10.335   0.664  1.00  0.00     0.108 C 
ENDROOT
TORSDOF 0
ENDMDL
