MODEL 1
REMARK VINA RESULT: -4.896254398      0.000      0.000
REMARK  0 active torsions:
REMARK  status: ('A' for Active; 'I' for Inactive)
ROOT
HETATM    1  N1  UNL     1       4.856  10.826   0.297  1.00  0.00    -0.197 NA
HETATM    2  C1  UNL     1       4.109  10.234   0.947  1.00  0.00     0.064 C 
HETATM    3  C2  UNL     1       3.170   9.498   1.749  1.00  0.00     0.101 C 
HETATM    4  C3  UNL     1       2.766   8.153   1.230  1.00  0.00     0.004 C 
HETATM    5  C4  UNL     1       1.523   8.359   2.066  1.00  0.00     0.012 C 
HETATM    6  C5  UNL     1       1.731   9.686   1.366  1.00  0.00     0.004 C 
HETATM    7  C6  UNL     1       2.029   8.879   0.145  1.00  0.00     0.012 C 
ENDROOT
TORSDOF 0
ENDMDL
MODEL 2
REMARK VINA RESULT: -4.864978966      1.037      1.578
REMARK  0 active torsions:
REMARK  status: ('A' for Active; 'I' for Inactive)
ROOT
HETATM    1  N1  UNL     1       4.909  11.363   1.887  1.00  0.00    -0.197 NA
HETATM    2  C1  UNL     1       4.262  10.551   1.382  1.00  0.00     0.064 C 
HETATM    3  C2  UNL     1       3.452   9.538   0.762  1.00  0.00     0.101 C 
HETATM    4  C3  UNL     1       1.988   9.832   0.657  1.00  0.00     0.004 C 
HETATM    5  C4  UNL     1       1.834   8.329   0.596  1.00  0.00     0.012 C 
HETATM    6  C5  UNL     1       2.829   8.561   1.715  1.00  0.00     0.004 C 
HETATM    7  C6  UNL     1       1.928   9.672   2.147  1.00  0.00     0.012 C 
ENDROOT
TORSDOF 0
ENDMDL
MODEL 3
REMARK VINA RESULT: -4.818172356      0.646      1.013
REMARK  0 active torsions:
REMARK  status: ('A' for Active; 'I' for Inactive)
ROOT
HETATM    1  N1  UNL     1       5.004  10.466   0.639  1.00  0.00    -0.197 NA
HETATM    2  C1  UNL     1       3.921  10.257   0.977  1.00  0.00     0.064 C 
HETATM    3  C2  UNL     1       2.572   9.986   1.393  1.00  0.00     0.101 C 
HETATM    4  C3  UNL     1       2.387   8.848   2.347  1.00  0.00     0.004 C 
HETATM    5  C4  UNL     1       0.979   8.800   1.799  1.00  0.00     0.012 C 
HETATM    6  C5  UNL     1       1.856   8.953   0.573  1.00  0.00     0.004 C 
HETATM    7  C6  UNL     1       2.748   7.938   1.210  1.00  0.00     0.012 C 
ENDROOT
TORSDOF 0
ENDMDL
MODEL 4
REMARK VINA RESULT: -4.306630080      1.151      1.639
REMARK  0 active torsions:
REMARK  status: ('A' for Active; 'I' for Inactive)
ROOT
HETATM    1  N1  UNL     1       5.228   8.889   0.412  1.00  0.00    -0.197 NA
HETATM    2  C1  UNL     1       4.143   8.610   0.689  1.00  0.00     0.064 C 
HETATM    3  C2  UNL     1       2.793   8.269   1.043  1.00  0.00     0.101 C 
HETATM    4  C3  UNL     1       1.751   9.307   0.763  1.00  0.00     0.004 C 
HETATM    5  C4  UNL     1       0.964   8.611   1.849  1.00  0.00     0.012 C 
HETATM    6  C5  UNL     1       2.367   8.719   2.410  1.00  0.00     0.004 C 
HETATM    7  C6  UNL     1       2.366  10.111   1.869  1.00  0.00     0.012 C 
ENDROOT
TORSDOF 0
ENDMDL
MODEL 5
REMARK VINA RESULT: -4.271909851      1.933      3.173
REMARK  0 active torsions:
REMARK  status: ('A' for Active; 'I' for Inactive)
ROOT
HETATM    1  N1  UNL     1       1.599   8.582   1.950  1.00  0.00    -0.197 NA
HETATM    2  C1  UNL     1       2.289   9.376   1.476  1.00  0.00     0.064 C 
HETATM    3  C2  UNL     1       3.158  10.360   0.892  1.00  0.00     0.101 C 
HETATM    4  C3  UNL     1       4.174   9.853  -0.084  1.00  0.00     0.004 C 
HETATM    5  C4  UNL     1       4.943  11.102   0.281  1.00  0.00     0.012 C 
HETATM    6  C5  UNL     1       4.462  10.554   1.608  1.00  0.00     0.004 C 
HETATM    7  C6  UNL     1       4.863   9.214   1.084  1.00  0.00     0.012 C 
ENDROOT
TORSDOF 0
ENDMDL
