MODEL 1
REMARK VINA RESULT: -5.344947752      0.000      0.000
REMARK  0 active torsions:
REMARK  status: ('A' for Active; 'I' for Inactive)
ROOT
HETATM    1  C1  UNL     1       4.011   9.413   0.975  1.00  0.00     0.005 C 
HETATM    2  C2  UNL     1       3.585   7.947   0.852  1.00  0.00     0.005 C 
HETATM    3  C3  UNL     1       2.063   8.059   0.923  1.00  0.00    -0.014 C 
HETATM    4  C4  UNL     1       1.730   8.573   2.290  1.00  0.00     0.005 C 
HETATM    5  C5  UNL     1       2.061  10.073   2.269  1.00  0.00     0.005 C 
HETATM    6  C6  UNL     1       2.739  10.227   0.942  1.00  0.00    -0.014 C 
HETATM    7  C7  UNL     1       1.861   9.308   0.073  1.00  0.00     0.009 C 
ENDROOT
TORSDOF 0
ENDMDL
MODEL 2
REMARK VINA RESULT: -5.335445685      0.021      2.487
REMARK  0 active torsions:
REMARK  status: ('A' for Active; 'I' for Inactive)
ROOT
HETATM    1  C1  UNL     1       1.722   8.596   2.292  1.00  0.00     0.005 C 
HETATM    2  C2  UNL     1       2.069  10.087   2.267  1.00  0.00     0.005 C 
HETATM    3  C3  UNL     1       2.759  10.223   0.910  1.00  0.00    -0.014 C 
HETATM    4  C4  UNL     1       4.014   9.408   0.979  1.00  0.00     0.005 C 
HETATM    5  C5  UNL     1       3.572   7.942   0.857  1.00  0.00     0.005 C 
HETATM    6  C6  UNL     1       2.080   8.056   0.928  1.00  0.00    -0.014 C 
HETATM    7  C7  UNL     1       1.857   9.319   0.077  1.00  0.00     0.009 C 
ENDROOT
TORSDOF 0
ENDMDL
MODEL 3
REMARK VINA RESULT: -4.957096170      0.807      1.669
REMARK  0 active torsions:
REMARK  status: ('A' for Active; 'I' for Inactive)
ROOT
HETATM    1  C1  UNL     1       2.857  10.425   2.102  1.00  0.00     0.005 C 
HETATM    2  C2  UNL     1       3.952  10.005   1.118  1.00  0.00     0.005 C 
HETATM    3  C3  UNL     1       3.283   8.841   0.388  1.00  0.00    -0.014 C 
HETATM    4  C4  UNL     1       3.068   7.760   1.402  1.00  0.00     0.005 C 
HETATM    5  C5  UNL     1       1.867   8.209   2.248  1.00  0.00     0.005 C 
HETATM    6  C6  UNL     1       1.638   9.605   1.753  1.00  0.00    -0.014 C 
HETATM    7  C7  UNL     1       1.875   9.408   0.246  1.00  0.00     0.009 C 
ENDROOT
TORSDOF 0
ENDMDL
MODEL 4
REMARK VINA RESULT: -4.946086927      0.811      1.865
REMARK  0 active torsions:
REMARK  status: ('A' for Active; 'I' for Inactive)
ROOT
HETATM    1  C1  UNL     1       3.055   7.760   1.424  1.00  0.00     0.005 C 
HETATM    2  C2  UNL     1       1.850   8.219   2.250  1.00  0.00     0.005 C 
HETATM    3  C3  UNL     1       1.637   9.639   1.725  1.00  0.00    -0.014 C 
HETATM    4  C4  UNL     1       2.849  10.430   2.110  1.00  0.00     0.005 C 
HETATM    5  C5  UNL     1       3.959   9.999   1.139  1.00  0.00     0.005 C 
HETATM    6  C6  UNL     1       3.318   8.854   0.416  1.00  0.00    -0.014 C 
HETATM    7  C7  UNL     1       1.890   9.400   0.241  1.00  0.00     0.009 C 
ENDROOT
TORSDOF 0
ENDMDL
MODEL 5
REMARK VINA RESULT: -4.359890403      0.922      2.233
REMARK  0 active torsions:
REMARK  status: ('A' for Active; 'I' for Inactive)
ROOT
HETATM    1  C1  UNL     1       3.150  10.303   1.862  1.00  0.00     0.005 C 
HETATM    2  C2  UNL     1       1.702   9.916   2.176  1.00  0.00     0.005 C 
HETATM    3  C3  UNL     1       1.609   8.525   1.548  1.00  0.00    -0.014 C 
HETATM    4  C4  UNL     1       1.781   8.704   0.071  1.00  0.00     0.005 C 
HETATM    5  C5  UNL     1       3.281   8.949  -0.153  1.00  0.00     0.005 C 
HETATM    6  C6  UNL     1       3.791   9.081   1.250  1.00  0.00    -0.014 C 
HETATM    7  C7  UNL     1       2.975   7.977   1.946  1.00  0.00     0.009 C 
ENDROOT
TORSDOF 0
ENDMDL
