MODEL 1
REMARK VINA RESULT: -5.545276665      0.000      0.000
REMARK  0 active torsions:
REMARK  status: ('A' for Active; 'I' for Inactive)
ROOT
HETATM    1  C1  UNL     1       1.573  10.047   2.283  1.00  0.00     0.001 C 
HETATM    2  C2  UNL     1       1.504   8.555   1.985  1.00  0.00     0.005 C 
HETATM    3  C3  UNL     1       2.226   8.509   0.643  1.00  0.00    -0.010 A 
HETATM    4  C4  UNL     1       3.676   8.243   0.575  1.00  0.00     0.010 A 
HETATM    5  C5  UNL     1       3.206   9.663   0.656  1.00  0.00    -0.010 A 
HETATM    6  C6  UNL     1       3.041  10.327   2.006  1.00  0.00     0.005 C 
ENDROOT
TORSDOF 0
ENDMDL
MODEL 2
REMARK VINA RESULT: -5.475965304      0.824      2.617
REMARK  0 active torsions:
REMARK  status: ('A' for Active; 'I' for Inactive)
ROOT
HETATM    1  C1  UNL     1       4.208   9.047   0.301  1.00  0.00     0.001 C 
HETATM    2  C2  UNL     1       3.836  10.121   1.315  1.00  0.00     0.005 C 
HETATM    3  C3  UNL     1       2.315  10.046   1.248  1.00  0.00    -0.010 A 
HETATM    4  C4  UNL     1       1.560   9.193   2.186  1.00  0.00     0.010 A 
HETATM    5  C5  UNL     1       1.983   8.618   0.870  1.00  0.00    -0.010 A 
HETATM    6  C6  UNL     1       3.312   7.905   0.750  1.00  0.00     0.005 C 
ENDROOT
TORSDOF 0
ENDMDL
MODEL 3
REMARK VINA RESULT: -5.265572632      0.803      1.234
REMARK  0 active torsions:
REMARK  status: ('A' for Active; 'I' for Inactive)
ROOT
HETATM    1  C1  UNL     1       1.390   8.885   1.858  1.00  0.00     0.001 C 
HETATM    2  C2  UNL     1       2.495   8.007   1.286  1.00  0.00     0.005 C 
HETATM    3  C3  UNL     1       3.216   9.016   0.399  1.00  0.00    -0.010 A 
HETATM    4  C4  UNL     1       4.372   9.778   0.909  1.00  0.00     0.010 A 
HETATM    5  C5  UNL     1       3.003  10.368   1.046  1.00  0.00    -0.010 A 
HETATM    6  C6  UNL     1       2.188  10.104   2.293  1.00  0.00     0.005 C 
ENDROOT
TORSDOF 0
ENDMDL
MODEL 4
REMARK VINA RESULT: -5.250747895      0.628      2.133
REMARK  0 active torsions:
REMARK  status: ('A' for Active; 'I' for Inactive)
ROOT
HETATM    1  C1  UNL     1       3.716  10.488   0.945  1.00  0.00     0.001 C 
HETATM    2  C2  UNL     1       2.932  10.437   2.251  1.00  0.00     0.005 C 
HETATM    3  C3  UNL     1       1.709   9.645   1.805  1.00  0.00    -0.010 A 
HETATM    4  C4  UNL     1       1.661   8.178   1.962  1.00  0.00     0.010 A 
HETATM    5  C5  UNL     1       2.177   8.750   0.678  1.00  0.00    -0.010 A 
HETATM    6  C6  UNL     1       3.656   9.031   0.517  1.00  0.00     0.005 C 
ENDROOT
TORSDOF 0
ENDMDL
MODEL 5
REMARK VINA RESULT: -5.240037393      0.539      2.438
REMARK  0 active torsions:
REMARK  status: ('A' for Active; 'I' for Inactive)
ROOT
HETATM    1  C1  UNL     1       2.231   8.098   0.644  1.00  0.00     0.001 C 
HETATM    2  C2  UNL     1       3.520   8.909   0.610  1.00  0.00     0.005 C 
HETATM    3  C3  UNL     1       2.992  10.280   1.014  1.00  0.00    -0.010 A 
HETATM    4  C4  UNL     1       3.006  10.708   2.426  1.00  0.00     0.010 A 
HETATM    5  C5  UNL     1       1.787  10.022   1.893  1.00  0.00    -0.010 A 
HETATM    6  C6  UNL     1       1.663   8.517   1.990  1.00  0.00     0.005 C 
ENDROOT
TORSDOF 0
ENDMDL
