MODEL 1
REMARK VINA RESULT: -5.035743195      0.000      0.000
REMARK  1 active torsions:
REMARK  status: ('A' for Active; 'I' for Inactive)
REMARK    1  A    between atoms: C5_5  and  N1_6 
ROOT
HETATM    1  C1  UNL     1       1.110   8.891   2.008  1.00  0.00     0.010 C 
HETATM    2  C2  UNL     1       2.029   9.284   0.859  1.00  0.00    -0.017 C 
HETATM    3  C3  UNL     1       3.230   8.390   0.904  1.00  0.00     0.006 C 
HETATM    4  C4  UNL     1       4.322   9.226   0.267  1.00  0.00     0.033 C 
HETATM    5  C5  UNL     1       3.965  10.643   0.584  1.00  0.00     0.183 C 
HETATM    6  C6  UNL     1       2.545  10.672   1.063  1.00  0.00     0.037 C 
ENDROOT
BRANCH   5   7
HETATM    7  N1  UNL     1       4.807  11.254   1.574  1.00  0.00    -0.075 N 
ATOM      8  H13 UNL     1       5.153  10.553   2.230  1.00  0.00     0.274 HD
ATOM      9  H12 UNL     1       5.689  11.553   1.158  1.00  0.00     0.274 HD
ATOM     10  H11 UNL     1       4.369  12.027   2.075  1.00  0.00     0.274 HD
ENDBRANCH   5   7
TORSDOF 1
ENDMDL
MODEL 2
REMARK VINA RESULT: -4.750112762      1.804      2.966
REMARK  1 active torsions:
REMARK  status: ('A' for Active; 'I' for Inactive)
REMARK    1  A    between atoms: C5_5  and  N1_6 
ROOT
HETATM    1  C1  UNL     1       5.015  11.622   0.228  1.00  0.00     0.010 C 
HETATM    2  C2  UNL     1       4.423  10.492   1.060  1.00  0.00    -0.017 C 
HETATM    3  C3  UNL     1       4.755   9.199   0.382  1.00  0.00     0.006 C 
HETATM    4  C4  UNL     1       3.632   8.273   0.807  1.00  0.00     0.033 C 
HETATM    5  C5  UNL     1       2.447   9.163   1.009  1.00  0.00     0.183 C 
HETATM    6  C6  UNL     1       2.931  10.581   1.061  1.00  0.00     0.037 C 
ENDROOT
BRANCH   5   7
HETATM    7  N1  UNL     1       1.444   9.047  -0.012  1.00  0.00    -0.075 N 
ATOM      8  H13 UNL     1       1.101   8.088  -0.069  1.00  0.00     0.274 HD
ATOM      9  H12 UNL     1       0.587   9.521   0.273  1.00  0.00     0.274 HD
ATOM     10  H11 UNL     1       1.744   9.374  -0.930  1.00  0.00     0.274 HD
ENDBRANCH   5   7
TORSDOF 1
ENDMDL
MODEL 3
REMARK VINA RESULT: -4.744676771      1.156      1.945
REMARK  1 active torsions:
REMARK  status: ('A' for Active; 'I' for Inactive)
REMARK    1  A    between atoms: C5_5  and  N1_6 
ROOT
HETATM    1  C1  UNL     1       1.690   8.900   0.345  1.00  0.00     0.010 C 
HETATM    2  C2  UNL     1       2.814   9.392   1.245  1.00  0.00    -0.017 C 
HETATM    3  C3  UNL     1       2.419  10.732   1.785  1.00  0.00     0.006 C 
HETATM    4  C4  UNL     1       3.745  11.419   2.045  1.00  0.00     0.033 C 
HETATM    5  C5  UNL     1       4.686  10.850   1.031  1.00  0.00     0.183 C 
HETATM    6  C6  UNL     1       4.053   9.625   0.442  1.00  0.00     0.037 C 
ENDROOT
BRANCH   5   7
HETATM    7  N1  UNL     1       5.027  11.758  -0.029  1.00  0.00    -0.075 N 
ATOM      8  H13 UNL     1       6.040  11.837  -0.119  1.00  0.00     0.274 HD
ATOM      9  H12 UNL     1       4.802  11.349  -0.935  1.00  0.00     0.274 HD
ATOM     10  H11 UNL     1       4.603  12.681   0.061  1.00  0.00     0.274 HD
ENDBRANCH   5   7
TORSDOF 1
ENDMDL
MODEL 4
REMARK VINA RESULT: -4.738293870      1.995      3.307
REMARK  1 active torsions:
REMARK  status: ('A' for Active; 'I' for Inactive)
REMARK    1  A    between atoms: C5_5  and  N1_6 
ROOT
HETATM    1  C1  UNL     1       5.050  10.516   0.937  1.00  0.00     0.010 C 
HETATM    2  C2  UNL     1       3.559  10.799   0.817  1.00  0.00    -0.017 C 
HETATM    3  C3  UNL     1       3.054  11.191   2.171  1.00  0.00     0.006 C 
HETATM    4  C4  UNL     1       1.595  10.781   2.143  1.00  0.00     0.033 C 
HETATM    5  C5  UNL     1       1.537   9.605   1.221  1.00  0.00     0.183 C 
HETATM    6  C6  UNL     1       2.825   9.548   0.455  1.00  0.00     0.037 C 
ENDROOT
BRANCH   5   7
HETATM    7  N1  UNL     1       1.329   8.348   1.884  1.00  0.00    -0.075 N 
ATOM      8  H13 UNL     1       2.175   8.060   2.376  1.00  0.00     0.274 HD
ATOM      9  H12 UNL     1       0.697   8.462   2.676  1.00  0.00     0.274 HD
ATOM     10  H11 UNL     1       1.001   7.602   1.271  1.00  0.00     0.274 HD
ENDBRANCH   5   7
TORSDOF 1
ENDMDL
MODEL 5
REMARK VINA RESULT: -4.504143626      1.184      1.527
REMARK  1 active torsions:
REMARK  status: ('A' for Active; 'I' for Inactive)
REMARK    1  A    between atoms: C5_5  and  N1_6 
ROOT
HETATM    1  C1  UNL     1       1.405  10.935   2.455  1.00  0.00     0.010 C 
HETATM    2  C2  UNL     1       1.867  10.197   1.207  1.00  0.00    -0.017 C 
HETATM    3  C3  UNL     1       2.013   8.748   1.556  1.00  0.00     0.006 C 
HETATM    4  C4  UNL     1       3.069   8.251   0.588  1.00  0.00     0.033 C 
HETATM    5  C5  UNL     1       3.942   9.435   0.320  1.00  0.00     0.183 C 
HETATM    6  C6  UNL     1       3.232  10.661   0.810  1.00  0.00     0.037 C 
ENDROOT
BRANCH   5   7
HETATM    7  N1  UNL     1       5.235   9.363   0.941  1.00  0.00    -0.075 N 
ATOM      8  H13 UNL     1       5.163   9.556   1.940  1.00  0.00     0.274 HD
ATOM      9  H12 UNL     1       5.563   8.398   0.974  1.00  0.00     0.274 HD
ATOM     10  H11 UNL     1       5.939   9.964   0.511  1.00  0.00     0.274 HD
ENDBRANCH   5   7
TORSDOF 1
ENDMDL
