MODEL 1
REMARK VINA RESULT: -5.236305520      0.000      0.000
REMARK  0 active torsions:
REMARK  status: ('A' for Active; 'I' for Inactive)
ROOT
HETATM    1  C1  UNL     1       2.224   8.784   0.519  1.00  0.00     0.004 C 
HETATM    2  C2  UNL     1       3.677   9.165   0.645  1.00  0.00     0.022 C 
HETATM    3  C3  UNL     1       3.866  10.675   0.615  1.00  0.00     0.146 C 
HETATM    4  N1  UNL     1       3.811  11.234   1.927  1.00  0.00    -0.303 N 
ATOM      5  H1  UNL     1       4.582  11.785   2.307  1.00  0.00     0.187 HD
HETATM    6  O1  UNL     1       2.720  11.004   2.619  1.00  0.00    -0.285 OA
HETATM    7  C4  UNL     1       1.599  10.660   1.933  1.00  0.00     0.201 C 
HETATM    8  C5  UNL     1       1.504   9.132   1.822  1.00  0.00     0.029 C 
ENDROOT
TORSDOF 0
ENDMDL
MODEL 2
REMARK VINA RESULT: -5.206705958      1.649      2.600
REMARK  0 active torsions:
REMARK  status: ('A' for Active; 'I' for Inactive)
ROOT
HETATM    1  C1  UNL     1       1.588  10.671   2.059  1.00  0.00     0.004 C 
HETATM    2  C2  UNL     1       1.589   9.174   1.880  1.00  0.00     0.022 C 
HETATM    3  C3  UNL     1       2.122   8.773   0.512  1.00  0.00     0.146 C 
HETATM    4  N1  UNL     1       3.535   8.572   0.540  1.00  0.00    -0.303 N 
ATOM      5  H1  UNL     1       3.956   7.686   0.257  1.00  0.00     0.187 HD
HETATM    6  O1  UNL     1       4.265   9.584   0.947  1.00  0.00    -0.285 OA
HETATM    7  C4  UNL     1       3.713  10.823   0.888  1.00  0.00     0.201 C 
HETATM    8  C5  UNL     1       3.030  11.155   2.221  1.00  0.00     0.029 C 
ENDROOT
TORSDOF 0
ENDMDL
MODEL 3
REMARK VINA RESULT: -5.040809868      1.341      2.180
REMARK  0 active torsions:
REMARK  status: ('A' for Active; 'I' for Inactive)
ROOT
HETATM    1  C1  UNL     1       1.462   9.308   1.847  1.00  0.00     0.004 C 
HETATM    2  C2  UNL     1       1.775  10.782   1.850  1.00  0.00     0.022 C 
HETATM    3  C3  UNL     1       3.243  11.043   2.156  1.00  0.00     0.146 C 
HETATM    4  N1  UNL     1       4.026  11.082   0.963  1.00  0.00    -0.303 N 
ATOM      5  H1  UNL     1       4.590  11.896   0.718  1.00  0.00     0.187 HD
HETATM    6  O1  UNL     1       3.983  10.017   0.197  1.00  0.00    -0.285 OA
HETATM    7  C4  UNL     1       3.589   8.847   0.765  1.00  0.00     0.201 C 
HETATM    8  C5  UNL     1       2.074   8.671   0.599  1.00  0.00     0.029 C 
ENDROOT
TORSDOF 0
ENDMDL
MODEL 4
REMARK VINA RESULT: -4.832269370      1.784      2.842
REMARK  0 active torsions:
REMARK  status: ('A' for Active; 'I' for Inactive)
ROOT
HETATM    1  C1  UNL     1       3.830  11.012   0.989  1.00  0.00     0.004 C 
HETATM    2  C2  UNL     1       2.954  10.997   2.216  1.00  0.00     0.022 C 
HETATM    3  C3  UNL     1       1.561  10.469   1.904  1.00  0.00     0.146 C 
HETATM    4  N1  UNL     1       1.487   9.054   2.078  1.00  0.00    -0.303 N 
ATOM      5  H1  UNL     1       0.814   8.627   2.714  1.00  0.00     0.187 HD
HETATM    6  O1  UNL     1       2.330   8.332   1.378  1.00  0.00    -0.285 OA
HETATM    7  C4  UNL     1       2.875   8.896   0.269  1.00  0.00     0.201 C 
HETATM    8  C5  UNL     1       4.204   9.574   0.627  1.00  0.00     0.029 C 
ENDROOT
TORSDOF 0
ENDMDL
MODEL 5
REMARK VINA RESULT: -4.814753196      1.863      2.361
REMARK  0 active torsions:
REMARK  status: ('A' for Active; 'I' for Inactive)
ROOT
HETATM    1  C1  UNL     1       2.841  11.081   2.180  1.00  0.00     0.004 C 
HETATM    2  C2  UNL     1       3.669  10.788   0.956  1.00  0.00     0.022 C 
HETATM    3  C3  UNL     1       4.143   9.341   0.932  1.00  0.00     0.146 C 
HETATM    4  N1  UNL     1       3.210   8.496   0.260  1.00  0.00    -0.303 N 
ATOM      5  H1  UNL     1       3.482   7.931  -0.545  1.00  0.00     0.187 HD
HETATM    6  O1  UNL     1       1.984   8.484   0.729  1.00  0.00    -0.285 OA
HETATM    7  C4  UNL     1       1.796   8.893   2.010  1.00  0.00     0.201 C 
HETATM    8  C5  UNL     1       1.481  10.395   2.038  1.00  0.00     0.029 C 
ENDROOT
TORSDOF 0
ENDMDL
