MODEL 1
REMARK VINA RESULT: -4.932649800      0.000      0.000
REMARK  1 active torsions:
REMARK  status: ('A' for Active; 'I' for Inactive)
REMARK    1  A    between atoms: N1_1  and  C1_5 
ROOT
HETATM    1  C1  UNL     1       3.149  10.691   1.028  1.00  0.00     0.183 C 
HETATM    2  C2  UNL     1       3.316   9.248   0.567  1.00  0.00     0.033 C 
HETATM    3  C3  UNL     1       1.862   8.778   0.626  1.00  0.00     0.002 C 
HETATM    4  C4  UNL     1       1.488   9.238   2.037  1.00  0.00     0.002 C 
HETATM    5  C5  UNL     1       1.986  10.682   1.990  1.00  0.00     0.033 C 
ENDROOT
BRANCH   1   6
HETATM    6  N1  UNL     1       4.361  11.204   1.629  1.00  0.00    -0.075 N 
ATOM      7  H13 UNL     1       5.065  10.473   1.731  1.00  0.00     0.274 HD
ATOM      8  H12 UNL     1       4.863  11.820   0.988  1.00  0.00     0.274 HD
ATOM      9  H11 UNL     1       4.174  11.666   2.519  1.00  0.00     0.274 HD
ENDBRANCH   1   6
TORSDOF 1
ENDMDL
MODEL 2
REMARK VINA RESULT: -4.671454727      1.018      1.384
REMARK  1 active torsions:
REMARK  status: ('A' for Active; 'I' for Inactive)
REMARK    1  A    between atoms: N1_1  and  C1_5 
ROOT
HETATM    1  C1  UNL     1       3.375   9.655   0.561  1.00  0.00     0.183 C 
HETATM    2  C2  UNL     1       2.566   8.481   1.099  1.00  0.00     0.033 C 
HETATM    3  C3  UNL     1       1.299   9.212   1.545  1.00  0.00     0.002 C 
HETATM    4  C4  UNL     1       1.918  10.339   2.376  1.00  0.00     0.002 C 
HETATM    5  C5  UNL     1       2.974  10.847   1.395  1.00  0.00     0.033 C 
ENDROOT
BRANCH   1   6
HETATM    6  N1  UNL     1       4.798   9.393   0.616  1.00  0.00    -0.075 N 
ATOM      7  H13 UNL     1       5.012   8.633   1.261  1.00  0.00     0.274 HD
ATOM      8  H12 UNL     1       5.132   8.967  -0.249  1.00  0.00     0.274 HD
ATOM      9  H11 UNL     1       5.327  10.235   0.845  1.00  0.00     0.274 HD
ENDBRANCH   1   6
TORSDOF 1
ENDMDL
MODEL 3
REMARK VINA RESULT: -4.621320603      0.561      1.731
REMARK  1 active torsions:
REMARK  status: ('A' for Active; 'I' for Inactive)
REMARK    1  A    between atoms: N1_1  and  C1_5 
ROOT
HETATM    1  C1  UNL     1       3.653  10.289   1.363  1.00  0.00     0.183 C 
HETATM    2  C2  UNL     1       2.357  10.833   1.950  1.00  0.00     0.033 C 
HETATM    3  C3  UNL     1       1.541   9.542   2.041  1.00  0.00     0.002 C 
HETATM    4  C4  UNL     1       1.734   9.003   0.621  1.00  0.00     0.002 C 
HETATM    5  C5  UNL     1       3.252   9.124   0.491  1.00  0.00     0.033 C 
ENDROOT
BRANCH   1   6
HETATM    6  N1  UNL     1       4.376  11.306   0.630  1.00  0.00    -0.075 N 
ATOM      7  H13 UNL     1       4.824  11.971   1.260  1.00  0.00     0.274 HD
ATOM      8  H12 UNL     1       5.210  10.922   0.185  1.00  0.00     0.274 HD
ATOM      9  H11 UNL     1       3.778  11.780  -0.046  1.00  0.00     0.274 HD
ENDBRANCH   1   6
TORSDOF 1
ENDMDL
MODEL 4
REMARK VINA RESULT: -4.476883668      1.651      2.659
REMARK  1 active torsions:
REMARK  status: ('A' for Active; 'I' for Inactive)
REMARK    1  A    between atoms: N1_1  and  C1_5 
ROOT
HETATM    1  C1  UNL     1       2.342  10.442   1.120  1.00  0.00     0.183 C 
HETATM    2  C2  UNL     1       3.609  11.075   1.680  1.00  0.00     0.033 C 
HETATM    3  C3  UNL     1       4.614  10.657   0.604  1.00  0.00     0.002 C 
HETATM    4  C4  UNL     1       4.312   9.158   0.523  1.00  0.00     0.002 C 
HETATM    5  C5  UNL     1       2.790   9.197   0.394  1.00  0.00     0.033 C 
ENDROOT
BRANCH   1   6
HETATM    6  N1  UNL     1       1.380  10.158   2.165  1.00  0.00    -0.075 N 
ATOM      7  H13 UNL     1       1.837   9.805   3.005  1.00  0.00     0.274 HD
ATOM      8  H12 UNL     1       0.983  11.016   2.547  1.00  0.00     0.274 HD
ATOM      9  H11 UNL     1       0.652   9.521   1.842  1.00  0.00     0.274 HD
ENDBRANCH   1   6
TORSDOF 1
ENDMDL
MODEL 5
REMARK VINA RESULT: -4.229699199      1.884      2.627
REMARK  1 active torsions:
REMARK  status: ('A' for Active; 'I' for Inactive)
REMARK    1  A    between atoms: N1_1  and  C1_5 
ROOT
HETATM    1  C1  UNL     1       2.732   9.159   1.050  1.00  0.00     0.183 C 
HETATM    2  C2  UNL     1       3.986   9.032   0.194  1.00  0.00     0.033 C 
HETATM    3  C3  UNL     1       4.912  10.001   0.932  1.00  0.00     0.002 C 
HETATM    4  C4  UNL     1       3.999  11.227   1.022  1.00  0.00     0.002 C 
HETATM    5  C5  UNL     1       2.728  10.577   1.567  1.00  0.00     0.033 C 
ENDROOT
BRANCH   1   6
HETATM    6  N1  UNL     1       1.537   8.840   0.298  1.00  0.00    -0.075 N 
ATOM      7  H13 UNL     1       0.820   8.428   0.895  1.00  0.00     0.274 HD
ATOM      8  H12 UNL     1       1.041   9.684   0.012  1.00  0.00     0.274 HD
ATOM      9  H11 UNL     1       1.744   8.241  -0.501  1.00  0.00     0.274 HD
ENDBRANCH   1   6
TORSDOF 1
ENDMDL
