MODEL 1
REMARK VINA RESULT: -5.202273139      0.000      0.000
REMARK  2 active torsions:
REMARK  status: ('A' for Active; 'I' for Inactive)
REMARK    1  A    between atoms: C2_2  and  C3_3 
REMARK    2  A    between atoms: C3_3  and  C4_5 
ROOT
HETATM    1  C4  UNL     1       2.344   8.348   0.526  1.00  0.00     0.004 C 
HETATM    2  C5  UNL     1       1.834   6.954   0.836  1.00  0.00     0.006 C 
HETATM    3  C6  UNL     1       0.994   7.635   1.908  1.00  0.00     0.001 C 
HETATM    4  C7  UNL     1       2.169   8.612   2.023  1.00  0.00     0.006 C 
ENDROOT
BRANCH   1   5
HETATM    5  C3  UNL     1       3.754   8.303   0.045  1.00  0.00     0.084 C 
HETATM    6  S1  UNL     1       4.472   6.656   0.143  1.00  0.00    -0.088 SA
BRANCH   5   7
HETATM    7  C2  UNL     1       4.658   9.251   0.705  1.00  0.00    -0.021 C 
HETATM    8  C1  UNL     1       5.534   9.920  -0.049  1.00  0.00     0.008 C 
ENDBRANCH   5   7
ENDBRANCH   1   5
TORSDOF 2
ENDMDL
MODEL 2
REMARK VINA RESULT: -5.052095969      1.415      1.456
REMARK  2 active torsions:
REMARK  status: ('A' for Active; 'I' for Inactive)
REMARK    1  A    between atoms: C2_2  and  C3_3 
REMARK    2  A    between atoms: C3_3  and  C4_5 
ROOT
HETATM    1  C4  UNL     1       2.633   8.007   0.336  1.00  0.00     0.004 C 
HETATM    2  C5  UNL     1       2.646   6.527   0.665  1.00  0.00     0.006 C 
HETATM    3  C6  UNL     1       1.323   6.799   1.369  1.00  0.00     0.001 C 
HETATM    4  C7  UNL     1       1.922   8.175   1.681  1.00  0.00     0.006 C 
ENDROOT
BRANCH   1   5
HETATM    5  C3  UNL     1       4.019   8.550   0.273  1.00  0.00     0.084 C 
HETATM    6  S1  UNL     1       4.464   9.497   1.737  1.00  0.00    -0.088 SA
BRANCH   5   7
HETATM    7  C2  UNL     1       4.309   9.357  -0.916  1.00  0.00    -0.021 C 
HETATM    8  C1  UNL     1       5.254  10.298  -0.829  1.00  0.00     0.008 C 
ENDBRANCH   5   7
ENDBRANCH   1   5
TORSDOF 2
ENDMDL
MODEL 3
REMARK VINA RESULT: -4.900529877      1.588      3.808
REMARK  2 active torsions:
REMARK  status: ('A' for Active; 'I' for Inactive)
REMARK    1  A    between atoms: C2_2  and  C3_3 
REMARK    2  A    between atoms: C3_3  and  C4_5 
ROOT
HETATM    1  C4  UNL     1       4.056   8.412   0.316  1.00  0.00     0.004 C 
HETATM    2  C5  UNL     1       4.334   9.449  -0.755  1.00  0.00     0.006 C 
HETATM    3  C6  UNL     1       5.609   9.733   0.027  1.00  0.00     0.001 C 
HETATM    4  C7  UNL     1       4.776   9.375   1.262  1.00  0.00     0.006 C 
ENDROOT
BRANCH   1   5
HETATM    5  C3  UNL     1       2.591   8.265   0.547  1.00  0.00     0.084 C 
HETATM    6  S1  UNL     1       2.068   8.910   2.144  1.00  0.00    -0.088 SA
BRANCH   5   7
HETATM    7  C2  UNL     1       2.081   6.898   0.402  1.00  0.00    -0.021 C 
HETATM    8  C1  UNL     1       1.355   6.383   1.398  1.00  0.00     0.008 C 
ENDBRANCH   5   7
ENDBRANCH   1   5
TORSDOF 2
ENDMDL
MODEL 4
REMARK VINA RESULT: -4.653035762      1.631      2.144
REMARK  2 active torsions:
REMARK  status: ('A' for Active; 'I' for Inactive)
REMARK    1  A    between atoms: C2_2  and  C3_3 
REMARK    2  A    between atoms: C3_3  and  C4_5 
ROOT
HETATM    1  C4  UNL     1       3.799   8.169  -0.253  1.00  0.00     0.004 C 
HETATM    2  C5  UNL     1       3.915   6.732   0.217  1.00  0.00     0.006 C 
HETATM    3  C6  UNL     1       2.401   6.689   0.062  1.00  0.00     0.001 C 
HETATM    4  C7  UNL     1       2.449   8.166   0.468  1.00  0.00     0.006 C 
ENDROOT
BRANCH   1   5
HETATM    5  C3  UNL     1       4.854   9.019   0.368  1.00  0.00     0.084 C 
HETATM    6  S1  UNL     1       4.362   9.685   1.966  1.00  0.00    -0.088 SA
BRANCH   5   7
HETATM    7  C2  UNL     1       5.330  10.119  -0.475  1.00  0.00    -0.021 C 
HETATM    8  C1  UNL     1       4.800  10.260  -1.693  1.00  0.00     0.008 C 
ENDBRANCH   5   7
ENDBRANCH   1   5
TORSDOF 2
ENDMDL
MODEL 5
REMARK VINA RESULT: -4.627208765      1.193      3.458
REMARK  2 active torsions:
REMARK  status: ('A' for Active; 'I' for Inactive)
REMARK    1  A    between atoms: C2_2  and  C3_3 
REMARK    2  A    between atoms: C3_3  and  C4_5 
ROOT
HETATM    1  C4  UNL     1       4.458   8.252   0.444  1.00  0.00     0.004 C 
HETATM    2  C5  UNL     1       4.067   9.179  -0.690  1.00  0.00     0.006 C 
HETATM    3  C6  UNL     1       5.348   9.930  -0.353  1.00  0.00     0.001 C 
HETATM    4  C7  UNL     1       5.065   9.499   1.090  1.00  0.00     0.006 C 
ENDROOT
BRANCH   1   5
HETATM    5  C3  UNL     1       3.250   7.703   1.124  1.00  0.00     0.084 C 
HETATM    6  S1  UNL     1       2.196   6.757   0.015  1.00  0.00    -0.088 SA
BRANCH   5   7
HETATM    7  C2  UNL     1       2.430   8.702   1.816  1.00  0.00    -0.021 C 
HETATM    8  C1  UNL     1       1.156   8.400   2.084  1.00  0.00     0.008 C 
ENDBRANCH   5   7
ENDBRANCH   1   5
TORSDOF 2
ENDMDL
