MODEL 1
REMARK VINA RESULT: -5.890265792      0.000      0.000
REMARK  2 active torsions:
REMARK  status: ('A' for Active; 'I' for Inactive)
REMARK    1  A    between atoms: C1_4  and  O1_5 
REMARK    2  A    between atoms: O1_5  and  C2_6 
ROOT
HETATM    1  C2  UNL     1       3.393   8.602   0.482  1.00  0.00     0.129 C 
HETATM    2  C3  UNL     1       3.258   7.230  -0.075  1.00  0.00     0.032 C 
HETATM    3  C4  UNL     1       2.662   6.213   0.853  1.00  0.00     0.002 C 
HETATM    4  C5  UNL     1       1.350   6.690   1.414  1.00  0.00     0.000 C 
HETATM    5  C6  UNL     1       1.383   8.086   1.942  1.00  0.00     0.002 C 
HETATM    6  C7  UNL     1       2.620   8.857   1.740  1.00  0.00     0.032 C 
ENDROOT
BRANCH   1   7
HETATM    7  O1  UNL     1       4.769   8.841   0.694  1.00  0.00    -0.342 OA
BRANCH   7   8
HETATM    8  C1  UNL     1       5.483   9.779  -0.014  1.00  0.00     0.219 C 
HETATM    9  N1  UNL     1       4.971  10.330  -1.046  1.00  0.00    -0.390 N 
ATOM     10  H12 UNL     1       4.029  10.062  -1.333  1.00  0.00     0.157 HD
ATOM     11  H11 UNL     1       5.501  11.026  -1.572  1.00  0.00     0.157 HD
ENDBRANCH   7   8
ENDBRANCH   1   7
TORSDOF 2
ENDMDL
MODEL 2
REMARK VINA RESULT: -5.819728558      0.666      1.769
REMARK  2 active torsions:
REMARK  status: ('A' for Active; 'I' for Inactive)
REMARK    1  A    between atoms: C1_4  and  O1_5 
REMARK    2  A    between atoms: O1_5  and  C2_6 
ROOT
HETATM    1  C2  UNL     1       3.728   8.256   0.659  1.00  0.00     0.129 C 
HETATM    2  C3  UNL     1       3.006   8.921   1.777  1.00  0.00     0.032 C 
HETATM    3  C4  UNL     1       1.544   8.603   1.880  1.00  0.00     0.002 C 
HETATM    4  C5  UNL     1       1.310   7.117   1.907  1.00  0.00     0.000 C 
HETATM    5  C6  UNL     1       2.048   6.364   0.850  1.00  0.00     0.002 C 
HETATM    6  C7  UNL     1       2.993   7.121   0.013  1.00  0.00     0.032 C 
ENDROOT
BRANCH   1   7
HETATM    7  O1  UNL     1       4.036   9.249  -0.297  1.00  0.00    -0.342 OA
BRANCH   7   8
HETATM    8  C1  UNL     1       5.232   9.928  -0.311  1.00  0.00     0.219 C 
HETATM    9  N1  UNL     1       5.436  10.851  -1.169  1.00  0.00    -0.390 N 
ATOM     10  H12 UNL     1       4.699  11.073  -1.840  1.00  0.00     0.157 HD
ATOM     11  H11 UNL     1       6.323  11.355  -1.180  1.00  0.00     0.157 HD
ENDBRANCH   7   8
ENDBRANCH   1   7
TORSDOF 2
ENDMDL
MODEL 3
REMARK VINA RESULT: -4.748245716      0.916      1.016
REMARK  2 active torsions:
REMARK  status: ('A' for Active; 'I' for Inactive)
REMARK    1  A    between atoms: C1_4  and  O1_5 
REMARK    2  A    between atoms: O1_5  and  C2_6 
ROOT
HETATM    1  C2  UNL     1       3.620   8.979   0.234  1.00  0.00     0.129 C 
HETATM    2  C3  UNL     1       4.005   7.724  -0.466  1.00  0.00     0.032 C 
HETATM    3  C4  UNL     1       3.749   6.457   0.294  1.00  0.00     0.002 C 
HETATM    4  C5  UNL     1       2.324   6.384   0.770  1.00  0.00     0.000 C 
HETATM    5  C6  UNL     1       1.838   7.629   1.433  1.00  0.00     0.002 C 
HETATM    6  C7  UNL     1       2.736   8.794   1.429  1.00  0.00     0.032 C 
ENDROOT
BRANCH   1   7
HETATM    7  O1  UNL     1       4.811   9.642   0.600  1.00  0.00    -0.342 OA
BRANCH   7   8
HETATM    8  C1  UNL     1       5.987   9.510  -0.101  1.00  0.00     0.219 C 
HETATM    9  N1  UNL     1       6.663  10.545  -0.420  1.00  0.00    -0.390 N 
ATOM     10  H12 UNL     1       6.316  11.465  -0.148  1.00  0.00     0.157 HD
ATOM     11  H11 UNL     1       7.536  10.447  -0.941  1.00  0.00     0.157 HD
ENDBRANCH   7   8
ENDBRANCH   1   7
TORSDOF 2
ENDMDL
MODEL 4
REMARK VINA RESULT: -4.567770967      1.210      1.210
REMARK  2 active torsions:
REMARK  status: ('A' for Active; 'I' for Inactive)
REMARK    1  A    between atoms: C1_4  and  O1_5 
REMARK    2  A    between atoms: O1_5  and  C2_6 
ROOT
HETATM    1  C2  UNL     1       2.586   8.465   0.055  1.00  0.00     0.129 C 
HETATM    2  C3  UNL     1       2.723   7.006  -0.200  1.00  0.00     0.032 C 
HETATM    3  C4  UNL     1       2.635   6.128   1.014  1.00  0.00     0.002 C 
HETATM    4  C5  UNL     1       1.388   6.414   1.805  1.00  0.00     0.000 C 
HETATM    5  C6  UNL     1       1.143   7.865   2.054  1.00  0.00     0.002 C 
HETATM    6  C7  UNL     1       2.049   8.827   1.407  1.00  0.00     0.032 C 
ENDROOT
BRANCH   1   7
HETATM    7  O1  UNL     1       3.854   9.051  -0.143  1.00  0.00    -0.342 OA
BRANCH   7   8
HETATM    8  C1  UNL     1       4.906   8.871   0.727  1.00  0.00     0.219 C 
HETATM    9  N1  UNL     1       5.097   9.698   1.681  1.00  0.00    -0.390 N 
ATOM     10  H12 UNL     1       4.459  10.488   1.786  1.00  0.00     0.157 HD
ATOM     11  H11 UNL     1       5.876   9.564   2.326  1.00  0.00     0.157 HD
ENDBRANCH   7   8
ENDBRANCH   1   7
TORSDOF 2
ENDMDL
MODEL 5
REMARK VINA RESULT: -4.344150868      1.471      1.471
REMARK  2 active torsions:
REMARK  status: ('A' for Active; 'I' for Inactive)
REMARK    1  A    between atoms: C1_4  and  O1_5 
REMARK    2  A    between atoms: O1_5  and  C2_6 
ROOT
HETATM    1  C2  UNL     1       2.555   8.652   0.162  1.00  0.00     0.129 C 
HETATM    2  C3  UNL     1       2.163   7.285  -0.270  1.00  0.00     0.032 C 
HETATM    3  C4  UNL     1       1.973   6.288   0.834  1.00  0.00     0.002 C 
HETATM    4  C5  UNL     1       1.025   6.806   1.881  1.00  0.00     0.000 C 
HETATM    5  C6  UNL     1       1.313   8.201   2.328  1.00  0.00     0.002 C 
HETATM    6  C7  UNL     1       2.378   8.932   1.624  1.00  0.00     0.032 C 
ENDROOT
BRANCH   1   7
HETATM    7  O1  UNL     1       3.902   8.847  -0.215  1.00  0.00    -0.342 OA
BRANCH   7   8
HETATM    8  C1  UNL     1       4.963   8.466   0.574  1.00  0.00     0.219 C 
HETATM    9  N1  UNL     1       5.319   7.241   0.622  1.00  0.00    -0.390 N 
ATOM     10  H12 UNL     1       4.805   6.555   0.067  1.00  0.00     0.157 HD
ATOM     11  H11 UNL     1       6.106   6.959   1.207  1.00  0.00     0.157 HD
ENDBRANCH   7   8
ENDBRANCH   1   7
TORSDOF 2
ENDMDL
