MODEL 1
REMARK VINA RESULT: -6.651253600      0.000      0.000
REMARK  2 active torsions:
REMARK  status: ('A' for Active; 'I' for Inactive)
REMARK    1  A    between atoms: C2_2  and  N1_3 
REMARK    2  A    between atoms: N1_3  and  C3_5 
ROOT
HETATM    1  C3  UNL     1       3.549   8.523   0.081  1.00  0.00     0.081 C 
HETATM    2  C4  UNL     1       3.789   8.971   1.499  1.00  0.00     0.025 C 
HETATM    3  C5  UNL     1       2.568   9.104   2.320  1.00  0.00     0.002 C 
HETATM    4  C6  UNL     1       1.367   8.373   1.799  1.00  0.00     0.000 C 
HETATM    5  C7  UNL     1       1.564   6.906   1.653  1.00  0.00     0.000 C 
HETATM    6  C8  UNL     1       2.135   6.492   0.321  1.00  0.00     0.002 C 
HETATM    7  C9  UNL     1       3.541   6.991   0.119  1.00  0.00     0.025 C 
ENDROOT
BRANCH   1   8
HETATM    8  N1  UNL     1       4.618   8.986  -0.774  1.00  0.00    -0.395 N 
ATOM      9  H1  UNL     1       5.110   8.304  -1.351  1.00  0.00     0.159 HD
BRANCH   8  10
HETATM   10  C2  UNL     1       5.011  10.339  -0.845  1.00  0.00     0.073 C 
HETATM   11  C1  UNL     1       4.685  11.087  -1.873  1.00  0.00     0.029 C 
ENDBRANCH   8  10
ENDBRANCH   1   8
TORSDOF 2
ENDMDL
MODEL 2
REMARK VINA RESULT: -6.017442211      1.122      2.197
REMARK  2 active torsions:
REMARK  status: ('A' for Active; 'I' for Inactive)
REMARK    1  A    between atoms: C2_2  and  N1_3 
REMARK    2  A    between atoms: N1_3  and  C3_5 
ROOT
HETATM    1  C3  UNL     1       3.807   8.431   1.128  1.00  0.00     0.081 C 
HETATM    2  C4  UNL     1       3.744   7.483  -0.041  1.00  0.00     0.025 C 
HETATM    3  C5  UNL     1       3.121   6.177   0.257  1.00  0.00     0.002 C 
HETATM    4  C6  UNL     1       2.268   6.143   1.489  1.00  0.00     0.000 C 
HETATM    5  C7  UNL     1       1.133   7.104   1.469  1.00  0.00     0.000 C 
HETATM    6  C8  UNL     1       1.478   8.473   1.997  1.00  0.00     0.002 C 
HETATM    7  C9  UNL     1       2.476   9.191   1.128  1.00  0.00     0.025 C 
ENDROOT
BRANCH   1   8
HETATM    8  N1  UNL     1       4.901   9.359   0.955  1.00  0.00    -0.395 N 
ATOM      9  H1  UNL     1       5.454   9.618   1.772  1.00  0.00     0.159 HD
BRANCH   8  10
HETATM   10  C2  UNL     1       5.237   9.924  -0.294  1.00  0.00     0.073 C 
HETATM   11  C1  UNL     1       6.435  10.411  -0.517  1.00  0.00     0.029 C 
ENDBRANCH   8  10
ENDBRANCH   1   8
TORSDOF 2
ENDMDL
MODEL 3
REMARK VINA RESULT: -4.663531333      0.884      1.086
REMARK  2 active torsions:
REMARK  status: ('A' for Active; 'I' for Inactive)
REMARK    1  A    between atoms: C2_2  and  N1_3 
REMARK    2  A    between atoms: N1_3  and  C3_5 
ROOT
HETATM    1  C3  UNL     1       3.063   8.705  -0.043  1.00  0.00     0.081 C 
HETATM    2  C4  UNL     1       3.062   9.189   1.385  1.00  0.00     0.025 C 
HETATM    3  C5  UNL     1       1.938   8.689   2.204  1.00  0.00     0.002 C 
HETATM    4  C6  UNL     1       1.248   7.472   1.667  1.00  0.00     0.000 C 
HETATM    5  C7  UNL     1       2.140   6.294   1.494  1.00  0.00     0.000 C 
HETATM    6  C8  UNL     1       2.832   6.238   0.156  1.00  0.00     0.002 C 
HETATM    7  C9  UNL     1       3.810   7.367  -0.034  1.00  0.00     0.025 C 
ENDROOT
BRANCH   1   8
HETATM    8  N1  UNL     1       3.760   9.649  -0.886  1.00  0.00    -0.395 N 
ATOM      9  H1  UNL     1       3.210  10.286  -1.462  1.00  0.00     0.159 HD
BRANCH   8  10
HETATM   10  C2  UNL     1       5.168   9.730  -0.946  1.00  0.00     0.073 C 
HETATM   11  C1  UNL     1       5.873  10.076   0.104  1.00  0.00     0.029 C 
ENDBRANCH   8  10
ENDBRANCH   1   8
TORSDOF 2
ENDMDL
MODEL 4
REMARK VINA RESULT: -3.918170166      1.341      4.102
REMARK  2 active torsions:
REMARK  status: ('A' for Active; 'I' for Inactive)
REMARK    1  A    between atoms: C2_2  and  N1_3 
REMARK    2  A    between atoms: N1_3  and  C3_5 
ROOT
HETATM    1  C3  UNL     1       4.245   8.004   0.069  1.00  0.00     0.081 C 
HETATM    2  C4  UNL     1       4.146   8.948   1.239  1.00  0.00     0.025 C 
HETATM    3  C5  UNL     1       5.274   9.894   1.366  1.00  0.00     0.002 C 
HETATM    4  C6  UNL     1       6.089  10.086   0.123  1.00  0.00     0.000 C 
HETATM    5  C7  UNL     1       5.311  10.584  -1.044  1.00  0.00     0.000 C 
HETATM    6  C8  UNL     1       4.682   9.493  -1.873  1.00  0.00     0.002 C 
HETATM    7  C9  UNL     1       3.618   8.739  -1.121  1.00  0.00     0.025 C 
ENDROOT
BRANCH   1   8
HETATM    8  N1  UNL     1       3.504   6.795   0.343  1.00  0.00    -0.395 N 
ATOM      9  H1  UNL     1       4.022   5.949   0.578  1.00  0.00     0.159 HD
BRANCH   8  10
HETATM   10  C2  UNL     1       2.094   6.733   0.301  1.00  0.00     0.073 C 
HETATM   11  C1  UNL     1       1.381   6.737   1.402  1.00  0.00     0.029 C 
ENDBRANCH   8  10
ENDBRANCH   1   8
TORSDOF 2
ENDMDL
MODEL 5
REMARK VINA RESULT: -3.849565091      1.506      4.353
REMARK  2 active torsions:
REMARK  status: ('A' for Active; 'I' for Inactive)
REMARK    1  A    between atoms: C2_2  and  N1_3 
REMARK    2  A    between atoms: N1_3  and  C3_5 
ROOT
HETATM    1  C3  UNL     1       3.585   8.220  -0.311  1.00  0.00     0.081 C 
HETATM    2  C4  UNL     1       4.325   8.149  -1.622  1.00  0.00     0.025 C 
HETATM    3  C5  UNL     1       4.864   9.440  -2.097  1.00  0.00     0.002 C 
HETATM    4  C6  UNL     1       4.994  10.502  -1.048  1.00  0.00     0.000 C 
HETATM    5  C7  UNL     1       5.873  10.126   0.092  1.00  0.00     0.000 C 
HETATM    6  C8  UNL     1       5.158   9.405   1.207  1.00  0.00     0.002 C 
HETATM    7  C9  UNL     1       4.646   8.054   0.782  1.00  0.00     0.025 C 
ENDROOT
BRANCH   1   8
HETATM    8  N1  UNL     1       2.622   7.147  -0.226  1.00  0.00    -0.395 N 
ATOM      9  H1  UNL     1       2.154   6.843  -1.080  1.00  0.00     0.159 HD
BRANCH   8  10
HETATM   10  C2  UNL     1       2.300   6.499   0.987  1.00  0.00     0.073 C 
HETATM   11  C1  UNL     1       1.272   6.880   1.707  1.00  0.00     0.029 C 
ENDBRANCH   8  10
ENDBRANCH   1   8
TORSDOF 2
ENDMDL
