MODEL 1
REMARK VINA RESULT: -6.516115085      0.000      0.000
REMARK  2 active torsions:
REMARK  status: ('A' for Active; 'I' for Inactive)
REMARK    1  A    between atoms: C4_4  and  N1_5 
REMARK    2  A    between atoms: N1_5  and  C5_7 
ROOT
HETATM    1  C1  UNL     1       1.400   6.815   0.863  1.00  0.00     0.000 C 
HETATM    2  C2  UNL     1       2.815   6.277   0.769  1.00  0.00     0.002 C 
HETATM    3  C3  UNL     1       3.597   7.321  -0.038  1.00  0.00     0.024 C 
HETATM    4  C4  UNL     1       3.448   8.677   0.557  1.00  0.00     0.077 C 
HETATM    5  C8  UNL     1       2.716   8.693   1.870  1.00  0.00     0.024 C 
HETATM    6  C9  UNL     1       1.412   7.951   1.840  1.00  0.00     0.002 C 
ENDROOT
BRANCH   4   7
HETATM    7  N1  UNL     1       4.679   9.389   0.744  1.00  0.00    -0.413 N 
ATOM      8  H1  UNL     1       4.972   9.748   1.653  1.00  0.00     0.154 HD
BRANCH   7   9
HETATM    9  C5  UNL     1       5.460   9.555  -0.436  1.00  0.00     0.077 A 
HETATM   10  C6  UNL     1       5.251  10.802  -1.216  1.00  0.00     0.027 A 
HETATM   11  C7  UNL     1       6.559  10.520  -0.470  1.00  0.00     0.027 A 
ENDBRANCH   7   9
ENDBRANCH   4   7
TORSDOF 2
ENDMDL
MODEL 2
REMARK VINA RESULT: -6.442272022      0.524      1.637
REMARK  2 active torsions:
REMARK  status: ('A' for Active; 'I' for Inactive)
REMARK    1  A    between atoms: C4_4  and  N1_5 
REMARK    2  A    between atoms: N1_5  and  C5_7 
ROOT
HETATM    1  C1  UNL     1       1.575   6.677   1.543  1.00  0.00     0.000 C 
HETATM    2  C2  UNL     1       1.225   8.140   1.734  1.00  0.00     0.002 C 
HETATM    3  C3  UNL     1       2.508   8.805   2.248  1.00  0.00     0.024 C 
HETATM    4  C4  UNL     1       3.656   8.518   1.346  1.00  0.00     0.077 C 
HETATM    5  C8  UNL     1       3.278   7.794   0.084  1.00  0.00     0.024 C 
HETATM    6  C9  UNL     1       2.435   6.575   0.320  1.00  0.00     0.002 C 
ENDROOT
BRANCH   4   7
HETATM    7  N1  UNL     1       4.424   9.668   0.966  1.00  0.00    -0.413 N 
ATOM      8  H1  UNL     1       4.469  10.511   1.539  1.00  0.00     0.154 HD
BRANCH   7   9
HETATM    9  C5  UNL     1       5.118   9.543  -0.272  1.00  0.00     0.077 A 
HETATM   10  C6  UNL     1       5.054  10.699  -1.203  1.00  0.00     0.027 A 
HETATM   11  C7  UNL     1       6.355  10.287  -0.508  1.00  0.00     0.027 A 
ENDBRANCH   7   9
ENDBRANCH   4   7
TORSDOF 2
ENDMDL
MODEL 3
REMARK VINA RESULT: -6.441487319      0.823      1.821
REMARK  2 active torsions:
REMARK  status: ('A' for Active; 'I' for Inactive)
REMARK    1  A    between atoms: C4_4  and  N1_5 
REMARK    2  A    between atoms: N1_5  and  C5_7 
ROOT
HETATM    1  C1  UNL     1       1.444   7.241   2.117  1.00  0.00     0.000 C 
HETATM    2  C2  UNL     1       1.644   8.714   1.816  1.00  0.00     0.002 C 
HETATM    3  C3  UNL     1       3.154   8.888   1.610  1.00  0.00     0.024 C 
HETATM    4  C4  UNL     1       3.667   7.934   0.588  1.00  0.00     0.077 C 
HETATM    5  C8  UNL     1       2.593   7.145  -0.107  1.00  0.00     0.024 C 
HETATM    6  C9  UNL     1       1.625   6.488   0.833  1.00  0.00     0.002 C 
ENDROOT
BRANCH   4   7
HETATM    7  N1  UNL     1       4.489   8.525  -0.426  1.00  0.00    -0.413 N 
ATOM      8  H1  UNL     1       4.798   8.011  -1.252  1.00  0.00     0.154 HD
BRANCH   7   9
HETATM    9  C5  UNL     1       4.842   9.885  -0.194  1.00  0.00     0.077 A 
HETATM   10  C6  UNL     1       6.248  10.278  -0.476  1.00  0.00     0.027 A 
HETATM   11  C7  UNL     1       5.076  10.795  -1.316  1.00  0.00     0.027 A 
ENDBRANCH   7   9
ENDBRANCH   4   7
TORSDOF 2
ENDMDL
MODEL 4
REMARK VINA RESULT: -5.407899888      0.939      1.835
REMARK  2 active torsions:
REMARK  status: ('A' for Active; 'I' for Inactive)
REMARK    1  A    between atoms: C4_4  and  N1_5 
REMARK    2  A    between atoms: N1_5  and  C5_7 
ROOT
HETATM    1  C1  UNL     1       1.961   6.510   1.498  1.00  0.00     0.000 C 
HETATM    2  C2  UNL     1       1.500   7.580   0.527  1.00  0.00     0.002 C 
HETATM    3  C3  UNL     1       2.585   8.664   0.567  1.00  0.00     0.024 C 
HETATM    4  C4  UNL     1       3.931   8.082   0.312  1.00  0.00     0.077 C 
HETATM    5  C8  UNL     1       3.907   6.629  -0.075  1.00  0.00     0.024 C 
HETATM    6  C9  UNL     1       3.096   5.773   0.854  1.00  0.00     0.002 C 
ENDROOT
BRANCH   4   7
HETATM    7  N1  UNL     1       4.708   8.775  -0.674  1.00  0.00    -0.413 N 
ATOM      8  H1  UNL     1       4.964   8.353  -1.567  1.00  0.00     0.154 HD
BRANCH   7   9
HETATM    9  C5  UNL     1       5.095  10.096  -0.311  1.00  0.00     0.077 A 
HETATM   10  C6  UNL     1       6.501  10.490  -0.588  1.00  0.00     0.027 A 
HETATM   11  C7  UNL     1       5.320  11.114  -1.338  1.00  0.00     0.027 A 
ENDBRANCH   7   9
ENDBRANCH   4   7
TORSDOF 2
ENDMDL
MODEL 5
REMARK VINA RESULT: -5.162264234      1.116      4.674
REMARK  2 active torsions:
REMARK  status: ('A' for Active; 'I' for Inactive)
REMARK    1  A    between atoms: C4_4  and  N1_5 
REMARK    2  A    between atoms: N1_5  and  C5_7 
ROOT
HETATM    1  C1  UNL     1       5.730  11.279  -1.193  1.00  0.00     0.000 C 
HETATM    2  C2  UNL     1       6.454  10.233  -0.369  1.00  0.00     0.002 C 
HETATM    3  C3  UNL     1       5.416   9.708   0.631  1.00  0.00     0.024 C 
HETATM    4  C4  UNL     1       4.183   9.254  -0.068  1.00  0.00     0.077 C 
HETATM    5  C8  UNL     1       4.290   9.263  -1.568  1.00  0.00     0.024 C 
HETATM    6  C9  UNL     1       4.804  10.559  -2.126  1.00  0.00     0.002 C 
ENDROOT
BRANCH   4   7
HETATM    7  N1  UNL     1       3.715   7.955   0.320  1.00  0.00    -0.413 N 
ATOM      8  H1  UNL     1       4.347   7.171   0.484  1.00  0.00     0.154 HD
BRANCH   7   9
HETATM    9  C5  UNL     1       2.302   7.844   0.457  1.00  0.00     0.077 A 
HETATM   10  C6  UNL     1       1.790   6.728   1.294  1.00  0.00     0.027 A 
HETATM   11  C7  UNL     1       1.649   8.193   1.719  1.00  0.00     0.027 A 
ENDBRANCH   7   9
ENDBRANCH   4   7
TORSDOF 2
ENDMDL
