MODEL 1
REMARK VINA RESULT: -5.796279813      0.000      0.000
REMARK  1 active torsions:
REMARK  status: ('A' for Active; 'I' for Inactive)
REMARK    1  A    between atoms: C1_2  and  C2_4 
ROOT
HETATM    1  C2  UNL     1       2.854   9.353   0.865  1.00  0.00     0.185 C 
HETATM    2  F1  UNL     1       2.224  10.141  -0.078  1.00  0.00    -0.233 F 
HETATM    3  C3  UNL     1       1.952   9.255   2.071  1.00  0.00     0.054 C 
HETATM    4  C4  UNL     1       1.427   7.855   2.133  1.00  0.00     0.009 C 
HETATM    5  C5  UNL     1       2.009   7.114   0.966  1.00  0.00    -0.006 A 
HETATM    6  C6  UNL     1       3.470   6.829   1.054  1.00  0.00     0.013 A 
HETATM    7  C7  UNL     1       2.984   7.974   0.287  1.00  0.00     0.039 A 
ENDROOT
BRANCH   1   8
HETATM    8  C1  UNL     1       4.146   9.944   1.231  1.00  0.00     0.271 C 
HETATM    9  N1  UNL     1       5.211  10.071   0.304  1.00  0.00    -0.059 NA
HETATM   10  O1  UNL     1       4.346  10.360   2.398  1.00  0.00    -0.273 OA
ENDBRANCH   1   8
TORSDOF 1
ENDMDL
MODEL 2
REMARK VINA RESULT: -5.469913252      1.118      1.155
REMARK  1 active torsions:
REMARK  status: ('A' for Active; 'I' for Inactive)
REMARK    1  A    between atoms: C1_2  and  C2_4 
ROOT
HETATM    1  C2  UNL     1       3.118   9.311   0.738  1.00  0.00     0.185 C 
HETATM    2  F1  UNL     1       2.651  10.297  -0.109  1.00  0.00    -0.233 F 
HETATM    3  C3  UNL     1       2.688   9.658   2.142  1.00  0.00     0.054 C 
HETATM    4  C4  UNL     1       1.641   8.673   2.554  1.00  0.00     0.009 C 
HETATM    5  C5  UNL     1       1.439   7.737   1.399  1.00  0.00    -0.006 A 
HETATM    6  C6  UNL     1       2.565   6.797   1.133  1.00  0.00     0.013 A 
HETATM    7  C7  UNL     1       2.432   8.031   0.361  1.00  0.00     0.039 A 
ENDROOT
BRANCH   1   8
HETATM    8  C1  UNL     1       4.580   9.225   0.649  1.00  0.00     0.271 C 
HETATM    9  N1  UNL     1       5.392  10.360   0.398  1.00  0.00    -0.059 NA
HETATM   10  O1  UNL     1       5.160   8.123   0.795  1.00  0.00    -0.273 OA
ENDBRANCH   1   8
TORSDOF 1
ENDMDL
MODEL 3
REMARK VINA RESULT: -5.414301830      2.271      3.247
REMARK  1 active torsions:
REMARK  status: ('A' for Active; 'I' for Inactive)
REMARK    1  A    between atoms: C1_2  and  C2_4 
ROOT
HETATM    1  C2  UNL     1       2.598   8.215   0.658  1.00  0.00     0.185 C 
HETATM    2  F1  UNL     1       1.867   8.078  -0.505  1.00  0.00    -0.233 F 
HETATM    3  C3  UNL     1       3.588   7.077   0.726  1.00  0.00     0.054 C 
HETATM    4  C4  UNL     1       4.954   7.649   0.513  1.00  0.00     0.009 C 
HETATM    5  C5  UNL     1       4.787   9.127   0.315  1.00  0.00    -0.006 A 
HETATM    6  C6  UNL     1       4.390   9.893   1.530  1.00  0.00     0.013 A 
HETATM    7  C7  UNL     1       3.385   9.489   0.549  1.00  0.00     0.039 A 
ENDROOT
BRANCH   1   8
HETATM    8  C1  UNL     1       1.703   8.193   1.820  1.00  0.00     0.271 C 
HETATM    9  N1  UNL     1       1.168   9.378   2.386  1.00  0.00    -0.059 NA
HETATM   10  O1  UNL     1       1.382   7.104   2.353  1.00  0.00    -0.273 OA
ENDBRANCH   1   8
TORSDOF 1
ENDMDL
MODEL 4
REMARK VINA RESULT: -5.222030802      1.144      1.197
REMARK  1 active torsions:
REMARK  status: ('A' for Active; 'I' for Inactive)
REMARK    1  A    between atoms: C1_2  and  C2_4 
ROOT
HETATM    1  C2  UNL     1       3.112   9.314   0.757  1.00  0.00     0.185 C 
HETATM    2  F1  UNL     1       2.685  10.313  -0.095  1.00  0.00    -0.233 F 
HETATM    3  C3  UNL     1       2.680   9.678   2.157  1.00  0.00     0.054 C 
HETATM    4  C4  UNL     1       1.596   8.728   2.560  1.00  0.00     0.009 C 
HETATM    5  C5  UNL     1       1.374   7.797   1.405  1.00  0.00    -0.006 A 
HETATM    6  C6  UNL     1       2.471   6.820   1.151  1.00  0.00     0.013 A 
HETATM    7  C7  UNL     1       2.387   8.056   0.376  1.00  0.00     0.039 A 
ENDROOT
BRANCH   1   8
HETATM    8  C1  UNL     1       4.571   9.179   0.683  1.00  0.00     0.271 C 
HETATM    9  N1  UNL     1       5.215   7.916   0.662  1.00  0.00    -0.059 NA
HETATM   10  O1  UNL     1       5.300  10.199   0.636  1.00  0.00    -0.273 OA
ENDBRANCH   1   8
TORSDOF 1
ENDMDL
MODEL 5
REMARK VINA RESULT: -5.022927001      1.482      2.088
REMARK  1 active torsions:
REMARK  status: ('A' for Active; 'I' for Inactive)
REMARK    1  A    between atoms: C1_2  and  C2_4 
ROOT
HETATM    1  C2  UNL     1       3.835   8.566   0.986  1.00  0.00     0.185 C 
HETATM    2  F1  UNL     1       4.792   7.574   1.085  1.00  0.00    -0.233 F 
HETATM    3  C3  UNL     1       3.124   8.399  -0.334  1.00  0.00     0.054 C 
HETATM    4  C4  UNL     1       1.735   7.925  -0.047  1.00  0.00     0.009 C 
HETATM    5  C5  UNL     1       1.611   7.804   1.444  1.00  0.00    -0.006 A 
HETATM    6  C6  UNL     1       1.587   9.093   2.190  1.00  0.00     0.013 A 
HETATM    7  C7  UNL     1       2.827   8.329   2.073  1.00  0.00     0.039 A 
ENDROOT
BRANCH   1   8
HETATM    8  C1  UNL     1       4.470   9.886   1.071  1.00  0.00     0.271 C 
HETATM    9  N1  UNL     1       5.091  10.501  -0.045  1.00  0.00    -0.059 NA
HETATM   10  O1  UNL     1       4.479  10.516   2.156  1.00  0.00    -0.273 OA
ENDBRANCH   1   8
TORSDOF 1
ENDMDL
