MODEL 1
REMARK VINA RESULT: -4.636157340      0.000      0.000
REMARK  1 active torsions:
REMARK  status: ('A' for Active; 'I' for Inactive)
REMARK    1  A    between atoms: C1_2  and  N2_4 
ROOT
HETATM    1  N2  UNL     1       2.996   8.380   0.935  1.00  0.00    -0.329 N 
HETATM    2  C2  UNL     1       1.996   7.357   0.739  1.00  0.00     0.132 C 
HETATM    3  C3  UNL     1       1.233   7.888   1.908  1.00  0.00     0.079 C 
HETATM    4  C4  UNL     1       2.017   9.139   1.686  1.00  0.00     0.274 C 
HETATM    5  F1  UNL     1       2.575   9.674   2.832  1.00  0.00    -0.227 F 
ENDROOT
BRANCH   1   6
HETATM    6  C1  UNL     1       4.350   8.600   0.579  1.00  0.00     0.185 C 
HETATM    7  N1  UNL     1       5.259   7.519   0.445  1.00  0.00    -0.070 NA
HETATM    8  S1  UNL     1       4.889  10.127   0.315  1.00  0.00    -0.044 SA
ENDBRANCH   1   6
TORSDOF 1
ENDMDL
MODEL 2
REMARK VINA RESULT: -4.435110011      1.343      1.616
REMARK  1 active torsions:
REMARK  status: ('A' for Active; 'I' for Inactive)
REMARK    1  A    between atoms: C1_2  and  N2_4 
ROOT
HETATM    1  N2  UNL     1       3.118   8.711   1.086  1.00  0.00    -0.329 N 
HETATM    2  C2  UNL     1       3.094   7.306   0.752  1.00  0.00     0.132 C 
HETATM    3  C3  UNL     1       1.778   7.170   1.444  1.00  0.00     0.079 C 
HETATM    4  C4  UNL     1       1.683   8.650   1.275  1.00  0.00     0.274 C 
HETATM    5  F1  UNL     1       1.302   9.333   2.415  1.00  0.00    -0.227 F 
ENDROOT
BRANCH   1   6
HETATM    6  C1  UNL     1       4.083   9.743   1.199  1.00  0.00     0.185 C 
HETATM    7  N1  UNL     1       4.154  10.557   2.359  1.00  0.00    -0.070 NA
HETATM    8  S1  UNL     1       5.140  10.012  -0.026  1.00  0.00    -0.044 SA
ENDBRANCH   1   6
TORSDOF 1
ENDMDL
MODEL 3
REMARK VINA RESULT: -4.301361927      1.296      1.343
REMARK  1 active torsions:
REMARK  status: ('A' for Active; 'I' for Inactive)
REMARK    1  A    between atoms: C1_2  and  N2_4 
ROOT
HETATM    1  N2  UNL     1       2.865   8.622   1.007  1.00  0.00    -0.329 N 
HETATM    2  C2  UNL     1       1.912   7.610   0.616  1.00  0.00     0.132 C 
HETATM    3  C3  UNL     1       1.123   7.884   1.854  1.00  0.00     0.079 C 
HETATM    4  C4  UNL     1       1.851   9.187   1.874  1.00  0.00     0.274 C 
HETATM    5  F1  UNL     1       2.382   9.526   3.104  1.00  0.00    -0.227 F 
ENDROOT
BRANCH   1   6
HETATM    6  C1  UNL     1       4.209   8.962   0.712  1.00  0.00     0.185 C 
HETATM    7  N1  UNL     1       4.654  10.308   0.767  1.00  0.00    -0.070 NA
HETATM    8  S1  UNL     1       5.278   7.789   0.297  1.00  0.00    -0.044 SA
ENDBRANCH   1   6
TORSDOF 1
ENDMDL
MODEL 4
REMARK VINA RESULT: -4.041961950      1.407      1.734
REMARK  1 active torsions:
REMARK  status: ('A' for Active; 'I' for Inactive)
REMARK    1  A    between atoms: C1_2  and  N2_4 
ROOT
HETATM    1  N2  UNL     1       3.196   8.760   1.346  1.00  0.00    -0.329 N 
HETATM    2  C2  UNL     1       2.566   9.498   2.416  1.00  0.00     0.132 C 
HETATM    3  C3  UNL     1       1.236   8.970   1.989  1.00  0.00     0.079 C 
HETATM    4  C4  UNL     1       2.025   7.908   1.297  1.00  0.00     0.274 C 
HETATM    5  F1  UNL     1       1.639   7.668  -0.008  1.00  0.00    -0.227 F 
ENDROOT
BRANCH   1   6
HETATM    6  C1  UNL     1       4.413   8.804   0.622  1.00  0.00     0.185 C 
HETATM    7  N1  UNL     1       5.130   7.617   0.319  1.00  0.00    -0.070 NA
HETATM    8  S1  UNL     1       5.016  10.245   0.120  1.00  0.00    -0.044 SA
ENDBRANCH   1   6
TORSDOF 1
ENDMDL
MODEL 5
REMARK VINA RESULT: -3.810601722      1.911      2.182
REMARK  1 active torsions:
REMARK  status: ('A' for Active; 'I' for Inactive)
REMARK    1  A    between atoms: C1_2  and  N2_4 
ROOT
HETATM    1  N2  UNL     1       3.121   8.902   1.410  1.00  0.00    -0.329 N 
HETATM    2  C2  UNL     1       2.413   9.545   2.492  1.00  0.00     0.132 C 
HETATM    3  C3  UNL     1       1.149   8.883   2.049  1.00  0.00     0.079 C 
HETATM    4  C4  UNL     1       2.051   7.928   1.340  1.00  0.00     0.274 C 
HETATM    5  F1  UNL     1       1.696   7.673   0.029  1.00  0.00    -0.227 F 
ENDROOT
BRANCH   1   6
HETATM    6  C1  UNL     1       4.327   9.093   0.692  1.00  0.00     0.185 C 
HETATM    7  N1  UNL     1       4.812  10.395   0.404  1.00  0.00    -0.070 NA
HETATM    8  S1  UNL     1       5.187   7.793   0.176  1.00  0.00    -0.044 SA
ENDBRANCH   1   6
TORSDOF 1
ENDMDL
