MODEL 1
REMARK VINA RESULT: -4.680932723      0.000      0.000
REMARK  1 active torsions:
REMARK  status: ('A' for Active; 'I' for Inactive)
REMARK    1  A    between atoms: C7_7  and  N1_8 
ROOT
HETATM    1  C1  UNL     1       4.956   7.420   0.094  1.00  0.00     0.012 C 
HETATM    2  C2  UNL     1       3.934   7.760   1.150  1.00  0.00     0.020 C 
HETATM    3  C3  UNL     1       2.893   6.689   1.322  1.00  0.00     0.007 C 
HETATM    4  C4  UNL     1       1.663   7.198   2.001  1.00  0.00     0.008 C 
HETATM    5  C5  UNL     1       1.468   8.676   1.797  1.00  0.00     0.025 C 
HETATM    6  C6  UNL     1       2.677   9.462   2.326  1.00  0.00     0.049 C 
HETATM    7  C7  UNL     1       3.330   9.118   0.979  1.00  0.00     0.158 C 
HETATM    8  C8  UNL     1       1.939   9.095   0.407  1.00  0.00     0.210 C 
HETATM    9  F1  UNL     1       1.689   8.221  -0.592  1.00  0.00    -0.246 F 
ENDROOT
BRANCH   7  10
HETATM   10  N1  UNL     1       4.135  10.161   0.509  1.00  0.00    -0.067 N 
ATOM     11  H13 UNL     1       4.277  10.833   1.263  1.00  0.00     0.275 HD
ATOM     12  H12 UNL     1       5.083   9.810   0.375  1.00  0.00     0.275 HD
ATOM     13  H11 UNL     1       3.848  10.664  -0.331  1.00  0.00     0.275 HD
ENDBRANCH   7  10
TORSDOF 1
ENDMDL
MODEL 2
REMARK VINA RESULT: -3.945057622      1.220      1.854
REMARK  1 active torsions:
REMARK  status: ('A' for Active; 'I' for Inactive)
REMARK    1  A    between atoms: C7_7  and  N1_8 
ROOT
HETATM    1  C1  UNL     1       4.476  10.216   0.553  1.00  0.00     0.012 C 
HETATM    2  C2  UNL     1       3.950   8.957   1.195  1.00  0.00     0.020 C 
HETATM    3  C3  UNL     1       4.379   7.710   0.474  1.00  0.00     0.007 C 
HETATM    4  C4  UNL     1       3.518   6.536   0.810  1.00  0.00     0.008 C 
HETATM    5  C5  UNL     1       2.135   6.946   1.239  1.00  0.00     0.025 C 
HETATM    6  C6  UNL     1       2.198   7.870   2.464  1.00  0.00     0.049 C 
HETATM    7  C7  UNL     1       2.476   8.989   1.449  1.00  0.00     0.158 C 
HETATM    8  C8  UNL     1       1.674   8.179   0.466  1.00  0.00     0.210 C 
HETATM    9  F1  UNL     1       2.039   8.234  -0.834  1.00  0.00    -0.246 F 
ENDROOT
BRANCH   7  10
HETATM   10  N1  UNL     1       1.881  10.196   1.828  1.00  0.00    -0.067 N 
ATOM     11  H13 UNL     1       1.415  10.066   2.727  1.00  0.00     0.275 HD
ATOM     12  H12 UNL     1       2.614  10.859   2.079  1.00  0.00     0.275 HD
ATOM     13  H11 UNL     1       1.233  10.650   1.184  1.00  0.00     0.275 HD
ENDBRANCH   7  10
TORSDOF 1
ENDMDL
MODEL 3
REMARK VINA RESULT: -3.870435084      1.641      2.449
REMARK  1 active torsions:
REMARK  status: ('A' for Active; 'I' for Inactive)
REMARK    1  A    between atoms: C7_7  and  N1_8 
ROOT
HETATM    1  C1  UNL     1       4.459   9.945   1.904  1.00  0.00     0.012 C 
HETATM    2  C2  UNL     1       3.153   9.417   1.368  1.00  0.00     0.020 C 
HETATM    3  C3  UNL     1       2.147   9.137   2.450  1.00  0.00     0.007 C 
HETATM    4  C4  UNL     1       1.065   8.214   1.993  1.00  0.00     0.008 C 
HETATM    5  C5  UNL     1       1.515   7.317   0.872  1.00  0.00     0.025 C 
HETATM    6  C6  UNL     1       1.987   8.146  -0.331  1.00  0.00     0.049 C 
HETATM    7  C7  UNL     1       3.315   8.263   0.430  1.00  0.00     0.158 C 
HETATM    8  C8  UNL     1       2.981   6.931   1.046  1.00  0.00     0.210 C 
HETATM    9  F1  UNL     1       3.389   6.708   2.314  1.00  0.00    -0.246 F 
ENDROOT
BRANCH   7  10
HETATM   10  N1  UNL     1       4.415   8.244  -0.434  1.00  0.00    -0.067 N 
ATOM     11  H13 UNL     1       5.130   8.874  -0.071  1.00  0.00     0.275 HD
ATOM     12  H12 UNL     1       4.883   7.342  -0.350  1.00  0.00     0.275 HD
ATOM     13  H11 UNL     1       4.268   8.447  -1.422  1.00  0.00     0.275 HD
ENDBRANCH   7  10
TORSDOF 1
ENDMDL
MODEL 4
REMARK VINA RESULT: -3.496384693      1.760      3.177
REMARK  1 active torsions:
REMARK  status: ('A' for Active; 'I' for Inactive)
REMARK    1  A    between atoms: C7_7  and  N1_8 
ROOT
HETATM    1  C1  UNL     1       1.224   9.457   2.460  1.00  0.00     0.012 C 
HETATM    2  C2  UNL     1       2.614   8.986   2.114  1.00  0.00     0.020 C 
HETATM    3  C3  UNL     1       3.620  10.102   2.087  1.00  0.00     0.007 C 
HETATM    4  C4  UNL     1       4.850   9.738   1.321  1.00  0.00     0.008 C 
HETATM    5  C5  UNL     1       4.583   8.687   0.278  1.00  0.00     0.025 C 
HETATM    6  C6  UNL     1       4.018   7.414   0.922  1.00  0.00     0.049 C 
HETATM    7  C7  UNL     1       2.667   8.143   0.879  1.00  0.00     0.158 C 
HETATM    8  C8  UNL     1       3.195   8.870  -0.329  1.00  0.00     0.210 C 
HETATM    9  F1  UNL     1       2.793  10.145  -0.516  1.00  0.00    -0.246 F 
ENDROOT
BRANCH   7  10
HETATM   10  N1  UNL     1       1.610   7.267   0.613  1.00  0.00    -0.067 N 
ATOM     11  H13 UNL     1       1.832   6.353   1.008  1.00  0.00     0.275 HD
ATOM     12  H12 UNL     1       0.807   7.539   1.180  1.00  0.00     0.275 HD
ATOM     13  H11 UNL     1       1.304   7.142  -0.352  1.00  0.00     0.275 HD
ENDBRANCH   7  10
TORSDOF 1
ENDMDL
MODEL 5
REMARK VINA RESULT: -3.447875804      1.751      3.090
REMARK  1 active torsions:
REMARK  status: ('A' for Active; 'I' for Inactive)
REMARK    1  A    between atoms: C7_7  and  N1_8 
ROOT
HETATM    1  C1  UNL     1       1.479   9.937   2.477  1.00  0.00     0.012 C 
HETATM    2  C2  UNL     1       2.557   8.950   2.108  1.00  0.00     0.020 C 
HETATM    3  C3  UNL     1       3.631   9.552   1.246  1.00  0.00     0.007 C 
HETATM    4  C4  UNL     1       4.423   8.515   0.519  1.00  0.00     0.008 C 
HETATM    5  C5  UNL     1       3.639   7.250   0.298  1.00  0.00     0.025 C 
HETATM    6  C6  UNL     1       3.176   6.657   1.636  1.00  0.00     0.049 C 
HETATM    7  C7  UNL     1       2.025   7.671   1.542  1.00  0.00     0.158 C 
HETATM    8  C8  UNL     1       2.167   7.564   0.048  1.00  0.00     0.210 C 
HETATM    9  F1  UNL     1       1.913   8.670  -0.684  1.00  0.00    -0.246 F 
ENDROOT
BRANCH   7  10
HETATM   10  N1  UNL     1       0.831   7.152   2.051  1.00  0.00    -0.067 N 
ATOM     11  H13 UNL     1       0.909   6.136   2.104  1.00  0.00     0.275 HD
ATOM     12  H12 UNL     1       0.760   7.397   3.038  1.00  0.00     0.275 HD
ATOM     13  H11 UNL     1      -0.047   7.390   1.589  1.00  0.00     0.275 HD
ENDBRANCH   7  10
TORSDOF 1
ENDMDL
