MODEL 1
REMARK VINA RESULT: -3.198717422      0.000      0.000
REMARK  3 active torsions:
REMARK  status: ('A' for Active; 'I' for Inactive)
REMARK    1  A    between atoms: N1_1  and  C1_5 
REMARK    2  A    between atoms: C2_6  and  C8_13 
REMARK    3  A    between atoms: C5_9  and  C6_11 
ROOT
HETATM    1  C1  UNL     1       3.847   7.665   0.289  1.00  0.00     0.227 C 
HETATM    2  C2  UNL     1       3.008   8.945   0.491  1.00  0.00     0.024 C 
HETATM    3  C3  UNL     1       1.782   8.299  -0.230  1.00  0.00     0.010 C 
HETATM    4  C4  UNL     1       1.677   7.121   0.768  1.00  0.00     0.046 C 
HETATM    5  C5  UNL     1       3.016   6.972   1.406  1.00  0.00     0.136 C 
HETATM    6  F1  UNL     1       3.429   5.697   1.611  1.00  0.00    -0.240 F 
ENDROOT
BRANCH   1   7
HETATM    7  N1  UNL     1       5.203   7.822   0.578  1.00  0.00    -0.071 N 
ATOM      8  H13 UNL     1       5.642   8.450  -0.096  1.00  0.00     0.274 HD
ATOM      9  H12 UNL     1       5.326   8.370   1.430  1.00  0.00     0.274 HD
ATOM     10  H11 UNL     1       5.720   6.944   0.639  1.00  0.00     0.274 HD
ENDBRANCH   1   7
BRANCH   2  11
HETATM   11  C8  UNL     1       2.622   9.035   1.887  1.00  0.00    -0.001 A 
HETATM   12  C6  UNL     1       3.291  10.351   2.346  1.00  0.00     0.032 A 
HETATM   13  C7  UNL     1       1.988   9.931   2.730  1.00  0.00     0.014 A 
ENDBRANCH   2  11
TORSDOF 3
ENDMDL
MODEL 2
REMARK VINA RESULT: -2.992787767      1.640      1.987
REMARK  3 active torsions:
REMARK  status: ('A' for Active; 'I' for Inactive)
REMARK    1  A    between atoms: N1_1  and  C1_5 
REMARK    2  A    between atoms: C2_6  and  C8_13 
REMARK    3  A    between atoms: C5_9  and  C6_11 
ROOT
HETATM    1  C1  UNL     1       2.479   7.236   0.896  1.00  0.00     0.227 C 
HETATM    2  C2  UNL     1       3.092   8.562   0.396  1.00  0.00     0.024 C 
HETATM    3  C3  UNL     1       1.687   9.243   0.367  1.00  0.00     0.010 C 
HETATM    4  C4  UNL     1       1.426   9.015   1.876  1.00  0.00     0.046 C 
HETATM    5  C5  UNL     1       2.293   7.879   2.300  1.00  0.00     0.136 C 
HETATM    6  F1  UNL     1       1.731   7.007   3.173  1.00  0.00    -0.240 F 
ENDROOT
BRANCH   1   7
HETATM    7  N1  UNL     1       3.358   6.153   0.859  1.00  0.00    -0.071 N 
ATOM      8  H13 UNL     1       4.301   6.465   0.625  1.00  0.00     0.274 HD
ATOM      9  H12 UNL     1       3.523   5.794   1.800  1.00  0.00     0.274 HD
ATOM     10  H11 UNL     1       3.065   5.401   0.235  1.00  0.00     0.274 HD
ENDBRANCH   1   7
BRANCH   2  11
HETATM   11  C8  UNL     1       3.798   9.194   1.496  1.00  0.00    -0.001 A 
HETATM   12  C6  UNL     1       5.183   9.505   0.882  1.00  0.00     0.032 A 
HETATM   13  C7  UNL     1       4.469  10.377   1.750  1.00  0.00     0.014 A 
ENDBRANCH   2  11
TORSDOF 3
ENDMDL
MODEL 3
REMARK VINA RESULT: -2.939484355      2.608      3.408
REMARK  3 active torsions:
REMARK  status: ('A' for Active; 'I' for Inactive)
REMARK    1  A    between atoms: N1_1  and  C1_5 
REMARK    2  A    between atoms: C2_6  and  C8_13 
REMARK    3  A    between atoms: C5_9  and  C6_11 
ROOT
HETATM    1  C1  UNL     1       3.788   9.491   1.997  1.00  0.00     0.227 C 
HETATM    2  C2  UNL     1       5.021   9.499   1.068  1.00  0.00     0.024 C 
HETATM    3  C3  UNL     1       4.894   7.961   0.826  1.00  0.00     0.010 C 
HETATM    4  C4  UNL     1       3.464   8.062   0.241  1.00  0.00     0.046 C 
HETATM    5  C5  UNL     1       2.876   9.335   0.747  1.00  0.00     0.136 C 
HETATM    6  F1  UNL     1       1.566   9.277   1.093  1.00  0.00    -0.240 F 
ENDROOT
BRANCH   1   7
HETATM    7  N1  UNL     1       3.606  10.676   2.712  1.00  0.00    -0.071 N 
ATOM      8  H13 UNL     1       3.083  11.353   2.155  1.00  0.00     0.274 HD
ATOM      9  H12 UNL     1       2.945  10.534   3.476  1.00  0.00     0.274 HD
ATOM     10  H11 UNL     1       4.472  11.090   3.058  1.00  0.00     0.274 HD
ENDBRANCH   1   7
BRANCH   2  11
HETATM   11  C8  UNL     1       4.651  10.113  -0.193  1.00  0.00    -0.001 A 
HETATM   12  C6  UNL     1       5.788  11.135  -0.425  1.00  0.00     0.032 A 
HETATM   13  C7  UNL     1       5.208  10.328  -1.442  1.00  0.00     0.014 A 
ENDBRANCH   2  11
TORSDOF 3
ENDMDL
MODEL 4
REMARK VINA RESULT: -2.867039509      1.717      2.148
REMARK  3 active torsions:
REMARK  status: ('A' for Active; 'I' for Inactive)
REMARK    1  A    between atoms: N1_1  and  C1_5 
REMARK    2  A    between atoms: C2_6  and  C8_13 
REMARK    3  A    between atoms: C5_9  and  C6_11 
ROOT
HETATM    1  C1  UNL     1       4.339   9.490   0.793  1.00  0.00     0.227 C 
HETATM    2  C2  UNL     1       2.807   9.306   0.753  1.00  0.00     0.024 C 
HETATM    3  C3  UNL     1       2.883   8.671  -0.671  1.00  0.00     0.010 C 
HETATM    4  C4  UNL     1       3.805   7.511  -0.222  1.00  0.00     0.046 C 
HETATM    5  C5  UNL     1       4.493   7.960   1.022  1.00  0.00     0.136 C 
HETATM    6  F1  UNL     1       5.797   7.604   1.131  1.00  0.00    -0.240 F 
ENDROOT
BRANCH   1   7
HETATM    7  N1  UNL     1       4.789  10.289   1.845  1.00  0.00    -0.071 N 
ATOM      8  H13 UNL     1       5.780  10.505   1.732  1.00  0.00     0.274 HD
ATOM      9  H12 UNL     1       4.398  11.228   1.773  1.00  0.00     0.274 HD
ATOM     10  H11 UNL     1       4.612   9.897   2.770  1.00  0.00     0.274 HD
ENDBRANCH   1   7
BRANCH   2  11
HETATM   11  C8  UNL     1       2.444   8.214   1.637  1.00  0.00    -0.001 A 
HETATM   12  C6  UNL     1       1.282   8.810   2.464  1.00  0.00     0.032 A 
HETATM   13  C7  UNL     1       1.319   7.478   1.966  1.00  0.00     0.014 A 
ENDBRANCH   2  11
TORSDOF 3
ENDMDL
MODEL 5
REMARK VINA RESULT: -2.815423814      1.818      2.585
REMARK  3 active torsions:
REMARK  status: ('A' for Active; 'I' for Inactive)
REMARK    1  A    between atoms: N1_1  and  C1_5 
REMARK    2  A    between atoms: C2_6  and  C8_13 
REMARK    3  A    between atoms: C5_9  and  C6_11 
ROOT
HETATM    1  C1  UNL     1       1.574   8.109   0.837  1.00  0.00     0.227 C 
HETATM    2  C2  UNL     1       2.546   9.270   0.538  1.00  0.00     0.024 C 
HETATM    3  C3  UNL     1       1.781  10.213   1.519  1.00  0.00     0.010 C 
HETATM    4  C4  UNL     1       2.003   9.295   2.746  1.00  0.00     0.046 C 
HETATM    5  C5  UNL     1       2.260   7.923   2.221  1.00  0.00     0.136 C 
HETATM    6  F1  UNL     1       1.692   6.912   2.923  1.00  0.00    -0.240 F 
ENDROOT
BRANCH   1   7
HETATM    7  N1  UNL     1       1.700   7.023  -0.030  1.00  0.00    -0.071 N 
ATOM      8  H13 UNL     1       0.878   6.946  -0.629  1.00  0.00     0.274 HD
ATOM      9  H12 UNL     1       2.412   7.211  -0.737  1.00  0.00     0.274 HD
ATOM     10  H11 UNL     1       1.886   6.136   0.438  1.00  0.00     0.274 HD
ENDBRANCH   1   7
BRANCH   2  11
HETATM   11  C8  UNL     1       3.815   8.997   1.186  1.00  0.00    -0.001 A 
HETATM   12  C6  UNL     1       4.799   8.914  -0.003  1.00  0.00     0.032 A 
HETATM   13  C7  UNL     1       5.087   9.539   1.241  1.00  0.00     0.014 A 
ENDBRANCH   2  11
TORSDOF 3
ENDMDL
