MODEL 1
REMARK VINA RESULT: -8.387182546      0.000      0.000
REMARK  17 active torsions:
REMARK  status: ('A' for Active; 'I' for Inactive)
REMARK    1  A    between atoms: C2_2  and  C3_3 
REMARK    2  A    between atoms: C3_3  and  C4_4 
REMARK    3  A    between atoms: C4_4  and  C5_5 
REMARK    4  A    between atoms: C5_5  and  C6_6 
REMARK    5  A    between atoms: C6_6  and  O1_7 
REMARK    6  A    between atoms: O1_7  and  C7_8 
REMARK       I    between atoms: C7_8  and  N1_10 
REMARK       I    between atoms: N2_13  and  C10_14 
REMARK    7  A    between atoms: C10_14  and  C11_16 
REMARK    8  A    between atoms: C11_16  and  C12_17 
REMARK    9  A    between atoms: C11_16  and  N3_24 
REMARK   10  A    between atoms: C12_17  and  C13_18 
REMARK   11  A    between atoms: C13_18  and  C14_20 
REMARK       I    between atoms: N3_24  and  C18_26 
REMARK   12  A    between atoms: C18_26  and  C19_28 
REMARK   13  A    between atoms: C19_28  and  N4_29 
REMARK       I    between atoms: N4_29  and  C20_31 
REMARK   14  A    between atoms: C20_31  and  C21_33 
REMARK   15  A    between atoms: C21_33  and  N5_35 
REMARK       I    between atoms: N5_35  and  C23_37 
REMARK   16  A    between atoms: C23_37  and  C24_39 
REMARK   17  A    between atoms: C24_39  and  N6_41 
ROOT
HETATM    1  C11 UNL     1       8.341  15.784  -0.468  1.00  0.00     0.183 C 
ENDROOT
BRANCH   1   2
HETATM    2  C10 UNL     1       7.066  16.217   0.062  1.00  0.00     0.243 C 
HETATM    3  N2  UNL     1       6.946  16.975   1.228  1.00  0.00    -0.347 N 
HETATM    4  C9  UNL     1       5.627  17.294   1.748  1.00  0.00     0.146 C 
HETATM    5  C27 UNL     1       8.068  17.523   1.930  1.00  0.00     0.146 C 
HETATM    6  C8  UNL     1       5.636  18.058   3.028  1.00  0.00     0.148 C 
HETATM    7  N1  UNL     1       6.729  17.794   3.908  1.00  0.00    -0.325 N 
HETATM    8  C7  UNL     1       6.567  18.109   5.309  1.00  0.00     0.362 C 
HETATM    9  C28 UNL     1       7.953  17.234   3.432  1.00  0.00     0.148 C 
HETATM   10  O2  UNL     1       5.470  18.585   5.728  1.00  0.00    -0.238 OA
HETATM   11  O3  UNL     1       5.952  15.935  -0.505  1.00  0.00    -0.271 OA
BRANCH   8  12
HETATM   12  O1  UNL     1       7.572  17.911   6.228  1.00  0.00    -0.304 OA
BRANCH  12  13
HETATM   13  C6  UNL     1       7.383  17.540   7.569  1.00  0.00     0.180 C 
BRANCH  13  14
HETATM   14  C5  UNL     1       8.531  16.702   8.107  1.00  0.00     0.027 C 
BRANCH  14  15
HETATM   15  C4  UNL     1       9.473  16.411   6.972  1.00  0.00     0.002 C 
BRANCH  15  16
HETATM   16  C3  UNL     1       9.695  14.941   6.737  1.00  0.00    -0.000 C 
BRANCH  16  17
HETATM   17  C2  UNL     1       9.155  14.523   5.403  1.00  0.00    -0.005 C 
HETATM   18  C1  UNL     1       7.692  14.092   5.536  1.00  0.00     0.005 C 
ENDBRANCH  16  17
ENDBRANCH  15  16
ENDBRANCH  14  15
ENDBRANCH  13  14
ENDBRANCH  12  13
ENDBRANCH   8  12
ENDBRANCH   1   2
BRANCH   1  19
HETATM   19  C12 UNL     1       8.896  14.471   0.038  1.00  0.00     0.114 C 
BRANCH  19  20
HETATM   20  C13 UNL     1      10.303  14.261  -0.346  1.00  0.00     0.136 C 
HETATM   21  O4  UNL     1      10.567  13.641  -1.346  1.00  0.00    -0.297 OA
BRANCH  20  22
HETATM   22  C14 UNL     1      11.461  14.792   0.441  1.00  0.00     0.009 C 
HETATM   23  C15 UNL     1      12.091  15.976  -0.288  1.00  0.00     0.022 C 
HETATM   24  C16 UNL     1      10.981  15.271   1.794  1.00  0.00     0.022 C 
HETATM   25  C17 UNL     1      12.510  13.722   0.567  1.00  0.00     0.022 C 
ENDBRANCH  20  22
ENDBRANCH  19  20
ENDBRANCH   1  19
BRANCH   1  26
HETATM   26  N3  UNL     1       8.208  15.621  -1.951  1.00  0.00    -0.346 N 
HETATM   27  C18 UNL     1       8.976  16.408  -2.833  1.00  0.00     0.236 C 
HETATM   28  O5  UNL     1       9.752  17.262  -2.337  1.00  0.00    -0.272 OA
ATOM     29  H3  UNL     1       7.556  14.932  -2.327  1.00  0.00     0.163 HD
BRANCH  27  30
HETATM   30  C19 UNL     1       8.954  16.317  -4.304  1.00  0.00     0.225 C 
BRANCH  30  31
HETATM   31  N4  UNL     1       9.822  15.323  -4.857  1.00  0.00    -0.351 N 
HETATM   32  C20 UNL     1      10.592  15.586  -6.011  1.00  0.00     0.240 C 
HETATM   33  O6  UNL     1      10.498  16.710  -6.550  1.00  0.00    -0.271 OA
ATOM     34  H4  UNL     1       9.886  14.409  -4.409  1.00  0.00     0.163 HD
BRANCH  32  35
HETATM   35  C21 UNL     1      11.511  14.599  -6.621  1.00  0.00     0.172 C 
HETATM   36  C22 UNL     1      10.740  13.765  -7.651  1.00  0.00     0.042 C 
BRANCH  35  37
HETATM   37  N5  UNL     1      12.086  13.741  -5.623  1.00  0.00    -0.346 N 
HETATM   38  C23 UNL     1      13.200  14.110  -4.825  1.00  0.00     0.240 C 
HETATM   39  O7  UNL     1      13.776  15.236  -4.941  1.00  0.00    -0.271 OA
ATOM     40  H5  UNL     1      11.673  12.819  -5.481  1.00  0.00     0.163 HD
BRANCH  38  41
HETATM   41  C24 UNL     1      13.769  13.190  -3.796  1.00  0.00     0.165 C 
HETATM   42  C25 UNL     1      14.243  14.091  -2.651  1.00  0.00     0.042 C 
BRANCH  41  43
HETATM   43  N6  UNL     1      12.762  12.323  -3.316  1.00  0.00    -0.414 N 
HETATM   44  C26 UNL     1      13.104  11.357  -2.338  1.00  0.00     0.140 C 
ATOM     45  H6  UNL     1      11.807  12.390  -3.667  1.00  0.00     0.153 HD
ENDBRANCH  41  43
ENDBRANCH  38  41
ENDBRANCH  35  37
ENDBRANCH  32  35
ENDBRANCH  30  31
ENDBRANCH  27  30
ENDBRANCH   1  26
TORSDOF 17
ENDMDL
MODEL 2
REMARK VINA RESULT: -8.379424048      1.025      1.267
REMARK  17 active torsions:
REMARK  status: ('A' for Active; 'I' for Inactive)
REMARK    1  A    between atoms: C2_2  and  C3_3 
REMARK    2  A    between atoms: C3_3  and  C4_4 
REMARK    3  A    between atoms: C4_4  and  C5_5 
REMARK    4  A    between atoms: C5_5  and  C6_6 
REMARK    5  A    between atoms: C6_6  and  O1_7 
REMARK    6  A    between atoms: O1_7  and  C7_8 
REMARK       I    between atoms: C7_8  and  N1_10 
REMARK       I    between atoms: N2_13  and  C10_14 
REMARK    7  A    between atoms: C10_14  and  C11_16 
REMARK    8  A    between atoms: C11_16  and  C12_17 
REMARK    9  A    between atoms: C11_16  and  N3_24 
REMARK   10  A    between atoms: C12_17  and  C13_18 
REMARK   11  A    between atoms: C13_18  and  C14_20 
REMARK       I    between atoms: N3_24  and  C18_26 
REMARK   12  A    between atoms: C18_26  and  C19_28 
REMARK   13  A    between atoms: C19_28  and  N4_29 
REMARK       I    between atoms: N4_29  and  C20_31 
REMARK   14  A    between atoms: C20_31  and  C21_33 
REMARK   15  A    between atoms: C21_33  and  N5_35 
REMARK       I    between atoms: N5_35  and  C23_37 
REMARK   16  A    between atoms: C23_37  and  C24_39 
REMARK   17  A    between atoms: C24_39  and  N6_41 
ROOT
HETATM    1  C11 UNL     1       8.299  15.866  -0.317  1.00  0.00     0.183 C 
ENDROOT
BRANCH   1   2
HETATM    2  C10 UNL     1       7.043  16.255   0.287  1.00  0.00     0.243 C 
HETATM    3  N2  UNL     1       6.965  16.985   1.474  1.00  0.00    -0.347 N 
HETATM    4  C9  UNL     1       5.667  17.259   2.068  1.00  0.00     0.146 C 
HETATM    5  C27 UNL     1       8.108  17.547   2.129  1.00  0.00     0.146 C 
HETATM    6  C8  UNL     1       5.723  17.996   3.363  1.00  0.00     0.148 C 
HETATM    7  N1  UNL     1       6.867  17.742   4.180  1.00  0.00    -0.325 N 
HETATM    8  C7  UNL     1       6.771  18.023   5.593  1.00  0.00     0.362 C 
HETATM    9  C28 UNL     1       8.079  17.223   3.628  1.00  0.00     0.148 C 
HETATM   10  O2  UNL     1       5.686  18.462   6.079  1.00  0.00    -0.238 OA
HETATM   11  O3  UNL     1       5.908  15.955  -0.228  1.00  0.00    -0.271 OA
BRANCH   8  12
HETATM   12  O1  UNL     1       7.826  17.832   6.455  1.00  0.00    -0.304 OA
BRANCH  12  13
HETATM   13  C6  UNL     1       7.721  17.375   7.778  1.00  0.00     0.180 C 
BRANCH  13  14
HETATM   14  C5  UNL     1       8.847  16.428   8.158  1.00  0.00     0.027 C 
BRANCH  14  15
HETATM   15  C4  UNL     1       9.688  16.185   6.935  1.00  0.00     0.002 C 
BRANCH  15  16
HETATM   16  C3  UNL     1       9.759  14.736   6.532  1.00  0.00    -0.000 C 
BRANCH  16  17
HETATM   17  C2  UNL     1       8.970  14.488   5.283  1.00  0.00    -0.005 C 
HETATM   18  C1  UNL     1       7.554  14.025   5.634  1.00  0.00     0.005 C 
ENDBRANCH  16  17
ENDBRANCH  15  16
ENDBRANCH  14  15
ENDBRANCH  13  14
ENDBRANCH  12  13
ENDBRANCH   8  12
ENDBRANCH   1   2
BRANCH   1  19
HETATM   19  C12 UNL     1       8.895  14.542   0.105  1.00  0.00     0.114 C 
BRANCH  19  20
HETATM   20  C13 UNL     1      10.265  14.674   0.630  1.00  0.00     0.136 C 
HETATM   21  O4  UNL     1      10.441  15.049   1.763  1.00  0.00    -0.297 OA
BRANCH  20  22
HETATM   22  C14 UNL     1      11.490  14.354  -0.170  1.00  0.00     0.009 C 
HETATM   23  C15 UNL     1      12.320  13.293   0.547  1.00  0.00     0.022 C 
HETATM   24  C16 UNL     1      11.087  13.805  -1.522  1.00  0.00     0.022 C 
HETATM   25  C17 UNL     1      12.338  15.589  -0.299  1.00  0.00     0.022 C 
ENDBRANCH  20  22
ENDBRANCH  19  20
ENDBRANCH   1  19
BRANCH   1  26
HETATM   26  N3  UNL     1       8.102  15.766  -1.799  1.00  0.00    -0.346 N 
HETATM   27  C18 UNL     1       8.983  16.416  -2.687  1.00  0.00     0.236 C 
HETATM   28  O5  UNL     1       9.918  17.097  -2.197  1.00  0.00    -0.272 OA
ATOM     29  H3  UNL     1       7.323  15.221  -2.169  1.00  0.00     0.163 HD
BRANCH  27  30
HETATM   30  C19 UNL     1       8.909  16.364  -4.159  1.00  0.00     0.225 C 
BRANCH  30  31
HETATM   31  N4  UNL     1      10.081  15.856  -4.802  1.00  0.00    -0.351 N 
HETATM   32  C20 UNL     1      10.128  14.536  -5.299  1.00  0.00     0.240 C 
HETATM   33  O6  UNL     1       9.120  13.809  -5.163  1.00  0.00    -0.271 OA
ATOM     34  H4  UNL     1      10.898  16.459  -4.903  1.00  0.00     0.163 HD
BRANCH  32  35
HETATM   35  C21 UNL     1      11.310  13.961  -5.979  1.00  0.00     0.172 C 
HETATM   36  C22 UNL     1      10.855  13.240  -7.252  1.00  0.00     0.042 C 
BRANCH  35  37
HETATM   37  N5  UNL     1      12.009  13.048  -5.118  1.00  0.00    -0.346 N 
HETATM   38  C23 UNL     1      13.332  13.269  -4.657  1.00  0.00     0.240 C 
HETATM   39  O7  UNL     1      14.002  14.299  -4.980  1.00  0.00    -0.271 OA
ATOM     40  H5  UNL     1      11.530  12.198  -4.823  1.00  0.00     0.163 HD
BRANCH  38  41
HETATM   41  C24 UNL     1      14.026  12.297  -3.761  1.00  0.00     0.165 C 
HETATM   42  C25 UNL     1      14.358  13.074  -2.483  1.00  0.00     0.042 C 
BRANCH  41  43
HETATM   43  N6  UNL     1      13.154  11.231  -3.441  1.00  0.00    -0.414 N 
HETATM   44  C26 UNL     1      13.654   9.906  -3.481  1.00  0.00     0.140 C 
ATOM     45  H6  UNL     1      12.184  11.413  -3.185  1.00  0.00     0.153 HD
ENDBRANCH  41  43
ENDBRANCH  38  41
ENDBRANCH  35  37
ENDBRANCH  32  35
ENDBRANCH  30  31
ENDBRANCH  27  30
ENDBRANCH   1  26
TORSDOF 17
ENDMDL
MODEL 3
REMARK VINA RESULT: -7.969826113      2.306      4.095
REMARK  17 active torsions:
REMARK  status: ('A' for Active; 'I' for Inactive)
REMARK    1  A    between atoms: C2_2  and  C3_3 
REMARK    2  A    between atoms: C3_3  and  C4_4 
REMARK    3  A    between atoms: C4_4  and  C5_5 
REMARK    4  A    between atoms: C5_5  and  C6_6 
REMARK    5  A    between atoms: C6_6  and  O1_7 
REMARK    6  A    between atoms: O1_7  and  C7_8 
REMARK       I    between atoms: C7_8  and  N1_10 
REMARK       I    between atoms: N2_13  and  C10_14 
REMARK    7  A    between atoms: C10_14  and  C11_16 
REMARK    8  A    between atoms: C11_16  and  C12_17 
REMARK    9  A    between atoms: C11_16  and  N3_24 
REMARK   10  A    between atoms: C12_17  and  C13_18 
REMARK   11  A    between atoms: C13_18  and  C14_20 
REMARK       I    between atoms: N3_24  and  C18_26 
REMARK   12  A    between atoms: C18_26  and  C19_28 
REMARK   13  A    between atoms: C19_28  and  N4_29 
REMARK       I    between atoms: N4_29  and  C20_31 
REMARK   14  A    between atoms: C20_31  and  C21_33 
REMARK   15  A    between atoms: C21_33  and  N5_35 
REMARK       I    between atoms: N5_35  and  C23_37 
REMARK   16  A    between atoms: C23_37  and  C24_39 
REMARK   17  A    between atoms: C24_39  and  N6_41 
ROOT
HETATM    1  C11 UNL     1       8.009  16.364   1.741  1.00  0.00     0.183 C 
ENDROOT
BRANCH   1   2
HETATM    2  C10 UNL     1       6.629  16.347   1.307  1.00  0.00     0.243 C 
HETATM    3  N2  UNL     1       5.633  17.113   1.914  1.00  0.00    -0.347 N 
HETATM    4  C9  UNL     1       4.252  16.974   1.482  1.00  0.00     0.146 C 
HETATM    5  C27 UNL     1       5.899  18.095   2.922  1.00  0.00     0.146 C 
HETATM    6  C8  UNL     1       3.278  17.802   2.248  1.00  0.00     0.148 C 
HETATM    7  N1  UNL     1       3.598  18.039   3.620  1.00  0.00    -0.325 N 
HETATM    8  C7  UNL     1       2.526  18.400   4.517  1.00  0.00     0.362 C 
HETATM    9  C28 UNL     1       4.937  17.923   4.105  1.00  0.00     0.148 C 
HETATM   10  O2  UNL     1       1.338  18.478   4.084  1.00  0.00    -0.238 OA
HETATM   11  O3  UNL     1       6.223  15.626   0.328  1.00  0.00    -0.271 OA
BRANCH   8  12
HETATM   12  O1  UNL     1       2.741  18.669   5.850  1.00  0.00    -0.304 OA
BRANCH  12  13
HETATM   13  C6  UNL     1       2.333  17.854   6.918  1.00  0.00     0.180 C 
BRANCH  13  14
HETATM   14  C5  UNL     1       3.289  16.698   7.166  1.00  0.00     0.027 C 
BRANCH  14  15
HETATM   15  C4  UNL     1       4.582  17.262   7.687  1.00  0.00     0.002 C 
BRANCH  15  16
HETATM   16  C3  UNL     1       5.548  16.209   8.160  1.00  0.00    -0.000 C 
BRANCH  16  17
HETATM   17  C2  UNL     1       6.565  16.793   9.092  1.00  0.00    -0.005 C 
HETATM   18  C1  UNL     1       7.837  15.942   9.089  1.00  0.00     0.005 C 
ENDBRANCH  16  17
ENDBRANCH  15  16
ENDBRANCH  14  15
ENDBRANCH  13  14
ENDBRANCH  12  13
ENDBRANCH   8  12
ENDBRANCH   1   2
BRANCH   1  19
HETATM   19  C12 UNL     1       8.460  15.261   2.673  1.00  0.00     0.114 C 
BRANCH  19  20
HETATM   20  C13 UNL     1       9.273  15.760   3.796  1.00  0.00     0.136 C 
HETATM   21  O4  UNL     1      10.340  16.279   3.581  1.00  0.00    -0.297 OA
BRANCH  20  22
HETATM   22  C14 UNL     1       8.844  15.672   5.227  1.00  0.00     0.009 C 
HETATM   23  C15 UNL     1       8.178  16.977   5.655  1.00  0.00     0.022 C 
HETATM   24  C16 UNL     1       7.839  14.552   5.391  1.00  0.00     0.022 C 
HETATM   25  C17 UNL     1      10.053  15.468   6.098  1.00  0.00     0.022 C 
ENDBRANCH  20  22
ENDBRANCH  19  20
ENDBRANCH   1  19
BRANCH   1  26
HETATM   26  N3  UNL     1       8.889  16.255   0.532  1.00  0.00    -0.346 N 
HETATM   27  C18 UNL     1       9.833  17.260   0.237  1.00  0.00     0.236 C 
HETATM   28  O5  UNL     1       9.895  18.254   1.004  1.00  0.00    -0.272 OA
ATOM     29  H3  UNL     1       8.803  15.446  -0.083  1.00  0.00     0.163 HD
BRANCH  27  30
HETATM   30  C19 UNL     1      10.770  17.247  -0.901  1.00  0.00     0.225 C 
BRANCH  30  31
HETATM   31  N4  UNL     1      10.154  17.088  -2.182  1.00  0.00    -0.351 N 
HETATM   32  C20 UNL     1      10.557  16.061  -3.063  1.00  0.00     0.240 C 
HETATM   33  O6  UNL     1      11.472  15.289  -2.704  1.00  0.00    -0.271 OA
ATOM     34  H4  UNL     1       9.412  17.727  -2.464  1.00  0.00     0.163 HD
BRANCH  32  35
HETATM   35  C21 UNL     1       9.952  15.845  -4.396  1.00  0.00     0.172 C 
HETATM   36  C22 UNL     1       8.567  15.210  -4.222  1.00  0.00     0.042 C 
BRANCH  35  37
HETATM   37  N5  UNL     1      10.781  15.003  -5.212  1.00  0.00    -0.346 N 
HETATM   38  C23 UNL     1      11.219  15.363  -6.512  1.00  0.00     0.240 C 
HETATM   39  O7  UNL     1      10.901  16.466  -7.056  1.00  0.00    -0.271 OA
ATOM     40  H5  UNL     1      11.070  14.099  -4.837  1.00  0.00     0.163 HD
BRANCH  38  41
HETATM   41  C24 UNL     1      12.082  14.460  -7.329  1.00  0.00     0.165 C 
HETATM   42  C25 UNL     1      12.779  13.533  -6.328  1.00  0.00     0.042 C 
BRANCH  41  43
HETATM   43  N6  UNL     1      11.282  13.684  -8.198  1.00  0.00    -0.414 N 
HETATM   44  C26 UNL     1      11.496  12.285  -8.254  1.00  0.00     0.140 C 
ATOM     45  H6  UNL     1      10.563  14.123  -8.773  1.00  0.00     0.153 HD
ENDBRANCH  41  43
ENDBRANCH  38  41
ENDBRANCH  35  37
ENDBRANCH  32  35
ENDBRANCH  30  31
ENDBRANCH  27  30
ENDBRANCH   1  26
TORSDOF 17
ENDMDL
MODEL 4
REMARK VINA RESULT: -7.959024555      2.253      3.627
REMARK  17 active torsions:
REMARK  status: ('A' for Active; 'I' for Inactive)
REMARK    1  A    between atoms: C2_2  and  C3_3 
REMARK    2  A    between atoms: C3_3  and  C4_4 
REMARK    3  A    between atoms: C4_4  and  C5_5 
REMARK    4  A    between atoms: C5_5  and  C6_6 
REMARK    5  A    between atoms: C6_6  and  O1_7 
REMARK    6  A    between atoms: O1_7  and  C7_8 
REMARK       I    between atoms: C7_8  and  N1_10 
REMARK       I    between atoms: N2_13  and  C10_14 
REMARK    7  A    between atoms: C10_14  and  C11_16 
REMARK    8  A    between atoms: C11_16  and  C12_17 
REMARK    9  A    between atoms: C11_16  and  N3_24 
REMARK   10  A    between atoms: C12_17  and  C13_18 
REMARK   11  A    between atoms: C13_18  and  C14_20 
REMARK       I    between atoms: N3_24  and  C18_26 
REMARK   12  A    between atoms: C18_26  and  C19_28 
REMARK   13  A    between atoms: C19_28  and  N4_29 
REMARK       I    between atoms: N4_29  and  C20_31 
REMARK   14  A    between atoms: C20_31  and  C21_33 
REMARK   15  A    between atoms: C21_33  and  N5_35 
REMARK       I    between atoms: N5_35  and  C23_37 
REMARK   16  A    between atoms: C23_37  and  C24_39 
REMARK   17  A    between atoms: C24_39  and  N6_41 
ROOT
HETATM    1  C11 UNL     1       8.049  16.366   1.520  1.00  0.00     0.183 C 
ENDROOT
BRANCH   1   2
HETATM    2  C10 UNL     1       6.645  16.331   1.172  1.00  0.00     0.243 C 
HETATM    3  N2  UNL     1       5.685  17.119   1.810  1.00  0.00    -0.347 N 
HETATM    4  C9  UNL     1       4.281  16.961   1.469  1.00  0.00     0.146 C 
HETATM    5  C27 UNL     1       6.010  18.141   2.759  1.00  0.00     0.146 C 
HETATM    6  C8  UNL     1       3.354  17.819   2.260  1.00  0.00     0.148 C 
HETATM    7  N1  UNL     1       3.757  18.110   3.599  1.00  0.00    -0.325 N 
HETATM    8  C7  UNL     1       2.741  18.506   4.546  1.00  0.00     0.362 C 
HETATM    9  C28 UNL     1       5.124  18.016   4.005  1.00  0.00     0.148 C 
HETATM   10  O2  UNL     1       1.528  18.566   4.185  1.00  0.00    -0.238 OA
HETATM   11  O3  UNL     1       6.181  15.571   0.251  1.00  0.00    -0.271 OA
BRANCH   8  12
HETATM   12  O1  UNL     1       3.037  18.828   5.851  1.00  0.00    -0.304 OA
BRANCH  12  13
HETATM   13  C6  UNL     1       2.677  18.069   6.976  1.00  0.00     0.180 C 
BRANCH  13  14
HETATM   14  C5  UNL     1       3.562  16.848   7.161  1.00  0.00     0.027 C 
BRANCH  14  15
HETATM   15  C4  UNL     1       4.925  17.316   7.590  1.00  0.00     0.002 C 
BRANCH  15  16
HETATM   16  C3  UNL     1       5.789  16.218   8.150  1.00  0.00    -0.000 C 
BRANCH  16  17
HETATM   17  C2  UNL     1       6.904  16.782   8.977  1.00  0.00    -0.005 C 
HETATM   18  C1  UNL     1       8.114  15.845   8.943  1.00  0.00     0.005 C 
ENDBRANCH  16  17
ENDBRANCH  15  16
ENDBRANCH  14  15
ENDBRANCH  13  14
ENDBRANCH  12  13
ENDBRANCH   8  12
ENDBRANCH   1   2
BRANCH   1  19
HETATM   19  C12 UNL     1       8.589  15.229   2.357  1.00  0.00     0.114 C 
BRANCH  19  20
HETATM   20  C13 UNL     1       9.324  15.694   3.546  1.00  0.00     0.136 C 
HETATM   21  O4  UNL     1      10.395  16.234   3.418  1.00  0.00    -0.297 OA
BRANCH  20  22
HETATM   22  C14 UNL     1       8.809  15.547   4.944  1.00  0.00     0.009 C 
HETATM   23  C15 UNL     1       8.256  16.879   5.442  1.00  0.00     0.022 C 
HETATM   24  C16 UNL     1       7.687  14.530   4.970  1.00  0.00     0.022 C 
HETATM   25  C17 UNL     1       9.940  15.153   5.853  1.00  0.00     0.022 C 
ENDBRANCH  20  22
ENDBRANCH  19  20
ENDBRANCH   1  19
BRANCH   1  26
HETATM   26  N3  UNL     1       8.851  16.351   0.254  1.00  0.00    -0.346 N 
HETATM   27  C18 UNL     1       9.834  17.334   0.013  1.00  0.00     0.236 C 
HETATM   28  O5  UNL     1       9.995  18.230   0.879  1.00  0.00    -0.272 OA
ATOM     29  H3  UNL     1       8.686  15.622  -0.440  1.00  0.00     0.163 HD
BRANCH  27  30
HETATM   30  C19 UNL     1      10.702  17.403  -1.175  1.00  0.00     0.225 C 
BRANCH  30  31
HETATM   31  N4  UNL     1      10.907  16.155  -1.843  1.00  0.00    -0.351 N 
HETATM   32  C20 UNL     1      10.191  15.827  -3.015  1.00  0.00     0.240 C 
HETATM   33  O6  UNL     1       9.364  16.652  -3.461  1.00  0.00    -0.271 OA
ATOM     34  H4  UNL     1      11.582  15.490  -1.466  1.00  0.00     0.163 HD
BRANCH  32  35
HETATM   35  C21 UNL     1      10.367  14.556  -3.750  1.00  0.00     0.172 C 
HETATM   36  C22 UNL     1       8.992  14.022  -4.167  1.00  0.00     0.042 C 
BRANCH  35  37
HETATM   37  N5  UNL     1      11.051  13.582  -2.945  1.00  0.00    -0.346 N 
HETATM   38  C23 UNL     1      12.446  13.341  -3.029  1.00  0.00     0.240 C 
HETATM   39  O7  UNL     1      13.199  13.973  -3.835  1.00  0.00    -0.271 OA
ATOM     40  H5  UNL     1      10.505  13.035  -2.279  1.00  0.00     0.163 HD
BRANCH  38  41
HETATM   41  C24 UNL     1      13.121  12.321  -2.174  1.00  0.00     0.165 C 
HETATM   42  C25 UNL     1      12.531  12.499  -0.771  1.00  0.00     0.042 C 
BRANCH  41  43
HETATM   43  N6  UNL     1      12.816  11.023  -2.642  1.00  0.00    -0.414 N 
HETATM   44  C26 UNL     1      13.802  10.311  -3.368  1.00  0.00     0.140 C 
ATOM     45  H6  UNL     1      11.904  10.606  -2.459  1.00  0.00     0.153 HD
ENDBRANCH  41  43
ENDBRANCH  38  41
ENDBRANCH  35  37
ENDBRANCH  32  35
ENDBRANCH  30  31
ENDBRANCH  27  30
ENDBRANCH   1  26
TORSDOF 17
ENDMDL
MODEL 5
REMARK VINA RESULT: -7.945728521      2.370      4.210
REMARK  17 active torsions:
REMARK  status: ('A' for Active; 'I' for Inactive)
REMARK    1  A    between atoms: C2_2  and  C3_3 
REMARK    2  A    between atoms: C3_3  and  C4_4 
REMARK    3  A    between atoms: C4_4  and  C5_5 
REMARK    4  A    between atoms: C5_5  and  C6_6 
REMARK    5  A    between atoms: C6_6  and  O1_7 
REMARK    6  A    between atoms: O1_7  and  C7_8 
REMARK       I    between atoms: C7_8  and  N1_10 
REMARK       I    between atoms: N2_13  and  C10_14 
REMARK    7  A    between atoms: C10_14  and  C11_16 
REMARK    8  A    between atoms: C11_16  and  C12_17 
REMARK    9  A    between atoms: C11_16  and  N3_24 
REMARK   10  A    between atoms: C12_17  and  C13_18 
REMARK   11  A    between atoms: C13_18  and  C14_20 
REMARK       I    between atoms: N3_24  and  C18_26 
REMARK   12  A    between atoms: C18_26  and  C19_28 
REMARK   13  A    between atoms: C19_28  and  N4_29 
REMARK       I    between atoms: N4_29  and  C20_31 
REMARK   14  A    between atoms: C20_31  and  C21_33 
REMARK   15  A    between atoms: C21_33  and  N5_35 
REMARK       I    between atoms: N5_35  and  C23_37 
REMARK   16  A    between atoms: C23_37  and  C24_39 
REMARK   17  A    between atoms: C24_39  and  N6_41 
ROOT
HETATM    1  C11 UNL     1       8.019  16.362   1.647  1.00  0.00     0.183 C 
ENDROOT
BRANCH   1   2
HETATM    2  C10 UNL     1       6.631  16.323   1.241  1.00  0.00     0.243 C 
HETATM    3  N2  UNL     1       5.641  17.100   1.846  1.00  0.00    -0.347 N 
HETATM    4  C9  UNL     1       4.253  16.939   1.446  1.00  0.00     0.146 C 
HETATM    5  C27 UNL     1       5.921  18.113   2.820  1.00  0.00     0.146 C 
HETATM    6  C8  UNL     1       3.289  17.783   2.207  1.00  0.00     0.148 C 
HETATM    7  N1  UNL     1       3.634  18.061   3.565  1.00  0.00    -0.325 N 
HETATM    8  C7  UNL     1       2.578  18.442   4.473  1.00  0.00     0.362 C 
HETATM    9  C28 UNL     1       4.984  17.969   4.026  1.00  0.00     0.148 C 
HETATM   10  O2  UNL     1       1.381  18.500   4.062  1.00  0.00    -0.238 OA
HETATM   11  O3  UNL     1       6.210  15.571   0.293  1.00  0.00    -0.271 OA
BRANCH   8  12
HETATM   12  O1  UNL     1       2.818  18.751   5.792  1.00  0.00    -0.304 OA
BRANCH  12  13
HETATM   13  C6  UNL     1       2.724  17.851   6.866  1.00  0.00     0.180 C 
BRANCH  13  14
HETATM   14  C5  UNL     1       4.028  17.727   7.637  1.00  0.00     0.027 C 
BRANCH  14  15
HETATM   15  C4  UNL     1       4.241  16.275   7.967  1.00  0.00     0.002 C 
BRANCH  15  16
HETATM   16  C3  UNL     1       5.685  15.853   7.913  1.00  0.00    -0.000 C 
BRANCH  16  17
HETATM   17  C2  UNL     1       6.509  16.633   8.892  1.00  0.00    -0.005 C 
HETATM   18  C1  UNL     1       7.910  16.028   9.004  1.00  0.00     0.005 C 
ENDBRANCH  16  17
ENDBRANCH  15  16
ENDBRANCH  14  15
ENDBRANCH  13  14
ENDBRANCH  12  13
ENDBRANCH   8  12
ENDBRANCH   1   2
BRANCH   1  19
HETATM   19  C12 UNL     1       8.529  15.218   2.494  1.00  0.00     0.114 C 
BRANCH  19  20
HETATM   20  C13 UNL     1       9.315  15.673   3.654  1.00  0.00     0.136 C 
HETATM   21  O4  UNL     1      10.401  16.170   3.486  1.00  0.00    -0.297 OA
BRANCH  20  22
HETATM   22  C14 UNL     1       8.835  15.568   5.068  1.00  0.00     0.009 C 
HETATM   23  C15 UNL     1       8.199  16.885   5.505  1.00  0.00     0.022 C 
HETATM   24  C16 UNL     1       7.788  14.480   5.172  1.00  0.00     0.022 C 
HETATM   25  C17 UNL     1      10.006  15.303   5.974  1.00  0.00     0.022 C 
ENDBRANCH  20  22
ENDBRANCH  19  20
ENDBRANCH   1  19
BRANCH   1  26
HETATM   26  N3  UNL     1       8.873  16.363   0.416  1.00  0.00    -0.346 N 
HETATM   27  C18 UNL     1       9.835  17.374   0.209  1.00  0.00     0.236 C 
HETATM   28  O5  UNL     1       9.934  18.279   1.075  1.00  0.00    -0.272 OA
ATOM     29  H3  UNL     1       8.758  15.626  -0.280  1.00  0.00     0.163 HD
BRANCH  27  30
HETATM   30  C19 UNL     1      10.750  17.463  -0.943  1.00  0.00     0.225 C 
BRANCH  30  31
HETATM   31  N4  UNL     1      11.044  16.213  -1.574  1.00  0.00    -0.351 N 
HETATM   32  C20 UNL     1      10.399  15.830  -2.770  1.00  0.00     0.240 C 
HETATM   33  O6  UNL     1       9.555  16.605  -3.271  1.00  0.00    -0.271 OA
ATOM     34  H4  UNL     1      11.731  15.589  -1.153  1.00  0.00     0.163 HD
BRANCH  32  35
HETATM   35  C21 UNL     1      10.669  14.554  -3.469  1.00  0.00     0.172 C 
HETATM   36  C22 UNL     1      11.931  13.915  -2.879  1.00  0.00     0.042 C 
BRANCH  35  37
HETATM   37  N5  UNL     1      10.836  14.762  -4.881  1.00  0.00    -0.346 N 
HETATM   38  C23 UNL     1       9.950  14.237  -5.857  1.00  0.00     0.240 C 
HETATM   39  O7  UNL     1       8.937  13.534  -5.549  1.00  0.00    -0.271 OA
ATOM     40  H5  UNL     1      11.632  15.315  -5.197  1.00  0.00     0.163 HD
BRANCH  38  41
HETATM   41  C24 UNL     1      10.156  14.477  -7.315  1.00  0.00     0.165 C 
HETATM   42  C25 UNL     1       9.313  15.709  -7.658  1.00  0.00     0.042 C 
BRANCH  41  43
HETATM   43  N6  UNL     1      11.517  14.763  -7.569  1.00  0.00    -0.414 N 
HETATM   44  C26 UNL     1      12.379  13.702  -7.940  1.00  0.00     0.140 C 
ATOM     45  H6  UNL     1      11.871  15.715  -7.486  1.00  0.00     0.153 HD
ENDBRANCH  41  43
ENDBRANCH  38  41
ENDBRANCH  35  37
ENDBRANCH  32  35
ENDBRANCH  30  31
ENDBRANCH  27  30
ENDBRANCH   1  26
TORSDOF 17
ENDMDL
