MODEL 1
REMARK VINA RESULT: -8.962192012      0.000      0.000
REMARK  16 active torsions:
REMARK  status: ('A' for Active; 'I' for Inactive)
REMARK    1  A    between atoms: C2_2  and  C3_3 
REMARK    2  A    between atoms: C3_3  and  C4_4 
REMARK    3  A    between atoms: C4_4  and  C5_5 
REMARK    4  A    between atoms: C5_5  and  C6_6 
REMARK    5  A    between atoms: C6_6  and  N1_7 
REMARK       I    between atoms: N1_7  and  C7_9 
REMARK    6  A    between atoms: C7_9  and  C8_11 
REMARK    7  A    between atoms: N3_20  and  C13_22 
REMARK    8  A    between atoms: C13_22  and  C14_24 
REMARK    9  A    between atoms: C14_24  and  C15_25 
REMARK   10  A    between atoms: C14_24  and  N4_32 
REMARK   11  A    between atoms: C15_25  and  C16_26 
REMARK       I    between atoms: N4_32  and  C22_34 
REMARK   12  A    between atoms: C22_34  and  C23_36 
REMARK   13  A    between atoms: C23_36  and  N5_37 
REMARK   14  A    between atoms: N6_40  and  C26_41 
REMARK   15  A    between atoms: C26_41  and  C27_42 
REMARK   16  A    between atoms: C27_42  and  O4_43 
ROOT
HETATM    1  C13 UNL     1       9.430  17.241   0.525  1.00  0.00     0.100 C 
HETATM    2  S1  UNL     1      10.296  17.402  -0.877  1.00  0.00    -0.063 SA
ENDROOT
BRANCH   1   3
HETATM    3  N3  UNL     1       8.328  18.081   0.688  1.00  0.00    -0.356 N 
HETATM    4  C2  UNL     1       7.101  17.879   0.480  1.00  0.00    -0.017 C 
HETATM    5  C1  UNL     1       6.568  16.595  -0.023  1.00  0.00     0.063 C 
ATOM      6  H3  UNL     1       8.552  19.014   1.034  1.00  0.00     0.166 HD
BRANCH   4   7
HETATM    7  C3  UNL     1       6.082  18.956   0.749  1.00  0.00     0.052 C 
BRANCH   7   8
HETATM    8  C4  UNL     1       4.853  18.421   1.397  1.00  0.00     0.007 C 
BRANCH   8   9
HETATM    9  C5  UNL     1       4.844  18.694   2.881  1.00  0.00     0.020 C 
BRANCH   9  10
HETATM   10  C6  UNL     1       3.860  17.766   3.576  1.00  0.00     0.122 C 
BRANCH  10  11
HETATM   11  N1  UNL     1       4.331  17.467   4.913  1.00  0.00    -0.359 N 
HETATM   12  C7  UNL     1       3.796  18.153   6.032  1.00  0.00     0.256 C 
HETATM   13  O1  UNL     1       2.913  19.014   5.857  1.00  0.00    -0.271 OA
ATOM     14  H1  UNL     1       5.051  16.759   5.050  1.00  0.00     0.162 HD
BRANCH  12  15
HETATM   15  C8  UNL     1       4.281  17.843   7.380  1.00  0.00     0.346 C 
HETATM   16  N2  UNL     1       5.698  18.133   7.486  1.00  0.00    -0.051 N 
HETATM   17  C9  UNL     1       6.188  17.238   8.524  1.00  0.00     0.190 C 
ATOM     18  H22 UNL     1       6.203  18.058   6.602  1.00  0.00     0.279 HD
ATOM     19  H21 UNL     1       5.907  19.117   7.655  1.00  0.00     0.279 HD
HETATM   20  C10 UNL     1       7.636  16.964   8.288  1.00  0.00     0.040 C 
HETATM   21  C11 UNL     1       5.362  16.003   8.455  1.00  0.00     0.113 C 
HETATM   22  C12 UNL     1       4.144  16.410   7.727  1.00  0.00     0.168 C 
HETATM   23  O2  UNL     1       3.203  15.691   7.466  1.00  0.00    -0.295 OA
ENDBRANCH  12  15
ENDBRANCH  10  11
ENDBRANCH   9  10
ENDBRANCH   8   9
ENDBRANCH   7   8
ENDBRANCH   4   7
ENDBRANCH   1   3
BRANCH   1  24
HETATM   24  C14 UNL     1       9.822  16.224   1.503  1.00  0.00     0.146 C 
BRANCH  24  25
HETATM   25  C15 UNL     1      10.028  16.602   2.907  1.00  0.00     0.037 C 
BRANCH  25  26
HETATM   26  C16 UNL     1       8.964  16.627   3.902  1.00  0.00    -0.012 C 
HETATM   27  C17 UNL     1       9.548  16.237   5.291  1.00  0.00     0.005 C 
HETATM   28  C18 UNL     1       9.571  14.734   5.353  1.00  0.00     0.000 C 
HETATM   29  C19 UNL     1       8.115  14.277   5.442  1.00  0.00     0.000 C 
HETATM   30  C20 UNL     1       7.531  14.548   4.076  1.00  0.00     0.000 C 
HETATM   31  C21 UNL     1       7.652  16.008   3.693  1.00  0.00     0.005 C 
ENDBRANCH  25  26
ENDBRANCH  24  25
BRANCH  24  32
HETATM   32  N4  UNL     1      11.019  15.501   0.993  1.00  0.00    -0.349 N 
HETATM   33  C22 UNL     1      10.958  14.241   0.380  1.00  0.00     0.235 C 
HETATM   34  O3  UNL     1       9.874  13.646   0.223  1.00  0.00    -0.272 OA
ATOM     35  H4  UNL     1      11.932  15.946   1.093  1.00  0.00     0.163 HD
BRANCH  33  36
HETATM   36  C23 UNL     1      12.214  13.619  -0.083  1.00  0.00     0.219 C 
BRANCH  36  37
HETATM   37  N5  UNL     1      12.434  13.877  -1.462  1.00  0.00    -0.401 N 
HETATM   38  C24 UNL     1      13.787  13.987  -1.893  1.00  0.00     0.147 C 
HETATM   39  C25 UNL     1      13.801  13.971  -3.433  1.00  0.00     0.291 C 
HETATM   40  N6  UNL     1      12.615  14.714  -3.846  1.00  0.00     0.093 N 
HETATM   41  C28 UNL     1      11.388  13.997  -3.610  1.00  0.00     0.291 C 
HETATM   42  C29 UNL     1      11.543  13.182  -2.327  1.00  0.00     0.147 C 
BRANCH  40  43
HETATM   43  C26 UNL     1      12.685  15.110  -5.224  1.00  0.00     0.298 C 
BRANCH  43  44
HETATM   44  C27 UNL     1      11.298  15.234  -5.785  1.00  0.00     0.194 C 
BRANCH  44  45
HETATM   45  O4  UNL     1      11.213  16.237  -6.752  1.00  0.00    -0.399 OA
ATOM     46  H4  UNL     1      10.564  16.037  -7.416  1.00  0.00     0.209 HD
ENDBRANCH  44  45
ENDBRANCH  43  44
ENDBRANCH  40  43
ENDBRANCH  36  37
ENDBRANCH  33  36
ENDBRANCH  24  32
ENDBRANCH   1  24
TORSDOF 16
ENDMDL
MODEL 2
REMARK VINA RESULT: -8.819485907      2.366      5.184
REMARK  16 active torsions:
REMARK  status: ('A' for Active; 'I' for Inactive)
REMARK    1  A    between atoms: C2_2  and  C3_3 
REMARK    2  A    between atoms: C3_3  and  C4_4 
REMARK    3  A    between atoms: C4_4  and  C5_5 
REMARK    4  A    between atoms: C5_5  and  C6_6 
REMARK    5  A    between atoms: C6_6  and  N1_7 
REMARK       I    between atoms: N1_7  and  C7_9 
REMARK    6  A    between atoms: C7_9  and  C8_11 
REMARK    7  A    between atoms: N3_20  and  C13_22 
REMARK    8  A    between atoms: C13_22  and  C14_24 
REMARK    9  A    between atoms: C14_24  and  C15_25 
REMARK   10  A    between atoms: C14_24  and  N4_32 
REMARK   11  A    between atoms: C15_25  and  C16_26 
REMARK       I    between atoms: N4_32  and  C22_34 
REMARK   12  A    between atoms: C22_34  and  C23_36 
REMARK   13  A    between atoms: C23_36  and  N5_37 
REMARK   14  A    between atoms: N6_40  and  C26_41 
REMARK   15  A    between atoms: C26_41  and  C27_42 
REMARK   16  A    between atoms: C27_42  and  O4_43 
ROOT
HETATM    1  C13 UNL     1      10.338  16.384   1.269  1.00  0.00     0.100 C 
HETATM    2  S1  UNL     1       9.690  17.856   0.877  1.00  0.00    -0.063 SA
ENDROOT
BRANCH   1   3
HETATM    3  N3  UNL     1      10.223  15.977   2.599  1.00  0.00    -0.356 N 
HETATM    4  C2  UNL     1       9.335  15.291   3.176  1.00  0.00    -0.017 C 
HETATM    5  C1  UNL     1       8.150  14.751   2.477  1.00  0.00     0.063 C 
ATOM      6  H3  UNL     1      10.983  16.285   3.205  1.00  0.00     0.166 HD
BRANCH   4   7
HETATM    7  C3  UNL     1       9.442  14.966   4.644  1.00  0.00     0.052 C 
BRANCH   7   8
HETATM    8  C4  UNL     1       8.196  14.350   5.177  1.00  0.00     0.007 C 
BRANCH   8   9
HETATM    9  C5  UNL     1       7.790  14.970   6.491  1.00  0.00     0.020 C 
BRANCH   9  10
HETATM   10  C6  UNL     1       7.487  16.447   6.298  1.00  0.00     0.122 C 
BRANCH  10  11
HETATM   11  N1  UNL     1       6.249  16.601   5.562  1.00  0.00    -0.359 N 
HETATM   12  C7  UNL     1       6.221  17.331   4.347  1.00  0.00     0.256 C 
HETATM   13  O1  UNL     1       7.274  17.837   3.914  1.00  0.00    -0.271 OA
ATOM     14  H1  UNL     1       5.392  16.180   5.919  1.00  0.00     0.162 HD
BRANCH  12  15
HETATM   15  C8  UNL     1       4.963  17.481   3.612  1.00  0.00     0.346 C 
HETATM   16  N2  UNL     1       4.893  16.519   2.528  1.00  0.00    -0.051 N 
HETATM   17  C9  UNL     1       4.026  17.136   1.535  1.00  0.00     0.190 C 
ATOM     18  H22 UNL     1       5.805  16.238   2.165  1.00  0.00     0.279 HD
ATOM     19  H21 UNL     1       4.593  15.589   2.820  1.00  0.00     0.279 HD
HETATM   20  C10 UNL     1       4.379  16.606   0.184  1.00  0.00     0.040 C 
HETATM   21  C11 UNL     1       4.231  18.605   1.634  1.00  0.00     0.113 C 
HETATM   22  C12 UNL     1       4.823  18.809   2.971  1.00  0.00     0.168 C 
HETATM   23  O2  UNL     1       5.135  19.878   3.451  1.00  0.00    -0.295 OA
ENDBRANCH  12  15
ENDBRANCH  10  11
ENDBRANCH   9  10
ENDBRANCH   8   9
ENDBRANCH   7   8
ENDBRANCH   4   7
ENDBRANCH   1   3
BRANCH   1  24
HETATM   24  C14 UNL     1      10.960  15.567   0.225  1.00  0.00     0.146 C 
BRANCH  24  25
HETATM   25  C15 UNL     1      12.419  15.576   0.065  1.00  0.00     0.037 C 
BRANCH  25  26
HETATM   26  C16 UNL     1      13.234  14.368   0.015  1.00  0.00    -0.012 C 
HETATM   27  C17 UNL     1      13.963  14.295  -1.358  1.00  0.00     0.005 C 
HETATM   28  C18 UNL     1      12.997  13.684  -2.338  1.00  0.00     0.000 C 
HETATM   29  C19 UNL     1      12.843  12.215  -1.942  1.00  0.00     0.000 C 
HETATM   30  C20 UNL     1      12.051  12.234  -0.656  1.00  0.00     0.000 C 
HETATM   31  C21 UNL     1      12.742  13.048   0.417  1.00  0.00     0.005 C 
ENDBRANCH  25  26
ENDBRANCH  24  25
BRANCH  24  32
HETATM   32  N4  UNL     1      10.306  15.870  -1.077  1.00  0.00    -0.349 N 
HETATM   33  C22 UNL     1       9.278  15.089  -1.626  1.00  0.00     0.235 C 
HETATM   34  O3  UNL     1       8.844  14.079  -1.039  1.00  0.00    -0.272 OA
ATOM     35  H4  UNL     1      10.621  16.689  -1.598  1.00  0.00     0.163 HD
BRANCH  33  36
HETATM   36  C23 UNL     1       8.708  15.486  -2.929  1.00  0.00     0.219 C 
BRANCH  36  37
HETATM   37  N5  UNL     1       9.469  14.953  -4.003  1.00  0.00    -0.401 N 
HETATM   38  C24 UNL     1       8.854  13.939  -4.792  1.00  0.00     0.147 C 
HETATM   39  C25 UNL     1       9.718  13.721  -6.049  1.00  0.00     0.291 C 
HETATM   40  N6  UNL     1      11.101  13.864  -5.605  1.00  0.00     0.093 N 
HETATM   41  C28 UNL     1      11.459  15.225  -5.302  1.00  0.00     0.291 C 
HETATM   42  C29 UNL     1      10.240  15.924  -4.699  1.00  0.00     0.147 C 
BRANCH  40  43
HETATM   43  C26 UNL     1      12.027  13.324  -6.561  1.00  0.00     0.298 C 
BRANCH  43  44
HETATM   44  C27 UNL     1      11.332  12.311  -7.422  1.00  0.00     0.194 C 
BRANCH  44  45
HETATM   45  O4  UNL     1      11.619  11.003  -7.027  1.00  0.00    -0.399 OA
ATOM     46  H4  UNL     1      11.261  10.362  -7.630  1.00  0.00     0.209 HD
ENDBRANCH  44  45
ENDBRANCH  43  44
ENDBRANCH  40  43
ENDBRANCH  36  37
ENDBRANCH  33  36
ENDBRANCH  24  32
ENDBRANCH   1  24
TORSDOF 16
ENDMDL
MODEL 3
REMARK VINA RESULT: -8.772574440      1.918     10.110
REMARK  16 active torsions:
REMARK  status: ('A' for Active; 'I' for Inactive)
REMARK    1  A    between atoms: C2_2  and  C3_3 
REMARK    2  A    between atoms: C3_3  and  C4_4 
REMARK    3  A    between atoms: C4_4  and  C5_5 
REMARK    4  A    between atoms: C5_5  and  C6_6 
REMARK    5  A    between atoms: C6_6  and  N1_7 
REMARK       I    between atoms: N1_7  and  C7_9 
REMARK    6  A    between atoms: C7_9  and  C8_11 
REMARK    7  A    between atoms: N3_20  and  C13_22 
REMARK    8  A    between atoms: C13_22  and  C14_24 
REMARK    9  A    between atoms: C14_24  and  C15_25 
REMARK   10  A    between atoms: C14_24  and  N4_32 
REMARK   11  A    between atoms: C15_25  and  C16_26 
REMARK       I    between atoms: N4_32  and  C22_34 
REMARK   12  A    between atoms: C22_34  and  C23_36 
REMARK   13  A    between atoms: C23_36  and  N5_37 
REMARK   14  A    between atoms: N6_40  and  C26_41 
REMARK   15  A    between atoms: C26_41  and  C27_42 
REMARK   16  A    between atoms: C27_42  and  O4_43 
ROOT
HETATM    1  C13 UNL     1       9.427  14.732   0.634  1.00  0.00     0.100 C 
HETATM    2  S1  UNL     1       8.532  14.381  -0.713  1.00  0.00    -0.063 SA
ENDROOT
BRANCH   1   3
HETATM    3  N3  UNL     1      10.755  14.302   0.642  1.00  0.00    -0.356 N 
HETATM    4  C2  UNL     1      11.807  14.872   0.246  1.00  0.00    -0.017 C 
HETATM    5  C1  UNL     1      11.817  16.223  -0.355  1.00  0.00     0.063 C 
ATOM      6  H3  UNL     1      10.897  13.371   1.034  1.00  0.00     0.166 HD
BRANCH   4   7
HETATM    7  C3  UNL     1      13.148  14.197   0.376  1.00  0.00     0.052 C 
BRANCH   7   8
HETATM    8  C4  UNL     1      13.398  13.222  -0.722  1.00  0.00     0.007 C 
BRANCH   8   9
HETATM    9  C5  UNL     1      14.274  13.813  -1.799  1.00  0.00     0.020 C 
BRANCH   9  10
HETATM   10  C6  UNL     1      13.779  13.378  -3.169  1.00  0.00     0.122 C 
BRANCH  10  11
HETATM   11  N1  UNL     1      13.112  14.485  -3.823  1.00  0.00    -0.359 N 
HETATM   12  C7  UNL     1      11.700  14.596  -3.787  1.00  0.00     0.256 C 
HETATM   13  O1  UNL     1      11.034  13.734  -3.183  1.00  0.00    -0.271 OA
ATOM     14  H1  UNL     1      13.663  15.190  -4.313  1.00  0.00     0.162 HD
BRANCH  12  15
HETATM   15  C8  UNL     1      11.037  15.720  -4.454  1.00  0.00     0.346 C 
HETATM   16  N2  UNL     1       9.615  15.709  -4.170  1.00  0.00    -0.051 N 
HETATM   17  C9  UNL     1       8.999  16.372  -5.310  1.00  0.00     0.190 C 
ATOM     18  H22 UNL     1       9.238  14.780  -3.979  1.00  0.00     0.279 HD
ATOM     19  H21 UNL     1       9.370  16.121  -3.270  1.00  0.00     0.279 HD
HETATM   20  C10 UNL     1       7.602  15.872  -5.469  1.00  0.00     0.040 C 
HETATM   21  C11 UNL     1       9.844  16.068  -6.496  1.00  0.00     0.113 C 
HETATM   22  C12 UNL     1      11.146  15.660  -5.930  1.00  0.00     0.168 C 
HETATM   23  O2  UNL     1      12.124  15.337  -6.570  1.00  0.00    -0.295 OA
ENDBRANCH  12  15
ENDBRANCH  10  11
ENDBRANCH   9  10
ENDBRANCH   8   9
ENDBRANCH   7   8
ENDBRANCH   4   7
ENDBRANCH   1   3
BRANCH   1  24
HETATM   24  C14 UNL     1       8.819  15.495   1.727  1.00  0.00     0.146 C 
BRANCH  24  25
HETATM   25  C15 UNL     1       8.679  14.884   3.054  1.00  0.00     0.037 C 
BRANCH  25  26
HETATM   26  C16 UNL     1       9.038  15.557   4.296  1.00  0.00    -0.012 C 
HETATM   27  C17 UNL     1       9.133  14.508   5.442  1.00  0.00     0.005 C 
HETATM   28  C18 UNL     1       7.737  14.294   5.961  1.00  0.00     0.000 C 
HETATM   29  C19 UNL     1       7.340  15.579   6.690  1.00  0.00     0.000 C 
HETATM   30  C20 UNL     1       7.141  16.606   5.602  1.00  0.00     0.000 C 
HETATM   31  C21 UNL     1       8.389  16.784   4.763  1.00  0.00     0.005 C 
ENDBRANCH  25  26
ENDBRANCH  24  25
BRANCH  24  32
HETATM   32  N4  UNL     1       7.503  16.022   1.272  1.00  0.00    -0.349 N 
HETATM   33  C22 UNL     1       7.312  17.337   0.822  1.00  0.00     0.235 C 
HETATM   34  O3  UNL     1       8.254  18.153   0.774  1.00  0.00    -0.272 OA
ATOM     35  H4  UNL     1       6.699  15.395   1.287  1.00  0.00     0.163 HD
BRANCH  33  36
HETATM   36  C23 UNL     1       5.959  17.749   0.399  1.00  0.00     0.219 C 
BRANCH  36  37
HETATM   37  N5  UNL     1       5.096  17.893   1.518  1.00  0.00    -0.401 N 
HETATM   38  C24 UNL     1       5.160  19.123   2.233  1.00  0.00     0.147 C 
HETATM   39  C25 UNL     1       3.962  19.178   3.199  1.00  0.00     0.291 C 
HETATM   40  N6  UNL     1       3.783  17.813   3.683  1.00  0.00     0.093 N 
HETATM   41  C28 UNL     1       3.245  16.926   2.684  1.00  0.00     0.291 C 
HETATM   42  C29 UNL     1       3.802  17.336   1.321  1.00  0.00     0.147 C 
BRANCH  40  43
HETATM   43  C26 UNL     1       2.964  17.766   4.861  1.00  0.00     0.298 C 
BRANCH  43  44
HETATM   44  C27 UNL     1       3.818  17.963   6.079  1.00  0.00     0.194 C 
BRANCH  44  45
HETATM   45  O4  UNL     1       3.590  19.200   6.684  1.00  0.00    -0.399 OA
ATOM     46  H4  UNL     1       2.980  19.135   7.410  1.00  0.00     0.209 HD
ENDBRANCH  44  45
ENDBRANCH  43  44
ENDBRANCH  40  43
ENDBRANCH  36  37
ENDBRANCH  33  36
ENDBRANCH  24  32
ENDBRANCH   1  24
TORSDOF 16
ENDMDL
MODEL 4
REMARK VINA RESULT: -8.682127726      2.864     11.686
REMARK  16 active torsions:
REMARK  status: ('A' for Active; 'I' for Inactive)
REMARK    1  A    between atoms: C2_2  and  C3_3 
REMARK    2  A    between atoms: C3_3  and  C4_4 
REMARK    3  A    between atoms: C4_4  and  C5_5 
REMARK    4  A    between atoms: C5_5  and  C6_6 
REMARK    5  A    between atoms: C6_6  and  N1_7 
REMARK       I    between atoms: N1_7  and  C7_9 
REMARK    6  A    between atoms: C7_9  and  C8_11 
REMARK    7  A    between atoms: N3_20  and  C13_22 
REMARK    8  A    between atoms: C13_22  and  C14_24 
REMARK    9  A    between atoms: C14_24  and  C15_25 
REMARK   10  A    between atoms: C14_24  and  N4_32 
REMARK   11  A    between atoms: C15_25  and  C16_26 
REMARK       I    between atoms: N4_32  and  C22_34 
REMARK   12  A    between atoms: C22_34  and  C23_36 
REMARK   13  A    between atoms: C23_36  and  N5_37 
REMARK   14  A    between atoms: N6_40  and  C26_41 
REMARK   15  A    between atoms: C26_41  and  C27_42 
REMARK   16  A    between atoms: C27_42  and  O4_43 
ROOT
HETATM    1  C13 UNL     1      10.464  16.361  -1.108  1.00  0.00     0.100 C 
HETATM    2  S1  UNL     1      10.502  17.652  -0.073  1.00  0.00    -0.063 SA
ENDROOT
BRANCH   1   3
HETATM    3  N3  UNL     1      11.645  15.632  -1.255  1.00  0.00    -0.356 N 
HETATM    4  C2  UNL     1      12.091  14.647  -0.606  1.00  0.00    -0.017 C 
HETATM    5  C1  UNL     1      11.371  14.038   0.532  1.00  0.00     0.063 C 
ATOM      6  H3  UNL     1      12.248  15.950  -2.014  1.00  0.00     0.166 HD
BRANCH   4   7
HETATM    7  C3  UNL     1      13.408  14.014  -0.971  1.00  0.00     0.052 C 
BRANCH   7   8
HETATM    8  C4  UNL     1      13.379  12.531  -0.830  1.00  0.00     0.007 C 
BRANCH   8   9
HETATM    9  C5  UNL     1      12.970  11.859  -2.118  1.00  0.00     0.020 C 
BRANCH   9  10
HETATM   10  C6  UNL     1      13.022  12.857  -3.264  1.00  0.00     0.122 C 
BRANCH  10  11
HETATM   11  N1  UNL     1      12.844  12.164  -4.524  1.00  0.00    -0.359 N 
HETATM   12  C7  UNL     1      13.317  12.736  -5.731  1.00  0.00     0.256 C 
HETATM   13  O1  UNL     1      13.893  13.840  -5.700  1.00  0.00    -0.271 OA
ATOM     14  H1  UNL     1      12.375  11.259  -4.542  1.00  0.00     0.162 HD
BRANCH  12  15
HETATM   15  C8  UNL     1      13.129  12.026  -7.000  1.00  0.00     0.346 C 
HETATM   16  N2  UNL     1      14.052  12.529  -8.000  1.00  0.00    -0.051 N 
HETATM   17  C9  UNL     1      13.392  12.283  -9.275  1.00  0.00     0.190 C 
ATOM     18  H22 UNL     1      14.328  13.500  -7.858  1.00  0.00     0.279 HD
ATOM     19  H21 UNL     1      14.988  12.130  -7.936  1.00  0.00     0.279 HD
HETATM   20  C10 UNL     1      13.877  13.280 -10.274  1.00  0.00     0.040 C 
HETATM   21  C11 UNL     1      11.929  12.395  -9.033  1.00  0.00     0.113 C 
HETATM   22  C12 UNL     1      11.778  12.221  -7.574  1.00  0.00     0.168 C 
HETATM   23  O2  UNL     1      10.730  12.235  -6.966  1.00  0.00    -0.295 OA
ENDBRANCH  12  15
ENDBRANCH  10  11
ENDBRANCH   9  10
ENDBRANCH   8   9
ENDBRANCH   7   8
ENDBRANCH   4   7
ENDBRANCH   1   3
BRANCH   1  24
HETATM   24  C14 UNL     1       9.213  16.016  -1.787  1.00  0.00     0.146 C 
BRANCH  24  25
HETATM   25  C15 UNL     1       8.983  16.466  -3.165  1.00  0.00     0.037 C 
BRANCH  25  26
HETATM   26  C16 UNL     1       8.716  15.561  -4.276  1.00  0.00    -0.012 C 
HETATM   27  C17 UNL     1      10.000  14.739  -4.590  1.00  0.00     0.005 C 
HETATM   28  C18 UNL     1      10.859  15.589  -5.488  1.00  0.00     0.000 C 
HETATM   29  C19 UNL     1      10.145  15.658  -6.839  1.00  0.00     0.000 C 
HETATM   30  C20 UNL     1       8.937  16.531  -6.603  1.00  0.00     0.000 C 
HETATM   31  C21 UNL     1       8.046  15.977  -5.511  1.00  0.00     0.005 C 
ENDBRANCH  25  26
ENDBRANCH  24  25
BRANCH  24  32
HETATM   32  N4  UNL     1       8.069  16.424  -0.925  1.00  0.00    -0.349 N 
HETATM   33  C22 UNL     1       7.411  15.547  -0.050  1.00  0.00     0.235 C 
HETATM   34  O3  UNL     1       7.756  14.354   0.059  1.00  0.00    -0.272 OA
ATOM     35  H4  UNL     1       7.748  17.391  -0.972  1.00  0.00     0.163 HD
BRANCH  33  36
HETATM   36  C23 UNL     1       6.285  16.063   0.753  1.00  0.00     0.219 C 
BRANCH  36  37
HETATM   37  N5  UNL     1       6.737  16.574   1.998  1.00  0.00    -0.401 N 
HETATM   38  C24 UNL     1       8.064  16.238   2.393  1.00  0.00     0.147 C 
HETATM   39  C25 UNL     1       8.441  17.118   3.600  1.00  0.00     0.291 C 
HETATM   40  N6  UNL     1       7.223  17.241   4.393  1.00  0.00     0.093 N 
HETATM   41  C28 UNL     1       6.233  18.089   3.779  1.00  0.00     0.291 C 
HETATM   42  C29 UNL     1       6.310  17.905   2.264  1.00  0.00     0.147 C 
BRANCH  40  43
HETATM   43  C26 UNL     1       7.496  17.706   5.724  1.00  0.00     0.298 C 
BRANCH  43  44
HETATM   44  C27 UNL     1       8.496  16.800   6.380  1.00  0.00     0.194 C 
BRANCH  44  45
HETATM   45  O4  UNL     1       9.306  17.484   7.288  1.00  0.00    -0.399 OA
ATOM     46  H4  UNL     1       9.953  16.915   7.687  1.00  0.00     0.209 HD
ENDBRANCH  44  45
ENDBRANCH  43  44
ENDBRANCH  40  43
ENDBRANCH  36  37
ENDBRANCH  33  36
ENDBRANCH  24  32
ENDBRANCH   1  24
TORSDOF 16
ENDMDL
MODEL 5
REMARK VINA RESULT: -8.657249075      2.060      9.802
REMARK  16 active torsions:
REMARK  status: ('A' for Active; 'I' for Inactive)
REMARK    1  A    between atoms: C2_2  and  C3_3 
REMARK    2  A    between atoms: C3_3  and  C4_4 
REMARK    3  A    between atoms: C4_4  and  C5_5 
REMARK    4  A    between atoms: C5_5  and  C6_6 
REMARK    5  A    between atoms: C6_6  and  N1_7 
REMARK       I    between atoms: N1_7  and  C7_9 
REMARK    6  A    between atoms: C7_9  and  C8_11 
REMARK    7  A    between atoms: N3_20  and  C13_22 
REMARK    8  A    between atoms: C13_22  and  C14_24 
REMARK    9  A    between atoms: C14_24  and  C15_25 
REMARK   10  A    between atoms: C14_24  and  N4_32 
REMARK   11  A    between atoms: C15_25  and  C16_26 
REMARK       I    between atoms: N4_32  and  C22_34 
REMARK   12  A    between atoms: C22_34  and  C23_36 
REMARK   13  A    between atoms: C23_36  and  N5_37 
REMARK   14  A    between atoms: N6_40  and  C26_41 
REMARK   15  A    between atoms: C26_41  and  C27_42 
REMARK   16  A    between atoms: C27_42  and  O4_43 
ROOT
HETATM    1  C13 UNL     1      10.257  15.949  -0.083  1.00  0.00     0.100 C 
HETATM    2  S1  UNL     1      10.455  16.922  -1.408  1.00  0.00    -0.063 SA
ENDROOT
BRANCH   1   3
HETATM    3  N3  UNL     1      10.793  14.663  -0.157  1.00  0.00    -0.356 N 
HETATM    4  C2  UNL     1      11.980  14.257  -0.028  1.00  0.00    -0.017 C 
HETATM    5  C1  UNL     1      13.117  15.160   0.248  1.00  0.00     0.063 C 
ATOM      6  H3  UNL     1      10.111  13.928  -0.347  1.00  0.00     0.166 HD
BRANCH   4   7
HETATM    7  C3  UNL     1      12.312  12.791  -0.138  1.00  0.00     0.052 C 
BRANCH   7   8
HETATM    8  C4  UNL     1      12.374  12.332  -1.553  1.00  0.00     0.007 C 
BRANCH   8   9
HETATM    9  C5  UNL     1      13.740  12.559  -2.151  1.00  0.00     0.020 C 
BRANCH   9  10
HETATM   10  C6  UNL     1      13.619  13.358  -3.439  1.00  0.00     0.122 C 
BRANCH  10  11
HETATM   11  N1  UNL     1      12.241  13.353  -3.889  1.00  0.00    -0.359 N 
HETATM   12  C7  UNL     1      11.755  14.391  -4.724  1.00  0.00     0.256 C 
HETATM   13  O1  UNL     1      12.525  15.306  -5.072  1.00  0.00    -0.271 OA
ATOM     14  H1  UNL     1      11.618  12.599  -3.603  1.00  0.00     0.162 HD
BRANCH  12  15
HETATM   15  C8  UNL     1      10.360  14.376  -5.171  1.00  0.00     0.346 C 
HETATM   16  N2  UNL     1      10.092  15.518  -6.025  1.00  0.00    -0.051 N 
HETATM   17  C9  UNL     1       8.667  15.776  -5.869  1.00  0.00     0.190 C 
ATOM     18  H22 UNL     1      10.683  16.327  -5.832  1.00  0.00     0.279 HD
ATOM     19  H21 UNL     1      10.385  15.387  -6.993  1.00  0.00     0.279 HD
HETATM   20  C10 UNL     1       8.402  17.220  -6.137  1.00  0.00     0.040 C 
HETATM   21  C11 UNL     1       8.306  15.385  -4.480  1.00  0.00     0.113 C 
HETATM   22  C12 UNL     1       9.395  14.484  -4.052  1.00  0.00     0.168 C 
HETATM   23  O2  UNL     1       9.475  13.935  -2.975  1.00  0.00    -0.295 OA
ENDBRANCH  12  15
ENDBRANCH  10  11
ENDBRANCH   9  10
ENDBRANCH   8   9
ENDBRANCH   7   8
ENDBRANCH   4   7
ENDBRANCH   1   3
BRANCH   1  24
HETATM   24  C14 UNL     1       9.575  16.473   1.103  1.00  0.00     0.146 C 
BRANCH  24  25
HETATM   25  C15 UNL     1       9.512  15.662   2.325  1.00  0.00     0.037 C 
BRANCH  25  26
HETATM   26  C16 UNL     1       8.776  16.059   3.519  1.00  0.00    -0.012 C 
HETATM   27  C17 UNL     1       9.760  16.153   4.722  1.00  0.00     0.005 C 
HETATM   28  C18 UNL     1       9.912  14.762   5.277  1.00  0.00     0.000 C 
HETATM   29  C19 UNL     1       8.579  14.406   5.938  1.00  0.00     0.000 C 
HETATM   30  C20 UNL     1       7.612  14.209   4.796  1.00  0.00     0.000 C 
HETATM   31  C21 UNL     1       7.510  15.444   3.926  1.00  0.00     0.005 C 
ENDBRANCH  25  26
ENDBRANCH  24  25
BRANCH  24  32
HETATM   32  N4  UNL     1       8.206  16.912   0.716  1.00  0.00    -0.349 N 
HETATM   33  C22 UNL     1       7.223  16.037   0.230  1.00  0.00     0.235 C 
HETATM   34  O3  UNL     1       7.445  14.818   0.097  1.00  0.00    -0.272 OA
ATOM     35  H4  UNL     1       7.970  17.900   0.809  1.00  0.00     0.163 HD
BRANCH  33  36
HETATM   36  C23 UNL     1       5.901  16.588  -0.127  1.00  0.00     0.219 C 
BRANCH  36  37
HETATM   37  N5  UNL     1       5.246  17.125   1.014  1.00  0.00    -0.401 N 
HETATM   38  C24 UNL     1       5.455  18.507   1.290  1.00  0.00     0.147 C 
HETATM   39  C25 UNL     1       4.443  18.937   2.368  1.00  0.00     0.291 C 
HETATM   40  N6  UNL     1       4.327  17.800   3.275  1.00  0.00     0.093 N 
HETATM   41  C28 UNL     1       3.608  16.691   2.702  1.00  0.00     0.291 C 
HETATM   42  C29 UNL     1       3.929  16.627   1.209  1.00  0.00     0.147 C 
BRANCH  40  43
HETATM   43  C26 UNL     1       3.722  18.171   4.524  1.00  0.00     0.298 C 
BRANCH  43  44
HETATM   44  C27 UNL     1       2.236  18.288   4.351  1.00  0.00     0.194 C 
BRANCH  44  45
HETATM   45  O4  UNL     1       1.701  19.331   5.109  1.00  0.00    -0.399 OA
ATOM     46  H4  UNL     1       1.209  19.012   5.856  1.00  0.00     0.209 HD
ENDBRANCH  44  45
ENDBRANCH  43  44
ENDBRANCH  40  43
ENDBRANCH  36  37
ENDBRANCH  33  36
ENDBRANCH  24  32
ENDBRANCH   1  24
TORSDOF 16
ENDMDL
