MODEL 1
REMARK VINA RESULT: -9.288552394      0.000      0.000
REMARK  16 active torsions:
REMARK  status: ('A' for Active; 'I' for Inactive)
REMARK    1  A    between atoms: N3_4  and  C2_6 
REMARK    2  A    between atoms: C2_6  and  C3_7 
REMARK    3  A    between atoms: C3_7  and  C4_8 
REMARK    4  A    between atoms: C4_8  and  C5_9 
REMARK    5  A    between atoms: C5_9  and  C6_10 
REMARK    6  A    between atoms: C5_9  and  N5_25 
REMARK    7  A    between atoms: C6_10  and  C7_11 
REMARK    8  A    between atoms: C7_11  and  C8_12 
REMARK    9  A    between atoms: C8_12  and  O2_14 
REMARK   10  A    between atoms: O2_14  and  C9_15 
REMARK   11  A    between atoms: C9_15  and  C10_16 
REMARK   12  A    between atoms: C10_16  and  C11_17 
REMARK   13  A    between atoms: C11_17  and  C12_18 
REMARK   14  A    between atoms: C12_18  and  N4_19 
REMARK       I    between atoms: N5_25  and  C17_27 
REMARK   15  A    between atoms: C17_27  and  C18_29 
REMARK   16  A    between atoms: C26_38  and  O6_39 
ROOT
HETATM    1  C5  UNL     1       6.462  16.481   0.643  1.00  0.00     0.085 C 
ENDROOT
BRANCH   1   2
HETATM    2  C4  UNL     1       5.185  16.660  -0.050  1.00  0.00     0.027 C 
BRANCH   2   3
HETATM    3  C3  UNL     1       3.972  16.418   0.867  1.00  0.00     0.022 C 
BRANCH   3   4
HETATM    4  C2  UNL     1       3.403  17.675   1.424  1.00  0.00     0.122 C 
BRANCH   4   5
HETATM    5  N3  UNL     1       3.466  17.817   2.831  1.00  0.00    -0.367 N 
HETATM    6  C1  UNL     1       3.968  18.810   3.427  1.00  0.00     0.196 C 
HETATM    7  N1  UNL     1       4.553  19.950   2.846  1.00  0.00    -0.067 NA
HETATM    8  N2  UNL     1       3.937  18.771   4.862  1.00  0.00    -0.067 NA
ATOM      9  H3  UNL     1       3.080  17.066   3.402  1.00  0.00     0.161 HD
ENDBRANCH   4   5
ENDBRANCH   3   4
ENDBRANCH   2   3
ENDBRANCH   1   2
BRANCH   1  10
HETATM   10  C6  UNL     1       6.947  17.645   1.412  1.00  0.00     0.035 C 
BRANCH  10  11
HETATM   11  C7  UNL     1       7.878  17.407   2.523  1.00  0.00     0.113 C 
BRANCH  11  12
HETATM   12  C8  UNL     1       9.303  17.246   2.295  1.00  0.00     0.258 C 
HETATM   13  O1  UNL     1       9.943  18.006   1.512  1.00  0.00    -0.265 OA
BRANCH  12  14
HETATM   14  O2  UNL     1       9.978  16.227   2.962  1.00  0.00    -0.321 OA
BRANCH  14  15
HETATM   15  C9  UNL     1       9.271  15.347   3.809  1.00  0.00     0.178 C 
BRANCH  15  16
HETATM   16  C10 UNL     1       9.981  15.189   5.149  1.00  0.00     0.028 C 
BRANCH  16  17
HETATM   17  C11 UNL     1       9.109  14.308   6.045  1.00  0.00     0.032 C 
BRANCH  17  18
HETATM   18  C12 UNL     1       7.674  14.601   5.770  1.00  0.00     0.272 C 
BRANCH  18  19
HETATM   19  N4  UNL     1       6.990  15.293   6.819  1.00  0.00     0.092 N 
HETATM   20  C13 UNL     1       6.454  16.567   6.453  1.00  0.00     0.298 C 
HETATM   21  C14 UNL     1       7.539  17.607   6.309  1.00  0.00     0.198 C 
HETATM   22  O3  UNL     1       8.048  17.889   7.575  1.00  0.00    -0.388 OA
HETATM   23  C15 UNL     1       7.819  16.895   8.504  1.00  0.00     0.198 C 
HETATM   24  C16 UNL     1       7.907  15.507   7.928  1.00  0.00     0.298 C 
ENDBRANCH  18  19
ENDBRANCH  17  18
ENDBRANCH  16  17
ENDBRANCH  15  16
ENDBRANCH  14  15
ENDBRANCH  12  14
ENDBRANCH  11  12
ENDBRANCH  10  11
ENDBRANCH   1  10
BRANCH   1  25
HETATM   25  N5  UNL     1       7.512  15.996  -0.277  1.00  0.00    -0.350 N 
HETATM   26  C17 UNL     1       8.146  14.749  -0.160  1.00  0.00     0.279 C 
HETATM   27  O4  UNL     1       7.799  14.003   0.810  1.00  0.00    -0.265 OA
ATOM     28  H5  UNL     1       7.794  16.605  -1.046  1.00  0.00     0.163 HD
BRANCH  26  29
HETATM   29  C18 UNL     1       9.196  14.211  -1.069  1.00  0.00     0.184 C 
HETATM   30  O5  UNL     1      10.325  13.996  -0.431  1.00  0.00    -0.343 OA
HETATM   31  C19 UNL     1      11.319  14.846  -0.191  1.00  0.00     0.179 C 
HETATM   32  C20 UNL     1      12.744  14.294  -0.258  1.00  0.00     0.053 C 
HETATM   33  C21 UNL     1      12.852  12.832  -0.389  1.00  0.00    -0.029 C 
HETATM   34  C22 UNL     1      13.480  12.151  -1.504  1.00  0.00    -0.031 C 
HETATM   35  C23 UNL     1      14.276  12.827  -2.561  1.00  0.00     0.027 C 
HETATM   36  C24 UNL     1      14.074  12.323  -3.969  1.00  0.00     0.012 C 
HETATM   37  C25 UNL     1      13.078  13.044  -4.820  1.00  0.00     0.084 C 
HETATM   38  C26 UNL     1      12.151  13.914  -4.048  1.00  0.00     0.111 C 
HETATM   39  N6  UNL     1      10.900  13.801  -3.542  1.00  0.00    -0.367 N 
HETATM   40  C27 UNL     1       9.549  14.273  -3.692  1.00  0.00     0.207 C 
ATOM     41  H6  UNL     1      10.924  13.136  -2.770  1.00  0.00     0.161 HD
HETATM   42  C28 UNL     1       9.064  14.835  -2.376  1.00  0.00     0.205 C 
HETATM   43  O7  UNL     1       8.515  15.904  -2.431  1.00  0.00    -0.288 OA
BRANCH  38  44
HETATM   44  O6  UNL     1      12.795  15.035  -3.857  1.00  0.00    -0.350 OA
ATOM     45  H6  UNL     1      12.675  15.539  -4.653  1.00  0.00     0.219 HD
ENDBRANCH  38  44
ENDBRANCH  26  29
ENDBRANCH   1  25
TORSDOF 16
ENDMDL
MODEL 2
REMARK VINA RESULT: -9.105654412      1.711      3.242
REMARK  16 active torsions:
REMARK  status: ('A' for Active; 'I' for Inactive)
REMARK    1  A    between atoms: N3_4  and  C2_6 
REMARK    2  A    between atoms: C2_6  and  C3_7 
REMARK    3  A    between atoms: C3_7  and  C4_8 
REMARK    4  A    between atoms: C4_8  and  C5_9 
REMARK    5  A    between atoms: C5_9  and  C6_10 
REMARK    6  A    between atoms: C5_9  and  N5_25 
REMARK    7  A    between atoms: C6_10  and  C7_11 
REMARK    8  A    between atoms: C7_11  and  C8_12 
REMARK    9  A    between atoms: C8_12  and  O2_14 
REMARK   10  A    between atoms: O2_14  and  C9_15 
REMARK   11  A    between atoms: C9_15  and  C10_16 
REMARK   12  A    between atoms: C10_16  and  C11_17 
REMARK   13  A    between atoms: C11_17  and  C12_18 
REMARK   14  A    between atoms: C12_18  and  N4_19 
REMARK       I    between atoms: N5_25  and  C17_27 
REMARK   15  A    between atoms: C17_27  and  C18_29 
REMARK   16  A    between atoms: C26_38  and  O6_39 
ROOT
HETATM    1  C5  UNL     1       8.734  15.614   3.141  1.00  0.00     0.085 C 
ENDROOT
BRANCH   1   2
HETATM    2  C4  UNL     1       8.536  17.061   3.241  1.00  0.00     0.027 C 
BRANCH   2   3
HETATM    3  C3  UNL     1       7.355  17.559   2.388  1.00  0.00     0.022 C 
BRANCH   3   4
HETATM    4  C2  UNL     1       6.117  16.756   2.583  1.00  0.00     0.122 C 
BRANCH   4   5
HETATM    5  N3  UNL     1       4.968  17.205   1.888  1.00  0.00    -0.367 N 
HETATM    6  C1  UNL     1       4.711  16.934   0.684  1.00  0.00     0.196 C 
HETATM    7  N1  UNL     1       5.480  16.157  -0.201  1.00  0.00    -0.067 NA
HETATM    8  N2  UNL     1       3.493  17.482   0.156  1.00  0.00    -0.067 NA
ATOM      9  H3  UNL     1       4.303  17.787   2.398  1.00  0.00     0.161 HD
ENDBRANCH   4   5
ENDBRANCH   3   4
ENDBRANCH   2   3
ENDBRANCH   1   2
BRANCH   1  10
HETATM   10  C6  UNL     1       9.330  14.962   4.324  1.00  0.00     0.035 C 
BRANCH  10  11
HETATM   11  C7  UNL     1       8.847  15.357   5.654  1.00  0.00     0.113 C 
BRANCH  11  12
HETATM   12  C8  UNL     1       9.705  16.054   6.595  1.00  0.00     0.258 C 
HETATM   13  O1  UNL     1      10.965  16.051   6.479  1.00  0.00    -0.265 OA
BRANCH  12  14
HETATM   14  O2  UNL     1       9.119  16.746   7.653  1.00  0.00    -0.321 OA
BRANCH  14  15
HETATM   15  C9  UNL     1       8.344  16.052   8.608  1.00  0.00     0.178 C 
BRANCH  15  16
HETATM   16  C10 UNL     1       7.055  16.804   8.917  1.00  0.00     0.028 C 
BRANCH  16  17
HETATM   17  C11 UNL     1       5.900  16.055   8.250  1.00  0.00     0.032 C 
BRANCH  17  18
HETATM   18  C12 UNL     1       5.659  16.632   6.897  1.00  0.00     0.272 C 
BRANCH  18  19
HETATM   19  N4  UNL     1       5.503  18.055   6.870  1.00  0.00     0.092 N 
HETATM   20  C13 UNL     1       4.179  18.511   6.583  1.00  0.00     0.298 C 
HETATM   21  C14 UNL     1       3.830  18.325   5.126  1.00  0.00     0.198 C 
HETATM   22  O3  UNL     1       4.588  19.221   4.374  1.00  0.00    -0.388 OA
HETATM   23  C15 UNL     1       5.724  19.669   5.018  1.00  0.00     0.198 C 
HETATM   24  C16 UNL     1       6.388  18.615   5.861  1.00  0.00     0.298 C 
ENDBRANCH  18  19
ENDBRANCH  17  18
ENDBRANCH  16  17
ENDBRANCH  15  16
ENDBRANCH  14  15
ENDBRANCH  12  14
ENDBRANCH  11  12
ENDBRANCH  10  11
ENDBRANCH   1  10
BRANCH   1  25
HETATM   25  N5  UNL     1       9.486  15.255   1.920  1.00  0.00    -0.350 N 
HETATM   26  C17 UNL     1       9.001  14.396   0.921  1.00  0.00     0.279 C 
HETATM   27  O4  UNL     1       7.847  13.888   1.093  1.00  0.00    -0.265 OA
ATOM     28  H5  UNL     1      10.416  15.656   1.796  1.00  0.00     0.163 HD
BRANCH  26  29
HETATM   29  C18 UNL     1       9.714  14.017  -0.330  1.00  0.00     0.184 C 
HETATM   30  O5  UNL     1      10.942  13.618  -0.086  1.00  0.00    -0.343 OA
HETATM   31  C19 UNL     1      12.047  14.351   0.026  1.00  0.00     0.179 C 
HETATM   32  C20 UNL     1      13.339  13.760  -0.540  1.00  0.00     0.053 C 
HETATM   33  C21 UNL     1      13.258  12.357  -0.975  1.00  0.00    -0.029 C 
HETATM   34  C22 UNL     1      13.496  11.901  -2.330  1.00  0.00    -0.031 C 
HETATM   35  C23 UNL     1      14.051  12.750  -3.416  1.00  0.00     0.027 C 
HETATM   36  C24 UNL     1      13.436  12.568  -4.782  1.00  0.00     0.012 C 
HETATM   37  C25 UNL     1      12.331  13.500  -5.166  1.00  0.00     0.084 C 
HETATM   38  C26 UNL     1      11.734  14.227  -4.013  1.00  0.00     0.111 C 
HETATM   39  N6  UNL     1      10.656  14.067  -3.211  1.00  0.00    -0.367 N 
HETATM   40  C27 UNL     1       9.369  14.621  -2.885  1.00  0.00     0.207 C 
ATOM     41  H6  UNL     1      10.814  13.251  -2.620  1.00  0.00     0.161 HD
HETATM   42  C28 UNL     1       9.308  14.911  -1.403  1.00  0.00     0.205 C 
HETATM   43  O7  UNL     1       8.877  15.991  -1.096  1.00  0.00    -0.288 OA
BRANCH  38  44
HETATM   44  O6  UNL     1      12.518  15.250  -3.797  1.00  0.00    -0.350 OA
ATOM     45  H6  UNL     1      13.297  14.895  -3.386  1.00  0.00     0.219 HD
ENDBRANCH  38  44
ENDBRANCH  26  29
ENDBRANCH   1  25
TORSDOF 16
ENDMDL
MODEL 3
REMARK VINA RESULT: -9.069755883      1.618      2.677
REMARK  16 active torsions:
REMARK  status: ('A' for Active; 'I' for Inactive)
REMARK    1  A    between atoms: N3_4  and  C2_6 
REMARK    2  A    between atoms: C2_6  and  C3_7 
REMARK    3  A    between atoms: C3_7  and  C4_8 
REMARK    4  A    between atoms: C4_8  and  C5_9 
REMARK    5  A    between atoms: C5_9  and  C6_10 
REMARK    6  A    between atoms: C5_9  and  N5_25 
REMARK    7  A    between atoms: C6_10  and  C7_11 
REMARK    8  A    between atoms: C7_11  and  C8_12 
REMARK    9  A    between atoms: C8_12  and  O2_14 
REMARK   10  A    between atoms: O2_14  and  C9_15 
REMARK   11  A    between atoms: C9_15  and  C10_16 
REMARK   12  A    between atoms: C10_16  and  C11_17 
REMARK   13  A    between atoms: C11_17  and  C12_18 
REMARK   14  A    between atoms: C12_18  and  N4_19 
REMARK       I    between atoms: N5_25  and  C17_27 
REMARK   15  A    between atoms: C17_27  and  C18_29 
REMARK   16  A    between atoms: C26_38  and  O6_39 
ROOT
HETATM    1  C5  UNL     1       8.299  16.358   2.303  1.00  0.00     0.085 C 
ENDROOT
BRANCH   1   2
HETATM    2  C4  UNL     1       7.870  17.743   2.099  1.00  0.00     0.027 C 
BRANCH   2   3
HETATM    3  C3  UNL     1       7.204  17.964   0.728  1.00  0.00     0.022 C 
BRANCH   3   4
HETATM    4  C2  UNL     1       5.981  18.807   0.804  1.00  0.00     0.122 C 
BRANCH   4   5
HETATM    5  N3  UNL     1       5.045  18.457   1.807  1.00  0.00    -0.367 N 
HETATM    6  C1  UNL     1       3.929  17.913   1.583  1.00  0.00     0.196 C 
HETATM    7  N1  UNL     1       3.390  17.548   0.335  1.00  0.00    -0.067 NA
HETATM    8  N2  UNL     1       3.116  17.634   2.734  1.00  0.00    -0.067 NA
ATOM      9  H3  UNL     1       5.289  18.660   2.776  1.00  0.00     0.161 HD
ENDBRANCH   4   5
ENDBRANCH   3   4
ENDBRANCH   2   3
ENDBRANCH   1   2
BRANCH   1  10
HETATM   10  C6  UNL     1       8.965  16.072   3.589  1.00  0.00     0.035 C 
BRANCH  10  11
HETATM   11  C7  UNL     1       8.843  14.720   4.151  1.00  0.00     0.113 C 
BRANCH  11  12
HETATM   12  C8  UNL     1       8.529  14.508   5.553  1.00  0.00     0.258 C 
HETATM   13  O1  UNL     1       7.424  14.016   5.922  1.00  0.00    -0.265 OA
BRANCH  12  14
HETATM   14  O2  UNL     1       9.476  14.858   6.513  1.00  0.00    -0.321 OA
BRANCH  14  15
HETATM   15  C9  UNL     1       9.348  16.072   7.221  1.00  0.00     0.178 C 
BRANCH  15  16
HETATM   16  C10 UNL     1       8.811  15.831   8.627  1.00  0.00     0.028 C 
BRANCH  16  17
HETATM   17  C11 UNL     1       7.356  16.301   8.665  1.00  0.00     0.032 C 
BRANCH  17  18
HETATM   18  C12 UNL     1       7.148  17.331   7.608  1.00  0.00     0.272 C 
BRANCH  18  19
HETATM   19  N4  UNL     1       6.026  17.094   6.751  1.00  0.00     0.092 N 
HETATM   20  C13 UNL     1       6.182  17.565   5.410  1.00  0.00     0.298 C 
HETATM   21  C14 UNL     1       6.077  19.069   5.332  1.00  0.00     0.198 C 
HETATM   22  O3  UNL     1       4.755  19.431   5.588  1.00  0.00    -0.388 OA
HETATM   23  C15 UNL     1       4.037  18.475   6.276  1.00  0.00     0.198 C 
HETATM   24  C16 UNL     1       4.851  17.744   7.310  1.00  0.00     0.298 C 
ENDBRANCH  18  19
ENDBRANCH  17  18
ENDBRANCH  16  17
ENDBRANCH  15  16
ENDBRANCH  14  15
ENDBRANCH  12  14
ENDBRANCH  11  12
ENDBRANCH  10  11
ENDBRANCH   1  10
BRANCH   1  25
HETATM   25  N5  UNL     1       9.125  15.878   1.175  1.00  0.00    -0.350 N 
HETATM   26  C17 UNL     1       8.871  14.696   0.461  1.00  0.00     0.279 C 
HETATM   27  O4  UNL     1       7.875  13.994   0.824  1.00  0.00    -0.265 OA
ATOM     28  H5  UNL     1       9.931  16.440   0.898  1.00  0.00     0.163 HD
BRANCH  26  29
HETATM   29  C18 UNL     1       9.665  14.180  -0.688  1.00  0.00     0.184 C 
HETATM   30  O5  UNL     1      10.860  13.783  -0.313  1.00  0.00    -0.343 OA
HETATM   31  C19 UNL     1      11.973  14.501  -0.188  1.00  0.00     0.179 C 
HETATM   32  C20 UNL     1      13.287  13.831  -0.593  1.00  0.00     0.053 C 
HETATM   33  C21 UNL     1      13.200  12.393  -0.893  1.00  0.00    -0.029 C 
HETATM   34  C22 UNL     1      13.526  11.800  -2.175  1.00  0.00    -0.031 C 
HETATM   35  C23 UNL     1      14.184  12.524  -3.293  1.00  0.00     0.027 C 
HETATM   36  C24 UNL     1      13.667  12.219  -4.677  1.00  0.00     0.012 C 
HETATM   37  C25 UNL     1      12.619  13.130  -5.235  1.00  0.00     0.084 C 
HETATM   38  C26 UNL     1      11.959  13.980  -4.208  1.00  0.00     0.111 C 
HETATM   39  N6  UNL     1      10.820  13.923  -3.480  1.00  0.00    -0.367 N 
HETATM   40  C27 UNL     1       9.528  14.532  -3.309  1.00  0.00     0.207 C 
ATOM     41  H6  UNL     1      10.911  13.167  -2.800  1.00  0.00     0.161 HD
HETATM   42  C28 UNL     1       9.364  14.970  -1.872  1.00  0.00     0.205 C 
HETATM   43  O7  UNL     1       8.941  16.084  -1.706  1.00  0.00    -0.288 OA
BRANCH  38  44
HETATM   44  O6  UNL     1      12.752  15.004  -4.034  1.00  0.00    -0.350 OA
ATOM     45  H6  UNL     1      12.320  15.559  -3.395  1.00  0.00     0.219 HD
ENDBRANCH  38  44
ENDBRANCH  26  29
ENDBRANCH   1  25
TORSDOF 16
ENDMDL
MODEL 4
REMARK VINA RESULT: -9.028719265      2.514     10.723
REMARK  16 active torsions:
REMARK  status: ('A' for Active; 'I' for Inactive)
REMARK    1  A    between atoms: N3_4  and  C2_6 
REMARK    2  A    between atoms: C2_6  and  C3_7 
REMARK    3  A    between atoms: C3_7  and  C4_8 
REMARK    4  A    between atoms: C4_8  and  C5_9 
REMARK    5  A    between atoms: C5_9  and  C6_10 
REMARK    6  A    between atoms: C5_9  and  N5_25 
REMARK    7  A    between atoms: C6_10  and  C7_11 
REMARK    8  A    between atoms: C7_11  and  C8_12 
REMARK    9  A    between atoms: C8_12  and  O2_14 
REMARK   10  A    between atoms: O2_14  and  C9_15 
REMARK   11  A    between atoms: C9_15  and  C10_16 
REMARK   12  A    between atoms: C10_16  and  C11_17 
REMARK   13  A    between atoms: C11_17  and  C12_18 
REMARK   14  A    between atoms: C12_18  and  N4_19 
REMARK       I    between atoms: N5_25  and  C17_27 
REMARK   15  A    between atoms: C17_27  and  C18_29 
REMARK   16  A    between atoms: C26_38  and  O6_39 
ROOT
HETATM    1  C5  UNL     1      11.287  14.627  -0.886  1.00  0.00     0.085 C 
ENDROOT
BRANCH   1   2
HETATM    2  C4  UNL     1      12.448  14.142  -0.139  1.00  0.00     0.027 C 
BRANCH   2   3
HETATM    3  C3  UNL     1      12.745  12.654  -0.402  1.00  0.00     0.022 C 
BRANCH   3   4
HETATM    4  C2  UNL     1      12.263  12.190  -1.730  1.00  0.00     0.122 C 
BRANCH   4   5
HETATM    5  N3  UNL     1      13.202  11.488  -2.524  1.00  0.00    -0.367 N 
HETATM    6  C1  UNL     1      14.026  12.035  -3.306  1.00  0.00     0.196 C 
HETATM    7  N1  UNL     1      14.186  13.411  -3.554  1.00  0.00    -0.067 NA
HETATM    8  N2  UNL     1      14.901  11.152  -4.027  1.00  0.00    -0.067 NA
ATOM      9  H3  UNL     1      13.213  10.470  -2.457  1.00  0.00     0.161 HD
ENDBRANCH   4   5
ENDBRANCH   3   4
ENDBRANCH   2   3
ENDBRANCH   1   2
BRANCH   1  10
HETATM   10  C6  UNL     1      11.581  15.508  -2.033  1.00  0.00     0.035 C 
BRANCH  10  11
HETATM   11  C7  UNL     1      10.860  15.276  -3.293  1.00  0.00     0.113 C 
BRANCH  11  12
HETATM   12  C8  UNL     1       9.473  15.671  -3.456  1.00  0.00     0.258 C 
HETATM   13  O1  UNL     1       8.938  16.549  -2.718  1.00  0.00    -0.265 OA
BRANCH  12  14
HETATM   14  O2  UNL     1       8.715  15.064  -4.454  1.00  0.00    -0.321 OA
BRANCH  14  15
HETATM   15  C9  UNL     1       8.006  15.856  -5.383  1.00  0.00     0.178 C 
BRANCH  15  16
HETATM   16  C10 UNL     1       8.962  16.608  -6.302  1.00  0.00     0.028 C 
BRANCH  16  17
HETATM   17  C11 UNL     1       9.540  15.607  -7.304  1.00  0.00     0.032 C 
BRANCH  17  18
HETATM   18  C12 UNL     1      11.011  15.492  -7.086  1.00  0.00     0.272 C 
BRANCH  18  19
HETATM   19  N4  UNL     1      11.446  14.222  -6.590  1.00  0.00     0.092 N 
HETATM   20  C13 UNL     1      12.774  13.850  -6.967  1.00  0.00     0.298 C 
HETATM   21  C14 UNL     1      12.846  13.443  -8.420  1.00  0.00     0.198 C 
HETATM   22  O3  UNL     1      12.178  12.229  -8.569  1.00  0.00    -0.388 OA
HETATM   23  C15 UNL     1      11.272  11.962  -7.564  1.00  0.00     0.198 C 
HETATM   24  C16 UNL     1      10.547  13.186  -7.072  1.00  0.00     0.298 C 
ENDBRANCH  18  19
ENDBRANCH  17  18
ENDBRANCH  16  17
ENDBRANCH  15  16
ENDBRANCH  14  15
ENDBRANCH  12  14
ENDBRANCH  11  12
ENDBRANCH  10  11
ENDBRANCH   1  10
BRANCH   1  25
HETATM   25  N5  UNL     1      10.294  15.258   0.009  1.00  0.00    -0.350 N 
HETATM   26  C17 UNL     1       9.027  14.720   0.283  1.00  0.00     0.279 C 
HETATM   27  O4  UNL     1       8.716  13.628  -0.292  1.00  0.00    -0.265 OA
ATOM     28  H5  UNL     1      10.546  16.140   0.456  1.00  0.00     0.163 HD
BRANCH  26  29
HETATM   29  C18 UNL     1       8.001  15.310   1.187  1.00  0.00     0.184 C 
HETATM   30  O5  UNL     1       7.374  16.315   0.617  1.00  0.00    -0.343 OA
HETATM   31  C19 UNL     1       7.722  17.599   0.583  1.00  0.00     0.179 C 
HETATM   32  C20 UNL     1       6.598  18.631   0.684  1.00  0.00     0.053 C 
HETATM   33  C21 UNL     1       5.231  18.091   0.613  1.00  0.00    -0.029 C 
HETATM   34  C22 UNL     1       4.243  18.214   1.665  1.00  0.00    -0.031 C 
HETATM   35  C23 UNL     1       4.399  19.071   2.869  1.00  0.00     0.027 C 
HETATM   36  C24 UNL     1       3.905  18.487   4.169  1.00  0.00     0.012 C 
HETATM   37  C25 UNL     1       4.905  17.786   5.032  1.00  0.00     0.084 C 
HETATM   38  C26 UNL     1       6.162  17.429   4.320  1.00  0.00     0.111 C 
HETATM   39  N6  UNL     1       6.656  16.329   3.705  1.00  0.00    -0.367 N 
HETATM   40  C27 UNL     1       7.655  15.299   3.811  1.00  0.00     0.207 C 
ATOM     41  H6  UNL     1       6.123  16.173   2.850  1.00  0.00     0.161 HD
HETATM   42  C28 UNL     1       8.493  15.280   2.555  1.00  0.00     0.205 C 
HETATM   43  O7  UNL     1       9.684  15.234   2.718  1.00  0.00    -0.288 OA
BRANCH  38  44
HETATM   44  O6  UNL     1       6.900  18.507   4.344  1.00  0.00    -0.350 OA
ATOM     45  H6  UNL     1       7.620  18.339   3.748  1.00  0.00     0.219 HD
ENDBRANCH  38  44
ENDBRANCH  26  29
ENDBRANCH   1  25
TORSDOF 16
ENDMDL
MODEL 5
REMARK VINA RESULT: -9.008550275      2.005      9.051
REMARK  16 active torsions:
REMARK  status: ('A' for Active; 'I' for Inactive)
REMARK    1  A    between atoms: N3_4  and  C2_6 
REMARK    2  A    between atoms: C2_6  and  C3_7 
REMARK    3  A    between atoms: C3_7  and  C4_8 
REMARK    4  A    between atoms: C4_8  and  C5_9 
REMARK    5  A    between atoms: C5_9  and  C6_10 
REMARK    6  A    between atoms: C5_9  and  N5_25 
REMARK    7  A    between atoms: C6_10  and  C7_11 
REMARK    8  A    between atoms: C7_11  and  C8_12 
REMARK    9  A    between atoms: C8_12  and  O2_14 
REMARK   10  A    between atoms: O2_14  and  C9_15 
REMARK   11  A    between atoms: C9_15  and  C10_16 
REMARK   12  A    between atoms: C10_16  and  C11_17 
REMARK   13  A    between atoms: C11_17  and  C12_18 
REMARK   14  A    between atoms: C12_18  and  N4_19 
REMARK       I    between atoms: N5_25  and  C17_27 
REMARK   15  A    between atoms: C17_27  and  C18_29 
REMARK   16  A    between atoms: C26_38  and  O6_39 
ROOT
HETATM    1  C5  UNL     1       9.931  15.843   0.046  1.00  0.00     0.085 C 
ENDROOT
BRANCH   1   2
HETATM    2  C4  UNL     1       8.878  16.142  -0.927  1.00  0.00     0.027 C 
BRANCH   2   3
HETATM    3  C3  UNL     1       7.541  15.459  -0.584  1.00  0.00     0.022 C 
BRANCH   3   4
HETATM    4  C2  UNL     1       6.375  16.376  -0.690  1.00  0.00     0.122 C 
BRANCH   4   5
HETATM    5  N3  UNL     1       5.460  16.349   0.390  1.00  0.00    -0.367 N 
HETATM    6  C1  UNL     1       4.305  16.856   0.361  1.00  0.00     0.196 C 
HETATM    7  N1  UNL     1       3.696  17.535  -0.710  1.00  0.00    -0.067 NA
HETATM    8  N2  UNL     1       3.524  16.724   1.559  1.00  0.00    -0.067 NA
ATOM      9  H3  UNL     1       5.755  15.887   1.251  1.00  0.00     0.161 HD
ENDBRANCH   4   5
ENDBRANCH   3   4
ENDBRANCH   2   3
ENDBRANCH   1   2
BRANCH   1  10
HETATM   10  C6  UNL     1      10.676  14.588  -0.178  1.00  0.00     0.035 C 
BRANCH  10  11
HETATM   11  C7  UNL     1      12.006  14.449   0.431  1.00  0.00     0.113 C 
BRANCH  11  12
HETATM   12  C8  UNL     1      13.042  13.641  -0.187  1.00  0.00     0.258 C 
HETATM   13  O1  UNL     1      13.277  12.457   0.190  1.00  0.00    -0.265 OA
BRANCH  12  14
HETATM   14  O2  UNL     1      13.792  14.190  -1.223  1.00  0.00    -0.321 OA
BRANCH  14  15
HETATM   15  C9  UNL     1      13.883  13.519  -2.462  1.00  0.00     0.178 C 
BRANCH  15  16
HETATM   16  C10 UNL     1      12.528  13.472  -3.159  1.00  0.00     0.028 C 
BRANCH  16  17
HETATM   17  C11 UNL     1      12.443  14.669  -4.108  1.00  0.00     0.032 C 
BRANCH  17  18
HETATM   18  C12 UNL     1      11.176  15.409  -3.849  1.00  0.00     0.272 C 
BRANCH  18  19
HETATM   19  N4  UNL     1      10.034  14.911  -4.554  1.00  0.00     0.092 N 
HETATM   20  C13 UNL     1      10.256  14.628  -5.938  1.00  0.00     0.298 C 
HETATM   21  C14 UNL     1      10.360  15.893  -6.755  1.00  0.00     0.198 C 
HETATM   22  O3  UNL     1       9.101  16.488  -6.805  1.00  0.00    -0.388 OA
HETATM   23  C15 UNL     1       8.256  16.094  -5.788  1.00  0.00     0.198 C 
HETATM   24  C16 UNL     1       8.959  15.886  -4.474  1.00  0.00     0.298 C 
ENDBRANCH  18  19
ENDBRANCH  17  18
ENDBRANCH  16  17
ENDBRANCH  15  16
ENDBRANCH  14  15
ENDBRANCH  12  14
ENDBRANCH  11  12
ENDBRANCH  10  11
ENDBRANCH   1  10
BRANCH   1  25
HETATM   25  N5  UNL     1       9.418  15.899   1.431  1.00  0.00    -0.350 N 
HETATM   26  C17 UNL     1       9.448  17.051   2.234  1.00  0.00     0.279 C 
HETATM   27  O4  UNL     1       9.963  18.101   1.735  1.00  0.00    -0.265 OA
ATOM     28  H5  UNL     1       9.018  15.049   1.829  1.00  0.00     0.163 HD
BRANCH  26  29
HETATM   29  C18 UNL     1       8.932  17.160   3.626  1.00  0.00     0.184 C 
HETATM   30  O5  UNL     1       9.492  16.276   4.422  1.00  0.00    -0.343 OA
HETATM   31  C19 UNL     1       9.128  15.017   4.651  1.00  0.00     0.179 C 
HETATM   32  C20 UNL     1       9.282  14.494   6.080  1.00  0.00     0.053 C 
HETATM   33  C21 UNL     1      10.000  15.383   7.008  1.00  0.00    -0.029 C 
HETATM   34  C22 UNL     1       9.428  15.945   8.215  1.00  0.00    -0.031 C 
HETATM   35  C23 UNL     1       8.119  15.544   8.791  1.00  0.00     0.027 C 
HETATM   36  C24 UNL     1       7.269  16.659   9.350  1.00  0.00     0.012 C 
HETATM   37  C25 UNL     1       6.236  17.254   8.446  1.00  0.00     0.084 C 
HETATM   38  C26 UNL     1       6.442  16.930   7.008  1.00  0.00     0.111 C 
HETATM   39  N6  UNL     1       7.013  17.538   5.943  1.00  0.00    -0.367 N 
HETATM   40  C27 UNL     1       6.724  18.169   4.683  1.00  0.00     0.207 C 
ATOM     41  H6  UNL     1       8.023  17.556   6.087  1.00  0.00     0.161 HD
HETATM   42  C28 UNL     1       7.517  17.494   3.589  1.00  0.00     0.205 C 
HETATM   43  O7  UNL     1       6.903  17.211   2.593  1.00  0.00    -0.288 OA
BRANCH  38  44
HETATM   44  O6  UNL     1       5.911  15.749   6.834  1.00  0.00    -0.350 OA
ATOM     45  H6  UNL     1       5.960  15.581   5.900  1.00  0.00     0.219 HD
ENDBRANCH  38  44
ENDBRANCH  26  29
ENDBRANCH   1  25
TORSDOF 16
ENDMDL
