MODEL 1
REMARK VINA RESULT: -5.214090172      0.000      0.000
REMARK  2 active torsions:
REMARK  status: ('A' for Active; 'I' for Inactive)
REMARK    1  A    between atoms: C2_2  and  N1_3 
REMARK    2  A    between atoms: N1_3  and  C3_6 
ROOT
HETATM    1  C3  UNL     1       9.701  13.518  47.610  1.00  0.00     0.216 C 
HETATM    2  C4  UNL     1       9.840  12.960  49.004  1.00  0.00     0.201 C 
HETATM    3  O1  UNL     1       9.536  11.616  48.798  1.00  0.00    -0.383 OA
HETATM    4  C5  UNL     1      10.045  11.222  47.588  1.00  0.00     0.128 C 
HETATM    5  C6  UNL     1      11.251  10.376  47.809  1.00  0.00     0.036 C 
HETATM    6  C7  UNL     1      11.611   9.526  46.617  1.00  0.00    -0.016 C 
HETATM    7  C8  UNL     1      10.690   8.342  46.461  1.00  0.00     0.010 C 
HETATM    8  C9  UNL     1      11.499  10.423  45.399  1.00  0.00     0.004 C 
HETATM    9  C10 UNL     1      12.365  11.620  45.624  1.00  0.00     0.001 C 
HETATM   10  C11 UNL     1      11.769  12.680  46.503  1.00  0.00     0.009 C 
HETATM   11  C12 UNL     1      10.311  12.460  46.778  1.00  0.00     0.047 C 
ENDROOT
BRANCH   1  12
HETATM   12  N1  UNL     1      10.242  14.836  47.466  1.00  0.00    -0.069 N 
ATOM     13  H12 UNL     1      11.236  14.839  47.234  1.00  0.00     0.277 HD
ATOM     14  H11 UNL     1      10.314  15.340  48.349  1.00  0.00     0.277 HD
BRANCH  12  15
HETATM   15  C2  UNL     1       9.410  15.529  46.468  1.00  0.00     0.228 C 
HETATM   16  C1  UNL     1      10.223  16.373  45.544  1.00  0.00     0.034 C 
ENDBRANCH  12  15
ENDBRANCH   1  12
TORSDOF 2
ENDMDL
MODEL 2
REMARK VINA RESULT: -5.112318244      1.860      2.882
REMARK  2 active torsions:
REMARK  status: ('A' for Active; 'I' for Inactive)
REMARK    1  A    between atoms: C2_2  and  N1_3 
REMARK    2  A    between atoms: N1_3  and  C3_6 
ROOT
HETATM    1  C3  UNL     1      12.335  13.657  45.475  1.00  0.00     0.216 C 
HETATM    2  C4  UNL     1      11.473  12.986  44.436  1.00  0.00     0.201 C 
HETATM    3  O1  UNL     1      11.671  11.640  44.736  1.00  0.00    -0.383 OA
HETATM    4  C5  UNL     1      11.765  11.493  46.096  1.00  0.00     0.128 C 
HETATM    5  C6  UNL     1      10.509  10.886  46.617  1.00  0.00     0.036 C 
HETATM    6  C7  UNL     1      10.667  10.264  47.981  1.00  0.00    -0.016 C 
HETATM    7  C8  UNL     1      11.396   8.944  47.926  1.00  0.00     0.010 C 
HETATM    8  C9  UNL     1      11.462  11.250  48.815  1.00  0.00     0.004 C 
HETATM    9  C10 UNL     1      10.748  12.564  48.782  1.00  0.00     0.001 C 
HETATM   10  C11 UNL     1      10.971  13.379  47.543  1.00  0.00     0.009 C 
HETATM   11  C12 UNL     1      12.077  12.842  46.681  1.00  0.00     0.047 C 
ENDROOT
BRANCH   1  12
HETATM   12  N1  UNL     1      12.096  15.064  45.593  1.00  0.00    -0.069 N 
ATOM     13  H12 UNL     1      12.954  15.616  45.623  1.00  0.00     0.277 HD
ATOM     14  H11 UNL     1      11.736  15.336  46.507  1.00  0.00     0.277 HD
BRANCH  12  15
HETATM   15  C2  UNL     1      11.204  15.436  44.482  1.00  0.00     0.228 C 
HETATM   16  C1  UNL     1      10.518  16.740  44.723  1.00  0.00     0.034 C 
ENDBRANCH  12  15
ENDBRANCH   1  12
TORSDOF 2
ENDMDL
MODEL 3
REMARK VINA RESULT: -5.071536351      1.285      1.567
REMARK  2 active torsions:
REMARK  status: ('A' for Active; 'I' for Inactive)
REMARK    1  A    between atoms: C2_2  and  N1_3 
REMARK    2  A    between atoms: N1_3  and  C3_6 
ROOT
HETATM    1  C3  UNL     1       9.991  14.733  46.301  1.00  0.00     0.216 C 
HETATM    2  C4  UNL     1       9.966  14.502  47.790  1.00  0.00     0.201 C 
HETATM    3  O1  UNL     1       9.628  13.152  47.858  1.00  0.00    -0.383 OA
HETATM    4  C5  UNL     1      10.240  12.485  46.828  1.00  0.00     0.128 C 
HETATM    5  C6  UNL     1      11.381  11.690  47.361  1.00  0.00     0.036 C 
HETATM    6  C7  UNL     1      11.823  10.586  46.434  1.00  0.00    -0.016 C 
HETATM    7  C8  UNL     1      10.874   9.414  46.449  1.00  0.00     0.010 C 
HETATM    8  C9  UNL     1      11.871  11.185  45.042  1.00  0.00     0.004 C 
HETATM    9  C10 UNL     1      12.760  12.387  45.087  1.00  0.00     0.001 C 
HETATM   10  C11 UNL     1      12.124  13.629  45.637  1.00  0.00     0.009 C 
HETATM   11  C12 UNL     1      10.637  13.503  45.796  1.00  0.00     0.047 C 
ENDROOT
BRANCH   1  12
HETATM   12  N1  UNL     1      10.599  15.974  45.925  1.00  0.00    -0.069 N 
ATOM     13  H12 UNL     1      11.602  15.895  45.754  1.00  0.00     0.277 HD
ATOM     14  H11 UNL     1      10.651  16.644  46.691  1.00  0.00     0.277 HD
BRANCH  12  15
HETATM   15  C2  UNL     1       9.850  16.478  44.762  1.00  0.00     0.228 C 
HETATM   16  C1  UNL     1      10.628  17.483  43.981  1.00  0.00     0.034 C 
ENDBRANCH  12  15
ENDBRANCH   1  12
TORSDOF 2
ENDMDL
MODEL 4
REMARK VINA RESULT: -4.872350541      2.878      3.867
REMARK  2 active torsions:
REMARK  status: ('A' for Active; 'I' for Inactive)
REMARK    1  A    between atoms: C2_2  and  N1_3 
REMARK    2  A    between atoms: N1_3  and  C3_6 
ROOT
HETATM    1  C3  UNL     1      10.831  14.388  43.935  1.00  0.00     0.216 C 
HETATM    2  C4  UNL     1      11.503  15.469  44.742  1.00  0.00     0.201 C 
HETATM    3  O1  UNL     1      10.990  15.227  46.015  1.00  0.00    -0.383 OA
HETATM    4  C5  UNL     1      10.868  13.874  46.200  1.00  0.00     0.128 C 
HETATM    5  C6  UNL     1      11.945  13.401  47.113  1.00  0.00     0.036 C 
HETATM    6  C7  UNL     1      11.647  12.064  47.744  1.00  0.00    -0.016 C 
HETATM    7  C8  UNL     1      10.624  12.168  48.847  1.00  0.00     0.010 C 
HETATM    8  C9  UNL     1      11.115  11.174  46.637  1.00  0.00     0.004 C 
HETATM    9  C10 UNL     1      12.122  11.158  45.532  1.00  0.00     0.001 C 
HETATM   10  C11 UNL     1      12.095  12.356  44.629  1.00  0.00     0.009 C 
HETATM   11  C12 UNL     1      10.890  13.224  44.844  1.00  0.00     0.047 C 
ENDROOT
BRANCH   1  12
HETATM   12  N1  UNL     1      11.399  14.210  42.633  1.00  0.00    -0.069 N 
ATOM     13  H12 UNL     1      12.154  13.524  42.614  1.00  0.00     0.277 HD
ATOM     14  H11 UNL     1      11.947  15.011  42.321  1.00  0.00     0.277 HD
BRANCH  12  15
HETATM   15  C2  UNL     1      10.288  13.876  41.727  1.00  0.00     0.228 C 
HETATM   16  C1  UNL     1      10.379  12.478  41.213  1.00  0.00     0.034 C 
ENDBRANCH  12  15
ENDBRANCH   1  12
TORSDOF 2
ENDMDL
MODEL 5
REMARK VINA RESULT: -4.821895634      2.844      3.780
REMARK  2 active torsions:
REMARK  status: ('A' for Active; 'I' for Inactive)
REMARK    1  A    between atoms: C2_2  and  N1_3 
REMARK    2  A    between atoms: N1_3  and  C3_6 
ROOT
HETATM    1  C3  UNL     1      10.835  14.471  43.938  1.00  0.00     0.216 C 
HETATM    2  C4  UNL     1      11.489  15.541  44.775  1.00  0.00     0.201 C 
HETATM    3  O1  UNL     1      10.976  15.259  46.040  1.00  0.00    -0.383 OA
HETATM    4  C5  UNL     1      10.873  13.900  46.189  1.00  0.00     0.128 C 
HETATM    5  C6  UNL     1      11.954  13.418  47.093  1.00  0.00     0.036 C 
HETATM    6  C7  UNL     1      11.674  12.061  47.687  1.00  0.00    -0.016 C 
HETATM    7  C8  UNL     1      10.646  12.122  48.790  1.00  0.00     0.010 C 
HETATM    8  C9  UNL     1      11.157  11.193  46.557  1.00  0.00     0.004 C 
HETATM    9  C10 UNL     1      12.167  11.220  45.454  1.00  0.00     0.001 C 
HETATM   10  C11 UNL     1      12.126  12.440  44.583  1.00  0.00     0.009 C 
HETATM   11  C12 UNL     1      10.908  13.285  44.817  1.00  0.00     0.047 C 
ENDROOT
BRANCH   1  12
HETATM   12  N1  UNL     1      11.409  14.336  42.634  1.00  0.00    -0.069 N 
ATOM     13  H12 UNL     1      10.945  13.629  42.062  1.00  0.00     0.277 HD
ATOM     14  H11 UNL     1      12.334  13.906  42.644  1.00  0.00     0.277 HD
BRANCH  12  15
HETATM   15  C2  UNL     1      11.397  15.676  42.024  1.00  0.00     0.228 C 
HETATM   16  C1  UNL     1      12.234  15.742  40.790  1.00  0.00     0.034 C 
ENDBRANCH  12  15
ENDBRANCH   1  12
TORSDOF 2
ENDMDL
