MODEL 1
REMARK VINA RESULT: -5.562025360      0.000      0.000
REMARK  2 active torsions:
REMARK  status: ('A' for Active; 'I' for Inactive)
REMARK    1  A    between atoms: C4_4  and  C5_5 
REMARK    2  A    between atoms: C5_5  and  C6_6 
ROOT
HETATM    1  C1  UNL     1       7.954  12.373  48.303  1.00  0.00     0.078 C 
HETATM    2  C2  UNL     1       9.325  12.105  47.850  1.00  0.00     0.223 C 
HETATM    3  C3  UNL     1       9.910  13.143  46.905  1.00  0.00     0.075 C 
HETATM    4  C4  UNL     1      11.382  13.123  47.215  1.00  0.00     0.023 C 
HETATM    5  C11 UNL     1      11.476  11.825  47.997  1.00  0.00     0.217 C 
HETATM    6  C12 UNL     1      10.912  10.662  47.220  1.00  0.00     0.204 C 
HETATM    7  O1  UNL     1       9.519  10.860  47.254  1.00  0.00    -0.352 OA
HETATM    8  N1  UNL     1      10.329  12.069  48.901  1.00  0.00    -0.037 N 
ATOM      9  H11 UNL     1      10.185  11.415  49.671  1.00  0.00     0.281 HD
ATOM     10  H12 UNL     1      10.384  12.871  49.530  1.00  0.00     0.281 HD
ENDROOT
BRANCH   4  11
HETATM   11  C5  UNL     1      12.261  13.169  46.039  1.00  0.00     0.011 C 
BRANCH  11  12
HETATM   12  C6  UNL     1      11.763  12.763  44.725  1.00  0.00    -0.014 C 
HETATM   13  C7  UNL     1      11.520  13.785  43.680  1.00  0.00     0.005 C 
HETATM   14  C8  UNL     1      11.005  12.877  42.542  1.00  0.00     0.000 C 
HETATM   15  C9  UNL     1      11.966  11.707  42.636  1.00  0.00     0.000 C 
HETATM   16  C10 UNL     1      12.668  11.806  43.974  1.00  0.00     0.005 C 
ENDBRANCH  11  12
ENDBRANCH   4  11
TORSDOF 2
ENDMDL
MODEL 2
REMARK VINA RESULT: -5.443738263      1.399      2.213
REMARK  2 active torsions:
REMARK  status: ('A' for Active; 'I' for Inactive)
REMARK    1  A    between atoms: C4_4  and  C5_5 
REMARK    2  A    between atoms: C5_5  and  C6_6 
ROOT
HETATM    1  C1  UNL     1      10.404  10.711  49.869  1.00  0.00     0.078 C 
HETATM    2  C2  UNL     1      10.464  11.816  48.903  1.00  0.00     0.223 C 
HETATM    3  C3  UNL     1      11.542  11.687  47.838  1.00  0.00     0.075 C 
HETATM    4  C4  UNL     1      10.948  12.378  46.640  1.00  0.00     0.023 C 
HETATM    5  C11 UNL     1       9.805  13.128  47.300  1.00  0.00     0.217 C 
HETATM    6  C12 UNL     1      10.287  13.995  48.435  1.00  0.00     0.204 C 
HETATM    7  O1  UNL     1      10.598  13.085  49.464  1.00  0.00    -0.352 OA
HETATM    8  N1  UNL     1       9.271  11.995  48.091  1.00  0.00    -0.037 N 
ATOM      9  H11 UNL     1       8.385  12.133  48.576  1.00  0.00     0.281 HD
ATOM     10  H12 UNL     1       8.920  11.185  47.580  1.00  0.00     0.281 HD
ENDROOT
BRANCH   4  11
HETATM   11  C5  UNL     1      11.878  13.245  45.905  1.00  0.00     0.011 C 
BRANCH  11  12
HETATM   12  C6  UNL     1      12.251  12.933  44.526  1.00  0.00    -0.014 C 
HETATM   13  C7  UNL     1      12.348  11.520  44.089  1.00  0.00     0.005 C 
HETATM   14  C8  UNL     1      12.774  11.729  42.620  1.00  0.00     0.000 C 
HETATM   15  C9  UNL     1      11.872  12.876  42.208  1.00  0.00     0.000 C 
HETATM   16  C10 UNL     1      11.308  13.486  43.475  1.00  0.00     0.005 C 
ENDBRANCH  11  12
ENDBRANCH   4  11
TORSDOF 2
ENDMDL
MODEL 3
REMARK VINA RESULT: -5.435747478      1.519      2.282
REMARK  2 active torsions:
REMARK  status: ('A' for Active; 'I' for Inactive)
REMARK    1  A    between atoms: C4_4  and  C5_5 
REMARK    2  A    between atoms: C5_5  and  C6_6 
ROOT
HETATM    1  C1  UNL     1       9.628  15.241  46.718  1.00  0.00     0.078 C 
HETATM    2  C2  UNL     1      10.345  13.968  46.567  1.00  0.00     0.223 C 
HETATM    3  C3  UNL     1      11.066  13.784  45.240  1.00  0.00     0.075 C 
HETATM    4  C4  UNL     1      12.256  12.932  45.592  1.00  0.00     0.023 C 
HETATM    5  C11 UNL     1      11.837  12.437  46.965  1.00  0.00     0.217 C 
HETATM    6  C12 UNL     1      10.488  11.767  46.930  1.00  0.00     0.204 C 
HETATM    7  O1  UNL     1       9.573  12.825  46.771  1.00  0.00    -0.352 OA
HETATM    8  N1  UNL     1      11.424  13.748  47.517  1.00  0.00    -0.037 N 
ATOM      9  H11 UNL     1      11.196  13.791  48.510  1.00  0.00     0.281 HD
ATOM     10  H12 UNL     1      12.137  14.472  47.600  1.00  0.00     0.281 HD
ENDROOT
BRANCH   4  11
HETATM   11  C5  UNL     1      12.546  11.854  44.638  1.00  0.00     0.011 C 
BRANCH  11  12
HETATM   12  C6  UNL     1      12.456  12.094  43.198  1.00  0.00    -0.014 C 
HETATM   13  C7  UNL     1      13.411  11.432  42.278  1.00  0.00     0.005 C 
HETATM   14  C8  UNL     1      12.919  12.009  40.933  1.00  0.00     0.000 C 
HETATM   15  C9  UNL     1      11.415  11.915  41.100  1.00  0.00     0.000 C 
HETATM   16  C10 UNL     1      11.136  11.687  42.571  1.00  0.00     0.005 C 
ENDBRANCH  11  12
ENDBRANCH   4  11
TORSDOF 2
ENDMDL
MODEL 4
REMARK VINA RESULT: -5.408851962      3.464      5.882
REMARK  2 active torsions:
REMARK  status: ('A' for Active; 'I' for Inactive)
REMARK    1  A    between atoms: C4_4  and  C5_5 
REMARK    2  A    between atoms: C5_5  and  C6_6 
ROOT
HETATM    1  C1  UNL     1       9.425  12.302  39.950  1.00  0.00     0.078 C 
HETATM    2  C2  UNL     1      10.727  12.477  40.607  1.00  0.00     0.223 C 
HETATM    3  C3  UNL     1      10.800  11.980  42.042  1.00  0.00     0.075 C 
HETATM    4  C4  UNL     1      12.230  11.535  42.196  1.00  0.00     0.023 C 
HETATM    5  C11 UNL     1      12.850  12.193  40.977  1.00  0.00     0.217 C 
HETATM    6  C12 UNL     1      12.583  13.676  40.945  1.00  0.00     0.204 C 
HETATM    7  O1  UNL     1      11.221  13.780  40.604  1.00  0.00    -0.352 OA
HETATM    8  N1  UNL     1      11.832  11.759  39.992  1.00  0.00    -0.037 N 
ATOM      9  H11 UNL     1      12.022  11.937  39.006  1.00  0.00     0.281 HD
ATOM     10  H12 UNL     1      11.718  10.757  39.839  1.00  0.00     0.281 HD
ENDROOT
BRANCH   4  11
HETATM   11  C5  UNL     1      12.863  11.921  43.463  1.00  0.00     0.011 C 
BRANCH  11  12
HETATM   12  C6  UNL     1      12.062  12.068  44.678  1.00  0.00    -0.014 C 
HETATM   13  C7  UNL     1      11.940  10.933  45.623  1.00  0.00     0.005 C 
HETATM   14  C8  UNL     1      11.014  11.573  46.680  1.00  0.00     0.000 C 
HETATM   15  C9  UNL     1      11.617  12.959  46.806  1.00  0.00     0.000 C 
HETATM   16  C10 UNL     1      12.531  13.163  45.616  1.00  0.00     0.005 C 
ENDBRANCH  11  12
ENDBRANCH   4  11
TORSDOF 2
ENDMDL
MODEL 5
REMARK VINA RESULT: -5.273342371      3.146      5.472
REMARK  2 active torsions:
REMARK  status: ('A' for Active; 'I' for Inactive)
REMARK    1  A    between atoms: C4_4  and  C5_5 
REMARK    2  A    between atoms: C5_5  and  C6_6 
ROOT
HETATM    1  C1  UNL     1      10.575  14.411  40.605  1.00  0.00     0.078 C 
HETATM    2  C2  UNL     1      11.372  13.412  41.330  1.00  0.00     0.223 C 
HETATM    3  C3  UNL     1      11.570  13.694  42.811  1.00  0.00     0.075 C 
HETATM    4  C4  UNL     1      11.656  12.324  43.429  1.00  0.00     0.023 C 
HETATM    5  C11 UNL     1      11.884  11.481  42.188  1.00  0.00     0.217 C 
HETATM    6  C12 UNL     1      13.072  11.963  41.395  1.00  0.00     0.204 C 
HETATM    7  O1  UNL     1      12.633  13.158  40.794  1.00  0.00    -0.352 OA
HETATM    8  N1  UNL     1      10.807  12.073  41.361  1.00  0.00    -0.037 N 
ATOM      9  H11 UNL     1      10.597  11.627  40.468  1.00  0.00     0.281 HD
ATOM     10  H12 UNL     1       9.847  11.972  41.691  1.00  0.00     0.281 HD
ENDROOT
BRANCH   4  11
HETATM   11  C5  UNL     1      12.703  12.172  44.448  1.00  0.00     0.011 C 
BRANCH  11  12
HETATM   12  C6  UNL     1      12.357  12.137  45.868  1.00  0.00    -0.014 C 
HETATM   13  C7  UNL     1      11.714  13.313  46.500  1.00  0.00     0.005 C 
HETATM   14  C8  UNL     1      11.583  12.792  47.948  1.00  0.00     0.000 C 
HETATM   15  C9  UNL     1      11.121  11.366  47.711  1.00  0.00     0.000 C 
HETATM   16  C10 UNL     1      11.381  11.043  46.255  1.00  0.00     0.005 C 
ENDBRANCH  11  12
ENDBRANCH   4  11
TORSDOF 2
ENDMDL
