MODEL 1
REMARK VINA RESULT: -8.083084750      0.000      0.000
REMARK  14 active torsions:
REMARK  status: ('A' for Active; 'I' for Inactive)
REMARK    1  A    between atoms: C2_2  and  O1_3 
REMARK    2  A    between atoms: O1_3  and  C3_4 
REMARK    3  A    between atoms: C3_4  and  C4_5 
REMARK    4  A    between atoms: C4_5  and  C5_6 
REMARK    5  A    between atoms: C5_6  and  N1_7 
REMARK       I    between atoms: N1_7  and  C6_9 
REMARK    6  A    between atoms: C6_9  and  C7_11 
REMARK    7  A    between atoms: N3_23  and  C16_24 
REMARK    8  A    between atoms: C16_24  and  O3_25 
REMARK    9  A    between atoms: C17_27  and  N4_28 
REMARK       I    between atoms: N4_28  and  C18_30 
REMARK   10  A    between atoms: C18_30  and  C19_32 
REMARK   11  A    between atoms: C23_36  and  C24_37 
REMARK       I    between atoms: C24_37  and  N5_39 
REMARK   12  A    between atoms: N5_39  and  C25_41 
REMARK   13  A    between atoms: C25_41  and  C26_42 
REMARK   14  A    between atoms: C26_42  and  O6_43 
ROOT
HETATM    1  C7  UNL     1     -18.290  -2.133   1.854  1.00  0.00     0.081 A 
HETATM    2  S1  UNL     1     -19.396  -2.318   0.535  1.00  0.00    -0.066 SA
HETATM    3  C8  UNL     1     -18.901  -1.008  -0.439  1.00  0.00     0.086 A 
HETATM    4  N2  UNL     1     -19.331  -0.535  -1.648  1.00  0.00    -0.353 N 
ATOM      5  H2  UNL     1     -20.099  -1.010  -2.122  1.00  0.00     0.166 HD
HETATM    6  C9  UNL     1     -18.761   0.561  -2.239  1.00  0.00     0.020 A 
HETATM    7  C10 UNL     1     -17.746   1.123  -1.527  1.00  0.00    -0.017 A 
HETATM    8  C11 UNL     1     -17.282   0.679  -0.307  1.00  0.00     0.025 A 
HETATM    9  C12 UNL     1     -17.886  -0.456   0.286  1.00  0.00     0.006 A 
HETATM   10  C13 UNL     1     -17.573  -1.043   1.474  1.00  0.00    -0.026 A 
HETATM   11  C14 UNL     1     -16.457  -0.523   2.383  1.00  0.00     0.050 C 
HETATM   12  C15 UNL     1     -17.101   2.338  -2.164  1.00  0.00     0.166 C 
HETATM   13  N3  UNL     1     -18.036   3.001  -3.017  1.00  0.00    -0.343 N 
HETATM   14  C23 UNL     1     -18.580   2.165  -4.106  1.00  0.00     0.184 C 
HETATM   15  C28 UNL     1     -19.284   1.006  -3.544  1.00  0.00     0.092 C 
ENDROOT
BRANCH  13  16
HETATM   16  C16 UNL     1     -18.480   4.304  -2.899  1.00  0.00     0.154 C 
HETATM   17  C17 UNL     1     -18.053   5.611  -3.297  1.00  0.00     0.146 C 
BRANCH  16  18
HETATM   18  O3  UNL     1     -19.644   4.378  -2.224  1.00  0.00    -0.345 OA
ATOM     19  H3  UNL     1     -19.614   3.887  -1.412  1.00  0.00     0.219 HD
ENDBRANCH  16  18
BRANCH  17  20
HETATM   20  N4  UNL     1     -16.820   5.880  -3.889  1.00  0.00    -0.332 N 
HETATM   21  C18 UNL     1     -16.561   7.092  -4.599  1.00  0.00     0.229 C 
HETATM   22  O4  UNL     1     -17.452   7.959  -4.711  1.00  0.00    -0.272 OA
ATOM     23  H4  UNL     1     -16.075   5.186  -3.812  1.00  0.00     0.168 HD
BRANCH  21  24
HETATM   24  C19 UNL     1     -15.231   7.348  -5.221  1.00  0.00     0.030 C 
HETATM   25  C20 UNL     1     -15.171   8.774  -5.686  1.00  0.00     0.025 C 
HETATM   26  C21 UNL     1     -14.111   7.002  -4.294  1.00  0.00     0.025 C 
HETATM   27  C22 UNL     1     -15.094   6.440  -6.438  1.00  0.00     0.025 C 
ENDBRANCH  21  24
ENDBRANCH  17  20
ENDBRANCH  13  16
BRANCH  14  28
HETATM   28  C24 UNL     1     -17.558   1.868  -5.135  1.00  0.00     0.241 C 
HETATM   29  O5  UNL     1     -16.944   0.773  -5.214  1.00  0.00    -0.271 OA
HETATM   30  N5  UNL     1     -17.251   2.870  -6.089  1.00  0.00    -0.357 N 
ATOM     31  H5  UNL     1     -17.728   3.771  -6.060  1.00  0.00     0.162 HD
BRANCH  30  32
HETATM   32  C25 UNL     1     -16.267   2.607  -7.093  1.00  0.00     0.148 C 
BRANCH  32  33
HETATM   33  C26 UNL     1     -16.708   2.708  -8.514  1.00  0.00     0.186 C 
BRANCH  33  34
HETATM   34  O6  UNL     1     -17.780   2.008  -8.924  1.00  0.00    -0.394 OA
HETATM   35  C27 UNL     1     -17.850   0.669  -8.901  1.00  0.00     0.201 C 
ENDBRANCH  33  34
ENDBRANCH  32  33
ENDBRANCH  30  32
ENDBRANCH  14  28
BRANCH   1  36
HETATM   36  C6  UNL     1     -18.272  -3.015   3.009  1.00  0.00     0.259 C 
HETATM   37  N1  UNL     1     -18.990  -2.878   4.178  1.00  0.00    -0.356 N 
ATOM     38  H1  UNL     1     -19.625  -2.092   4.317  1.00  0.00     0.162 HD
HETATM   39  O2  UNL     1     -17.499  -4.040   2.932  1.00  0.00    -0.267 OA
BRANCH  37  40
HETATM   40  C5  UNL     1     -18.808  -3.913   5.228  1.00  0.00     0.125 C 
BRANCH  40  41
HETATM   41  C4  UNL     1     -17.813  -3.489   6.264  1.00  0.00     0.046 C 
BRANCH  41  42
HETATM   42  C3  UNL     1     -18.556  -2.918   7.425  1.00  0.00     0.169 C 
BRANCH  42  43
HETATM   43  O1  UNL     1     -19.295  -1.823   7.044  1.00  0.00    -0.391 OA
BRANCH  43  44
HETATM   44  C2  UNL     1     -18.643  -0.615   7.152  1.00  0.00     0.163 C 
HETATM   45  C1  UNL     1     -17.804  -0.569   8.426  1.00  0.00     0.033 C 
ENDBRANCH  43  44
ENDBRANCH  42  43
ENDBRANCH  41  42
ENDBRANCH  40  41
ENDBRANCH  37  40
ENDBRANCH   1  36
TORSDOF 14
ENDMDL
MODEL 2
REMARK VINA RESULT: -8.049197239      1.546      1.934
REMARK  14 active torsions:
REMARK  status: ('A' for Active; 'I' for Inactive)
REMARK    1  A    between atoms: C2_2  and  O1_3 
REMARK    2  A    between atoms: O1_3  and  C3_4 
REMARK    3  A    between atoms: C3_4  and  C4_5 
REMARK    4  A    between atoms: C4_5  and  C5_6 
REMARK    5  A    between atoms: C5_6  and  N1_7 
REMARK       I    between atoms: N1_7  and  C6_9 
REMARK    6  A    between atoms: C6_9  and  C7_11 
REMARK    7  A    between atoms: N3_23  and  C16_24 
REMARK    8  A    between atoms: C16_24  and  O3_25 
REMARK    9  A    between atoms: C17_27  and  N4_28 
REMARK       I    between atoms: N4_28  and  C18_30 
REMARK   10  A    between atoms: C18_30  and  C19_32 
REMARK   11  A    between atoms: C23_36  and  C24_37 
REMARK       I    between atoms: C24_37  and  N5_39 
REMARK   12  A    between atoms: N5_39  and  C25_41 
REMARK   13  A    between atoms: C25_41  and  C26_42 
REMARK   14  A    between atoms: C26_42  and  O6_43 
ROOT
HETATM    1  C7  UNL     1     -17.753  -2.631   3.045  1.00  0.00     0.081 A 
HETATM    2  S1  UNL     1     -18.918  -2.973   1.811  1.00  0.00    -0.066 SA
HETATM    3  C8  UNL     1     -18.718  -1.588   0.836  1.00  0.00     0.086 A 
HETATM    4  N2  UNL     1     -19.314  -1.174  -0.323  1.00  0.00    -0.353 N 
ATOM      5  H2  UNL     1     -20.032  -1.760  -0.748  1.00  0.00     0.166 HD
HETATM    6  C9  UNL     1     -18.975   0.007  -0.928  1.00  0.00     0.020 A 
HETATM    7  C10 UNL     1     -18.007   0.715  -0.283  1.00  0.00    -0.017 A 
HETATM    8  C11 UNL     1     -17.381   0.334   0.885  1.00  0.00     0.025 A 
HETATM    9  C12 UNL     1     -17.747  -0.890   1.494  1.00  0.00     0.006 A 
HETATM   10  C13 UNL     1     -17.250  -1.435   2.638  1.00  0.00    -0.026 A 
HETATM   11  C14 UNL     1     -16.161  -0.755   3.471  1.00  0.00     0.050 C 
HETATM   12  C15 UNL     1     -17.617   2.026  -0.937  1.00  0.00     0.166 C 
HETATM   13  N3  UNL     1     -18.711   2.541  -1.697  1.00  0.00    -0.343 N 
HETATM   14  C23 UNL     1     -19.202   1.644  -2.761  1.00  0.00     0.184 C 
HETATM   15  C28 UNL     1     -19.666   0.379  -2.176  1.00  0.00     0.092 C 
ENDROOT
BRANCH  13  16
HETATM   16  C16 UNL     1     -19.346   3.755  -1.510  1.00  0.00     0.154 C 
HETATM   17  C17 UNL     1     -19.149   5.123  -1.881  1.00  0.00     0.146 C 
BRANCH  16  18
HETATM   18  O3  UNL     1     -20.470   3.626  -0.778  1.00  0.00    -0.345 OA
ATOM     19  H3  UNL     1     -20.365   3.981   0.097  1.00  0.00     0.219 HD
ENDBRANCH  16  18
BRANCH  17  20
HETATM   20  N4  UNL     1     -18.005   5.599  -2.521  1.00  0.00    -0.332 N 
HETATM   21  C18 UNL     1     -17.959   5.832  -3.929  1.00  0.00     0.229 C 
HETATM   22  O4  UNL     1     -18.963   5.609  -4.639  1.00  0.00    -0.272 OA
ATOM     23  H4  UNL     1     -17.172   5.788  -1.964  1.00  0.00     0.168 HD
BRANCH  21  24
HETATM   24  C19 UNL     1     -16.720   6.340  -4.584  1.00  0.00     0.030 C 
HETATM   25  C20 UNL     1     -16.537   5.643  -5.901  1.00  0.00     0.025 C 
HETATM   26  C21 UNL     1     -16.738   7.827  -4.722  1.00  0.00     0.025 C 
HETATM   27  C22 UNL     1     -15.536   5.993  -3.689  1.00  0.00     0.025 C 
ENDBRANCH  21  24
ENDBRANCH  17  20
ENDBRANCH  13  16
BRANCH  14  28
HETATM   28  C24 UNL     1     -18.233   1.528  -3.874  1.00  0.00     0.241 C 
HETATM   29  O5  UNL     1     -17.291   2.339  -4.067  1.00  0.00    -0.271 OA
HETATM   30  N5  UNL     1     -18.368   0.443  -4.775  1.00  0.00    -0.357 N 
ATOM     31  H5  UNL     1     -19.118  -0.237  -4.652  1.00  0.00     0.162 HD
BRANCH  30  32
HETATM   32  C25 UNL     1     -17.445   0.310  -5.859  1.00  0.00     0.148 C 
BRANCH  32  33
HETATM   33  C26 UNL     1     -17.969   0.574  -7.230  1.00  0.00     0.186 C 
BRANCH  33  34
HETATM   34  O6  UNL     1     -18.873   1.551  -7.414  1.00  0.00    -0.394 OA
HETATM   35  C27 UNL     1     -18.558   2.850  -7.517  1.00  0.00     0.201 C 
ENDBRANCH  33  34
ENDBRANCH  32  33
ENDBRANCH  30  32
ENDBRANCH  14  28
BRANCH   1  36
HETATM   36  C6  UNL     1     -17.501  -3.514   4.171  1.00  0.00     0.259 C 
HETATM   37  N1  UNL     1     -17.114  -3.156   5.445  1.00  0.00    -0.356 N 
ATOM     38  H1  UNL     1     -16.969  -2.177   5.696  1.00  0.00     0.162 HD
HETATM   39  O2  UNL     1     -17.658  -4.773   3.955  1.00  0.00    -0.267 OA
BRANCH  37  40
HETATM   40  C5  UNL     1     -16.916  -4.241   6.439  1.00  0.00     0.125 C 
BRANCH  40  41
HETATM   41  C4  UNL     1     -17.876  -4.134   7.584  1.00  0.00     0.046 C 
BRANCH  41  42
HETATM   42  C3  UNL     1     -17.850  -2.731   8.091  1.00  0.00     0.169 C 
BRANCH  42  43
HETATM   43  O1  UNL     1     -18.902  -2.006   7.582  1.00  0.00    -0.391 OA
BRANCH  43  44
HETATM   44  C2  UNL     1     -18.710  -0.642   7.557  1.00  0.00     0.163 C 
HETATM   45  C1  UNL     1     -18.729  -0.123   6.121  1.00  0.00     0.033 C 
ENDBRANCH  43  44
ENDBRANCH  42  43
ENDBRANCH  41  42
ENDBRANCH  40  41
ENDBRANCH  37  40
ENDBRANCH   1  36
TORSDOF 14
ENDMDL
MODEL 3
REMARK VINA RESULT: -8.025503903      3.887      6.493
REMARK  14 active torsions:
REMARK  status: ('A' for Active; 'I' for Inactive)
REMARK    1  A    between atoms: C2_2  and  O1_3 
REMARK    2  A    between atoms: O1_3  and  C3_4 
REMARK    3  A    between atoms: C3_4  and  C4_5 
REMARK    4  A    between atoms: C4_5  and  C5_6 
REMARK    5  A    between atoms: C5_6  and  N1_7 
REMARK       I    between atoms: N1_7  and  C6_9 
REMARK    6  A    between atoms: C6_9  and  C7_11 
REMARK    7  A    between atoms: N3_23  and  C16_24 
REMARK    8  A    between atoms: C16_24  and  O3_25 
REMARK    9  A    between atoms: C17_27  and  N4_28 
REMARK       I    between atoms: N4_28  and  C18_30 
REMARK   10  A    between atoms: C18_30  and  C19_32 
REMARK   11  A    between atoms: C23_36  and  C24_37 
REMARK       I    between atoms: C24_37  and  N5_39 
REMARK   12  A    between atoms: N5_39  and  C25_41 
REMARK   13  A    between atoms: C25_41  and  C26_42 
REMARK   14  A    between atoms: C26_42  and  O6_43 
ROOT
HETATM    1  C7  UNL     1     -17.982  -6.447   3.120  1.00  0.00     0.081 A 
HETATM    2  S1  UNL     1     -19.499  -5.746   2.667  1.00  0.00    -0.066 SA
HETATM    3  C8  UNL     1     -18.939  -4.454   1.704  1.00  0.00     0.086 A 
HETATM    4  N2  UNL     1     -19.583  -3.466   1.009  1.00  0.00    -0.353 N 
ATOM      5  H2  UNL     1     -20.602  -3.434   1.024  1.00  0.00     0.166 HD
HETATM    6  C9  UNL     1     -18.896  -2.520   0.295  1.00  0.00     0.020 A 
HETATM    7  C10 UNL     1     -17.542  -2.652   0.339  1.00  0.00    -0.017 A 
HETATM    8  C11 UNL     1     -16.854  -3.630   1.026  1.00  0.00     0.025 A 
HETATM    9  C12 UNL     1     -17.584  -4.598   1.757  1.00  0.00     0.006 A 
HETATM   10  C13 UNL     1     -17.092  -5.633   2.492  1.00  0.00    -0.026 A 
HETATM   11  C14 UNL     1     -15.594  -5.906   2.635  1.00  0.00     0.050 C 
HETATM   12  C15 UNL     1     -16.764  -1.613  -0.444  1.00  0.00     0.166 C 
HETATM   13  N3  UNL     1     -17.517  -0.404  -0.543  1.00  0.00    -0.343 N 
HETATM   14  C23 UNL     1     -18.837  -0.549  -1.188  1.00  0.00     0.184 C 
HETATM   15  C28 UNL     1     -19.667  -1.491  -0.426  1.00  0.00     0.092 C 
ENDROOT
BRANCH  13  16
HETATM   16  C16 UNL     1     -17.141   0.842  -0.078  1.00  0.00     0.154 C 
HETATM   17  C17 UNL     1     -17.133   1.552   1.165  1.00  0.00     0.146 C 
BRANCH  16  18
HETATM   18  O3  UNL     1     -16.636   1.614  -1.061  1.00  0.00    -0.345 OA
ATOM     19  H3  UNL     1     -16.713   2.538  -0.859  1.00  0.00     0.219 HD
ENDBRANCH  16  18
BRANCH  17  20
HETATM   20  N4  UNL     1     -17.717   1.076   2.337  1.00  0.00    -0.332 N 
HETATM   21  C18 UNL     1     -17.141   0.017   3.103  1.00  0.00     0.229 C 
HETATM   22  O4  UNL     1     -16.077  -0.522   2.733  1.00  0.00    -0.272 OA
ATOM     23  H4  UNL     1     -18.588   1.498   2.661  1.00  0.00     0.168 HD
BRANCH  21  24
HETATM   24  C19 UNL     1     -17.793  -0.470   4.352  1.00  0.00     0.030 C 
HETATM   25  C20 UNL     1     -18.549   0.661   4.986  1.00  0.00     0.025 C 
HETATM   26  C21 UNL     1     -18.657  -1.662   4.096  1.00  0.00     0.025 C 
HETATM   27  C22 UNL     1     -16.698  -0.916   5.314  1.00  0.00     0.025 C 
ENDBRANCH  21  24
ENDBRANCH  17  20
ENDBRANCH  13  16
BRANCH  14  28
HETATM   28  C24 UNL     1     -18.714  -0.817  -2.639  1.00  0.00     0.241 C 
HETATM   29  O5  UNL     1     -18.951  -1.935  -3.164  1.00  0.00    -0.271 OA
HETATM   30  N5  UNL     1     -18.310   0.243  -3.488  1.00  0.00    -0.357 N 
ATOM     31  H5  UNL     1     -18.111   1.164  -3.101  1.00  0.00     0.162 HD
BRANCH  30  32
HETATM   32  C25 UNL     1     -18.184   0.008  -4.893  1.00  0.00     0.148 C 
BRANCH  32  33
HETATM   33  C26 UNL     1     -18.535   1.138  -5.801  1.00  0.00     0.186 C 
BRANCH  33  34
HETATM   34  O6  UNL     1     -19.159   0.882  -6.963  1.00  0.00    -0.394 OA
HETATM   35  C27 UNL     1     -18.521   0.710  -8.131  1.00  0.00     0.201 C 
ENDBRANCH  33  34
ENDBRANCH  32  33
ENDBRANCH  30  32
ENDBRANCH  14  28
BRANCH   1  36
HETATM   36  C6  UNL     1     -17.868  -7.619   3.972  1.00  0.00     0.259 C 
HETATM   37  N1  UNL     1     -16.740  -8.079   4.616  1.00  0.00    -0.356 N 
ATOM     38  H1  UNL     1     -15.848  -7.592   4.528  1.00  0.00     0.162 HD
HETATM   39  O2  UNL     1     -18.944  -8.304   4.146  1.00  0.00    -0.267 OA
BRANCH  37  40
HETATM   40  C5  UNL     1     -16.866  -9.308   5.440  1.00  0.00     0.125 C 
BRANCH  40  41
HETATM   41  C4  UNL     1     -16.379  -9.095   6.841  1.00  0.00     0.046 C 
BRANCH  41  42
HETATM   42  C3  UNL     1     -16.095  -7.642   7.025  1.00  0.00     0.169 C 
BRANCH  42  43
HETATM   43  O1  UNL     1     -17.247  -6.950   7.314  1.00  0.00    -0.391 OA
BRANCH  43  44
HETATM   44  C2  UNL     1     -17.070  -5.611   7.584  1.00  0.00     0.163 C 
HETATM   45  C1  UNL     1     -17.457  -4.763   6.375  1.00  0.00     0.033 C 
ENDBRANCH  43  44
ENDBRANCH  42  43
ENDBRANCH  41  42
ENDBRANCH  40  41
ENDBRANCH  37  40
ENDBRANCH   1  36
TORSDOF 14
ENDMDL
MODEL 4
REMARK VINA RESULT: -7.983522307      2.026      2.899
REMARK  14 active torsions:
REMARK  status: ('A' for Active; 'I' for Inactive)
REMARK    1  A    between atoms: C2_2  and  O1_3 
REMARK    2  A    between atoms: O1_3  and  C3_4 
REMARK    3  A    between atoms: C3_4  and  C4_5 
REMARK    4  A    between atoms: C4_5  and  C5_6 
REMARK    5  A    between atoms: C5_6  and  N1_7 
REMARK       I    between atoms: N1_7  and  C6_9 
REMARK    6  A    between atoms: C6_9  and  C7_11 
REMARK    7  A    between atoms: N3_23  and  C16_24 
REMARK    8  A    between atoms: C16_24  and  O3_25 
REMARK    9  A    between atoms: C17_27  and  N4_28 
REMARK       I    between atoms: N4_28  and  C18_30 
REMARK   10  A    between atoms: C18_30  and  C19_32 
REMARK   11  A    between atoms: C23_36  and  C24_37 
REMARK       I    between atoms: C24_37  and  N5_39 
REMARK   12  A    between atoms: N5_39  and  C25_41 
REMARK   13  A    between atoms: C25_41  and  C26_42 
REMARK   14  A    between atoms: C26_42  and  O6_43 
ROOT
HETATM    1  C7  UNL     1     -17.820  -2.684   3.060  1.00  0.00     0.081 A 
HETATM    2  S1  UNL     1     -18.894  -3.039   1.749  1.00  0.00    -0.066 SA
HETATM    3  C8  UNL     1     -18.673  -1.632   0.810  1.00  0.00     0.086 A 
HETATM    4  N2  UNL     1     -19.207  -1.216  -0.378  1.00  0.00    -0.353 N 
ATOM      5  H2  UNL     1     -19.879  -1.815  -0.857  1.00  0.00     0.166 HD
HETATM    6  C9  UNL     1     -18.866  -0.015  -0.943  1.00  0.00     0.020 A 
HETATM    7  C10 UNL     1     -17.963   0.709  -0.226  1.00  0.00    -0.017 A 
HETATM    8  C11 UNL     1     -17.401   0.327   0.973  1.00  0.00     0.025 A 
HETATM    9  C12 UNL     1     -17.768  -0.918   1.539  1.00  0.00     0.006 A 
HETATM   10  C13 UNL     1     -17.329  -1.467   2.704  1.00  0.00    -0.026 A 
HETATM   11  C14 UNL     1     -16.316  -0.771   3.615  1.00  0.00     0.050 C 
HETATM   12  C15 UNL     1     -17.572   2.042  -0.834  1.00  0.00     0.166 C 
HETATM   13  N3  UNL     1     -18.630   2.539  -1.654  1.00  0.00    -0.343 N 
HETATM   14  C23 UNL     1     -19.025   1.646  -2.761  1.00  0.00     0.184 C 
HETATM   15  C28 UNL     1     -19.487   0.358  -2.227  1.00  0.00     0.092 C 
ENDROOT
BRANCH  13  16
HETATM   16  C16 UNL     1     -19.312   3.730  -1.490  1.00  0.00     0.154 C 
HETATM   17  C17 UNL     1     -19.156   5.102  -1.868  1.00  0.00     0.146 C 
BRANCH  16  18
HETATM   18  O3  UNL     1     -20.446   3.566  -0.779  1.00  0.00    -0.345 OA
ATOM     19  H3  UNL     1     -21.026   4.313  -0.863  1.00  0.00     0.219 HD
ENDBRANCH  16  18
BRANCH  17  20
HETATM   20  N4  UNL     1     -18.018   5.614  -2.489  1.00  0.00    -0.332 N 
HETATM   21  C18 UNL     1     -17.948   5.828  -3.899  1.00  0.00     0.229 C 
HETATM   22  O4  UNL     1     -18.925   5.556  -4.627  1.00  0.00    -0.272 OA
ATOM     23  H4  UNL     1     -17.206   5.843  -1.916  1.00  0.00     0.168 HD
BRANCH  21  24
HETATM   24  C19 UNL     1     -16.714   6.376  -4.532  1.00  0.00     0.030 C 
HETATM   25  C20 UNL     1     -15.540   6.105  -3.637  1.00  0.00     0.025 C 
HETATM   26  C21 UNL     1     -16.516   5.839  -5.912  1.00  0.00     0.025 C 
HETATM   27  C22 UNL     1     -16.879   7.885  -4.663  1.00  0.00     0.025 C 
ENDBRANCH  21  24
ENDBRANCH  17  20
ENDBRANCH  13  16
BRANCH  14  28
HETATM   28  C24 UNL     1     -17.984   1.577  -3.812  1.00  0.00     0.241 C 
HETATM   29  O5  UNL     1     -17.070   2.430  -3.944  1.00  0.00    -0.271 OA
HETATM   30  N5  UNL     1     -18.015   0.490  -4.721  1.00  0.00    -0.357 N 
ATOM     31  H5  UNL     1     -18.739  -0.223  -4.646  1.00  0.00     0.162 HD
BRANCH  30  32
HETATM   32  C25 UNL     1     -17.020   0.403  -5.744  1.00  0.00     0.148 C 
BRANCH  32  33
HETATM   33  C26 UNL     1     -17.424   0.823  -7.117  1.00  0.00     0.186 C 
BRANCH  33  34
HETATM   34  O6  UNL     1     -18.513   1.594  -7.278  1.00  0.00    -0.394 OA
HETATM   35  C27 UNL     1     -18.466   2.923  -7.455  1.00  0.00     0.201 C 
ENDBRANCH  33  34
ENDBRANCH  32  33
ENDBRANCH  30  32
ENDBRANCH  14  28
BRANCH   1  36
HETATM   36  C6  UNL     1     -17.614  -3.578   4.186  1.00  0.00     0.259 C 
HETATM   37  N1  UNL     1     -16.917  -4.767   4.194  1.00  0.00    -0.356 N 
ATOM     38  H1  UNL     1     -16.469  -5.121   3.348  1.00  0.00     0.162 HD
HETATM   39  O2  UNL     1     -18.142  -3.219   5.303  1.00  0.00    -0.267 OA
BRANCH  37  40
HETATM   40  C5  UNL     1     -16.840  -5.517   5.474  1.00  0.00     0.125 C 
BRANCH  40  41
HETATM   41  C4  UNL     1     -16.932  -6.996   5.263  1.00  0.00     0.046 C 
BRANCH  41  42
HETATM   42  C3  UNL     1     -18.128  -7.279   4.417  1.00  0.00     0.169 C 
BRANCH  42  43
HETATM   43  O1  UNL     1     -19.259  -6.721   4.966  1.00  0.00    -0.391 OA
BRANCH  43  44
HETATM   44  C2  UNL     1     -20.166  -6.229   4.054  1.00  0.00     0.163 C 
HETATM   45  C1  UNL     1     -19.740  -6.578   2.630  1.00  0.00     0.033 C 
ENDBRANCH  43  44
ENDBRANCH  42  43
ENDBRANCH  41  42
ENDBRANCH  40  41
ENDBRANCH  37  40
ENDBRANCH   1  36
TORSDOF 14
ENDMDL
MODEL 5
REMARK VINA RESULT: -7.966246703      2.702     12.274
REMARK  14 active torsions:
REMARK  status: ('A' for Active; 'I' for Inactive)
REMARK    1  A    between atoms: C2_2  and  O1_3 
REMARK    2  A    between atoms: O1_3  and  C3_4 
REMARK    3  A    between atoms: C3_4  and  C4_5 
REMARK    4  A    between atoms: C4_5  and  C5_6 
REMARK    5  A    between atoms: C5_6  and  N1_7 
REMARK       I    between atoms: N1_7  and  C6_9 
REMARK    6  A    between atoms: C6_9  and  C7_11 
REMARK    7  A    between atoms: N3_23  and  C16_24 
REMARK    8  A    between atoms: C16_24  and  O3_25 
REMARK    9  A    between atoms: C17_27  and  N4_28 
REMARK       I    between atoms: N4_28  and  C18_30 
REMARK   10  A    between atoms: C18_30  and  C19_32 
REMARK   11  A    between atoms: C23_36  and  C24_37 
REMARK       I    between atoms: C24_37  and  N5_39 
REMARK   12  A    between atoms: N5_39  and  C25_41 
REMARK   13  A    between atoms: C25_41  and  C26_42 
REMARK   14  A    between atoms: C26_42  and  O6_43 
ROOT
HETATM    1  C7  UNL     1     -18.277   2.166  -2.537  1.00  0.00     0.081 A 
HETATM    2  S1  UNL     1     -19.312   2.404  -1.170  1.00  0.00    -0.066 SA
HETATM    3  C8  UNL     1     -18.855   1.057  -0.228  1.00  0.00     0.086 A 
HETATM    4  N2  UNL     1     -19.260   0.598   0.995  1.00  0.00    -0.353 N 
ATOM      5  H2  UNL     1     -19.976   1.114   1.505  1.00  0.00     0.166 HD
HETATM    6  C9  UNL     1     -18.731  -0.536   1.553  1.00  0.00     0.020 A 
HETATM    7  C10 UNL     1     -17.783  -1.150   0.793  1.00  0.00    -0.017 A 
HETATM    8  C11 UNL     1     -17.346  -0.722  -0.442  1.00  0.00     0.025 A 
HETATM    9  C12 UNL     1     -17.906   0.453  -1.001  1.00  0.00     0.006 A 
HETATM   10  C13 UNL     1     -17.611   1.031  -2.197  1.00  0.00    -0.026 A 
HETATM   11  C14 UNL     1     -16.568   0.456  -3.157  1.00  0.00     0.050 C 
HETATM   12  C15 UNL     1     -17.186  -2.408   1.393  1.00  0.00     0.166 C 
HETATM   13  N3  UNL     1     -18.121  -3.022   2.280  1.00  0.00    -0.343 N 
HETATM   14  C23 UNL     1     -18.566  -2.166   3.398  1.00  0.00     0.184 C 
HETATM   15  C28 UNL     1     -19.224  -0.961   2.876  1.00  0.00     0.092 C 
ENDROOT
BRANCH  13  16
HETATM   16  C16 UNL     1     -18.648  -4.295   2.172  1.00  0.00     0.154 C 
HETATM   17  C17 UNL     1     -18.487  -5.567   2.809  1.00  0.00     0.146 C 
BRANCH  16  18
HETATM   18  O3  UNL     1     -19.577  -4.373   1.199  1.00  0.00    -0.345 OA
ATOM     19  H3  UNL     1     -20.138  -5.131   1.306  1.00  0.00     0.219 HD
ENDBRANCH  16  18
BRANCH  17  20
HETATM   20  N4  UNL     1     -17.504  -5.844   3.758  1.00  0.00    -0.332 N 
HETATM   21  C18 UNL     1     -17.789  -6.539   4.972  1.00  0.00     0.229 C 
HETATM   22  O4  UNL     1     -18.951  -6.924   5.221  1.00  0.00    -0.272 OA
ATOM     23  H4  UNL     1     -16.547  -5.539   3.579  1.00  0.00     0.168 HD
BRANCH  21  24
HETATM   24  C19 UNL     1     -16.715  -6.818   5.967  1.00  0.00     0.030 C 
HETATM   25  C20 UNL     1     -16.599  -8.302   6.163  1.00  0.00     0.025 C 
HETATM   26  C21 UNL     1     -15.418  -6.191   5.571  1.00  0.00     0.025 C 
HETATM   27  C22 UNL     1     -17.123  -6.190   7.294  1.00  0.00     0.025 C 
ENDBRANCH  21  24
ENDBRANCH  17  20
ENDBRANCH  13  16
BRANCH  14  28
HETATM   28  C24 UNL     1     -17.485  -1.941   4.384  1.00  0.00     0.241 C 
HETATM   29  O5  UNL     1     -16.679  -0.977   4.327  1.00  0.00    -0.271 OA
HETATM   30  N5  UNL     1     -17.348  -2.858   5.455  1.00  0.00    -0.357 N 
ATOM     31  H5  UNL     1     -17.983  -3.652   5.537  1.00  0.00     0.162 HD
BRANCH  30  32
HETATM   32  C25 UNL     1     -16.311  -2.662   6.420  1.00  0.00     0.148 C 
BRANCH  32  33
HETATM   33  C26 UNL     1     -16.734  -2.473   7.837  1.00  0.00     0.186 C 
BRANCH  33  34
HETATM   34  O6  UNL     1     -17.920  -1.900   8.102  1.00  0.00    -0.394 OA
HETATM   35  C27 UNL     1     -18.140  -0.578   8.037  1.00  0.00     0.201 C 
ENDBRANCH  33  34
ENDBRANCH  32  33
ENDBRANCH  30  32
ENDBRANCH  14  28
BRANCH   1  36
HETATM   36  C6  UNL     1     -18.256   3.057  -3.686  1.00  0.00     0.259 C 
HETATM   37  N1  UNL     1     -19.043   2.985  -4.815  1.00  0.00    -0.356 N 
ATOM     38  H1  UNL     1     -19.740   2.249  -4.925  1.00  0.00     0.162 HD
HETATM   39  O2  UNL     1     -17.406   4.022  -3.643  1.00  0.00    -0.267 OA
BRANCH  37  40
HETATM   40  C5  UNL     1     -18.842   4.015  -5.866  1.00  0.00     0.125 C 
BRANCH  40  41
HETATM   41  C4  UNL     1     -17.852   3.574  -6.900  1.00  0.00     0.046 C 
BRANCH  41  42
HETATM   42  C3  UNL     1     -18.592   2.881  -7.995  1.00  0.00     0.169 C 
BRANCH  42  43
HETATM   43  O1  UNL     1     -19.244   1.768  -7.519  1.00  0.00    -0.391 OA
BRANCH  43  44
HETATM   44  C2  UNL     1     -18.570   0.579  -7.694  1.00  0.00     0.163 C 
HETATM   45  C1  UNL     1     -18.392  -0.139  -6.359  1.00  0.00     0.033 C 
ENDBRANCH  43  44
ENDBRANCH  42  43
ENDBRANCH  41  42
ENDBRANCH  40  41
ENDBRANCH  37  40
ENDBRANCH   1  36
TORSDOF 14
ENDMDL
