MODEL 1
REMARK VINA RESULT: -9.279153347      0.000      0.000
REMARK  16 active torsions:
REMARK  status: ('A' for Active; 'I' for Inactive)
REMARK    1  A    between atoms: C2_2  and  C3_3 
REMARK    2  A    between atoms: C3_3  and  C4_4 
REMARK    3  A    between atoms: C3_3  and  C6_6 
REMARK    4  A    between atoms: C3_3  and  C21_40 
REMARK    5  A    between atoms: C6_6  and  O1_7 
REMARK    6  A    between atoms: C6_6  and  N1_9 
REMARK    7  A    between atoms: N2_12  and  C9_13 
REMARK    8  A    between atoms: C9_13  and  C10_14 
REMARK    9  A    between atoms: C10_14  and  C11_15 
REMARK   10  A    between atoms: C11_15  and  C12_16 
REMARK   11  A    between atoms: C12_16  and  N3_17 
REMARK       I    between atoms: N3_17  and  C13_19 
REMARK   12  A    between atoms: C13_19  and  C14_21 
REMARK   13  A    between atoms: C14_21  and  N4_22 
REMARK       I    between atoms: N4_22  and  C15_24 
REMARK   14  A    between atoms: C15_24  and  C16_26 
REMARK   15  A    between atoms: C16_26  and  N5_27 
REMARK   16  A    between atoms: N8_34  and  O4_36 
ROOT
HETATM    1  C9  UNL     1     -17.362   0.406  -5.729  1.00  0.00     0.099 C 
HETATM    2  N8  UNL     1     -16.188   0.853  -5.441  1.00  0.00    -0.257 N 
ATOM      3  H8  UNL     1     -15.944   0.937  -4.454  1.00  0.00     0.195 HD
ENDROOT
BRANCH   1   4
HETATM    4  N2  UNL     1     -18.248   0.055  -4.674  1.00  0.00    -0.366 N 
HETATM    5  C8  UNL     1     -18.561   1.046  -3.645  1.00  0.00     0.144 C 
HETATM    6  C7  UNL     1     -19.495   0.489  -2.606  1.00  0.00     0.144 C 
HETATM    7  N1  UNL     1     -19.053  -0.824  -2.131  1.00  0.00    -0.361 N 
HETATM    8  C20 UNL     1     -18.580  -1.726  -3.125  1.00  0.00     0.144 C 
HETATM    9  C19 UNL     1     -18.874  -1.229  -4.539  1.00  0.00     0.144 C 
BRANCH   7  10
HETATM   10  C6  UNL     1     -19.096  -1.079  -0.766  1.00  0.00     0.127 C 
BRANCH  10  11
HETATM   11  C3  UNL     1     -18.112  -1.658   0.137  1.00  0.00     0.051 C 
BRANCH  11  12
HETATM   12  C2  UNL     1     -16.703  -1.533  -0.303  1.00  0.00     0.018 C 
HETATM   13  C1  UNL     1     -16.332  -0.092  -0.591  1.00  0.00     0.006 C 
ENDBRANCH  11  12
BRANCH  11  14
HETATM   14  C4  UNL     1     -18.418  -3.165   0.289  1.00  0.00     0.018 C 
HETATM   15  C5  UNL     1     -17.364  -3.994  -0.419  1.00  0.00     0.006 C 
ENDBRANCH  11  14
BRANCH  11  16
HETATM   16  C21 UNL     1     -18.234  -1.128   1.552  1.00  0.00    -0.041 A 
HETATM   17  C22 UNL     1     -18.200   0.244   1.793  1.00  0.00     0.009 A 
HETATM   18  C23 UNL     1     -18.303   0.779   3.066  1.00  0.00     0.008 A 
HETATM   19  C24 UNL     1     -18.442  -0.026   4.148  1.00  0.00    -0.052 A 
HETATM   20  C25 UNL     1     -18.480  -1.376   3.940  1.00  0.00    -0.051 A 
HETATM   21  C30 UNL     1     -18.558   0.478   5.545  1.00  0.00     0.039 C 
HETATM   22  C26 UNL     1     -18.377  -1.927   2.651  1.00  0.00     0.016 A 
HETATM   23  C27 UNL     1     -18.632  -2.264   5.107  1.00  0.00     0.039 C 
HETATM   24  C28 UNL     1     -17.655  -1.789   6.159  1.00  0.00     0.005 C 
HETATM   25  C29 UNL     1     -17.836  -0.361   6.546  1.00  0.00     0.005 C 
ENDBRANCH  11  16
ENDBRANCH  10  11
BRANCH  10  26
HETATM   26  O1  UNL     1     -20.215  -0.736  -0.199  1.00  0.00    -0.349 OA
ATOM     27  H1  UNL     1     -20.146  -0.000   0.398  1.00  0.00     0.219 HD
ENDBRANCH  10  26
ENDBRANCH   7  10
ENDBRANCH   1   4
BRANCH   1  28
HETATM   28  C10 UNL     1     -17.720   0.283  -7.146  1.00  0.00     0.080 C 
BRANCH  28  29
HETATM   29  C11 UNL     1     -18.945   1.146  -7.386  1.00  0.00     0.027 C 
BRANCH  29  30
HETATM   30  C12 UNL     1     -18.560   2.288  -8.313  1.00  0.00     0.123 C 
BRANCH  30  31
HETATM   31  N3  UNL     1     -18.449   3.528  -7.576  1.00  0.00    -0.360 N 
HETATM   32  C13 UNL     1     -17.186   4.061  -7.255  1.00  0.00     0.235 C 
HETATM   33  O2  UNL     1     -16.153   3.421  -7.631  1.00  0.00    -0.272 OA
ATOM     34  H3  UNL     1     -19.294   4.021  -7.286  1.00  0.00     0.162 HD
BRANCH  32  35
HETATM   35  C14 UNL     1     -17.125   5.326  -6.504  1.00  0.00     0.225 C 
BRANCH  35  36
HETATM   36  N4  UNL     1     -16.634   5.152  -5.172  1.00  0.00    -0.351 N 
HETATM   37  C15 UNL     1     -17.393   5.563  -4.059  1.00  0.00     0.237 C 
HETATM   38  O3  UNL     1     -18.510   6.093  -4.225  1.00  0.00    -0.272 OA
ATOM     39  H4  UNL     1     -15.719   4.724  -5.026  1.00  0.00     0.163 HD
BRANCH  37  40
HETATM   40  C16 UNL     1     -16.852   5.358  -2.695  1.00  0.00     0.252 C 
BRANCH  40  41
HETATM   41  N5  UNL     1     -17.722   4.546  -1.874  1.00  0.00    -0.278 N 
HETATM   42  C17 UNL     1     -17.294   3.699  -0.925  1.00  0.00     0.201 A 
HETATM   43  N6  UNL     1     -18.394   3.144  -0.398  1.00  0.00    -0.346 N 
HETATM   44  C18 UNL     1     -19.487   3.631  -0.999  1.00  0.00     0.198 A 
ATOM     45  H6  UNL     1     -18.398   2.452   0.351  1.00  0.00     0.167 HD
HETATM   46  N7  UNL     1     -19.040   4.514  -1.928  1.00  0.00    -0.293 N 
ATOM     47  H7  UNL     1     -19.625   5.061  -2.561  1.00  0.00     0.188 HD
ENDBRANCH  40  41
ENDBRANCH  37  40
ENDBRANCH  35  36
ENDBRANCH  32  35
ENDBRANCH  30  31
ENDBRANCH  29  30
ENDBRANCH  28  29
ENDBRANCH   1  28
BRANCH   2  48
HETATM   48  O4  UNL     1     -15.257   1.220  -6.350  1.00  0.00    -0.288 OA
ATOM     49  H4  UNL     1     -14.341   1.375  -6.155  1.00  0.00     0.244 HD
ENDBRANCH   2  48
TORSDOF 16
ENDMDL
MODEL 2
REMARK VINA RESULT: -9.216917451      3.667     10.260
REMARK  16 active torsions:
REMARK  status: ('A' for Active; 'I' for Inactive)
REMARK    1  A    between atoms: C2_2  and  C3_3 
REMARK    2  A    between atoms: C3_3  and  C4_4 
REMARK    3  A    between atoms: C3_3  and  C6_6 
REMARK    4  A    between atoms: C3_3  and  C21_40 
REMARK    5  A    between atoms: C6_6  and  O1_7 
REMARK    6  A    between atoms: C6_6  and  N1_9 
REMARK    7  A    between atoms: N2_12  and  C9_13 
REMARK    8  A    between atoms: C9_13  and  C10_14 
REMARK    9  A    between atoms: C10_14  and  C11_15 
REMARK   10  A    between atoms: C11_15  and  C12_16 
REMARK   11  A    between atoms: C12_16  and  N3_17 
REMARK       I    between atoms: N3_17  and  C13_19 
REMARK   12  A    between atoms: C13_19  and  C14_21 
REMARK   13  A    between atoms: C14_21  and  N4_22 
REMARK       I    between atoms: N4_22  and  C15_24 
REMARK   14  A    between atoms: C15_24  and  C16_26 
REMARK   15  A    between atoms: C16_26  and  N5_27 
REMARK   16  A    between atoms: N8_34  and  O4_36 
ROOT
HETATM    1  C9  UNL     1     -17.377  -0.377   5.081  1.00  0.00     0.099 C 
HETATM    2  N8  UNL     1     -16.221  -0.879   4.813  1.00  0.00    -0.257 N 
ATOM      3  H8  UNL     1     -15.986  -1.026   3.832  1.00  0.00     0.195 HD
ENDROOT
BRANCH   1   4
HETATM    4  N2  UNL     1     -18.257  -0.055   4.012  1.00  0.00    -0.366 N 
HETATM    5  C8  UNL     1     -18.543  -1.066   2.994  1.00  0.00     0.144 C 
HETATM    6  C7  UNL     1     -19.475  -0.540   1.938  1.00  0.00     0.144 C 
HETATM    7  N1  UNL     1     -19.050   0.773   1.447  1.00  0.00    -0.361 N 
HETATM    8  C20 UNL     1     -18.602   1.698   2.433  1.00  0.00     0.144 C 
HETATM    9  C19 UNL     1     -18.903   1.216   3.852  1.00  0.00     0.144 C 
BRANCH   7  10
HETATM   10  C6  UNL     1     -19.082   1.008   0.079  1.00  0.00     0.127 C 
BRANCH  10  11
HETATM   11  C3  UNL     1     -18.097   1.586  -0.822  1.00  0.00     0.051 C 
BRANCH  11  12
HETATM   12  C2  UNL     1     -16.688   1.442  -0.391  1.00  0.00     0.018 C 
HETATM   13  C1  UNL     1     -16.330  -0.005  -0.120  1.00  0.00     0.006 C 
ENDBRANCH  11  12
BRANCH  11  14
HETATM   14  C4  UNL     1     -18.389   3.099  -0.956  1.00  0.00     0.018 C 
HETATM   15  C5  UNL     1     -17.302   3.909  -0.278  1.00  0.00     0.006 C 
ENDBRANCH  11  14
BRANCH  11  16
HETATM   16  C21 UNL     1     -18.231   1.074  -2.243  1.00  0.00    -0.041 A 
HETATM   17  C22 UNL     1     -18.204  -0.296  -2.501  1.00  0.00     0.009 A 
HETATM   18  C23 UNL     1     -18.317  -0.815  -3.779  1.00  0.00     0.008 A 
HETATM   19  C24 UNL     1     -18.464   0.003  -4.850  1.00  0.00    -0.052 A 
HETATM   20  C25 UNL     1     -18.496   1.351  -4.626  1.00  0.00    -0.051 A 
HETATM   21  C30 UNL     1     -18.592  -0.484  -6.252  1.00  0.00     0.039 C 
HETATM   22  C26 UNL     1     -18.381   1.886  -3.331  1.00  0.00     0.016 A 
HETATM   23  C27 UNL     1     -18.656   2.253  -5.781  1.00  0.00     0.039 C 
HETATM   24  C28 UNL     1     -17.688   1.788  -6.846  1.00  0.00     0.005 C 
HETATM   25  C29 UNL     1     -17.876   0.365  -7.249  1.00  0.00     0.005 C 
ENDBRANCH  11  16
ENDBRANCH  10  11
BRANCH  10  26
HETATM   26  O1  UNL     1     -20.190   0.641  -0.494  1.00  0.00    -0.349 OA
ATOM     27  H1  UNL     1     -20.949   1.162  -0.258  1.00  0.00     0.219 HD
ENDBRANCH  10  26
ENDBRANCH   7  10
ENDBRANCH   1   4
BRANCH   1  28
HETATM   28  C10 UNL     1     -17.722  -0.161   6.491  1.00  0.00     0.080 C 
BRANCH  28  29
HETATM   29  C11 UNL     1     -18.989  -0.945   6.778  1.00  0.00     0.027 C 
BRANCH  29  30
HETATM   30  C12 UNL     1     -18.612  -2.228   7.501  1.00  0.00     0.123 C 
BRANCH  30  31
HETATM   31  N3  UNL     1     -18.647  -3.355   6.594  1.00  0.00    -0.360 N 
HETATM   32  C13 UNL     1     -17.459  -4.010   6.218  1.00  0.00     0.235 C 
HETATM   33  O2  UNL     1     -16.361  -3.582   6.698  1.00  0.00    -0.272 OA
ATOM     34  H3  UNL     1     -19.541  -3.679   6.224  1.00  0.00     0.162 HD
BRANCH  32  35
HETATM   35  C14 UNL     1     -17.546  -5.152   5.293  1.00  0.00     0.225 C 
BRANCH  35  36
HETATM   36  N4  UNL     1     -16.720  -4.988   4.137  1.00  0.00    -0.351 N 
HETATM   37  C15 UNL     1     -17.123  -5.481   2.881  1.00  0.00     0.237 C 
HETATM   38  O3  UNL     1     -18.214  -6.078   2.764  1.00  0.00    -0.272 OA
ATOM     39  H4  UNL     1     -15.825  -4.506   4.223  1.00  0.00     0.163 HD
BRANCH  37  40
HETATM   40  C16 UNL     1     -16.243  -5.285   1.706  1.00  0.00     0.252 C 
BRANCH  40  41
HETATM   41  N5  UNL     1     -16.885  -4.523   0.658  1.00  0.00    -0.278 N 
HETATM   42  C17 UNL     1     -16.359  -4.318  -0.560  1.00  0.00     0.201 A 
HETATM   43  N6  UNL     1     -17.250  -3.575  -1.230  1.00  0.00    -0.346 N 
HETATM   44  C18 UNL     1     -18.311  -3.320  -0.453  1.00  0.00     0.198 A 
ATOM     45  H6  UNL     1     -17.137  -3.251  -2.190  1.00  0.00     0.167 HD
HETATM   46  N7  UNL     1     -18.060  -3.927   0.734  1.00  0.00    -0.293 N 
ATOM     47  H7  UNL     1     -18.675  -3.923   1.548  1.00  0.00     0.188 HD
ENDBRANCH  40  41
ENDBRANCH  37  40
ENDBRANCH  35  36
ENDBRANCH  32  35
ENDBRANCH  30  31
ENDBRANCH  29  30
ENDBRANCH  28  29
ENDBRANCH   1  28
BRANCH   2  48
HETATM   48  O4  UNL     1     -15.297  -1.225   5.738  1.00  0.00    -0.288 OA
ATOM     49  H4  UNL     1     -14.806  -2.038   5.735  1.00  0.00     0.244 HD
ENDBRANCH   2  48
TORSDOF 16
ENDMDL
MODEL 3
REMARK VINA RESULT: -9.179547483      1.398      1.930
REMARK  16 active torsions:
REMARK  status: ('A' for Active; 'I' for Inactive)
REMARK    1  A    between atoms: C2_2  and  C3_3 
REMARK    2  A    between atoms: C3_3  and  C4_4 
REMARK    3  A    between atoms: C3_3  and  C6_6 
REMARK    4  A    between atoms: C3_3  and  C21_40 
REMARK    5  A    between atoms: C6_6  and  O1_7 
REMARK    6  A    between atoms: C6_6  and  N1_9 
REMARK    7  A    between atoms: N2_12  and  C9_13 
REMARK    8  A    between atoms: C9_13  and  C10_14 
REMARK    9  A    between atoms: C10_14  and  C11_15 
REMARK   10  A    between atoms: C11_15  and  C12_16 
REMARK   11  A    between atoms: C12_16  and  N3_17 
REMARK       I    between atoms: N3_17  and  C13_19 
REMARK   12  A    between atoms: C13_19  and  C14_21 
REMARK   13  A    between atoms: C14_21  and  N4_22 
REMARK       I    between atoms: N4_22  and  C15_24 
REMARK   14  A    between atoms: C15_24  and  C16_26 
REMARK   15  A    between atoms: C16_26  and  N5_27 
REMARK   16  A    between atoms: N8_34  and  O4_36 
ROOT
HETATM    1  C9  UNL     1     -18.509   1.081  -4.511  1.00  0.00     0.099 C 
HETATM    2  N8  UNL     1     -18.915   2.196  -4.011  1.00  0.00    -0.257 N 
ATOM      3  H8  UNL     1     -18.947   2.275  -2.995  1.00  0.00     0.195 HD
ENDROOT
BRANCH   1   4
HETATM    4  N2  UNL     1     -18.128   0.027  -3.636  1.00  0.00    -0.366 N 
HETATM    5  C8  UNL     1     -18.804  -1.266  -3.739  1.00  0.00     0.144 C 
HETATM    6  C7  UNL     1     -18.283  -2.246  -2.724  1.00  0.00     0.144 C 
HETATM    7  N1  UNL     1     -18.213  -1.652  -1.386  1.00  0.00    -0.361 N 
HETATM    8  C20 UNL     1     -17.717  -0.320  -1.314  1.00  0.00     0.144 C 
HETATM    9  C19 UNL     1     -17.105   0.137  -2.637  1.00  0.00     0.144 C 
BRANCH   7  10
HETATM   10  C6  UNL     1     -18.660  -2.405  -0.307  1.00  0.00     0.127 C 
BRANCH  10  11
HETATM   11  C3  UNL     1     -17.939  -3.182   0.689  1.00  0.00     0.051 C 
BRANCH  11  12
HETATM   12  C2  UNL     1     -16.628  -3.712   0.248  1.00  0.00     0.018 C 
HETATM   13  C1  UNL     1     -16.772  -4.643  -0.938  1.00  0.00     0.006 C 
ENDBRANCH  11  12
BRANCH  11  14
HETATM   14  C4  UNL     1     -18.815  -4.390   1.093  1.00  0.00     0.018 C 
HETATM   15  C5  UNL     1     -17.991  -5.411   1.852  1.00  0.00     0.006 C 
ENDBRANCH  11  14
BRANCH  11  16
HETATM   16  C21 UNL     1     -17.751  -2.431   1.993  1.00  0.00    -0.041 A 
HETATM   17  C22 UNL     1     -16.909  -1.321   2.049  1.00  0.00     0.009 A 
HETATM   18  C23 UNL     1     -16.700  -0.604   3.214  1.00  0.00     0.008 A 
HETATM   19  C24 UNL     1     -17.318  -0.958   4.368  1.00  0.00    -0.052 A 
HETATM   20  C25 UNL     1     -18.151  -2.041   4.341  1.00  0.00    -0.051 A 
HETATM   21  C30 UNL     1     -17.140  -0.234   5.658  1.00  0.00     0.039 C 
HETATM   22  C26 UNL     1     -18.368  -2.775   3.162  1.00  0.00     0.016 A 
HETATM   23  C27 UNL     1     -18.830  -2.438   5.588  1.00  0.00     0.039 C 
HETATM   24  C28 UNL     1     -17.785  -2.439   6.683  1.00  0.00     0.005 C 
HETATM   25  C29 UNL     1     -17.086  -1.134   6.847  1.00  0.00     0.005 C 
ENDBRANCH  11  16
ENDBRANCH  10  11
BRANCH  10  26
HETATM   26  O1  UNL     1     -19.953  -2.411  -0.167  1.00  0.00    -0.349 OA
ATOM     27  H1  UNL     1     -20.285  -1.780   0.460  1.00  0.00     0.219 HD
ENDBRANCH  10  26
ENDBRANCH   7  10
ENDBRANCH   1   4
BRANCH   1  28
HETATM   28  C10 UNL     1     -18.461   0.961  -5.973  1.00  0.00     0.080 C 
BRANCH  28  29
HETATM   29  C11 UNL     1     -17.008   0.783  -6.371  1.00  0.00     0.027 C 
BRANCH  29  30
HETATM   30  C12 UNL     1     -16.665   1.819  -7.429  1.00  0.00     0.123 C 
BRANCH  30  31
HETATM   31  N3  UNL     1     -16.855   3.158  -6.914  1.00  0.00    -0.360 N 
HETATM   32  C13 UNL     1     -16.056   4.223  -7.372  1.00  0.00     0.235 C 
HETATM   33  O2  UNL     1     -15.168   3.972  -8.247  1.00  0.00    -0.272 OA
ATOM     34  H3  UNL     1     -17.575   3.332  -6.212  1.00  0.00     0.162 HD
BRANCH  32  35
HETATM   35  C14 UNL     1     -16.288   5.567  -6.818  1.00  0.00     0.225 C 
BRANCH  35  36
HETATM   36  N4  UNL     1     -15.986   5.646  -5.422  1.00  0.00    -0.351 N 
HETATM   37  C15 UNL     1     -17.000   5.874  -4.471  1.00  0.00     0.237 C 
HETATM   38  O3  UNL     1     -18.183   6.017  -4.841  1.00  0.00    -0.272 OA
ATOM     39  H4  UNL     1     -15.021   5.535  -5.109  1.00  0.00     0.163 HD
BRANCH  37  40
HETATM   40  C16 UNL     1     -16.647   5.941  -3.034  1.00  0.00     0.252 C 
BRANCH  40  41
HETATM   41  N5  UNL     1     -17.504   5.112  -2.217  1.00  0.00    -0.278 N 
HETATM   42  C17 UNL     1     -17.072   4.091  -1.461  1.00  0.00     0.201 A 
HETATM   43  N6  UNL     1     -18.159   3.581  -0.866  1.00  0.00    -0.346 N 
HETATM   44  C18 UNL     1     -19.248   4.266  -1.238  1.00  0.00     0.198 A 
ATOM     45  H6  UNL     1     -18.157   2.789  -0.224  1.00  0.00     0.167 HD
HETATM   46  N7  UNL     1     -18.812   5.227  -2.091  1.00  0.00    -0.293 N 
ATOM     47  H7  UNL     1     -19.397   5.922  -2.557  1.00  0.00     0.188 HD
ENDBRANCH  40  41
ENDBRANCH  37  40
ENDBRANCH  35  36
ENDBRANCH  32  35
ENDBRANCH  30  31
ENDBRANCH  29  30
ENDBRANCH  28  29
ENDBRANCH   1  28
BRANCH   2  48
HETATM   48  O4  UNL     1     -19.304   3.271  -4.734  1.00  0.00    -0.288 OA
ATOM     49  H4  UNL     1     -18.827   3.628  -5.473  1.00  0.00     0.244 HD
ENDBRANCH   2  48
TORSDOF 16
ENDMDL
MODEL 4
REMARK VINA RESULT: -8.974269782      2.172      3.784
REMARK  16 active torsions:
REMARK  status: ('A' for Active; 'I' for Inactive)
REMARK    1  A    between atoms: C2_2  and  C3_3 
REMARK    2  A    between atoms: C3_3  and  C4_4 
REMARK    3  A    between atoms: C3_3  and  C6_6 
REMARK    4  A    between atoms: C3_3  and  C21_40 
REMARK    5  A    between atoms: C6_6  and  O1_7 
REMARK    6  A    between atoms: C6_6  and  N1_9 
REMARK    7  A    between atoms: N2_12  and  C9_13 
REMARK    8  A    between atoms: C9_13  and  C10_14 
REMARK    9  A    between atoms: C10_14  and  C11_15 
REMARK   10  A    between atoms: C11_15  and  C12_16 
REMARK   11  A    between atoms: C12_16  and  N3_17 
REMARK       I    between atoms: N3_17  and  C13_19 
REMARK   12  A    between atoms: C13_19  and  C14_21 
REMARK   13  A    between atoms: C14_21  and  N4_22 
REMARK       I    between atoms: N4_22  and  C15_24 
REMARK   14  A    between atoms: C15_24  and  C16_26 
REMARK   15  A    between atoms: C16_26  and  N5_27 
REMARK   16  A    between atoms: N8_34  and  O4_36 
ROOT
HETATM    1  C9  UNL     1     -17.923   1.296  -2.975  1.00  0.00     0.099 C 
HETATM    2  N8  UNL     1     -18.932   2.089  -3.083  1.00  0.00    -0.257 N 
ATOM      3  H8  UNL     1     -19.494   2.255  -2.248  1.00  0.00     0.195 HD
ENDROOT
BRANCH   1   4
HETATM    4  N2  UNL     1     -17.642   0.699  -1.716  1.00  0.00    -0.366 N 
HETATM    5  C8  UNL     1     -18.125  -0.655  -1.444  1.00  0.00     0.144 C 
HETATM    6  C7  UNL     1     -17.750  -1.109  -0.060  1.00  0.00     0.144 C 
HETATM    7  N1  UNL     1     -18.066  -0.092   0.946  1.00  0.00    -0.361 N 
HETATM    8  C20 UNL     1     -17.754   1.253   0.600  1.00  0.00     0.144 C 
HETATM    9  C19 UNL     1     -16.902   1.338  -0.666  1.00  0.00     0.144 C 
BRANCH   7  10
HETATM   10  C6  UNL     1     -18.666  -0.500   2.130  1.00  0.00     0.127 C 
BRANCH  10  11
HETATM   11  C3  UNL     1     -18.103  -0.845   3.427  1.00  0.00     0.051 C 
BRANCH  11  12
HETATM   12  C2  UNL     1     -18.610  -0.046   4.566  1.00  0.00     0.018 C 
HETATM   13  C1  UNL     1     -18.664   1.431   4.233  1.00  0.00     0.006 C 
ENDBRANCH  11  12
BRANCH  11  14
HETATM   14  C4  UNL     1     -16.572  -0.640   3.362  1.00  0.00     0.018 C 
HETATM   15  C5  UNL     1     -15.974  -0.675   4.755  1.00  0.00     0.006 C 
ENDBRANCH  11  14
BRANCH  11  16
HETATM   16  C21 UNL     1     -18.248  -2.317   3.755  1.00  0.00    -0.041 A 
HETATM   17  C22 UNL     1     -18.905  -2.715   4.919  1.00  0.00     0.009 A 
HETATM   18  C23 UNL     1     -19.061  -4.046   5.268  1.00  0.00     0.008 A 
HETATM   19  C24 UNL     1     -18.572  -5.032   4.476  1.00  0.00    -0.052 A 
HETATM   20  C25 UNL     1     -17.926  -4.671   3.328  1.00  0.00    -0.051 A 
HETATM   21  C30 UNL     1     -18.703  -6.484   4.787  1.00  0.00     0.039 C 
HETATM   22  C26 UNL     1     -17.764  -3.322   2.967  1.00  0.00     0.016 A 
HETATM   23  C27 UNL     1     -17.391  -5.733   2.457  1.00  0.00     0.039 C 
HETATM   24  C28 UNL     1     -16.653  -6.709   3.346  1.00  0.00     0.005 C 
HETATM   25  C29 UNL     1     -17.493  -7.283   4.435  1.00  0.00     0.005 C 
ENDBRANCH  11  16
ENDBRANCH  10  11
BRANCH  10  26
HETATM   26  O1  UNL     1     -19.962  -0.586   2.063  1.00  0.00    -0.349 OA
ATOM     27  H1  UNL     1     -20.288  -1.042   1.296  1.00  0.00     0.219 HD
ENDBRANCH  10  26
ENDBRANCH   7  10
ENDBRANCH   1   4
BRANCH   1  28
HETATM   28  C10 UNL     1     -17.110   1.053  -4.172  1.00  0.00     0.080 C 
BRANCH  28  29
HETATM   29  C11 UNL     1     -17.764  -0.074  -4.950  1.00  0.00     0.027 C 
BRANCH  29  30
HETATM   30  C12 UNL     1     -17.774   0.297  -6.424  1.00  0.00     0.123 C 
BRANCH  30  31
HETATM   31  N3  UNL     1     -17.376   1.676  -6.607  1.00  0.00    -0.360 N 
HETATM   32  C13 UNL     1     -18.138   2.541  -7.416  1.00  0.00     0.235 C 
HETATM   33  O2  UNL     1     -19.180   2.074  -7.977  1.00  0.00    -0.272 OA
ATOM     34  H3  UNL     1     -16.536   2.025  -6.146  1.00  0.00     0.162 HD
BRANCH  32  35
HETATM   35  C14 UNL     1     -17.693   3.935  -7.571  1.00  0.00     0.225 C 
BRANCH  35  36
HETATM   36  N4  UNL     1     -16.965   4.410  -6.435  1.00  0.00    -0.351 N 
HETATM   37  C15 UNL     1     -17.591   5.198  -5.449  1.00  0.00     0.237 C 
HETATM   38  O3  UNL     1     -18.797   5.497  -5.561  1.00  0.00    -0.272 OA
ATOM     39  H4  UNL     1     -15.977   4.175  -6.337  1.00  0.00     0.163 HD
BRANCH  37  40
HETATM   40  C16 UNL     1     -16.804   5.663  -4.284  1.00  0.00     0.252 C 
BRANCH  40  41
HETATM   41  N5  UNL     1     -17.462   5.381  -3.027  1.00  0.00    -0.278 N 
HETATM   42  C17 UNL     1     -16.843   4.892  -1.942  1.00  0.00     0.201 A 
HETATM   43  N6  UNL     1     -17.787   4.773  -0.997  1.00  0.00    -0.346 N 
HETATM   44  C18 UNL     1     -18.969   5.177  -1.477  1.00  0.00     0.198 A 
ATOM     45  H6  UNL     1     -17.626   4.425  -0.052  1.00  0.00     0.167 HD
HETATM   46  N7  UNL     1     -18.742   5.556  -2.760  1.00  0.00    -0.293 N 
ATOM     47  H7  UNL     1     -19.443   5.917  -3.409  1.00  0.00     0.188 HD
ENDBRANCH  40  41
ENDBRANCH  37  40
ENDBRANCH  35  36
ENDBRANCH  32  35
ENDBRANCH  30  31
ENDBRANCH  29  30
ENDBRANCH  28  29
ENDBRANCH   1  28
BRANCH   2  48
HETATM   48  O4  UNL     1     -19.303   2.717  -4.222  1.00  0.00    -0.288 OA
ATOM     49  H4  UNL     1     -20.012   2.438  -4.789  1.00  0.00     0.244 HD
ENDBRANCH   2  48
TORSDOF 16
ENDMDL
MODEL 5
REMARK VINA RESULT: -8.941086620      3.528     10.438
REMARK  16 active torsions:
REMARK  status: ('A' for Active; 'I' for Inactive)
REMARK    1  A    between atoms: C2_2  and  C3_3 
REMARK    2  A    between atoms: C3_3  and  C4_4 
REMARK    3  A    between atoms: C3_3  and  C6_6 
REMARK    4  A    between atoms: C3_3  and  C21_40 
REMARK    5  A    between atoms: C6_6  and  O1_7 
REMARK    6  A    between atoms: C6_6  and  N1_9 
REMARK    7  A    between atoms: N2_12  and  C9_13 
REMARK    8  A    between atoms: C9_13  and  C10_14 
REMARK    9  A    between atoms: C10_14  and  C11_15 
REMARK   10  A    between atoms: C11_15  and  C12_16 
REMARK   11  A    between atoms: C12_16  and  N3_17 
REMARK       I    between atoms: N3_17  and  C13_19 
REMARK   12  A    between atoms: C13_19  and  C14_21 
REMARK   13  A    between atoms: C14_21  and  N4_22 
REMARK       I    between atoms: N4_22  and  C15_24 
REMARK   14  A    between atoms: C15_24  and  C16_26 
REMARK   15  A    between atoms: C16_26  and  N5_27 
REMARK   16  A    between atoms: N8_34  and  O4_36 
ROOT
HETATM    1  C9  UNL     1     -18.523  -0.931   3.834  1.00  0.00     0.099 C 
HETATM    2  N8  UNL     1     -18.876  -2.066   3.337  1.00  0.00    -0.257 N 
ATOM      3  H8  UNL     1     -18.887  -2.153   2.321  1.00  0.00     0.195 HD
ENDROOT
BRANCH   1   4
HETATM    4  N2  UNL     1     -18.170   0.130   2.956  1.00  0.00    -0.366 N 
HETATM    5  C8  UNL     1     -18.904   1.394   3.032  1.00  0.00     0.144 C 
HETATM    6  C7  UNL     1     -18.404   2.386   2.018  1.00  0.00     0.144 C 
HETATM    7  N1  UNL     1     -18.282   1.784   0.688  1.00  0.00    -0.361 N 
HETATM    8  C20 UNL     1     -17.727   0.474   0.639  1.00  0.00     0.144 C 
HETATM    9  C19 UNL     1     -17.123   0.055   1.979  1.00  0.00     0.144 C 
BRANCH   7  10
HETATM   10  C6  UNL     1     -18.739   2.506  -0.407  1.00  0.00     0.127 C 
BRANCH  10  11
HETATM   11  C3  UNL     1     -18.031   3.295  -1.404  1.00  0.00     0.051 C 
BRANCH  11  12
HETATM   12  C2  UNL     1     -16.741   3.867  -0.954  1.00  0.00     0.018 C 
HETATM   13  C1  UNL     1     -16.924   4.806   0.221  1.00  0.00     0.006 C 
ENDBRANCH  11  12
BRANCH  11  14
HETATM   14  C4  UNL     1     -18.938   4.474  -1.826  1.00  0.00     0.018 C 
HETATM   15  C5  UNL     1     -18.140   5.505  -2.600  1.00  0.00     0.006 C 
ENDBRANCH  11  14
BRANCH  11  16
HETATM   16  C21 UNL     1     -17.809   2.539  -2.698  1.00  0.00    -0.041 A 
HETATM   17  C22 UNL     1     -16.914   1.471  -2.743  1.00  0.00     0.009 A 
HETATM   18  C23 UNL     1     -16.672   0.751  -3.900  1.00  0.00     0.008 A 
HETATM   19  C24 UNL     1     -17.307   1.062  -5.057  1.00  0.00    -0.052 A 
HETATM   20  C25 UNL     1     -18.191   2.104  -5.041  1.00  0.00    -0.051 A 
HETATM   21  C30 UNL     1     -17.096   0.333  -6.340  1.00  0.00     0.039 C 
HETATM   22  C26 UNL     1     -18.443   2.840  -3.871  1.00  0.00     0.016 A 
HETATM   23  C27 UNL     1     -18.890   2.453  -6.292  1.00  0.00     0.039 C 
HETATM   24  C28 UNL     1     -17.848   2.492  -7.388  1.00  0.00     0.005 C 
HETATM   25  C29 UNL     1     -17.087   1.220  -7.539  1.00  0.00     0.005 C 
ENDBRANCH  11  16
ENDBRANCH  10  11
BRANCH  10  26
HETATM   26  O1  UNL     1     -20.029   2.465  -0.566  1.00  0.00    -0.349 OA
ATOM     27  H1  UNL     1     -20.505   3.154  -0.117  1.00  0.00     0.219 HD
ENDBRANCH  10  26
ENDBRANCH   7  10
ENDBRANCH   1   4
BRANCH   1  28
HETATM   28  C10 UNL     1     -18.504  -0.798   5.295  1.00  0.00     0.080 C 
BRANCH  28  29
HETATM   29  C11 UNL     1     -17.061  -0.596   5.718  1.00  0.00     0.027 C 
BRANCH  29  30
HETATM   30  C12 UNL     1     -16.686  -1.694   6.701  1.00  0.00     0.123 C 
BRANCH  30  31
HETATM   31  N3  UNL     1     -16.653  -2.981   6.040  1.00  0.00    -0.360 N 
HETATM   32  C13 UNL     1     -17.230  -4.114   6.646  1.00  0.00     0.235 C 
HETATM   33  O2  UNL     1     -17.778  -3.970   7.785  1.00  0.00    -0.272 OA
ATOM     34  H3  UNL     1     -16.207  -3.069   5.127  1.00  0.00     0.162 HD
BRANCH  32  35
HETATM   35  C14 UNL     1     -17.170  -5.401   5.935  1.00  0.00     0.225 C 
BRANCH  35  36
HETATM   36  N4  UNL     1     -16.637  -5.275   4.613  1.00  0.00    -0.351 N 
HETATM   37  C15 UNL     1     -17.372  -5.703   3.490  1.00  0.00     0.237 C 
HETATM   38  O3  UNL     1     -18.504  -6.208   3.639  1.00  0.00    -0.272 OA
ATOM     39  H4  UNL     1     -15.711  -4.868   4.481  1.00  0.00     0.163 HD
BRANCH  37  40
HETATM   40  C16 UNL     1     -16.789  -5.548   2.138  1.00  0.00     0.252 C 
BRANCH  40  41
HETATM   41  N5  UNL     1     -17.565  -4.660   1.302  1.00  0.00    -0.278 N 
HETATM   42  C17 UNL     1     -17.043  -3.679   0.549  1.00  0.00     0.201 A 
HETATM   43  N6  UNL     1     -18.077  -3.091  -0.068  1.00  0.00    -0.346 N 
HETATM   44  C18 UNL     1     -19.222  -3.688   0.288  1.00  0.00     0.198 A 
ATOM     45  H6  UNL     1     -18.003  -2.306  -0.713  1.00  0.00     0.167 HD
HETATM   46  N7  UNL     1     -18.876  -4.674   1.154  1.00  0.00    -0.293 N 
ATOM     47  H7  UNL     1     -19.521  -5.318   1.612  1.00  0.00     0.188 HD
ENDBRANCH  40  41
ENDBRANCH  37  40
ENDBRANCH  35  36
ENDBRANCH  32  35
ENDBRANCH  30  31
ENDBRANCH  29  30
ENDBRANCH  28  29
ENDBRANCH   1  28
BRANCH   2  48
HETATM   48  O4  UNL     1     -19.233  -3.149   4.063  1.00  0.00    -0.288 OA
ATOM     49  H4  UNL     1     -19.088  -4.050   3.800  1.00  0.00     0.244 HD
ENDBRANCH   2  48
TORSDOF 16
ENDMDL
