MODEL 1
REMARK VINA RESULT: -8.312637668      0.000      0.000
REMARK  14 active torsions:
REMARK  status: ('A' for Active; 'I' for Inactive)
REMARK    1  A    between atoms: C2_2  and  C3_3 
REMARK    2  A    between atoms: C2_2  and  C5_5 
REMARK       I    between atoms: C5_5  and  N1_7 
REMARK    3  A    between atoms: N1_7  and  C6_9 
REMARK    4  A    between atoms: C6_9  and  C7_10 
REMARK    5  A    between atoms: C7_10  and  C8_11 
REMARK    6  A    between atoms: C7_10  and  C19_24 
REMARK       I    between atoms: C8_11  and  N2_13 
REMARK    7  A    between atoms: C19_24  and  N3_25 
REMARK    8  A    between atoms: C19_24  and  N5_34 
REMARK       I    between atoms: N3_25  and  C20_27 
REMARK    9  A    between atoms: C20_27  and  C21_29 
REMARK   10  A    between atoms: C21_29  and  N4_30 
REMARK       I    between atoms: N5_34  and  C23_36 
REMARK   11  A    between atoms: C23_36  and  O5_38 
REMARK   12  A    between atoms: O5_38  and  C24_39 
REMARK   13  A    between atoms: C24_39  and  C25_40 
REMARK   14  A    between atoms: C25_40  and  C26_41 
ROOT
HETATM    1  C7  UNL     1     -18.777  -0.235  -1.238  1.00  0.00     0.047 C 
ENDROOT
BRANCH   1   2
HETATM    2  C6  UNL     1     -19.628   0.086  -2.415  1.00  0.00     0.167 C 
BRANCH   2   3
HETATM    3  N1  UNL     1     -18.976  -0.199  -3.680  1.00  0.00    -0.353 N 
HETATM    4  C5  UNL     1     -18.589   0.830  -4.567  1.00  0.00     0.247 C 
HETATM    5  O1  UNL     1     -18.836   2.019  -4.230  1.00  0.00    -0.268 OA
ATOM      6  H1  UNL     1     -18.792  -1.169  -3.936  1.00  0.00     0.163 HD
BRANCH   4   7
HETATM    7  C2  UNL     1     -17.927   0.600  -5.834  1.00  0.00    -0.000 C 
HETATM    8  C1  UNL     1     -16.605   0.668  -5.949  1.00  0.00     0.024 C 
BRANCH   7   9
HETATM    9  C3  UNL     1     -18.733   0.263  -7.031  1.00  0.00     0.039 C 
HETATM   10  C4  UNL     1     -17.993   0.629  -8.303  1.00  0.00     0.010 C 
ENDBRANCH   7   9
ENDBRANCH   4   7
ENDBRANCH   2   3
ENDBRANCH   1   2
BRANCH   1  11
HETATM   11  C8  UNL     1     -19.341  -1.182  -0.272  1.00  0.00     0.251 C 
HETATM   12  O2  UNL     1     -20.299  -0.857   0.486  1.00  0.00    -0.268 OA
HETATM   13  N2  UNL     1     -18.872  -2.534  -0.106  1.00  0.00    -0.348 N 
HETATM   14  C9  UNL     1     -17.775  -3.106  -0.850  1.00  0.00     0.126 C 
HETATM   15  C18 UNL     1     -19.502  -3.423   0.845  1.00  0.00     0.135 C 
HETATM   16  C10 UNL     1     -16.711  -3.415   0.217  1.00  0.00     0.021 C 
HETATM   17  C11 UNL     1     -17.257  -4.555   1.024  1.00  0.00     0.012 C 
HETATM   18  C12 UNL     1     -18.586  -4.271   1.651  1.00  0.00    -0.024 C 
HETATM   19  C13 UNL     1     -18.324  -3.681   3.024  1.00  0.00     0.011 C 
HETATM   20  C17 UNL     1     -19.262  -5.612   1.871  1.00  0.00     0.011 C 
HETATM   21  C14 UNL     1     -19.233  -4.241   4.075  1.00  0.00     0.001 C 
HETATM   22  C15 UNL     1     -19.083  -5.722   4.288  1.00  0.00     0.000 C 
HETATM   23  C16 UNL     1     -18.578  -6.358   3.016  1.00  0.00     0.001 C 
ENDBRANCH   1  11
BRANCH   1  24
HETATM   24  C19 UNL     1     -18.013   0.877  -0.602  1.00  0.00     0.228 C 
BRANCH  24  25
HETATM   25  N3  UNL     1     -17.668   1.982  -1.439  1.00  0.00    -0.334 N 
HETATM   26  C20 UNL     1     -17.584   3.347  -1.094  1.00  0.00     0.244 C 
HETATM   27  O3  UNL     1     -17.834   3.685   0.081  1.00  0.00    -0.272 OA
ATOM     28  H3  UNL     1     -17.456   1.755  -2.411  1.00  0.00     0.164 HD
BRANCH  26  29
HETATM   29  C21 UNL     1     -17.215   4.434  -2.029  1.00  0.00     0.332 C 
BRANCH  29  30
HETATM   30  N4  UNL     1     -16.740   3.982  -3.305  1.00  0.00    -0.071 N 
ATOM     31  H43 UNL     1     -16.408   3.020  -3.240  1.00  0.00     0.274 HD
ATOM     32  H42 UNL     1     -17.520   3.856  -3.950  1.00  0.00     0.274 HD
ATOM     33  H41 UNL     1     -16.025   4.578  -3.724  1.00  0.00     0.274 HD
ENDBRANCH  29  30
ENDBRANCH  26  29
ENDBRANCH  24  25
BRANCH  24  34
HETATM   34  N5  UNL     1     -16.912   0.411   0.214  1.00  0.00    -0.307 N 
HETATM   35  C22 UNL     1     -15.655  -0.062  -0.378  1.00  0.00     0.157 C 
HETATM   36  C23 UNL     1     -17.010   0.402   1.613  1.00  0.00     0.364 C 
HETATM   37  O4  UNL     1     -16.051  -0.030   2.317  1.00  0.00    -0.238 OA
BRANCH  36  38
HETATM   38  O5  UNL     1     -18.113   0.840   2.334  1.00  0.00    -0.304 OA
BRANCH  38  39
HETATM   39  C24 UNL     1     -18.654   0.067   3.396  1.00  0.00     0.185 C 
BRANCH  39  40
HETATM   40  C25 UNL     1     -18.442   0.695   4.734  1.00  0.00     0.074 C 
BRANCH  40  41
HETATM   41  C26 UNL     1     -17.818  -0.288   5.689  1.00  0.00     0.001 A 
HETATM   42  C27 UNL     1     -16.679  -1.033   5.489  1.00  0.00     0.102 A 
HETATM   43  N6  UNL     1     -16.305  -1.821   6.447  1.00  0.00    -0.368 N 
HETATM   44  C28 UNL     1     -17.012  -1.883   7.564  1.00  0.00     0.138 A 
ATOM     45  H6  UNL     1     -15.467  -2.392   6.341  1.00  0.00     0.165 HD
HETATM   46  S1  UNL     1     -18.276  -0.776   7.256  1.00  0.00    -0.088 SA
ENDBRANCH  40  41
ENDBRANCH  39  40
ENDBRANCH  38  39
ENDBRANCH  36  38
ENDBRANCH  24  34
ENDBRANCH   1  24
TORSDOF 14
ENDMDL
MODEL 2
REMARK VINA RESULT: -8.245005047      1.921      7.150
REMARK  14 active torsions:
REMARK  status: ('A' for Active; 'I' for Inactive)
REMARK    1  A    between atoms: C2_2  and  C3_3 
REMARK    2  A    between atoms: C2_2  and  C5_5 
REMARK       I    between atoms: C5_5  and  N1_7 
REMARK    3  A    between atoms: N1_7  and  C6_9 
REMARK    4  A    between atoms: C6_9  and  C7_10 
REMARK    5  A    between atoms: C7_10  and  C8_11 
REMARK    6  A    between atoms: C7_10  and  C19_24 
REMARK       I    between atoms: C8_11  and  N2_13 
REMARK    7  A    between atoms: C19_24  and  N3_25 
REMARK    8  A    between atoms: C19_24  and  N5_34 
REMARK       I    between atoms: N3_25  and  C20_27 
REMARK    9  A    between atoms: C20_27  and  C21_29 
REMARK   10  A    between atoms: C21_29  and  N4_30 
REMARK       I    between atoms: N5_34  and  C23_36 
REMARK   11  A    between atoms: C23_36  and  O5_38 
REMARK   12  A    between atoms: O5_38  and  C24_39 
REMARK   13  A    between atoms: C24_39  and  C25_40 
REMARK   14  A    between atoms: C25_40  and  C26_41 
ROOT
HETATM    1  C7  UNL     1     -17.603   0.667  -2.441  1.00  0.00     0.047 C 
ENDROOT
BRANCH   1   2
HETATM    2  C6  UNL     1     -16.629  -0.367  -2.000  1.00  0.00     0.167 C 
BRANCH   2   3
HETATM    3  N1  UNL     1     -17.217  -1.691  -1.898  1.00  0.00    -0.353 N 
HETATM    4  C5  UNL     1     -17.035  -2.501  -0.756  1.00  0.00     0.247 C 
HETATM    5  O1  UNL     1     -16.332  -2.041   0.184  1.00  0.00    -0.268 OA
ATOM      6  H1  UNL     1     -17.776  -2.047  -2.674  1.00  0.00     0.163 HD
BRANCH   4   7
HETATM    7  C2  UNL     1     -17.607  -3.822  -0.601  1.00  0.00    -0.000 C 
HETATM    8  C1  UNL     1     -17.044  -4.891  -1.154  1.00  0.00     0.024 C 
BRANCH   7   9
HETATM    9  C3  UNL     1     -18.838  -3.997   0.204  1.00  0.00     0.039 C 
HETATM   10  C4  UNL     1     -18.525  -4.635   1.544  1.00  0.00     0.010 C 
ENDBRANCH   7   9
ENDBRANCH   4   7
ENDBRANCH   2   3
ENDBRANCH   1   2
BRANCH   1  11
HETATM   11  C8  UNL     1     -17.232   1.439  -3.630  1.00  0.00     0.251 C 
HETATM   12  O2  UNL     1     -16.841   2.639  -3.540  1.00  0.00    -0.268 OA
HETATM   13  N2  UNL     1     -17.271   0.915  -4.971  1.00  0.00    -0.348 N 
HETATM   14  C9  UNL     1     -17.707  -0.419  -5.305  1.00  0.00     0.126 C 
HETATM   15  C18 UNL     1     -16.856   1.727  -6.094  1.00  0.00     0.135 C 
HETATM   16  C10 UNL     1     -18.964  -0.206  -6.166  1.00  0.00     0.021 C 
HETATM   17  C11 UNL     1     -18.479   0.370  -7.463  1.00  0.00     0.012 C 
HETATM   18  C12 UNL     1     -17.706   1.642  -7.310  1.00  0.00    -0.024 C 
HETATM   19  C13 UNL     1     -18.695   2.789  -7.395  1.00  0.00     0.011 C 
HETATM   20  C17 UNL     1     -16.800   1.753  -8.523  1.00  0.00     0.011 C 
HETATM   21  C14 UNL     1     -18.190   3.925  -8.231  1.00  0.00     0.001 C 
HETATM   22  C15 UNL     1     -17.938   3.564  -9.668  1.00  0.00     0.000 C 
HETATM   23  C16 UNL     1     -17.628   2.090  -9.762  1.00  0.00     0.001 C 
ENDBRANCH   1  11
BRANCH   1  24
HETATM   24  C19 UNL     1     -18.281   1.483  -1.392  1.00  0.00     0.228 C 
BRANCH  24  25
HETATM   25  N3  UNL     1     -17.438   2.226  -0.509  1.00  0.00    -0.334 N 
HETATM   26  C20 UNL     1     -17.484   3.603  -0.209  1.00  0.00     0.244 C 
HETATM   27  O3  UNL     1     -18.354   4.308  -0.761  1.00  0.00    -0.272 OA
ATOM     28  H3  UNL     1     -16.709   1.692  -0.036  1.00  0.00     0.164 HD
BRANCH  26  29
HETATM   29  C21 UNL     1     -16.568   4.296   0.725  1.00  0.00     0.332 C 
BRANCH  29  30
HETATM   30  N4  UNL     1     -16.984   5.620   1.088  1.00  0.00    -0.071 N 
ATOM     31  H43 UNL     1     -17.159   6.180   0.254  1.00  0.00     0.274 HD
ATOM     32  H42 UNL     1     -17.923   5.601   1.487  1.00  0.00     0.274 HD
ATOM     33  H41 UNL     1     -16.341   6.106   1.715  1.00  0.00     0.274 HD
ENDBRANCH  29  30
ENDBRANCH  26  29
ENDBRANCH  24  25
BRANCH  24  34
HETATM   34  N5  UNL     1     -19.331   0.761  -0.708  1.00  0.00    -0.307 N 
HETATM   35  C22 UNL     1     -20.646   0.540  -1.321  1.00  0.00     0.157 C 
HETATM   36  C23 UNL     1     -19.123   0.237   0.576  1.00  0.00     0.364 C 
HETATM   37  O4  UNL     1     -20.056  -0.371   1.177  1.00  0.00    -0.238 OA
BRANCH  36  38
HETATM   38  O5  UNL     1     -17.934   0.331   1.288  1.00  0.00    -0.304 OA
BRANCH  38  39
HETATM   39  C24 UNL     1     -17.929   0.469   2.702  1.00  0.00     0.185 C 
BRANCH  39  40
HETATM   40  C25 UNL     1     -17.333  -0.712   3.395  1.00  0.00     0.074 C 
BRANCH  40  41
HETATM   41  C26 UNL     1     -17.894  -0.850   4.786  1.00  0.00     0.001 A 
HETATM   42  C27 UNL     1     -18.486   0.132   5.546  1.00  0.00     0.102 A 
HETATM   43  N6  UNL     1     -18.911  -0.199   6.724  1.00  0.00    -0.368 N 
HETATM   44  C28 UNL     1     -18.769  -1.443   7.151  1.00  0.00     0.138 A 
ATOM     45  H6  UNL     1     -19.355   0.498   7.321  1.00  0.00     0.165 HD
HETATM   46  S1  UNL     1     -17.992  -2.196   5.828  1.00  0.00    -0.088 SA
ENDBRANCH  40  41
ENDBRANCH  39  40
ENDBRANCH  38  39
ENDBRANCH  36  38
ENDBRANCH  24  34
ENDBRANCH   1  24
TORSDOF 14
ENDMDL
MODEL 3
REMARK VINA RESULT: -8.163491994      3.192      9.209
REMARK  14 active torsions:
REMARK  status: ('A' for Active; 'I' for Inactive)
REMARK    1  A    between atoms: C2_2  and  C3_3 
REMARK    2  A    between atoms: C2_2  and  C5_5 
REMARK       I    between atoms: C5_5  and  N1_7 
REMARK    3  A    between atoms: N1_7  and  C6_9 
REMARK    4  A    between atoms: C6_9  and  C7_10 
REMARK    5  A    between atoms: C7_10  and  C8_11 
REMARK    6  A    between atoms: C7_10  and  C19_24 
REMARK       I    between atoms: C8_11  and  N2_13 
REMARK    7  A    between atoms: C19_24  and  N3_25 
REMARK    8  A    between atoms: C19_24  and  N5_34 
REMARK       I    between atoms: N3_25  and  C20_27 
REMARK    9  A    between atoms: C20_27  and  C21_29 
REMARK   10  A    between atoms: C21_29  and  N4_30 
REMARK       I    between atoms: N5_34  and  C23_36 
REMARK   11  A    between atoms: C23_36  and  O5_38 
REMARK   12  A    between atoms: O5_38  and  C24_39 
REMARK   13  A    between atoms: C24_39  and  C25_40 
REMARK   14  A    between atoms: C25_40  and  C26_41 
ROOT
HETATM    1  C7  UNL     1     -17.879  -2.534   1.974  1.00  0.00     0.047 C 
ENDROOT
BRANCH   1   2
HETATM    2  C6  UNL     1     -17.591  -3.045   3.342  1.00  0.00     0.167 C 
BRANCH   2   3
HETATM    3  N1  UNL     1     -17.672  -2.013   4.360  1.00  0.00    -0.353 N 
HETATM    4  C5  UNL     1     -18.545  -2.124   5.464  1.00  0.00     0.247 C 
HETATM    5  O1  UNL     1     -19.270  -3.151   5.539  1.00  0.00    -0.268 OA
ATOM      6  H1  UNL     1     -17.081  -1.186   4.276  1.00  0.00     0.163 HD
BRANCH   4   7
HETATM    7  C2  UNL     1     -18.656  -1.129   6.511  1.00  0.00    -0.000 C 
HETATM    8  C1  UNL     1     -18.781   0.163   6.230  1.00  0.00     0.024 C 
BRANCH   7   9
HETATM    9  C3  UNL     1     -18.645  -1.555   7.930  1.00  0.00     0.039 C 
HETATM   10  C4  UNL     1     -17.495  -0.912   8.681  1.00  0.00     0.010 C 
ENDBRANCH   7   9
ENDBRANCH   4   7
ENDBRANCH   2   3
ENDBRANCH   1   2
BRANCH   1  11
HETATM   11  C8  UNL     1     -18.337  -1.145   1.886  1.00  0.00     0.251 C 
HETATM   12  O2  UNL     1     -19.491  -0.807   2.278  1.00  0.00    -0.268 OA
HETATM   13  N2  UNL     1     -17.536  -0.067   1.366  1.00  0.00    -0.348 N 
HETATM   14  C9  UNL     1     -16.200  -0.231   0.845  1.00  0.00     0.126 C 
HETATM   15  C18 UNL     1     -18.044   1.287   1.343  1.00  0.00     0.135 C 
HETATM   16  C10 UNL     1     -16.320   0.155  -0.639  1.00  0.00     0.021 C 
HETATM   17  C11 UNL     1     -16.554   1.636  -0.659  1.00  0.00     0.012 C 
HETATM   18  C12 UNL     1     -17.763   2.068   0.112  1.00  0.00    -0.024 C 
HETATM   19  C13 UNL     1     -18.938   2.065  -0.847  1.00  0.00     0.011 C 
HETATM   20  C17 UNL     1     -17.529   3.513   0.517  1.00  0.00     0.011 C 
HETATM   21  C14 UNL     1     -19.818   3.267  -0.683  1.00  0.00     0.001 C 
HETATM   22  C15 UNL     1     -19.129   4.573  -0.967  1.00  0.00     0.000 C 
HETATM   23  C16 UNL     1     -17.651   4.422  -0.705  1.00  0.00     0.001 C 
ENDBRANCH   1  11
BRANCH   1  24
HETATM   24  C19 UNL     1     -18.566  -3.448   1.016  1.00  0.00     0.228 C 
BRANCH  24  25
HETATM   25  N3  UNL     1     -19.444  -4.426   1.577  1.00  0.00    -0.334 N 
HETATM   26  C20 UNL     1     -19.115  -5.539   2.379  1.00  0.00     0.244 C 
HETATM   27  O3  UNL     1     -17.916  -5.740   2.662  1.00  0.00    -0.272 OA
ATOM     28  H3  UNL     1     -20.436  -4.304   1.371  1.00  0.00     0.164 HD
BRANCH  26  29
HETATM   29  C21 UNL     1     -20.093  -6.507   2.924  1.00  0.00     0.332 C 
BRANCH  29  30
HETATM   30  N4  UNL     1     -20.998  -5.955   3.890  1.00  0.00    -0.071 N 
ATOM     31  H43 UNL     1     -20.890  -4.942   3.939  1.00  0.00     0.274 HD
ATOM     32  H42 UNL     1     -21.958  -6.013   3.552  1.00  0.00     0.274 HD
ATOM     33  H41 UNL     1     -20.922  -6.367   4.821  1.00  0.00     0.274 HD
ENDBRANCH  29  30
ENDBRANCH  26  29
ENDBRANCH  24  25
BRANCH  24  34
HETATM   34  N5  UNL     1     -17.675  -3.987   0.013  1.00  0.00    -0.307 N 
HETATM   35  C22 UNL     1     -16.732  -5.071   0.314  1.00  0.00     0.157 C 
HETATM   36  C23 UNL     1     -17.688  -3.490  -1.299  1.00  0.00     0.364 C 
HETATM   37  O4  UNL     1     -16.887  -3.951  -2.164  1.00  0.00    -0.238 OA
BRANCH  36  38
HETATM   38  O5  UNL     1     -18.533  -2.489  -1.760  1.00  0.00    -0.304 OA
BRANCH  38  39
HETATM   39  C24 UNL     1     -18.504  -2.066  -3.116  1.00  0.00     0.185 C 
BRANCH  39  40
HETATM   40  C25 UNL     1     -18.825  -0.617  -3.275  1.00  0.00     0.074 C 
BRANCH  40  41
HETATM   41  C26 UNL     1     -17.997  -0.008  -4.377  1.00  0.00     0.001 A 
HETATM   42  C27 UNL     1     -16.813   0.678  -4.245  1.00  0.00     0.102 A 
HETATM   43  N6  UNL     1     -16.254   1.119  -5.328  1.00  0.00    -0.368 N 
HETATM   44  C28 UNL     1     -16.825   0.899  -6.501  1.00  0.00     0.138 A 
ATOM     45  H6  UNL     1     -15.375   1.633  -5.276  1.00  0.00     0.165 HD
HETATM   46  S1  UNL     1     -18.228   0.027  -6.066  1.00  0.00    -0.088 SA
ENDBRANCH  40  41
ENDBRANCH  39  40
ENDBRANCH  38  39
ENDBRANCH  36  38
ENDBRANCH  24  34
ENDBRANCH   1  24
TORSDOF 14
ENDMDL
MODEL 4
REMARK VINA RESULT: -7.970860140      3.190      9.387
REMARK  14 active torsions:
REMARK  status: ('A' for Active; 'I' for Inactive)
REMARK    1  A    between atoms: C2_2  and  C3_3 
REMARK    2  A    between atoms: C2_2  and  C5_5 
REMARK       I    between atoms: C5_5  and  N1_7 
REMARK    3  A    between atoms: N1_7  and  C6_9 
REMARK    4  A    between atoms: C6_9  and  C7_10 
REMARK    5  A    between atoms: C7_10  and  C8_11 
REMARK    6  A    between atoms: C7_10  and  C19_24 
REMARK       I    between atoms: C8_11  and  N2_13 
REMARK    7  A    between atoms: C19_24  and  N3_25 
REMARK    8  A    between atoms: C19_24  and  N5_34 
REMARK       I    between atoms: N3_25  and  C20_27 
REMARK    9  A    between atoms: C20_27  and  C21_29 
REMARK   10  A    between atoms: C21_29  and  N4_30 
REMARK       I    between atoms: N5_34  and  C23_36 
REMARK   11  A    between atoms: C23_36  and  O5_38 
REMARK   12  A    between atoms: O5_38  and  C24_39 
REMARK   13  A    between atoms: C24_39  and  C25_40 
REMARK   14  A    between atoms: C25_40  and  C26_41 
ROOT
HETATM    1  C7  UNL     1     -18.800  -0.051   0.934  1.00  0.00     0.047 C 
ENDROOT
BRANCH   1   2
HETATM    2  C6  UNL     1     -19.699  -0.364   2.078  1.00  0.00     0.167 C 
BRANCH   2   3
HETATM    3  N1  UNL     1     -19.122  -0.015   3.364  1.00  0.00    -0.353 N 
HETATM    4  C5  UNL     1     -18.595  -0.994   4.234  1.00  0.00     0.247 C 
HETATM    5  O1  UNL     1     -18.647  -2.197   3.865  1.00  0.00    -0.268 OA
ATOM      6  H1  UNL     1     -19.096   0.965   3.646  1.00  0.00     0.163 HD
BRANCH   4   7
HETATM    7  C2  UNL     1     -18.000  -0.697   5.521  1.00  0.00    -0.000 C 
HETATM    8  C1  UNL     1     -16.683  -0.599   5.670  1.00  0.00     0.024 C 
BRANCH   7   9
HETATM    9  C3  UNL     1     -18.871  -0.479   6.698  1.00  0.00     0.039 C 
HETATM   10  C4  UNL     1     -18.128  -0.776   7.986  1.00  0.00     0.010 C 
ENDBRANCH   7   9
ENDBRANCH   4   7
ENDBRANCH   2   3
ENDBRANCH   1   2
BRANCH   1  11
HETATM   11  C8  UNL     1     -19.304   0.927  -0.034  1.00  0.00     0.251 C 
HETATM   12  O2  UNL     1     -20.263   0.651  -0.810  1.00  0.00    -0.268 OA
HETATM   13  N2  UNL     1     -18.769   2.256  -0.183  1.00  0.00    -0.348 N 
HETATM   14  C9  UNL     1     -17.659   2.772   0.583  1.00  0.00     0.126 C 
HETATM   15  C18 UNL     1     -19.342   3.180  -1.137  1.00  0.00     0.135 C 
HETATM   16  C10 UNL     1     -16.565   3.037  -0.465  1.00  0.00     0.021 C 
HETATM   17  C11 UNL     1     -17.044   4.207  -1.272  1.00  0.00     0.012 C 
HETATM   18  C12 UNL     1     -18.374   3.989  -1.923  1.00  0.00    -0.024 C 
HETATM   19  C13 UNL     1     -18.117   3.396  -3.295  1.00  0.00     0.011 C 
HETATM   20  C17 UNL     1     -18.982   5.362  -2.144  1.00  0.00     0.011 C 
HETATM   21  C14 UNL     1     -18.981   4.005  -4.357  1.00  0.00     0.001 C 
HETATM   22  C15 UNL     1     -18.758   5.478  -4.557  1.00  0.00     0.000 C 
HETATM   23  C16 UNL     1     -18.246   6.082  -3.273  1.00  0.00     0.001 C 
ENDBRANCH   1  11
BRANCH   1  24
HETATM   24  C19 UNL     1     -18.050  -1.177   0.305  1.00  0.00     0.228 C 
BRANCH  24  25
HETATM   25  N3  UNL     1     -17.728  -2.285   1.148  1.00  0.00    -0.334 N 
HETATM   26  C20 UNL     1     -17.633  -3.649   0.799  1.00  0.00     0.244 C 
HETATM   27  O3  UNL     1     -17.849  -3.982  -0.385  1.00  0.00    -0.272 OA
ATOM     28  H3  UNL     1     -17.544  -2.063   2.126  1.00  0.00     0.164 HD
BRANCH  26  29
HETATM   29  C21 UNL     1     -17.289  -4.740   1.739  1.00  0.00     0.332 C 
BRANCH  29  30
HETATM   30  N4  UNL     1     -16.644  -4.303   2.943  1.00  0.00    -0.071 N 
ATOM     31  H43 UNL     1     -15.688  -4.656   2.983  1.00  0.00     0.274 HD
ATOM     32  H42 UNL     1     -16.458  -3.300   2.904  1.00  0.00     0.274 HD
ATOM     33  H41 UNL     1     -17.146  -4.538   3.800  1.00  0.00     0.274 HD
ENDBRANCH  29  30
ENDBRANCH  26  29
ENDBRANCH  24  25
BRANCH  24  34
HETATM   34  N5  UNL     1     -16.937  -0.730  -0.504  1.00  0.00    -0.307 N 
HETATM   35  C22 UNL     1     -15.674  -0.284   0.094  1.00  0.00     0.157 C 
HETATM   36  C23 UNL     1     -17.029  -0.716  -1.903  1.00  0.00     0.364 C 
HETATM   37  O4  UNL     1     -16.059  -0.300  -2.602  1.00  0.00    -0.238 OA
BRANCH  36  38
HETATM   38  O5  UNL     1     -18.137  -1.130  -2.631  1.00  0.00    -0.304 OA
BRANCH  38  39
HETATM   39  C24 UNL     1     -18.695  -0.317  -3.653  1.00  0.00     0.185 C 
BRANCH  39  40
HETATM   40  C25 UNL     1     -18.467  -0.871  -5.021  1.00  0.00     0.074 C 
BRANCH  40  41
HETATM   41  C26 UNL     1     -17.870   0.175  -5.925  1.00  0.00     0.001 A 
HETATM   42  C27 UNL     1     -16.638   0.774  -5.803  1.00  0.00     0.102 A 
HETATM   43  N6  UNL     1     -16.310   1.652  -6.698  1.00  0.00    -0.368 N 
HETATM   44  C28 UNL     1     -17.149   1.937  -7.681  1.00  0.00     0.138 A 
ATOM     45  H6  UNL     1     -15.406   2.122  -6.645  1.00  0.00     0.165 HD
HETATM   46  S1  UNL     1     -18.477   0.920  -7.333  1.00  0.00    -0.088 SA
ENDBRANCH  40  41
ENDBRANCH  39  40
ENDBRANCH  38  39
ENDBRANCH  36  38
ENDBRANCH  24  34
ENDBRANCH   1  24
TORSDOF 14
ENDMDL
MODEL 5
REMARK VINA RESULT: -7.927084460      1.921      6.697
REMARK  14 active torsions:
REMARK  status: ('A' for Active; 'I' for Inactive)
REMARK    1  A    between atoms: C2_2  and  C3_3 
REMARK    2  A    between atoms: C2_2  and  C5_5 
REMARK       I    between atoms: C5_5  and  N1_7 
REMARK    3  A    between atoms: N1_7  and  C6_9 
REMARK    4  A    between atoms: C6_9  and  C7_10 
REMARK    5  A    between atoms: C7_10  and  C8_11 
REMARK    6  A    between atoms: C7_10  and  C19_24 
REMARK       I    between atoms: C8_11  and  N2_13 
REMARK    7  A    between atoms: C19_24  and  N3_25 
REMARK    8  A    between atoms: C19_24  and  N5_34 
REMARK       I    between atoms: N3_25  and  C20_27 
REMARK    9  A    between atoms: C20_27  and  C21_29 
REMARK   10  A    between atoms: C21_29  and  N4_30 
REMARK       I    between atoms: N5_34  and  C23_36 
REMARK   11  A    between atoms: C23_36  and  O5_38 
REMARK   12  A    between atoms: O5_38  and  C24_39 
REMARK   13  A    between atoms: C24_39  and  C25_40 
REMARK   14  A    between atoms: C25_40  and  C26_41 
ROOT
HETATM    1  C7  UNL     1     -17.524  -0.100  -0.961  1.00  0.00     0.047 C 
ENDROOT
BRANCH   1   2
HETATM    2  C6  UNL     1     -16.469  -1.023  -0.463  1.00  0.00     0.167 C 
BRANCH   2   3
HETATM    3  N1  UNL     1     -16.995  -2.079   0.384  1.00  0.00    -0.353 N 
HETATM    4  C5  UNL     1     -16.858  -3.443   0.046  1.00  0.00     0.247 C 
HETATM    5  O1  UNL     1     -16.267  -3.724  -1.031  1.00  0.00    -0.268 OA
ATOM      6  H1  UNL     1     -17.476  -1.829   1.248  1.00  0.00     0.163 HD
BRANCH   4   7
HETATM    7  C2  UNL     1     -17.353  -4.533   0.861  1.00  0.00    -0.000 C 
HETATM    8  C1  UNL     1     -18.640  -4.632   1.179  1.00  0.00     0.024 C 
BRANCH   7   9
HETATM    9  C3  UNL     1     -16.416  -5.574   1.341  1.00  0.00     0.039 C 
HETATM   10  C4  UNL     1     -16.787  -6.037   2.737  1.00  0.00     0.010 C 
ENDBRANCH   7   9
ENDBRANCH   4   7
ENDBRANCH   2   3
ENDBRANCH   1   2
BRANCH   1  11
HETATM   11  C8  UNL     1     -17.229   0.602  -2.213  1.00  0.00     0.251 C 
HETATM   12  O2  UNL     1     -16.880   1.817  -2.219  1.00  0.00    -0.268 OA
HETATM   13  N2  UNL     1     -17.304  -0.012  -3.514  1.00  0.00    -0.348 N 
HETATM   14  C9  UNL     1     -17.704  -1.380  -3.741  1.00  0.00     0.126 C 
HETATM   15  C18 UNL     1     -16.964   0.737  -4.704  1.00  0.00     0.135 C 
HETATM   16  C10 UNL     1     -19.000  -1.267  -4.560  1.00  0.00     0.021 C 
HETATM   17  C11 UNL     1     -18.589  -0.764  -5.912  1.00  0.00     0.012 C 
HETATM   18  C12 UNL     1     -17.858   0.542  -5.875  1.00  0.00    -0.024 C 
HETATM   19  C13 UNL     1     -18.891   1.646  -5.993  1.00  0.00     0.011 C 
HETATM   20  C17 UNL     1     -17.006   0.601  -7.130  1.00  0.00     0.011 C 
HETATM   21  C14 UNL     1     -18.461   2.739  -6.922  1.00  0.00     0.001 C 
HETATM   22  C15 UNL     1     -18.255   2.291  -8.342  1.00  0.00     0.000 C 
HETATM   23  C16 UNL     1     -17.894   0.826  -8.353  1.00  0.00     0.001 C 
ENDBRANCH   1  11
BRANCH   1  24
HETATM   24  C19 UNL     1     -18.246   0.742   0.036  1.00  0.00     0.228 C 
BRANCH  24  25
HETATM   25  N3  UNL     1     -17.487   1.767   0.682  1.00  0.00    -0.334 N 
HETATM   26  C20 UNL     1     -17.659   3.164   0.599  1.00  0.00     0.244 C 
HETATM   27  O3  UNL     1     -18.577   3.615  -0.119  1.00  0.00    -0.272 OA
ATOM     28  H3  UNL     1     -16.724   1.447   1.278  1.00  0.00     0.164 HD
BRANCH  26  29
HETATM   29  C21 UNL     1     -16.825   4.162   1.306  1.00  0.00     0.332 C 
BRANCH  29  30
HETATM   30  N4  UNL     1     -17.096   5.524   0.944  1.00  0.00    -0.071 N 
ATOM     31  H43 UNL     1     -16.661   6.162   1.611  1.00  0.00     0.274 HD
ATOM     32  H42 UNL     1     -16.582   5.776   0.100  1.00  0.00     0.274 HD
ATOM     33  H41 UNL     1     -18.087   5.742   0.836  1.00  0.00     0.274 HD
ENDBRANCH  29  30
ENDBRANCH  26  29
ENDBRANCH  24  25
BRANCH  24  34
HETATM   34  N5  UNL     1     -19.054  -0.035   0.951  1.00  0.00    -0.307 N 
HETATM   35  C22 UNL     1     -20.368  -0.563   0.568  1.00  0.00     0.157 C 
HETATM   36  C23 UNL     1     -18.599  -0.317   2.247  1.00  0.00     0.364 C 
HETATM   37  O4  UNL     1     -19.324  -0.976   3.049  1.00  0.00    -0.238 OA
BRANCH  36  38
HETATM   38  O5  UNL     1     -17.371   0.080   2.762  1.00  0.00    -0.304 OA
BRANCH  38  39
HETATM   39  C24 UNL     1     -16.536  -0.830   3.464  1.00  0.00     0.185 C 
BRANCH  39  40
HETATM   40  C25 UNL     1     -16.115  -0.313   4.800  1.00  0.00     0.074 C 
BRANCH  40  41
HETATM   41  C26 UNL     1     -17.103  -0.719   5.862  1.00  0.00     0.001 A 
HETATM   42  C27 UNL     1     -18.283  -0.090   6.182  1.00  0.00     0.102 A 
HETATM   43  N6  UNL     1     -18.997  -0.609   7.131  1.00  0.00    -0.368 N 
HETATM   44  C28 UNL     1     -18.579  -1.703   7.748  1.00  0.00     0.138 A 
ATOM     45  H6  UNL     1     -19.879  -0.175   7.402  1.00  0.00     0.165 HD
HETATM   46  S1  UNL     1     -17.100  -2.025   6.957  1.00  0.00    -0.088 SA
ENDBRANCH  40  41
ENDBRANCH  39  40
ENDBRANCH  38  39
ENDBRANCH  36  38
ENDBRANCH  24  34
ENDBRANCH   1  24
TORSDOF 14
ENDMDL
