MODEL 1
REMARK VINA RESULT: -8.987787414      0.000      0.000
REMARK  15 active torsions:
REMARK  status: ('A' for Active; 'I' for Inactive)
REMARK    1  A    between atoms: C2_2  and  O1_3 
REMARK    2  A    between atoms: O1_3  and  C3_4 
REMARK    3  A    between atoms: C3_4  and  C4_5 
REMARK    4  A    between atoms: C4_5  and  C5_6 
REMARK    5  A    between atoms: C5_6  and  N1_7 
REMARK       I    between atoms: N1_7  and  C6_9 
REMARK    6  A    between atoms: C6_9  and  C7_11 
REMARK    7  A    between atoms: C9_13  and  N2_14 
REMARK       I    between atoms: N2_14  and  C10_16 
REMARK    8  A    between atoms: C10_16  and  C11_18 
REMARK    9  A    between atoms: C11_18  and  N3_19 
REMARK   10  A    between atoms: C11_18  and  C17_28 
REMARK       I    between atoms: N3_19  and  C12_21 
REMARK   11  A    between atoms: C12_21  and  O5_23 
REMARK   12  A    between atoms: O5_23  and  C13_24 
REMARK   13  A    between atoms: N4_33  and  C22_34 
REMARK       I    between atoms: N5_37  and  C25_38 
REMARK   14  A    between atoms: C25_38  and  C26_40 
REMARK   15  A    between atoms: C26_40  and  C27_41 
ROOT
HETATM    1  C27 UNL     1     -17.409  -2.412   8.682  1.00  0.00     0.133 C 
HETATM    2  C28 UNL     1     -16.323  -3.139   8.004  1.00  0.00     0.059 C 
HETATM    3  N6  UNL     1     -15.472  -3.726   7.485  1.00  0.00    -0.197 NA
ENDROOT
BRANCH   1   4
HETATM    4  C26 UNL     1     -17.494  -1.057   8.057  1.00  0.00     0.117 C 
BRANCH   4   5
HETATM    5  C25 UNL     1     -18.344  -1.021   6.854  1.00  0.00     0.220 C 
HETATM    6  N5  UNL     1     -17.802  -0.829   5.560  1.00  0.00    -0.350 N 
HETATM    7  C24 UNL     1     -16.371  -0.645   5.293  1.00  0.00     0.128 C 
HETATM    8  C29 UNL     1     -18.529  -0.786   4.306  1.00  0.00     0.161 C 
HETATM    9  C23 UNL     1     -16.230  -0.808   3.816  1.00  0.00     0.057 C 
HETATM   10  C22 UNL     1     -17.527  -0.234   3.287  1.00  0.00     0.243 C 
HETATM   11  O6  UNL     1     -19.581  -1.165   6.982  1.00  0.00    -0.273 OA
BRANCH  10  12
HETATM   12  N4  UNL     1     -17.785  -0.717   1.973  1.00  0.00     0.110 N 
HETATM   13  C7  UNL     1     -19.108  -1.122   1.672  1.00  0.00     0.316 C 
HETATM   14  C8  UNL     1     -19.616  -0.256   0.518  1.00  0.00     0.072 C 
HETATM   15  C9  UNL     1     -18.629   0.900   0.572  1.00  0.00     0.115 C 
HETATM   16  C21 UNL     1     -17.382   0.166   0.942  1.00  0.00     0.299 C 
BRANCH  13  17
HETATM   17  C6  UNL     1     -19.064  -2.525   1.118  1.00  0.00     0.251 C 
HETATM   18  N1  UNL     1     -17.982  -3.370   1.414  1.00  0.00    -0.359 N 
ATOM     19  H1  UNL     1     -17.228  -3.026   2.008  1.00  0.00     0.162 HD
HETATM   20  O2  UNL     1     -19.994  -2.951   0.392  1.00  0.00    -0.271 OA
BRANCH  18  21
HETATM   21  C5  UNL     1     -17.914  -4.704   0.898  1.00  0.00     0.125 C 
BRANCH  21  22
HETATM   22  C4  UNL     1     -16.738  -4.948  -0.015  1.00  0.00     0.046 C 
BRANCH  22  23
HETATM   23  C3  UNL     1     -16.360  -3.661  -0.691  1.00  0.00     0.169 C 
BRANCH  23  24
HETATM   24  O1  UNL     1     -17.280  -3.333  -1.646  1.00  0.00    -0.391 OA
BRANCH  24  25
HETATM   25  C2  UNL     1     -17.420  -2.001  -1.943  1.00  0.00     0.163 C 
HETATM   26  C1  UNL     1     -18.559  -1.903  -2.966  1.00  0.00     0.033 C 
ENDBRANCH  24  25
ENDBRANCH  23  24
ENDBRANCH  22  23
ENDBRANCH  21  22
ENDBRANCH  18  21
ENDBRANCH  13  17
BRANCH  15  27
HETATM   27  N2  UNL     1     -18.557   1.612  -0.670  1.00  0.00    -0.353 N 
HETATM   28  C10 UNL     1     -17.502   2.482  -1.031  1.00  0.00     0.241 C 
HETATM   29  O3  UNL     1     -16.586   2.596  -0.136  1.00  0.00    -0.271 OA
ATOM     30  H2  UNL     1     -19.317   1.484  -1.337  1.00  0.00     0.163 HD
BRANCH  28  31
HETATM   31  C11 UNL     1     -17.339   3.240  -2.255  1.00  0.00     0.186 C 
BRANCH  31  32
HETATM   32  N3  UNL     1     -18.046   2.574  -3.353  1.00  0.00    -0.323 N 
HETATM   33  C12 UNL     1     -17.519   1.487  -4.071  1.00  0.00     0.362 C 
HETATM   34  O4  UNL     1     -16.387   1.005  -3.820  1.00  0.00    -0.238 OA
ATOM     35  H3  UNL     1     -18.971   2.919  -3.609  1.00  0.00     0.165 HD
BRANCH  33  36
HETATM   36  O5  UNL     1     -18.242   0.906  -5.094  1.00  0.00    -0.294 OA
BRANCH  36  37
HETATM   37  C13 UNL     1     -18.130   1.372  -6.424  1.00  0.00     0.061 C 
HETATM   38  C14 UNL     1     -18.589   2.814  -6.446  1.00  0.00     0.046 C 
HETATM   39  C15 UNL     1     -18.956   0.594  -7.391  1.00  0.00     0.046 C 
HETATM   40  C16 UNL     1     -16.688   1.354  -6.896  1.00  0.00     0.046 C 
ENDBRANCH  36  37
ENDBRANCH  33  36
ENDBRANCH  31  32
BRANCH  31  41
HETATM   41  C17 UNL     1     -17.685   4.698  -2.203  1.00  0.00    -0.022 C 
HETATM   42  C18 UNL     1     -18.379   5.120  -0.952  1.00  0.00     0.017 C 
HETATM   43  C19 UNL     1     -16.505   5.528  -2.567  1.00  0.00     0.017 C 
HETATM   44  C20 UNL     1     -18.711   4.947  -3.337  1.00  0.00     0.017 C 
ENDBRANCH  31  41
ENDBRANCH  28  31
ENDBRANCH  15  27
ENDBRANCH  10  12
ENDBRANCH   4   5
ENDBRANCH   1   4
TORSDOF 15
ENDMDL
MODEL 2
REMARK VINA RESULT: -8.903647163      2.215     10.437
REMARK  15 active torsions:
REMARK  status: ('A' for Active; 'I' for Inactive)
REMARK    1  A    between atoms: C2_2  and  O1_3 
REMARK    2  A    between atoms: O1_3  and  C3_4 
REMARK    3  A    between atoms: C3_4  and  C4_5 
REMARK    4  A    between atoms: C4_5  and  C5_6 
REMARK    5  A    between atoms: C5_6  and  N1_7 
REMARK       I    between atoms: N1_7  and  C6_9 
REMARK    6  A    between atoms: C6_9  and  C7_11 
REMARK    7  A    between atoms: C9_13  and  N2_14 
REMARK       I    between atoms: N2_14  and  C10_16 
REMARK    8  A    between atoms: C10_16  and  C11_18 
REMARK    9  A    between atoms: C11_18  and  N3_19 
REMARK   10  A    between atoms: C11_18  and  C17_28 
REMARK       I    between atoms: N3_19  and  C12_21 
REMARK   11  A    between atoms: C12_21  and  O5_23 
REMARK   12  A    between atoms: O5_23  and  C13_24 
REMARK   13  A    between atoms: N4_33  and  C22_34 
REMARK       I    between atoms: N5_37  and  C25_38 
REMARK   14  A    between atoms: C25_38  and  C26_40 
REMARK   15  A    between atoms: C26_40  and  C27_41 
ROOT
HETATM    1  C27 UNL     1     -17.052   3.044  -9.574  1.00  0.00     0.133 C 
HETATM    2  C28 UNL     1     -16.001   3.625  -8.722  1.00  0.00     0.059 C 
HETATM    3  N6  UNL     1     -15.174   4.097  -8.066  1.00  0.00    -0.197 NA
ENDROOT
BRANCH   1   4
HETATM    4  C26 UNL     1     -17.364   1.686  -9.032  1.00  0.00     0.117 C 
BRANCH   4   5
HETATM    5  C25 UNL     1     -18.165   1.719  -7.797  1.00  0.00     0.220 C 
HETATM    6  N5  UNL     1     -17.654   1.258  -6.559  1.00  0.00    -0.350 N 
HETATM    7  C24 UNL     1     -16.305   0.705  -6.388  1.00  0.00     0.128 C 
HETATM    8  C29 UNL     1     -18.337   1.249  -5.281  1.00  0.00     0.161 C 
HETATM    9  C23 UNL     1     -16.091   0.661  -4.912  1.00  0.00     0.057 C 
HETATM   10  C22 UNL     1     -17.475   0.360  -4.378  1.00  0.00     0.243 C 
HETATM   11  O6  UNL     1     -19.331   2.171  -7.843  1.00  0.00    -0.273 OA
BRANCH  10  12
HETATM   12  N4  UNL     1     -17.573   0.739  -3.009  1.00  0.00     0.110 N 
HETATM   13  C7  UNL     1     -18.860   0.741  -2.421  1.00  0.00     0.316 C 
HETATM   14  C8  UNL     1     -18.846  -0.244  -1.250  1.00  0.00     0.072 C 
HETATM   15  C9  UNL     1     -17.608  -1.063  -1.580  1.00  0.00     0.115 C 
HETATM   16  C21 UNL     1     -16.726   0.004  -2.143  1.00  0.00     0.299 C 
BRANCH  13  17
HETATM   17  C6  UNL     1     -19.097   2.093  -1.793  1.00  0.00     0.251 C 
HETATM   18  N1  UNL     1     -18.259   3.175  -2.106  1.00  0.00    -0.359 N 
ATOM     19  H1  UNL     1     -17.491   3.039  -2.763  1.00  0.00     0.162 HD
HETATM   20  O2  UNL     1     -20.045   2.263  -0.989  1.00  0.00    -0.271 OA
BRANCH  18  21
HETATM   21  C5  UNL     1     -18.459   4.467  -1.521  1.00  0.00     0.125 C 
BRANCH  21  22
HETATM   22  C4  UNL     1     -17.333   4.913  -0.622  1.00  0.00     0.046 C 
BRANCH  22  23
HETATM   23  C3  UNL     1     -17.299   4.040   0.599  1.00  0.00     0.169 C 
BRANCH  23  24
HETATM   24  O1  UNL     1     -16.551   2.920   0.367  1.00  0.00    -0.391 OA
BRANCH  24  25
HETATM   25  C2  UNL     1     -16.935   1.773   1.013  1.00  0.00     0.163 C 
HETATM   26  C1  UNL     1     -18.171   2.138   1.846  1.00  0.00     0.033 C 
ENDBRANCH  24  25
ENDBRANCH  23  24
ENDBRANCH  22  23
ENDBRANCH  21  22
ENDBRANCH  18  21
ENDBRANCH  13  17
BRANCH  15  27
HETATM   27  N2  UNL     1     -17.075  -1.732  -0.429  1.00  0.00    -0.353 N 
HETATM   28  C10 UNL     1     -17.843  -2.514   0.465  1.00  0.00     0.241 C 
HETATM   29  O3  UNL     1     -19.091  -2.579   0.167  1.00  0.00    -0.271 OA
ATOM     30  H2  UNL     1     -16.077  -1.638  -0.243  1.00  0.00     0.163 HD
BRANCH  28  31
HETATM   31  C11 UNL     1     -17.399  -3.226   1.647  1.00  0.00     0.186 C 
BRANCH  31  32
HETATM   32  N3  UNL     1     -18.107  -2.723   2.828  1.00  0.00    -0.323 N 
HETATM   33  C12 UNL     1     -17.679  -1.614   3.578  1.00  0.00     0.362 C 
HETATM   34  O4  UNL     1     -16.643  -0.968   3.284  1.00  0.00    -0.238 OA
ATOM     35  H3  UNL     1     -18.956  -3.205   3.122  1.00  0.00     0.165 HD
BRANCH  33  36
HETATM   36  O5  UNL     1     -18.397  -1.193   4.680  1.00  0.00    -0.294 OA
BRANCH  36  37
HETATM   37  C13 UNL     1     -18.086  -1.664   5.976  1.00  0.00     0.061 C 
HETATM   38  C14 UNL     1     -18.865  -0.828   6.968  1.00  0.00     0.046 C 
HETATM   39  C15 UNL     1     -16.635  -1.564   6.306  1.00  0.00     0.046 C 
HETATM   40  C16 UNL     1     -18.525  -3.104   6.162  1.00  0.00     0.046 C 
ENDBRANCH  36  37
ENDBRANCH  33  36
ENDBRANCH  31  32
BRANCH  31  41
HETATM   41  C17 UNL     1     -17.443  -4.724   1.595  1.00  0.00    -0.022 C 
HETATM   42  C18 UNL     1     -18.786  -5.308   1.878  1.00  0.00     0.017 C 
HETATM   43  C19 UNL     1     -16.801  -5.223   0.349  1.00  0.00     0.017 C 
HETATM   44  C20 UNL     1     -16.533  -5.231   2.742  1.00  0.00     0.017 C 
ENDBRANCH  31  41
ENDBRANCH  28  31
ENDBRANCH  15  27
ENDBRANCH  10  12
ENDBRANCH   4   5
ENDBRANCH   1   4
TORSDOF 15
ENDMDL
MODEL 3
REMARK VINA RESULT: -8.711818771      2.208     10.398
REMARK  15 active torsions:
REMARK  status: ('A' for Active; 'I' for Inactive)
REMARK    1  A    between atoms: C2_2  and  O1_3 
REMARK    2  A    between atoms: O1_3  and  C3_4 
REMARK    3  A    between atoms: C3_4  and  C4_5 
REMARK    4  A    between atoms: C4_5  and  C5_6 
REMARK    5  A    between atoms: C5_6  and  N1_7 
REMARK       I    between atoms: N1_7  and  C6_9 
REMARK    6  A    between atoms: C6_9  and  C7_11 
REMARK    7  A    between atoms: C9_13  and  N2_14 
REMARK       I    between atoms: N2_14  and  C10_16 
REMARK    8  A    between atoms: C10_16  and  C11_18 
REMARK    9  A    between atoms: C11_18  and  N3_19 
REMARK   10  A    between atoms: C11_18  and  C17_28 
REMARK       I    between atoms: N3_19  and  C12_21 
REMARK   11  A    between atoms: C12_21  and  O5_23 
REMARK   12  A    between atoms: O5_23  and  C13_24 
REMARK   13  A    between atoms: N4_33  and  C22_34 
REMARK       I    between atoms: N5_37  and  C25_38 
REMARK   14  A    between atoms: C25_38  and  C26_40 
REMARK   15  A    between atoms: C26_40  and  C27_41 
ROOT
HETATM    1  C27 UNL     1     -17.536   2.196  -9.216  1.00  0.00     0.133 C 
HETATM    2  C28 UNL     1     -16.438   2.953  -8.594  1.00  0.00     0.059 C 
HETATM    3  N6  UNL     1     -15.577   3.564  -8.120  1.00  0.00    -0.197 NA
ENDROOT
BRANCH   1   4
HETATM    4  C26 UNL     1     -17.605   0.869  -8.530  1.00  0.00     0.117 C 
BRANCH   4   5
HETATM    5  C25 UNL     1     -18.436   0.884  -7.314  1.00  0.00     0.220 C 
HETATM    6  N5  UNL     1     -17.877   0.719  -6.023  1.00  0.00    -0.350 N 
HETATM    7  C24 UNL     1     -16.445   0.516  -5.773  1.00  0.00     0.128 C 
HETATM    8  C29 UNL     1     -18.584   0.726  -4.757  1.00  0.00     0.161 C 
HETATM    9  C23 UNL     1     -16.277   0.718  -4.304  1.00  0.00     0.057 C 
HETATM   10  C22 UNL     1     -17.576   0.184  -3.738  1.00  0.00     0.243 C 
HETATM   11  O6  UNL     1     -19.671   1.047  -7.426  1.00  0.00    -0.273 OA
BRANCH  10  12
HETATM   12  N4  UNL     1     -17.804   0.710  -2.435  1.00  0.00     0.110 N 
HETATM   13  C7  UNL     1     -19.125   1.097  -2.106  1.00  0.00     0.316 C 
HETATM   14  C8  UNL     1     -19.577   0.262  -0.906  1.00  0.00     0.072 C 
HETATM   15  C9  UNL     1     -18.566  -0.874  -0.950  1.00  0.00     0.115 C 
HETATM   16  C21 UNL     1     -17.348  -0.126  -1.386  1.00  0.00     0.299 C 
BRANCH  13  17
HETATM   17  C6  UNL     1     -19.097   2.519  -1.606  1.00  0.00     0.251 C 
HETATM   18  N1  UNL     1     -18.938   3.584  -2.507  1.00  0.00    -0.359 N 
ATOM     19  H1  UNL     1     -18.846   3.386  -3.503  1.00  0.00     0.162 HD
HETATM   20  O2  UNL     1     -19.216   2.765  -0.381  1.00  0.00    -0.271 OA
BRANCH  18  21
HETATM   21  C5  UNL     1     -18.903   4.944  -2.058  1.00  0.00     0.125 C 
BRANCH  21  22
HETATM   22  C4  UNL     1     -17.513   5.518  -1.952  1.00  0.00     0.046 C 
BRANCH  22  23
HETATM   23  C3  UNL     1     -17.054   5.959  -3.313  1.00  0.00     0.169 C 
BRANCH  23  24
HETATM   24  O1  UNL     1     -17.165   4.935  -4.210  1.00  0.00    -0.391 OA
BRANCH  24  25
HETATM   25  C2  UNL     1     -17.456   5.275  -5.507  1.00  0.00     0.163 C 
HETATM   26  C1  UNL     1     -18.639   4.393  -5.930  1.00  0.00     0.033 C 
ENDBRANCH  24  25
ENDBRANCH  23  24
ENDBRANCH  22  23
ENDBRANCH  21  22
ENDBRANCH  18  21
ENDBRANCH  13  17
BRANCH  15  27
HETATM   27  N2  UNL     1     -18.439  -1.538   0.313  1.00  0.00    -0.353 N 
HETATM   28  C10 UNL     1     -17.418  -2.465   0.628  1.00  0.00     0.241 C 
HETATM   29  O3  UNL     1     -16.591  -2.680  -0.331  1.00  0.00    -0.271 OA
ATOM     30  H2  UNL     1     -19.130  -1.328   1.033  1.00  0.00     0.163 HD
BRANCH  28  31
HETATM   31  C11 UNL     1     -17.205  -3.182   1.869  1.00  0.00     0.186 C 
BRANCH  31  32
HETATM   32  N3  UNL     1     -17.858  -2.474   2.974  1.00  0.00    -0.323 N 
HETATM   33  C12 UNL     1     -17.321  -1.330   3.590  1.00  0.00     0.362 C 
HETATM   34  O4  UNL     1     -16.226  -0.830   3.233  1.00  0.00    -0.238 OA
ATOM     35  H3  UNL     1     -18.751  -2.830   3.314  1.00  0.00     0.165 HD
BRANCH  33  36
HETATM   36  O5  UNL     1     -17.992  -0.712   4.626  1.00  0.00    -0.294 OA
BRANCH  36  37
HETATM   37  C13 UNL     1     -17.957  -1.239   5.937  1.00  0.00     0.061 C 
HETATM   38  C14 UNL     1     -18.622  -0.236   6.855  1.00  0.00     0.046 C 
HETATM   39  C15 UNL     1     -16.573  -1.493   6.432  1.00  0.00     0.046 C 
HETATM   40  C16 UNL     1     -18.749  -2.530   6.035  1.00  0.00     0.046 C 
ENDBRANCH  36  37
ENDBRANCH  33  36
ENDBRANCH  31  32
BRANCH  31  41
HETATM   41  C17 UNL     1     -17.562  -4.638   1.883  1.00  0.00    -0.022 C 
HETATM   42  C18 UNL     1     -18.849  -4.961   1.201  1.00  0.00     0.017 C 
HETATM   43  C19 UNL     1     -16.405  -5.464   1.445  1.00  0.00     0.017 C 
HETATM   44  C20 UNL     1     -17.785  -5.023   3.367  1.00  0.00     0.017 C 
ENDBRANCH  31  41
ENDBRANCH  28  31
ENDBRANCH  15  27
ENDBRANCH  10  12
ENDBRANCH   4   5
ENDBRANCH   1   4
TORSDOF 15
ENDMDL
MODEL 4
REMARK VINA RESULT: -8.708530400      1.042      1.278
REMARK  15 active torsions:
REMARK  status: ('A' for Active; 'I' for Inactive)
REMARK    1  A    between atoms: C2_2  and  O1_3 
REMARK    2  A    between atoms: O1_3  and  C3_4 
REMARK    3  A    between atoms: C3_4  and  C4_5 
REMARK    4  A    between atoms: C4_5  and  C5_6 
REMARK    5  A    between atoms: C5_6  and  N1_7 
REMARK       I    between atoms: N1_7  and  C6_9 
REMARK    6  A    between atoms: C6_9  and  C7_11 
REMARK    7  A    between atoms: C9_13  and  N2_14 
REMARK       I    between atoms: N2_14  and  C10_16 
REMARK    8  A    between atoms: C10_16  and  C11_18 
REMARK    9  A    between atoms: C11_18  and  N3_19 
REMARK   10  A    between atoms: C11_18  and  C17_28 
REMARK       I    between atoms: N3_19  and  C12_21 
REMARK   11  A    between atoms: C12_21  and  O5_23 
REMARK   12  A    between atoms: O5_23  and  C13_24 
REMARK   13  A    between atoms: N4_33  and  C22_34 
REMARK       I    between atoms: N5_37  and  C25_38 
REMARK   14  A    between atoms: C25_38  and  C26_40 
REMARK   15  A    between atoms: C26_40  and  C27_41 
ROOT
HETATM    1  C27 UNL     1     -16.982  -2.811   9.280  1.00  0.00     0.133 C 
HETATM    2  C28 UNL     1     -16.017  -3.437   8.361  1.00  0.00     0.059 C 
HETATM    3  N6  UNL     1     -15.255  -3.944   7.653  1.00  0.00    -0.197 NA
ENDROOT
BRANCH   1   4
HETATM    4  C26 UNL     1     -17.360  -1.489   8.694  1.00  0.00     0.117 C 
BRANCH   4   5
HETATM    5  C25 UNL     1     -18.174  -1.603   7.472  1.00  0.00     0.220 C 
HETATM    6  N5  UNL     1     -17.700  -1.162   6.212  1.00  0.00    -0.350 N 
HETATM    7  C24 UNL     1     -16.380  -0.556   6.003  1.00  0.00     0.128 C 
HETATM    8  C29 UNL     1     -18.398  -1.231   4.943  1.00  0.00     0.161 C 
HETATM    9  C23 UNL     1     -16.186  -0.555   4.523  1.00  0.00     0.057 C 
HETATM   10  C22 UNL     1     -17.589  -0.337   3.998  1.00  0.00     0.243 C 
HETATM   11  O6  UNL     1     -19.318  -2.104   7.551  1.00  0.00    -0.273 OA
BRANCH  10  12
HETATM   12  N4  UNL     1     -17.686  -0.768   2.645  1.00  0.00     0.110 N 
HETATM   13  C7  UNL     1     -18.978  -0.830   2.068  1.00  0.00     0.316 C 
HETATM   14  C8  UNL     1     -19.002   0.111   0.862  1.00  0.00     0.072 C 
HETATM   15  C9  UNL     1     -17.786   0.978   1.151  1.00  0.00     0.115 C 
HETATM   16  C21 UNL     1     -16.869  -0.041   1.745  1.00  0.00     0.299 C 
BRANCH  13  17
HETATM   17  C6  UNL     1     -19.180  -2.209   1.493  1.00  0.00     0.251 C 
HETATM   18  N1  UNL     1     -18.611  -3.329   2.121  1.00  0.00    -0.359 N 
ATOM     19  H1  UNL     1     -18.063  -3.199   2.972  1.00  0.00     0.162 HD
HETATM   20  O2  UNL     1     -19.859  -2.370   0.450  1.00  0.00    -0.271 OA
BRANCH  18  21
HETATM   21  C5  UNL     1     -18.783  -4.649   1.594  1.00  0.00     0.125 C 
BRANCH  21  22
HETATM   22  C4  UNL     1     -17.500  -5.432   1.470  1.00  0.00     0.046 C 
BRANCH  22  23
HETATM   23  C3  UNL     1     -16.747  -4.960   0.259  1.00  0.00     0.169 C 
BRANCH  23  24
HETATM   24  O1  UNL     1     -17.608  -4.464  -0.678  1.00  0.00    -0.391 OA
BRANCH  24  25
HETATM   25  C2  UNL     1     -17.054  -3.794  -1.738  1.00  0.00     0.163 C 
HETATM   26  C1  UNL     1     -17.021  -2.311  -1.342  1.00  0.00     0.033 C 
ENDBRANCH  24  25
ENDBRANCH  23  24
ENDBRANCH  22  23
ENDBRANCH  21  22
ENDBRANCH  18  21
ENDBRANCH  13  17
BRANCH  15  27
HETATM   27  N2  UNL     1     -17.282   1.619  -0.028  1.00  0.00    -0.353 N 
HETATM   28  C10 UNL     1     -17.966   2.633  -0.739  1.00  0.00     0.241 C 
HETATM   29  O3  UNL     1     -19.109   2.944  -0.240  1.00  0.00    -0.271 OA
ATOM     30  H2  UNL     1     -16.370   1.325  -0.377  1.00  0.00     0.163 HD
BRANCH  28  31
HETATM   31  C11 UNL     1     -17.542   3.339  -1.931  1.00  0.00     0.186 C 
BRANCH  31  32
HETATM   32  N3  UNL     1     -18.282   2.842  -3.095  1.00  0.00    -0.323 N 
HETATM   33  C12 UNL     1     -18.121   1.552  -3.628  1.00  0.00     0.362 C 
HETATM   34  O4  UNL     1     -17.316   0.722  -3.137  1.00  0.00    -0.238 OA
ATOM     35  H3  UNL     1     -18.951   3.468  -3.543  1.00  0.00     0.165 HD
BRANCH  33  36
HETATM   36  O5  UNL     1     -18.853   1.149  -4.726  1.00  0.00    -0.294 OA
BRANCH  36  37
HETATM   37  C13 UNL     1     -18.263   0.380  -5.755  1.00  0.00     0.061 C 
HETATM   38  C14 UNL     1     -18.928   0.767  -7.058  1.00  0.00     0.046 C 
HETATM   39  C15 UNL     1     -18.424  -1.090  -5.557  1.00  0.00     0.046 C 
HETATM   40  C16 UNL     1     -16.784   0.688  -5.898  1.00  0.00     0.046 C 
ENDBRANCH  36  37
ENDBRANCH  33  36
ENDBRANCH  31  32
BRANCH  31  41
HETATM   41  C17 UNL     1     -17.568   4.837  -1.881  1.00  0.00    -0.022 C 
HETATM   42  C18 UNL     1     -18.856   5.443  -2.327  1.00  0.00     0.017 C 
HETATM   43  C19 UNL     1     -17.078   5.324  -0.563  1.00  0.00     0.017 C 
HETATM   44  C20 UNL     1     -16.515   5.330  -2.904  1.00  0.00     0.017 C 
ENDBRANCH  31  41
ENDBRANCH  28  31
ENDBRANCH  15  27
ENDBRANCH  10  12
ENDBRANCH   4   5
ENDBRANCH   1   4
TORSDOF 15
ENDMDL
MODEL 5
REMARK VINA RESULT: -8.685077461      1.263      2.304
REMARK  15 active torsions:
REMARK  status: ('A' for Active; 'I' for Inactive)
REMARK    1  A    between atoms: C2_2  and  O1_3 
REMARK    2  A    between atoms: O1_3  and  C3_4 
REMARK    3  A    between atoms: C3_4  and  C4_5 
REMARK    4  A    between atoms: C4_5  and  C5_6 
REMARK    5  A    between atoms: C5_6  and  N1_7 
REMARK       I    between atoms: N1_7  and  C6_9 
REMARK    6  A    between atoms: C6_9  and  C7_11 
REMARK    7  A    between atoms: C9_13  and  N2_14 
REMARK       I    between atoms: N2_14  and  C10_16 
REMARK    8  A    between atoms: C10_16  and  C11_18 
REMARK    9  A    between atoms: C11_18  and  N3_19 
REMARK   10  A    between atoms: C11_18  and  C17_28 
REMARK       I    between atoms: N3_19  and  C12_21 
REMARK   11  A    between atoms: C12_21  and  O5_23 
REMARK   12  A    between atoms: O5_23  and  C13_24 
REMARK   13  A    between atoms: N4_33  and  C22_34 
REMARK       I    between atoms: N5_37  and  C25_38 
REMARK   14  A    between atoms: C25_38  and  C26_40 
REMARK   15  A    between atoms: C26_40  and  C27_41 
ROOT
HETATM    1  C27 UNL     1     -17.413  -2.612   8.749  1.00  0.00     0.133 C 
HETATM    2  C28 UNL     1     -16.263  -3.250   8.087  1.00  0.00     0.059 C 
HETATM    3  N6  UNL     1     -15.363  -3.768   7.579  1.00  0.00    -0.197 NA
ENDROOT
BRANCH   1   4
HETATM    4  C26 UNL     1     -17.509  -1.215   8.224  1.00  0.00     0.117 C 
BRANCH   4   5
HETATM    5  C25 UNL     1     -18.354  -1.099   7.024  1.00  0.00     0.220 C 
HETATM    6  N5  UNL     1     -17.805  -0.861   5.740  1.00  0.00    -0.350 N 
HETATM    7  C24 UNL     1     -16.368  -0.703   5.484  1.00  0.00     0.128 C 
HETATM    8  C29 UNL     1     -18.527  -0.740   4.489  1.00  0.00     0.161 C 
HETATM    9  C23 UNL     1     -16.228  -0.800   4.002  1.00  0.00     0.057 C 
HETATM   10  C22 UNL     1     -17.508  -0.167   3.498  1.00  0.00     0.243 C 
HETATM   11  O6  UNL     1     -19.595  -1.217   7.143  1.00  0.00    -0.273 OA
BRANCH  10  12
HETATM   12  N4  UNL     1     -17.776  -0.580   2.163  1.00  0.00     0.110 N 
HETATM   13  C7  UNL     1     -19.098  -0.978   1.853  1.00  0.00     0.316 C 
HETATM   14  C8  UNL     1     -19.624  -0.054   0.752  1.00  0.00     0.072 C 
HETATM   15  C9  UNL     1     -18.645   1.104   0.859  1.00  0.00     0.115 C 
HETATM   16  C21 UNL     1     -17.388   0.361   1.177  1.00  0.00     0.299 C 
BRANCH  13  17
HETATM   17  C6  UNL     1     -19.050  -2.349   1.224  1.00  0.00     0.251 C 
HETATM   18  N1  UNL     1     -18.544  -3.442   1.945  1.00  0.00    -0.359 N 
ATOM     19  H1  UNL     1     -18.212  -3.300   2.899  1.00  0.00     0.162 HD
HETATM   20  O2  UNL     1     -19.463  -2.526   0.052  1.00  0.00    -0.271 OA
BRANCH  18  21
HETATM   21  C5  UNL     1     -18.483  -4.752   1.370  1.00  0.00     0.125 C 
BRANCH  21  22
HETATM   22  C4  UNL     1     -17.090  -5.328   1.304  1.00  0.00     0.046 C 
BRANCH  22  23
HETATM   23  C3  UNL     1     -16.557  -5.494   2.698  1.00  0.00     0.169 C 
BRANCH  23  24
HETATM   24  O1  UNL     1     -17.580  -5.687   3.583  1.00  0.00    -0.391 OA
BRANCH  24  25
HETATM   25  C2  UNL     1     -17.344  -5.340   4.889  1.00  0.00     0.163 C 
HETATM   26  C1  UNL     1     -18.543  -4.491   5.334  1.00  0.00     0.033 C 
ENDBRANCH  24  25
ENDBRANCH  23  24
ENDBRANCH  22  23
ENDBRANCH  21  22
ENDBRANCH  18  21
ENDBRANCH  13  17
BRANCH  15  27
HETATM   27  N2  UNL     1     -18.590   1.883  -0.343  1.00  0.00    -0.353 N 
HETATM   28  C10 UNL     1     -17.408   2.454  -0.870  1.00  0.00     0.241 C 
HETATM   29  O3  UNL     1     -16.356   2.222  -0.170  1.00  0.00    -0.271 OA
ATOM     30  H2  UNL     1     -19.460   2.036  -0.851  1.00  0.00     0.163 HD
BRANCH  28  31
HETATM   31  C11 UNL     1     -17.251   3.250  -2.071  1.00  0.00     0.186 C 
BRANCH  31  32
HETATM   32  N3  UNL     1     -17.993   2.636  -3.177  1.00  0.00    -0.323 N 
HETATM   33  C12 UNL     1     -17.543   1.508  -3.884  1.00  0.00     0.362 C 
HETATM   34  O4  UNL     1     -16.456   0.940  -3.615  1.00  0.00    -0.238 OA
ATOM     35  H3  UNL     1     -18.884   3.051  -3.448  1.00  0.00     0.165 HD
BRANCH  33  36
HETATM   36  O5  UNL     1     -18.294   0.981  -4.915  1.00  0.00    -0.294 OA
BRANCH  36  37
HETATM   37  C13 UNL     1     -18.122   1.427  -6.246  1.00  0.00     0.061 C 
HETATM   38  C14 UNL     1     -18.955   0.535  -7.141  1.00  0.00     0.046 C 
HETATM   39  C15 UNL     1     -16.705   1.372  -6.706  1.00  0.00     0.046 C 
HETATM   40  C16 UNL     1     -18.633   2.844  -6.425  1.00  0.00     0.046 C 
ENDBRANCH  36  37
ENDBRANCH  33  36
ENDBRANCH  31  32
BRANCH  31  41
HETATM   41  C17 UNL     1     -17.565   4.712  -1.964  1.00  0.00    -0.022 C 
HETATM   42  C18 UNL     1     -18.887   5.099  -2.536  1.00  0.00     0.017 C 
HETATM   43  C19 UNL     1     -17.323   5.199  -0.579  1.00  0.00     0.017 C 
HETATM   44  C20 UNL     1     -16.518   5.452  -2.834  1.00  0.00     0.017 C 
ENDBRANCH  31  41
ENDBRANCH  28  31
ENDBRANCH  15  27
ENDBRANCH  10  12
ENDBRANCH   4   5
ENDBRANCH   1   4
TORSDOF 15
ENDMDL
