MODEL 1
REMARK VINA RESULT: -6.529448994      0.000      0.000
REMARK  6 active torsions:
REMARK  status: ('A' for Active; 'I' for Inactive)
REMARK    1  A    between atoms: C2_2  and  C4_4 
REMARK    2  A    between atoms: C5_7  and  C6_8 
REMARK    3  A    between atoms: N2_12  and  C10_13 
REMARK    4  A    between atoms: C10_13  and  C11_14 
REMARK    5  A    between atoms: C15_19  and  N3_20 
REMARK       I    between atoms: N3_20  and  C16_22 
REMARK    6  A    between atoms: C16_22  and  C17_24 
ROOT
HETATM    1  C4  UNL     1       9.252  11.493  26.860  1.00  0.00     0.066 A 
HETATM    2  N1  UNL     1       9.999  12.351  27.656  1.00  0.00    -0.339 N 
ATOM      3  H1  UNL     1       9.639  13.102  28.245  1.00  0.00     0.167 HD
HETATM    4  C5  UNL     1      11.285  12.003  27.499  1.00  0.00     0.135 A 
HETATM    5  O1  UNL     1      11.348  11.017  26.683  1.00  0.00    -0.278 OA
HETATM    6  C15 UNL     1      10.104  10.662  26.255  1.00  0.00     0.175 A 
ENDROOT
BRANCH   4   7
HETATM    7  C6  UNL     1      12.383  12.731  28.220  1.00  0.00     0.099 C 
HETATM    8  C7  UNL     1      11.721  13.472  29.348  1.00  0.00     0.020 C 
HETATM    9  C8  UNL     1      12.653  13.770  30.471  1.00  0.00     0.021 C 
HETATM   10  C9  UNL     1      13.183  12.409  30.955  1.00  0.00     0.127 C 
HETATM   11  N2  UNL     1      13.967  11.891  29.900  1.00  0.00    -0.373 N 
HETATM   12  C14 UNL     1      13.375  11.692  28.647  1.00  0.00     0.076 C 
BRANCH  11  13
HETATM   13  C10 UNL     1      14.829  10.855  30.305  1.00  0.00     0.067 C 
BRANCH  13  14
HETATM   14  C11 UNL     1      16.271  11.188  30.302  1.00  0.00     0.024 A 
HETATM   15  C12 UNL     1      17.033  10.826  31.533  1.00  0.00     0.010 A 
HETATM   16  C13 UNL     1      17.378  10.184  30.222  1.00  0.00     0.010 A 
ENDBRANCH  13  14
ENDBRANCH  11  13
ENDBRANCH   4   7
BRANCH   1  17
HETATM   17  C2  UNL     1       7.823  11.636  26.801  1.00  0.00     0.032 C 
HETATM   18  C1  UNL     1       7.147  10.230  27.018  1.00  0.00     0.016 C 
HETATM   19  C3  UNL     1       7.371  12.375  28.080  1.00  0.00     0.016 C 
ENDBRANCH   1  17
BRANCH   6  20
HETATM   20  N3  UNL     1       9.964   9.618  25.370  1.00  0.00    -0.303 N 
HETATM   21  C16 UNL     1      10.471   8.366  25.156  1.00  0.00     0.263 C 
HETATM   22  O2  UNL     1      11.329   7.806  25.838  1.00  0.00    -0.269 OA
ATOM     23  H3  UNL     1       9.270   9.847  24.658  1.00  0.00     0.171 HD
BRANCH  21  24
HETATM   24  C17 UNL     1       9.985   7.529  23.996  1.00  0.00     0.176 C 
HETATM   25  C18 UNL     1      11.149   6.952  23.217  1.00  0.00     0.062 C 
HETATM   26  C19 UNL     1       9.181   8.460  23.115  1.00  0.00     0.062 C 
HETATM   27  F1  UNL     1       9.159   6.532  24.410  1.00  0.00    -0.233 F 
ENDBRANCH  21  24
ENDBRANCH   6  20
TORSDOF 6
ENDMDL
MODEL 2
REMARK VINA RESULT: -6.450340258      3.948      8.003
REMARK  6 active torsions:
REMARK  status: ('A' for Active; 'I' for Inactive)
REMARK    1  A    between atoms: C2_2  and  C4_4 
REMARK    2  A    between atoms: C5_7  and  C6_8 
REMARK    3  A    between atoms: N2_12  and  C10_13 
REMARK    4  A    between atoms: C10_13  and  C11_14 
REMARK    5  A    between atoms: C15_19  and  N3_20 
REMARK       I    between atoms: N3_20  and  C16_22 
REMARK    6  A    between atoms: C16_22  and  C17_24 
ROOT
HETATM    1  C4  UNL     1      11.590  13.591  30.016  1.00  0.00     0.066 A 
HETATM    2  N1  UNL     1      11.720  12.890  28.825  1.00  0.00    -0.339 N 
ATOM      3  H1  UNL     1      11.012  12.792  28.097  1.00  0.00     0.167 HD
HETATM    4  C5  UNL     1      12.954  12.366  28.817  1.00  0.00     0.135 A 
HETATM    5  O1  UNL     1      13.552  12.702  29.900  1.00  0.00    -0.278 OA
HETATM    6  C15 UNL     1      12.741  13.468  30.682  1.00  0.00     0.175 A 
ENDROOT
BRANCH   4   7
HETATM    7  C6  UNL     1      13.440  11.533  27.665  1.00  0.00     0.099 C 
HETATM    8  C7  UNL     1      13.997  10.274  28.269  1.00  0.00     0.020 C 
HETATM    9  C8  UNL     1      13.998   9.128  27.317  1.00  0.00     0.021 C 
HETATM   10  C9  UNL     1      12.532   8.925  26.896  1.00  0.00     0.127 C 
HETATM   11  N2  UNL     1      12.171  10.071  26.154  1.00  0.00    -0.373 N 
HETATM   12  C14 UNL     1      12.265  11.331  26.759  1.00  0.00     0.076 C 
BRANCH  11  13
HETATM   13  C10 UNL     1      11.012   9.888  25.376  1.00  0.00     0.067 C 
BRANCH  13  14
HETATM   14  C11 UNL     1      10.085   8.836  25.851  1.00  0.00     0.024 A 
HETATM   15  C12 UNL     1       8.707   9.283  26.205  1.00  0.00     0.010 A 
HETATM   16  C13 UNL     1       8.916   8.317  25.076  1.00  0.00     0.010 A 
ENDBRANCH  13  14
ENDBRANCH  11  13
ENDBRANCH   4   7
BRANCH   1  17
HETATM   17  C2  UNL     1      10.352  14.254  30.325  1.00  0.00     0.032 C 
HETATM   18  C1  UNL     1      10.530  15.808  30.142  1.00  0.00     0.016 C 
HETATM   19  C3  UNL     1       9.355  13.940  29.187  1.00  0.00     0.016 C 
ENDBRANCH   1  17
BRANCH   6  20
HETATM   20  N3  UNL     1      13.206  13.932  31.891  1.00  0.00    -0.303 N 
HETATM   21  C16 UNL     1      14.191  13.652  32.799  1.00  0.00     0.263 C 
HETATM   22  O2  UNL     1      15.023  12.750  32.709  1.00  0.00    -0.269 OA
ATOM     23  H3  UNL     1      12.647  14.725  32.206  1.00  0.00     0.171 HD
BRANCH  21  24
HETATM   24  C17 UNL     1      14.336  14.482  34.054  1.00  0.00     0.176 C 
HETATM   25  C18 UNL     1      14.882  15.858  33.734  1.00  0.00     0.062 C 
HETATM   26  C19 UNL     1      15.304  13.733  34.942  1.00  0.00     0.062 C 
HETATM   27  F1  UNL     1      13.157  14.590  34.720  1.00  0.00    -0.233 F 
ENDBRANCH  21  24
ENDBRANCH   6  20
TORSDOF 6
ENDMDL
MODEL 3
REMARK VINA RESULT: -6.377915259      3.946      8.567
REMARK  6 active torsions:
REMARK  status: ('A' for Active; 'I' for Inactive)
REMARK    1  A    between atoms: C2_2  and  C4_4 
REMARK    2  A    between atoms: C5_7  and  C6_8 
REMARK    3  A    between atoms: N2_12  and  C10_13 
REMARK    4  A    between atoms: C10_13  and  C11_14 
REMARK    5  A    between atoms: C15_19  and  N3_20 
REMARK       I    between atoms: N3_20  and  C16_22 
REMARK    6  A    between atoms: C16_22  and  C17_24 
ROOT
HETATM    1  C4  UNL     1      15.369  11.571  30.018  1.00  0.00     0.066 A 
HETATM    2  N1  UNL     1      14.736  10.793  29.059  1.00  0.00    -0.339 N 
ATOM      3  H1  UNL     1      15.120   9.973  28.590  1.00  0.00     0.167 HD
HETATM    4  C5  UNL     1      13.520  11.326  28.870  1.00  0.00     0.135 A 
HETATM    5  O1  UNL     1      13.394  12.346  29.635  1.00  0.00    -0.278 OA
HETATM    6  C15 UNL     1      14.523  12.541  30.372  1.00  0.00     0.175 A 
ENDROOT
BRANCH   4   7
HETATM    7  C6  UNL     1      12.552  10.732  27.887  1.00  0.00     0.099 C 
HETATM    8  C7  UNL     1      11.627  11.847  27.487  1.00  0.00     0.020 C 
HETATM    9  C8  UNL     1      10.995  11.627  26.156  1.00  0.00     0.021 C 
HETATM   10  C9  UNL     1      12.155  11.498  25.153  1.00  0.00     0.127 C 
HETATM   11  N2  UNL     1      12.835  10.305  25.484  1.00  0.00    -0.373 N 
HETATM   12  C14 UNL     1      13.373  10.164  26.770  1.00  0.00     0.076 C 
BRANCH  11  13
HETATM   13  C10 UNL     1      13.670   9.836  24.453  1.00  0.00     0.067 C 
BRANCH  13  14
HETATM   14  C11 UNL     1      12.973   9.337  23.246  1.00  0.00     0.024 A 
HETATM   15  C12 UNL     1      13.740   8.387  22.388  1.00  0.00     0.010 A 
HETATM   16  C13 UNL     1      12.479   7.936  23.065  1.00  0.00     0.010 A 
ENDBRANCH  13  14
ENDBRANCH  11  13
ENDBRANCH   4   7
BRANCH   1  17
HETATM   17  C2  UNL     1      16.713  11.256  30.421  1.00  0.00     0.032 C 
HETATM   18  C1  UNL     1      16.710  10.768  31.918  1.00  0.00     0.016 C 
HETATM   19  C3  UNL     1      17.129   9.957  29.695  1.00  0.00     0.016 C 
ENDBRANCH   1  17
BRANCH   6  20
HETATM   20  N3  UNL     1      14.581  13.591  31.259  1.00  0.00    -0.303 N 
HETATM   21  C16 UNL     1      14.397  13.832  32.593  1.00  0.00     0.263 C 
HETATM   22  O2  UNL     1      14.074  13.000  33.441  1.00  0.00    -0.269 OA
ATOM     23  H3  UNL     1      14.839  14.451  30.775  1.00  0.00     0.171 HD
BRANCH  21  24
HETATM   24  C17 UNL     1      14.590  15.221  33.156  1.00  0.00     0.176 C 
HETATM   25  C18 UNL     1      15.169  15.165  34.555  1.00  0.00     0.062 C 
HETATM   26  C19 UNL     1      13.218  15.855  33.188  1.00  0.00     0.062 C 
HETATM   27  F1  UNL     1      15.381  15.980  32.353  1.00  0.00    -0.233 F 
ENDBRANCH  21  24
ENDBRANCH   6  20
TORSDOF 6
ENDMDL
MODEL 4
REMARK VINA RESULT: -6.374436778      3.157      5.765
REMARK  6 active torsions:
REMARK  status: ('A' for Active; 'I' for Inactive)
REMARK    1  A    between atoms: C2_2  and  C4_4 
REMARK    2  A    between atoms: C5_7  and  C6_8 
REMARK    3  A    between atoms: N2_12  and  C10_13 
REMARK    4  A    between atoms: C10_13  and  C11_14 
REMARK    5  A    between atoms: C15_19  and  N3_20 
REMARK       I    between atoms: N3_20  and  C16_22 
REMARK    6  A    between atoms: C16_22  and  C17_24 
ROOT
HETATM    1  C4  UNL     1      15.027  11.702  30.379  1.00  0.00     0.066 A 
HETATM    2  N1  UNL     1      15.026  12.925  31.035  1.00  0.00    -0.339 N 
ATOM      3  H1  UNL     1      15.612  13.191  31.827  1.00  0.00     0.167 HD
HETATM    4  C5  UNL     1      14.108  13.689  30.427  1.00  0.00     0.135 A 
HETATM    5  O1  UNL     1      13.576  13.016  29.475  1.00  0.00    -0.278 OA
HETATM    6  C15 UNL     1      14.116  11.767  29.404  1.00  0.00     0.175 A 
ENDROOT
BRANCH   4   7
HETATM    7  C6  UNL     1      13.836  15.095  30.883  1.00  0.00     0.099 C 
HETATM    8  C7  UNL     1      12.348  15.192  31.065  1.00  0.00     0.020 C 
HETATM    9  C8  UNL     1      11.951  16.266  32.019  1.00  0.00     0.021 C 
HETATM   10  C9  UNL     1      12.639  15.923  33.353  1.00  0.00     0.127 C 
HETATM   11  N2  UNL     1      14.027  16.067  33.131  1.00  0.00    -0.373 N 
HETATM   12  C14 UNL     1      14.638  15.300  32.132  1.00  0.00     0.076 C 
BRANCH  11  13
HETATM   13  C10 UNL     1      14.773  16.170  34.320  1.00  0.00     0.067 C 
BRANCH  13  14
HETATM   14  C11 UNL     1      15.470  14.935  34.743  1.00  0.00     0.024 A 
HETATM   15  C12 UNL     1      15.148  14.432  36.110  1.00  0.00     0.010 A 
HETATM   16  C13 UNL     1      14.816  13.600  34.907  1.00  0.00     0.010 A 
ENDBRANCH  13  14
ENDBRANCH  11  13
ENDBRANCH   4   7
BRANCH   1  17
HETATM   17  C2  UNL     1      15.904  10.652  30.823  1.00  0.00     0.032 C 
HETATM   18  C1  UNL     1      17.010  10.398  29.732  1.00  0.00     0.016 C 
HETATM   19  C3  UNL     1      16.761  11.214  31.979  1.00  0.00     0.016 C 
ENDBRANCH   1  17
BRANCH   6  20
HETATM   20  N3  UNL     1      13.675  10.890  28.441  1.00  0.00    -0.303 N 
HETATM   21  C16 UNL     1      12.591  10.705  27.627  1.00  0.00     0.263 C 
HETATM   22  O2  UNL     1      11.589  11.418  27.582  1.00  0.00    -0.269 OA
ATOM     23  H3  UNL     1      14.365  10.155  28.286  1.00  0.00     0.171 HD
BRANCH  21  24
HETATM   24  C17 UNL     1      12.544   9.540  26.665  1.00  0.00     0.176 C 
HETATM   25  C18 UNL     1      13.414   9.801  25.453  1.00  0.00     0.062 C 
HETATM   26  C19 UNL     1      11.098   9.401  26.245  1.00  0.00     0.062 C 
HETATM   27  F1  UNL     1      12.917   8.380  27.267  1.00  0.00    -0.233 F 
ENDBRANCH  21  24
ENDBRANCH   6  20
TORSDOF 6
ENDMDL
MODEL 5
REMARK VINA RESULT: -6.290683428      4.602      7.460
REMARK  6 active torsions:
REMARK  status: ('A' for Active; 'I' for Inactive)
REMARK    1  A    between atoms: C2_2  and  C4_4 
REMARK    2  A    between atoms: C5_7  and  C6_8 
REMARK    3  A    between atoms: N2_12  and  C10_13 
REMARK    4  A    between atoms: C10_13  and  C11_14 
REMARK    5  A    between atoms: C15_19  and  N3_20 
REMARK       I    between atoms: N3_20  and  C16_22 
REMARK    6  A    between atoms: C16_22  and  C17_24 
ROOT
HETATM    1  C4  UNL     1      14.230  12.306  31.131  1.00  0.00     0.066 A 
HETATM    2  N1  UNL     1      15.039  12.769  32.159  1.00  0.00    -0.339 N 
ATOM      3  H1  UNL     1      15.882  12.321  32.519  1.00  0.00     0.167 HD
HETATM    4  C5  UNL     1      14.499  13.919  32.588  1.00  0.00     0.135 A 
HETATM    5  O1  UNL     1      13.447  14.163  31.898  1.00  0.00    -0.278 OA
HETATM    6  C15 UNL     1      13.237  13.184  30.974  1.00  0.00     0.175 A 
ENDROOT
BRANCH   4   7
HETATM    7  C6  UNL     1      15.121  14.703  33.709  1.00  0.00     0.099 C 
HETATM    8  C7  UNL     1      14.998  16.150  33.322  1.00  0.00     0.020 C 
HETATM    9  C8  UNL     1      15.026  17.067  34.496  1.00  0.00     0.021 C 
HETATM   10  C9  UNL     1      13.848  16.644  35.392  1.00  0.00     0.127 C 
HETATM   11  N2  UNL     1      14.162  15.354  35.875  1.00  0.00    -0.373 N 
HETATM   12  C14 UNL     1      14.385  14.320  34.957  1.00  0.00     0.076 C 
BRANCH  11  13
HETATM   13  C10 UNL     1      13.397  14.978  36.995  1.00  0.00     0.067 C 
BRANCH  13  14
HETATM   14  C11 UNL     1      12.176  14.195  36.699  1.00  0.00     0.024 A 
HETATM   15  C12 UNL     1      11.519  13.533  37.863  1.00  0.00     0.010 A 
HETATM   16  C13 UNL     1      10.790  14.595  37.095  1.00  0.00     0.010 A 
ENDBRANCH  13  14
ENDBRANCH  11  13
ENDBRANCH   4   7
BRANCH   1  17
HETATM   17  C2  UNL     1      14.546  11.065  30.477  1.00  0.00     0.032 C 
HETATM   18  C1  UNL     1      14.105  11.142  28.967  1.00  0.00     0.016 C 
HETATM   19  C3  UNL     1      16.081  10.989  30.327  1.00  0.00     0.016 C 
ENDBRANCH   1  17
BRANCH   6  20
HETATM   20  N3  UNL     1      12.153  13.269  30.131  1.00  0.00    -0.303 N 
HETATM   21  C16 UNL     1      11.009  14.004  29.985  1.00  0.00     0.263 C 
HETATM   22  O2  UNL     1      10.635  14.917  30.722  1.00  0.00    -0.269 OA
ATOM     23  H3  UNL     1      12.223  12.571  29.391  1.00  0.00     0.171 HD
BRANCH  21  24
HETATM   24  C17 UNL     1      10.063  13.733  28.837  1.00  0.00     0.176 C 
HETATM   25  C18 UNL     1      10.648  12.714  27.882  1.00  0.00     0.062 C 
HETATM   26  C19 UNL     1       9.872  15.056  28.131  1.00  0.00     0.062 C 
HETATM   27  F1  UNL     1       8.848  13.317  29.279  1.00  0.00    -0.233 F 
ENDBRANCH  21  24
ENDBRANCH   6  20
TORSDOF 6
ENDMDL
