MODEL 1
REMARK VINA RESULT: -5.617197555      0.000      0.000
REMARK  8 active torsions:
REMARK  status: ('A' for Active; 'I' for Inactive)
REMARK    1  A    between atoms: C7_9  and  C8_10 
REMARK    2  A    between atoms: C7_9  and  C14_17 
REMARK    3  A    between atoms: C8_10  and  C9_11 
REMARK    4  A    between atoms: C10_12  and  C11_13 
REMARK    5  A    between atoms: C11_13  and  C12_14 
REMARK    6  A    between atoms: C12_14  and  C13_15 
REMARK    7  A    between atoms: C14_17  and  O3_18 
REMARK    8  A    between atoms: N1_20  and  O4_22 
ROOT
HETATM    1  C1  UNL     1      15.090  17.358  34.086  1.00  0.00     0.027 C 
HETATM    2  C2  UNL     1      13.904  16.628  34.595  1.00  0.00     0.056 C 
HETATM    3  C3  UNL     1      12.685  16.968  33.786  1.00  0.00     0.027 C 
HETATM    4  C4  UNL     1      13.653  17.074  35.991  1.00  0.00     0.268 C 
HETATM    5  O1  UNL     1      14.120  18.163  36.444  1.00  0.00    -0.264 OA
HETATM    6  O2  UNL     1      12.894  16.277  36.801  1.00  0.00    -0.321 OA
HETATM    7  C5  UNL     1      12.285  15.103  36.385  1.00  0.00     0.180 C 
HETATM    8  C6  UNL     1      12.867  14.456  35.193  1.00  0.00     0.046 C 
HETATM    9  C7  UNL     1      14.056  15.112  34.595  1.00  0.00     0.048 C 
ENDROOT
BRANCH   9  10
HETATM   10  C8  UNL     1      14.146  14.655  33.142  1.00  0.00     0.046 C 
BRANCH  10  11
HETATM   11  C9  UNL     1      14.352  13.223  32.950  1.00  0.00    -0.029 C 
HETATM   12  C10 UNL     1      13.946  12.527  31.906  1.00  0.00    -0.031 C 
BRANCH  12  13
HETATM   13  C11 UNL     1      13.214  13.034  30.735  1.00  0.00     0.027 C 
BRANCH  13  14
HETATM   14  C12 UNL     1      13.166  12.033  29.599  1.00  0.00     0.014 C 
BRANCH  14  15
HETATM   15  C13 UNL     1      14.360  11.103  29.642  1.00  0.00     0.085 C 
HETATM   16 BR1  UNL     1      14.195   9.928  28.096  1.00  0.00    -0.097 Br
ENDBRANCH  14  15
ENDBRANCH  13  14
ENDBRANCH  12  13
ENDBRANCH  10  11
ENDBRANCH   9  10
BRANCH   9  17
HETATM   17  C14 UNL     1      15.258  14.699  35.346  1.00  0.00     0.145 C 
HETATM   18  N1  UNL     1      15.186  14.100  36.487  1.00  0.00    -0.250 N 
ATOM     19  H1  UNL     1      14.259  13.912  36.868  1.00  0.00     0.196 HD
BRANCH  17  20
HETATM   20  O3  UNL     1      16.505  14.964  34.812  1.00  0.00    -0.347 OA
ATOM     21  H3  UNL     1      16.838  14.404  34.120  1.00  0.00     0.219 HD
ENDBRANCH  17  20
BRANCH  18  22
HETATM   22  O4  UNL     1      16.258  13.705  37.210  1.00  0.00    -0.288 OA
ATOM     23  H4  UNL     1      17.104  14.135  37.193  1.00  0.00     0.244 HD
ENDBRANCH  18  22
ENDBRANCH   9  17
TORSDOF 8
ENDMDL
MODEL 2
REMARK VINA RESULT: -5.442489834      1.623      1.895
REMARK  8 active torsions:
REMARK  status: ('A' for Active; 'I' for Inactive)
REMARK    1  A    between atoms: C7_9  and  C8_10 
REMARK    2  A    between atoms: C7_9  and  C14_17 
REMARK    3  A    between atoms: C8_10  and  C9_11 
REMARK    4  A    between atoms: C10_12  and  C11_13 
REMARK    5  A    between atoms: C11_13  and  C12_14 
REMARK    6  A    between atoms: C12_14  and  C13_15 
REMARK    7  A    between atoms: C14_17  and  O3_18 
REMARK    8  A    between atoms: N1_20  and  O4_22 
ROOT
HETATM    1  C1  UNL     1      15.165  17.406  34.156  1.00  0.00     0.027 C 
HETATM    2  C2  UNL     1      13.959  16.663  34.595  1.00  0.00     0.056 C 
HETATM    3  C3  UNL     1      12.775  17.026  33.744  1.00  0.00     0.027 C 
HETATM    4  C4  UNL     1      13.649  17.072  35.990  1.00  0.00     0.268 C 
HETATM    5  O1  UNL     1      14.096  18.149  36.491  1.00  0.00    -0.264 OA
HETATM    6  O2  UNL     1      12.856  16.255  36.745  1.00  0.00    -0.321 OA
HETATM    7  C5  UNL     1      12.266  15.092  36.272  1.00  0.00     0.180 C 
HETATM    8  C6  UNL     1      12.898  14.477  35.089  1.00  0.00     0.046 C 
HETATM    9  C7  UNL     1      14.112  15.148  34.560  1.00  0.00     0.048 C 
ENDROOT
BRANCH   9  10
HETATM   10  C8  UNL     1      14.264  14.730  33.101  1.00  0.00     0.046 C 
BRANCH  10  11
HETATM   11  C9  UNL     1      14.165  13.296  32.849  1.00  0.00    -0.029 C 
HETATM   12  C10 UNL     1      13.814  12.744  31.703  1.00  0.00    -0.031 C 
BRANCH  12  13
HETATM   13  C11 UNL     1      13.454  13.442  30.459  1.00  0.00     0.027 C 
BRANCH  13  14
HETATM   14  C12 UNL     1      11.959  13.643  30.315  1.00  0.00     0.014 C 
BRANCH  14  15
HETATM   15  C13 UNL     1      11.591  15.106  30.453  1.00  0.00     0.085 C 
HETATM   16 BR1  UNL     1      13.117  16.120  29.789  1.00  0.00    -0.097 Br
ENDBRANCH  14  15
ENDBRANCH  13  14
ENDBRANCH  12  13
ENDBRANCH  10  11
ENDBRANCH   9  10
BRANCH   9  17
HETATM   17  C14 UNL     1      15.281  14.715  35.350  1.00  0.00     0.145 C 
HETATM   18  N1  UNL     1      15.161  14.134  36.497  1.00  0.00    -0.250 N 
ATOM     19  H1  UNL     1      14.220  13.976  36.855  1.00  0.00     0.196 HD
BRANCH  17  20
HETATM   20  O3  UNL     1      16.549  14.938  34.848  1.00  0.00    -0.347 OA
ATOM     21  H3  UNL     1      16.664  15.578  34.155  1.00  0.00     0.219 HD
ENDBRANCH  17  20
BRANCH  18  22
HETATM   22  O4  UNL     1      16.202  13.722  37.255  1.00  0.00    -0.288 OA
ATOM     23  H4  UNL     1      16.832  13.064  36.987  1.00  0.00     0.244 HD
ENDBRANCH  18  22
ENDBRANCH   9  17
TORSDOF 8
ENDMDL
MODEL 3
REMARK VINA RESULT: -5.395016853      1.696      1.986
REMARK  8 active torsions:
REMARK  status: ('A' for Active; 'I' for Inactive)
REMARK    1  A    between atoms: C7_9  and  C8_10 
REMARK    2  A    between atoms: C7_9  and  C14_17 
REMARK    3  A    between atoms: C8_10  and  C9_11 
REMARK    4  A    between atoms: C10_12  and  C11_13 
REMARK    5  A    between atoms: C11_13  and  C12_14 
REMARK    6  A    between atoms: C12_14  and  C13_15 
REMARK    7  A    between atoms: C14_17  and  O3_18 
REMARK    8  A    between atoms: N1_20  and  O4_22 
ROOT
HETATM    1  C1  UNL     1      13.646  18.156  34.594  1.00  0.00     0.027 C 
HETATM    2  C2  UNL     1      13.296  16.772  34.996  1.00  0.00     0.056 C 
HETATM    3  C3  UNL     1      11.823  16.527  34.825  1.00  0.00     0.027 C 
HETATM    4  C4  UNL     1      13.610  16.619  36.441  1.00  0.00     0.268 C 
HETATM    5  O1  UNL     1      13.739  17.618  37.212  1.00  0.00    -0.264 OA
HETATM    6  O2  UNL     1      13.762  15.357  36.942  1.00  0.00    -0.321 OA
HETATM    7  C5  UNL     1      13.578  14.199  36.200  1.00  0.00     0.180 C 
HETATM    8  C6  UNL     1      13.701  14.339  34.737  1.00  0.00     0.046 C 
HETATM    9  C7  UNL     1      14.040  15.690  34.224  1.00  0.00     0.048 C 
ENDROOT
BRANCH   9  10
HETATM   10  C8  UNL     1      13.579  15.756  32.771  1.00  0.00     0.046 C 
BRANCH  10  11
HETATM   11  C9  UNL     1      14.524  15.228  31.793  1.00  0.00    -0.029 C 
HETATM   12  C10 UNL     1      14.371  14.109  31.110  1.00  0.00    -0.031 C 
BRANCH  12  13
HETATM   13  C11 UNL     1      13.238  13.175  31.188  1.00  0.00     0.027 C 
BRANCH  13  14
HETATM   14  C12 UNL     1      13.670  11.726  31.093  1.00  0.00     0.014 C 
BRANCH  14  15
HETATM   15  C13 UNL     1      14.492  11.484  29.844  1.00  0.00     0.085 C 
HETATM   16 BR1  UNL     1      16.260  10.932  30.450  1.00  0.00    -0.097 Br
ENDBRANCH  14  15
ENDBRANCH  13  14
ENDBRANCH  12  13
ENDBRANCH  10  11
ENDBRANCH   9  10
BRANCH   9  17
HETATM   17  C14 UNL     1      15.501  15.883  34.316  1.00  0.00     0.145 C 
HETATM   18  N1  UNL     1      16.082  16.959  33.901  1.00  0.00    -0.250 N 
ATOM     19  H1  UNL     1      15.497  17.691  33.498  1.00  0.00     0.196 HD
BRANCH  17  20
HETATM   20  O3  UNL     1      16.276  14.879  34.865  1.00  0.00    -0.347 OA
ATOM     21  H3  UNL     1      16.488  14.915  35.790  1.00  0.00     0.219 HD
ENDBRANCH  17  20
BRANCH  18  22
HETATM   22  O4  UNL     1      17.414  17.179  33.964  1.00  0.00    -0.288 OA
ATOM     23  H4  UNL     1      17.887  17.772  33.393  1.00  0.00     0.244 HD
ENDBRANCH  18  22
ENDBRANCH   9  17
TORSDOF 8
ENDMDL
MODEL 4
REMARK VINA RESULT: -5.263749044      1.241      1.558
REMARK  8 active torsions:
REMARK  status: ('A' for Active; 'I' for Inactive)
REMARK    1  A    between atoms: C7_9  and  C8_10 
REMARK    2  A    between atoms: C7_9  and  C14_17 
REMARK    3  A    between atoms: C8_10  and  C9_11 
REMARK    4  A    between atoms: C10_12  and  C11_13 
REMARK    5  A    between atoms: C11_13  and  C12_14 
REMARK    6  A    between atoms: C12_14  and  C13_15 
REMARK    7  A    between atoms: C14_17  and  O3_18 
REMARK    8  A    between atoms: N1_20  and  O4_22 
ROOT
HETATM    1  C1  UNL     1      13.654  17.723  33.393  1.00  0.00     0.027 C 
HETATM    2  C2  UNL     1      13.254  16.623  34.303  1.00  0.00     0.056 C 
HETATM    3  C3  UNL     1      11.819  16.243  34.077  1.00  0.00     0.027 C 
HETATM    4  C4  UNL     1      13.371  17.118  35.701  1.00  0.00     0.268 C 
HETATM    5  O1  UNL     1      13.394  18.356  35.977  1.00  0.00    -0.264 OA
HETATM    6  O2  UNL     1      13.456  16.200  36.709  1.00  0.00    -0.321 OA
HETATM    7  C5  UNL     1      13.376  14.828  36.519  1.00  0.00     0.180 C 
HETATM    8  C6  UNL     1      13.694  14.340  35.164  1.00  0.00     0.046 C 
HETATM    9  C7  UNL     1      14.097  15.362  34.167  1.00  0.00     0.048 C 
ENDROOT
BRANCH   9  10
HETATM   10  C8  UNL     1      13.836  14.777  32.782  1.00  0.00     0.046 C 
BRANCH  10  11
HETATM   11  C9  UNL     1      14.370  13.437  32.561  1.00  0.00    -0.029 C 
HETATM   12  C10 UNL     1      13.927  12.577  31.663  1.00  0.00    -0.031 C 
BRANCH  12  13
HETATM   13  C11 UNL     1      12.823  12.782  30.713  1.00  0.00     0.027 C 
BRANCH  13  14
HETATM   14  C12 UNL     1      13.042  12.058  29.400  1.00  0.00     0.014 C 
BRANCH  14  15
HETATM   15  C13 UNL     1      14.252  11.151  29.475  1.00  0.00     0.085 C 
HETATM   16 BR1  UNL     1      14.092   9.901  27.988  1.00  0.00    -0.097 Br
ENDBRANCH  14  15
ENDBRANCH  13  14
ENDBRANCH  12  13
ENDBRANCH  10  11
ENDBRANCH   9  10
BRANCH   9  17
HETATM   17  C14 UNL     1      15.532  15.662  34.343  1.00  0.00     0.145 C 
HETATM   18  N1  UNL     1      16.085  16.711  33.834  1.00  0.00    -0.250 N 
ATOM     19  H1  UNL     1      15.497  17.345  33.294  1.00  0.00     0.196 HD
BRANCH  17  20
HETATM   20  O3  UNL     1      16.313  14.790  35.078  1.00  0.00    -0.347 OA
ATOM     21  H3  UNL     1      17.237  14.711  34.869  1.00  0.00     0.219 HD
ENDBRANCH  17  20
BRANCH  18  22
HETATM   22  O4  UNL     1      17.393  17.026  33.968  1.00  0.00    -0.288 OA
ATOM     23  H4  UNL     1      17.828  17.723  33.493  1.00  0.00     0.244 HD
ENDBRANCH  18  22
ENDBRANCH   9  17
TORSDOF 8
ENDMDL
MODEL 5
REMARK VINA RESULT: -5.206636764      8.375     11.393
REMARK  8 active torsions:
REMARK  status: ('A' for Active; 'I' for Inactive)
REMARK    1  A    between atoms: C7_9  and  C8_10 
REMARK    2  A    between atoms: C7_9  and  C14_17 
REMARK    3  A    between atoms: C8_10  and  C9_11 
REMARK    4  A    between atoms: C10_12  and  C11_13 
REMARK    5  A    between atoms: C11_13  and  C12_14 
REMARK    6  A    between atoms: C12_14  and  C13_15 
REMARK    7  A    between atoms: C14_17  and  O3_18 
REMARK    8  A    between atoms: N1_20  and  O4_22 
ROOT
HETATM    1  C1  UNL     1       9.799  11.239  25.374  1.00  0.00     0.027 C 
HETATM    2  C2  UNL     1      10.977  10.603  24.735  1.00  0.00     0.056 C 
HETATM    3  C3  UNL     1      12.172  11.510  24.807  1.00  0.00     0.027 C 
HETATM    4  C4  UNL     1      10.662  10.392  23.297  1.00  0.00     0.268 C 
HETATM    5  O1  UNL     1       9.738  11.032  22.709  1.00  0.00    -0.264 OA
HETATM    6  O2  UNL     1      11.397   9.476  22.600  1.00  0.00    -0.321 OA
HETATM    7  C5  UNL     1      12.468   8.772  23.131  1.00  0.00     0.180 C 
HETATM    8  C6  UNL     1      12.500   8.652  24.601  1.00  0.00     0.046 C 
HETATM    9  C7  UNL     1      11.371   9.264  25.344  1.00  0.00     0.048 C 
ENDROOT
BRANCH   9  10
HETATM   10  C8  UNL     1      11.849   9.524  26.769  1.00  0.00     0.046 C 
BRANCH  10  11
HETATM   11  C9  UNL     1      13.186   9.028  27.078  1.00  0.00    -0.029 C 
HETATM   12  C10 UNL     1      14.077   9.650  27.827  1.00  0.00    -0.031 C 
BRANCH  12  13
HETATM   13  C11 UNL     1      13.917  10.951  28.494  1.00  0.00     0.027 C 
BRANCH  13  14
HETATM   14  C12 UNL     1      14.192  10.880  29.982  1.00  0.00     0.014 C 
BRANCH  14  15
HETATM   15  C13 UNL     1      15.374  11.749  30.359  1.00  0.00     0.085 C 
HETATM   16 BR1  UNL     1      16.937  10.585  30.343  1.00  0.00    -0.097 Br
ENDBRANCH  14  15
ENDBRANCH  13  14
ENDBRANCH  12  13
ENDBRANCH  10  11
ENDBRANCH   9  10
BRANCH   9  17
HETATM   17  C14 UNL     1      10.232   8.325  25.340  1.00  0.00     0.145 C 
HETATM   18  N1  UNL     1      10.218   7.259  24.612  1.00  0.00    -0.250 N 
ATOM     19  H1  UNL     1      11.031   7.074  24.025  1.00  0.00     0.196 HD
BRANCH  17  20
HETATM   20  O3  UNL     1       9.139   8.594  26.143  1.00  0.00    -0.347 OA
ATOM     21  H3  UNL     1       8.281   8.290  25.871  1.00  0.00     0.219 HD
ENDBRANCH  17  20
BRANCH  18  22
HETATM   22  O4  UNL     1       9.199   6.372  24.576  1.00  0.00    -0.288 OA
ATOM     23  H4  UNL     1       8.996   5.819  23.831  1.00  0.00     0.244 HD
ENDBRANCH  18  22
ENDBRANCH   9  17
TORSDOF 8
ENDMDL
