MODEL 1
REMARK VINA RESULT: -5.375372163      0.000      0.000
REMARK  7 active torsions:
REMARK  status: ('A' for Active; 'I' for Inactive)
REMARK    1  A    between atoms: C2_2  and  C3_3 
REMARK    2  A    between atoms: C3_3  and  C4_4 
REMARK    3  A    between atoms: C3_3  and  C13_19 
REMARK    4  A    between atoms: C4_4  and  C5_5 
REMARK    5  A    between atoms: C5_5  and  O1_6 
REMARK    6  A    between atoms: C5_5  and  C6_8 
REMARK    7  A    between atoms: C6_8  and  C7_9 
ROOT
HETATM    1  C6  UNL     1      13.505  13.877  31.973  1.00  0.00     0.048 C 
ENDROOT
BRANCH   1   2
HETATM    2  C5  UNL     1      14.456  12.744  31.903  1.00  0.00     0.120 C 
BRANCH   2   3
HETATM    3  C4  UNL     1      15.020  12.402  30.587  1.00  0.00     0.047 C 
BRANCH   3   4
HETATM    4  C3  UNL     1      15.365  10.920  30.467  1.00  0.00     0.089 C 
BRANCH   4   5
HETATM    5  C2  UNL     1      14.784  10.399  29.167  1.00  0.00     0.011 C 
HETATM    6  C1  UNL     1      13.630  11.169  28.639  1.00  0.00     0.006 C 
ENDBRANCH   4   5
BRANCH   4   7
HETATM    7  C13 UNL     1      16.763  10.578  30.659  1.00  0.00     0.177 C 
HETATM    8  O2  UNL     1      17.495   9.986  29.807  1.00  0.00    -0.648 OA
HETATM    9  O3  UNL     1      17.445  10.890  31.857  1.00  0.00    -0.648 OA
ENDBRANCH   4   7
ENDBRANCH   3   4
ENDBRANCH   2   3
BRANCH   2  10
HETATM   10  O1  UNL     1      15.547  13.156  32.735  1.00  0.00    -0.396 OA
ATOM     11  H1  UNL     1      15.272  13.035  33.637  1.00  0.00     0.210 HD
ENDBRANCH   2  10
ENDBRANCH   1   2
BRANCH   1  12
HETATM   12  C7  UNL     1      13.497  14.892  30.917  1.00  0.00     0.067 C 
HETATM   13  S1  UNL     1      13.401  16.617  31.481  1.00  0.00    -0.092 SA
HETATM   14  S2  UNL     1      12.806  17.362  29.527  1.00  0.00    -0.091 SA
HETATM   15  C8  UNL     1      12.605  15.673  28.810  1.00  0.00     0.074 C 
HETATM   16  C9  UNL     1      11.588  15.645  27.760  1.00  0.00     0.090 C 
HETATM   17  C12 UNL     1      12.323  14.764  29.986  1.00  0.00     0.035 C 
HETATM   18  S3  UNL     1      10.199  14.552  28.046  1.00  0.00    -0.166 SA
HETATM   19  C10 UNL     1      10.010  14.076  29.767  1.00  0.00     0.094 C 
HETATM   20  C11 UNL     1      10.986  14.943  30.581  1.00  0.00     0.098 C 
HETATM   21 CL1  UNL     1      10.365  16.605  30.562  1.00  0.00    -0.124 Cl
ENDBRANCH   1  12
TORSDOF 7
ENDMDL
MODEL 2
REMARK VINA RESULT: -5.354874219      4.403      5.984
REMARK  7 active torsions:
REMARK  status: ('A' for Active; 'I' for Inactive)
REMARK    1  A    between atoms: C2_2  and  C3_3 
REMARK    2  A    between atoms: C3_3  and  C4_4 
REMARK    3  A    between atoms: C3_3  and  C13_19 
REMARK    4  A    between atoms: C4_4  and  C5_5 
REMARK    5  A    between atoms: C5_5  and  O1_6 
REMARK    6  A    between atoms: C5_5  and  C6_8 
REMARK    7  A    between atoms: C6_8  and  C7_9 
ROOT
HETATM    1  C6  UNL     1      13.089  10.571  27.730  1.00  0.00     0.048 C 
ENDROOT
BRANCH   1   2
HETATM    2  C5  UNL     1      14.404  10.580  28.411  1.00  0.00     0.120 C 
BRANCH   2   3
HETATM    3  C4  UNL     1      14.415  10.638  29.883  1.00  0.00     0.047 C 
BRANCH   3   4
HETATM    4  C3  UNL     1      15.557  11.494  30.425  1.00  0.00     0.089 C 
BRANCH   4   5
HETATM    5  C2  UNL     1      15.007  12.378  31.526  1.00  0.00     0.011 C 
HETATM    6  C1  UNL     1      13.533  12.339  31.691  1.00  0.00     0.006 C 
ENDBRANCH   4   5
BRANCH   4   7
HETATM    7  C13 UNL     1      16.762  10.777  30.798  1.00  0.00     0.177 C 
HETATM    8  O2  UNL     1      17.329  10.841  31.932  1.00  0.00    -0.648 OA
HETATM    9  O3  UNL     1      17.426   9.918  29.892  1.00  0.00    -0.648 OA
ENDBRANCH   4   7
ENDBRANCH   3   4
ENDBRANCH   2   3
BRANCH   2  10
HETATM   10  O1  UNL     1      14.997   9.332  28.034  1.00  0.00    -0.396 OA
ATOM     11  H1  UNL     1      15.916   9.501  27.859  1.00  0.00     0.210 HD
ENDBRANCH   2  10
ENDBRANCH   1   2
BRANCH   1  12
HETATM   12  C7  UNL     1      12.833   9.620  26.646  1.00  0.00     0.067 C 
HETATM   13  S1  UNL     1      13.582  10.032  25.041  1.00  0.00    -0.092 SA
HETATM   14  S2  UNL     1      12.303   8.659  23.943  1.00  0.00    -0.091 SA
HETATM   15  C8  UNL     1      11.250   8.275  25.409  1.00  0.00     0.074 C 
HETATM   16  C9  UNL     1       9.880   7.940  25.022  1.00  0.00     0.090 C 
HETATM   17  C12 UNL     1      11.371   9.476  26.321  1.00  0.00     0.035 C 
HETATM   18  S3  UNL     1       8.599   8.999  25.688  1.00  0.00    -0.166 SA
HETATM   19  C10 UNL     1       9.215  10.579  26.277  1.00  0.00     0.094 C 
HETATM   20  C11 UNL     1      10.683  10.683  25.828  1.00  0.00     0.098 C 
HETATM   21 CL1  UNL     1      10.688  10.890  24.066  1.00  0.00    -0.124 Cl
ENDBRANCH   1  12
TORSDOF 7
ENDMDL
MODEL 3
REMARK VINA RESULT: -5.305172761      2.835      3.578
REMARK  7 active torsions:
REMARK  status: ('A' for Active; 'I' for Inactive)
REMARK    1  A    between atoms: C2_2  and  C3_3 
REMARK    2  A    between atoms: C3_3  and  C4_4 
REMARK    3  A    between atoms: C3_3  and  C13_19 
REMARK    4  A    between atoms: C4_4  and  C5_5 
REMARK    5  A    between atoms: C5_5  and  O1_6 
REMARK    6  A    between atoms: C5_5  and  C6_8 
REMARK    7  A    between atoms: C6_8  and  C7_9 
ROOT
HETATM    1  C6  UNL     1      13.797  13.929  32.322  1.00  0.00     0.048 C 
ENDROOT
BRANCH   1   2
HETATM    2  C5  UNL     1      14.622  12.720  32.097  1.00  0.00     0.120 C 
BRANCH   2   3
HETATM    3  C4  UNL     1      15.051  12.427  30.719  1.00  0.00     0.047 C 
BRANCH   3   4
HETATM    4  C3  UNL     1      15.354  10.947  30.503  1.00  0.00     0.089 C 
BRANCH   4   5
HETATM    5  C2  UNL     1      14.721  10.518  29.194  1.00  0.00     0.011 C 
HETATM    6  C1  UNL     1      13.542  11.313  28.772  1.00  0.00     0.006 C 
ENDBRANCH   4   5
BRANCH   4   7
HETATM    7  C13 UNL     1      16.747  10.562  30.632  1.00  0.00     0.177 C 
HETATM    8  O2  UNL     1      17.426   9.965  29.740  1.00  0.00    -0.648 OA
HETATM    9  O3  UNL     1      17.486  10.830  31.807  1.00  0.00    -0.648 OA
ENDBRANCH   4   7
ENDBRANCH   3   4
ENDBRANCH   2   3
BRANCH   2  10
HETATM   10  O1  UNL     1      15.807  12.962  32.865  1.00  0.00    -0.396 OA
ATOM     11  H1  UNL     1      15.726  13.832  33.237  1.00  0.00     0.210 HD
ENDBRANCH   2  10
ENDBRANCH   1   2
BRANCH   1  12
HETATM   12  C7  UNL     1      14.203  14.914  33.327  1.00  0.00     0.067 C 
HETATM   13  S1  UNL     1      13.556  14.642  35.005  1.00  0.00    -0.092 SA
HETATM   14  S2  UNL     1      13.997  16.671  35.647  1.00  0.00    -0.091 SA
HETATM   15  C8  UNL     1      14.473  17.233  33.955  1.00  0.00     0.074 C 
HETATM   16  C9  UNL     1      14.197  18.655  33.756  1.00  0.00     0.090 C 
HETATM   17  C12 UNL     1      13.747  16.310  33.002  1.00  0.00     0.035 C 
HETATM   18  S3  UNL     1      13.058  19.052  32.433  1.00  0.00    -0.166 SA
HETATM   19  C10 UNL     1      12.050  17.658  31.918  1.00  0.00     0.094 C 
HETATM   20  C11 UNL     1      12.290  16.531  32.938  1.00  0.00     0.098 C 
HETATM   21 CL1  UNL     1      11.532  17.022  34.464  1.00  0.00    -0.124 Cl
ENDBRANCH   1  12
TORSDOF 7
ENDMDL
MODEL 4
REMARK VINA RESULT: -5.198175652      3.534      4.624
REMARK  7 active torsions:
REMARK  status: ('A' for Active; 'I' for Inactive)
REMARK    1  A    between atoms: C2_2  and  C3_3 
REMARK    2  A    between atoms: C3_3  and  C4_4 
REMARK    3  A    between atoms: C3_3  and  C13_19 
REMARK    4  A    between atoms: C4_4  and  C5_5 
REMARK    5  A    between atoms: C5_5  and  O1_6 
REMARK    6  A    between atoms: C5_5  and  C6_8 
REMARK    7  A    between atoms: C6_8  and  C7_9 
ROOT
HETATM    1  C6  UNL     1      14.196  13.710  33.074  1.00  0.00     0.048 C 
ENDROOT
BRANCH   1   2
HETATM    2  C5  UNL     1      13.581  13.209  31.825  1.00  0.00     0.120 C 
BRANCH   2   3
HETATM    3  C4  UNL     1      14.473  12.907  30.693  1.00  0.00     0.047 C 
BRANCH   3   4
HETATM    4  C3  UNL     1      14.827  11.424  30.608  1.00  0.00     0.089 C 
BRANCH   4   5
HETATM    5  C2  UNL     1      14.358  10.899  29.266  1.00  0.00     0.011 C 
HETATM    6  C1  UNL     1      13.213  11.628  28.667  1.00  0.00     0.006 C 
ENDBRANCH   4   5
BRANCH   4   7
HETATM    7  C13 UNL     1      16.203  11.084  30.920  1.00  0.00     0.177 C 
HETATM    8  O2  UNL     1      16.770  11.280  32.039  1.00  0.00    -0.648 OA
HETATM    9  O3  UNL     1      17.054  10.485  29.963  1.00  0.00    -0.648 OA
ENDBRANCH   4   7
ENDBRANCH   3   4
ENDBRANCH   2   3
BRANCH   2  10
HETATM   10  O1  UNL     1      12.960  11.978  32.213  1.00  0.00    -0.396 OA
ATOM     11  H1  UNL     1      13.502  11.274  31.876  1.00  0.00     0.210 HD
ENDBRANCH   2  10
ENDBRANCH   1   2
BRANCH   1  12
HETATM   12  C7  UNL     1      13.948  15.087  33.511  1.00  0.00     0.067 C 
HETATM   13  S1  UNL     1      15.408  16.008  34.083  1.00  0.00    -0.092 SA
HETATM   14  S2  UNL     1      14.219  17.529  35.083  1.00  0.00    -0.091 SA
HETATM   15  C8  UNL     1      12.628  16.633  34.819  1.00  0.00     0.074 C 
HETATM   16  C9  UNL     1      11.662  16.914  35.880  1.00  0.00     0.090 C 
HETATM   17  C12 UNL     1      13.002  15.174  34.677  1.00  0.00     0.035 C 
HETATM   18  S3  UNL     1      11.098  15.498  36.818  1.00  0.00    -0.166 SA
HETATM   19  C10 UNL     1      12.174  14.068  36.667  1.00  0.00     0.094 C 
HETATM   20  C11 UNL     1      13.442  14.538  35.933  1.00  0.00     0.098 C 
HETATM   21 CL1  UNL     1      14.341  15.592  37.041  1.00  0.00    -0.124 Cl
ENDBRANCH   1  12
TORSDOF 7
ENDMDL
MODEL 5
REMARK VINA RESULT: -5.192811975      2.857      4.381
REMARK  7 active torsions:
REMARK  status: ('A' for Active; 'I' for Inactive)
REMARK    1  A    between atoms: C2_2  and  C3_3 
REMARK    2  A    between atoms: C3_3  and  C4_4 
REMARK    3  A    between atoms: C3_3  and  C13_19 
REMARK    4  A    between atoms: C4_4  and  C5_5 
REMARK    5  A    between atoms: C5_5  and  O1_6 
REMARK    6  A    between atoms: C5_5  and  C6_8 
REMARK    7  A    between atoms: C6_8  and  C7_9 
ROOT
HETATM    1  C6  UNL     1      13.711  14.476  31.155  1.00  0.00     0.048 C 
ENDROOT
BRANCH   1   2
HETATM    2  C5  UNL     1      12.981  13.285  30.668  1.00  0.00     0.120 C 
BRANCH   2   3
HETATM    3  C4  UNL     1      13.274  11.990  31.307  1.00  0.00     0.047 C 
BRANCH   3   4
HETATM    4  C3  UNL     1      14.281  11.163  30.513  1.00  0.00     0.089 C 
BRANCH   4   5
HETATM    5  C2  UNL     1      14.018  11.380  29.036  1.00  0.00     0.011 C 
HETATM    6  C1  UNL     1      13.978  10.147  28.213  1.00  0.00     0.006 C 
ENDBRANCH   4   5
BRANCH   4   7
HETATM    7  C13 UNL     1      15.673  11.331  30.888  1.00  0.00     0.177 C 
HETATM    8  O2  UNL     1      16.669  11.014  30.167  1.00  0.00    -0.648 OA
HETATM    9  O3  UNL     1      16.044  11.881  32.137  1.00  0.00    -0.648 OA
ENDBRANCH   4   7
ENDBRANCH   3   4
ENDBRANCH   2   3
BRANCH   2  10
HETATM   10  O1  UNL     1      11.606  13.587  30.939  1.00  0.00    -0.396 OA
ATOM     11  H1  UNL     1      11.389  14.368  30.444  1.00  0.00     0.210 HD
ENDBRANCH   2  10
ENDBRANCH   1   2
BRANCH   1  12
HETATM   12  C7  UNL     1      13.093  15.359  32.148  1.00  0.00     0.067 C 
HETATM   13  S1  UNL     1      13.331  17.141  31.878  1.00  0.00    -0.092 SA
HETATM   14  S2  UNL     1      12.770  17.658  33.914  1.00  0.00    -0.091 SA
HETATM   15  C8  UNL     1      12.703  15.901  34.472  1.00  0.00     0.074 C 
HETATM   16  C9  UNL     1      13.030  15.767  35.891  1.00  0.00     0.090 C 
HETATM   17  C12 UNL     1      13.622  15.143  33.539  1.00  0.00     0.035 C 
HETATM   18  S3  UNL     1      14.447  14.743  36.273  1.00  0.00    -0.166 SA
HETATM   19  C10 UNL     1      15.535  14.478  34.870  1.00  0.00     0.094 C 
HETATM   20  C11 UNL     1      15.056  15.418  33.749  1.00  0.00     0.098 C 
HETATM   21 CL1  UNL     1      15.445  17.077  34.241  1.00  0.00    -0.124 Cl
ENDBRANCH   1  12
TORSDOF 7
ENDMDL
