MODEL 1
REMARK VINA RESULT: -5.371117127      0.000      0.000
REMARK  8 active torsions:
REMARK  status: ('A' for Active; 'I' for Inactive)
REMARK    1  A    between atoms: C2_2  and  C3_3 
REMARK    2  A    between atoms: C3_3  and  N1_4 
REMARK    3  A    between atoms: N1_4  and  N2_5 
REMARK    4  A    between atoms: N1_4  and  C9_13 
REMARK       I    between atoms: N2_5  and  C4_7 
REMARK    5  A    between atoms: C4_7  and  C5_9 
REMARK    6  A    between atoms: C10_16  and  N4_17 
REMARK    7  A    between atoms: N4_17  and  C11_19 
REMARK    8  A    between atoms: C11_19  and  C14_22 
ROOT
HETATM    1  C9  UNL     1      13.574  12.657  29.989  1.00  0.00     0.197 A 
HETATM    2  N3  UNL     1      13.852  13.720  30.707  1.00  0.00    -0.167 N 
ATOM      3  H3  UNL     1      13.366  14.598  30.525  1.00  0.00     0.186 HD
HETATM    4  C10 UNL     1      14.745  13.658  31.651  1.00  0.00     0.687 A 
HETATM    5  N5  UNL     1      15.353  12.490  31.852  1.00  0.00    -0.157 N 
ATOM      6  H5  UNL     1      16.071  12.249  32.536  1.00  0.00     0.193 HD
HETATM    7  S1  UNL     1      14.620  11.499  30.669  1.00  0.00     0.040 SA
ENDROOT
BRANCH   1   8
HETATM    8  N1  UNL     1      12.629  12.569  28.931  1.00  0.00    -0.267 N 
BRANCH   8   9
HETATM    9  C3  UNL     1      11.877  13.713  28.535  1.00  0.00     0.151 C 
BRANCH   9  10
HETATM   10  C2  UNL     1      10.379  13.508  28.715  1.00  0.00     0.017 C 
HETATM   11  C1  UNL     1       9.971  14.232  29.977  1.00  0.00     0.007 C 
ENDBRANCH   9  10
ENDBRANCH   8   9
BRANCH   8  12
HETATM   12  N2  UNL     1      12.437  11.348  28.282  1.00  0.00    -0.265 N 
HETATM   13  C4  UNL     1      12.831  11.058  26.974  1.00  0.00     0.243 C 
HETATM   14  O1  UNL     1      13.397  11.920  26.279  1.00  0.00    -0.271 OA
ATOM     15  H2  UNL     1      11.972  10.607  28.806  1.00  0.00     0.190 HD
BRANCH  13  16
HETATM   16  C5  UNL     1      12.577   9.718  26.405  1.00  0.00     0.032 C 
HETATM   17  C6  UNL     1      11.084   9.525  26.227  1.00  0.00     0.025 C 
HETATM   18  C7  UNL     1      13.237   8.669  27.235  1.00  0.00     0.025 C 
HETATM   19  C8  UNL     1      13.181   9.676  24.992  1.00  0.00     0.025 C 
ENDBRANCH  13  16
ENDBRANCH   8  12
ENDBRANCH   1   8
BRANCH   4  20
HETATM   20  N4  UNL     1      15.001  14.722  32.339  1.00  0.00    -0.217 N 
ATOM     21  H4  UNL     1      15.798  15.270  32.015  1.00  0.00     0.178 HD
BRANCH  20  22
HETATM   22  C11 UNL     1      14.336  15.235  33.473  1.00  0.00     0.039 C 
HETATM   23  C12 UNL     1      15.307  16.265  34.096  1.00  0.00     0.038 C 
HETATM   24  C13 UNL     1      13.108  16.001  33.134  1.00  0.00     0.038 C 
BRANCH  22  25
HETATM   25  C14 UNL     1      14.123  14.146  34.495  1.00  0.00     0.026 C 
HETATM   26  C15 UNL     1      15.283  13.828  35.361  1.00  0.00     0.007 C 
ENDBRANCH  22  25
ENDBRANCH  20  22
ENDBRANCH   4  20
TORSDOF 8
ENDMDL
MODEL 2
REMARK VINA RESULT: -5.343950345      0.851      1.044
REMARK  8 active torsions:
REMARK  status: ('A' for Active; 'I' for Inactive)
REMARK    1  A    between atoms: C2_2  and  C3_3 
REMARK    2  A    between atoms: C3_3  and  N1_4 
REMARK    3  A    between atoms: N1_4  and  N2_5 
REMARK    4  A    between atoms: N1_4  and  C9_13 
REMARK       I    between atoms: N2_5  and  C4_7 
REMARK    5  A    between atoms: C4_7  and  C5_9 
REMARK    6  A    between atoms: C10_16  and  N4_17 
REMARK    7  A    between atoms: N4_17  and  C11_19 
REMARK    8  A    between atoms: C11_19  and  C14_22 
ROOT
HETATM    1  C9  UNL     1      13.439  12.563  30.188  1.00  0.00     0.197 A 
HETATM    2  N3  UNL     1      13.202  13.138  31.344  1.00  0.00    -0.167 N 
ATOM      3  H3  UNL     1      12.317  13.619  31.501  1.00  0.00     0.186 HD
HETATM    4  C10 UNL     1      14.093  13.095  32.291  1.00  0.00     0.687 A 
HETATM    5  N5  UNL     1      15.234  12.455  32.039  1.00  0.00    -0.157 N 
ATOM      6  H5  UNL     1      16.041  12.318  32.648  1.00  0.00     0.193 HD
HETATM    7  S1  UNL     1      14.998  11.924  30.433  1.00  0.00     0.040 SA
ENDROOT
BRANCH   1   8
HETATM    8  N1  UNL     1      12.569  12.524  29.064  1.00  0.00    -0.267 N 
BRANCH   8   9
HETATM    9  C3  UNL     1      11.864  13.692  28.654  1.00  0.00     0.151 C 
BRANCH   9  10
HETATM   10  C2  UNL     1      10.356  13.479  28.639  1.00  0.00     0.017 C 
HETATM   11  C1  UNL     1       9.792  14.146  29.872  1.00  0.00     0.007 C 
ENDBRANCH   9  10
ENDBRANCH   8   9
BRANCH   8  12
HETATM   12  N2  UNL     1      12.406  11.327  28.364  1.00  0.00    -0.265 N 
HETATM   13  C4  UNL     1      12.855  11.084  27.064  1.00  0.00     0.243 C 
HETATM   14  O1  UNL     1      13.452  11.969  26.426  1.00  0.00    -0.271 OA
ATOM     15  H2  UNL     1      11.918  10.569  28.840  1.00  0.00     0.190 HD
BRANCH  13  16
HETATM   16  C5  UNL     1      12.627   9.765  26.438  1.00  0.00     0.032 C 
HETATM   17  C6  UNL     1      11.140   9.569  26.216  1.00  0.00     0.025 C 
HETATM   18  C7  UNL     1      13.275   8.689  27.243  1.00  0.00     0.025 C 
HETATM   19  C8  UNL     1      13.265   9.783  25.040  1.00  0.00     0.025 C 
ENDBRANCH  13  16
ENDBRANCH   8  12
ENDBRANCH   1   8
BRANCH   4  20
HETATM   20  N4  UNL     1      13.835  13.673  33.417  1.00  0.00    -0.217 N 
ATOM     21  H4  UNL     1      13.232  13.147  34.050  1.00  0.00     0.178 HD
BRANCH  20  22
HETATM   22  C11 UNL     1      14.267  14.928  33.899  1.00  0.00     0.039 C 
HETATM   23  C12 UNL     1      15.439  14.625  34.861  1.00  0.00     0.038 C 
HETATM   24  C13 UNL     1      14.839  15.796  32.836  1.00  0.00     0.038 C 
BRANCH  22  25
HETATM   25  C14 UNL     1      13.178  15.582  34.712  1.00  0.00     0.026 C 
HETATM   26  C15 UNL     1      12.795  14.891  35.966  1.00  0.00     0.007 C 
ENDBRANCH  22  25
ENDBRANCH  20  22
ENDBRANCH   4  20
TORSDOF 8
ENDMDL
MODEL 3
REMARK VINA RESULT: -5.331411078      2.719      5.168
REMARK  8 active torsions:
REMARK  status: ('A' for Active; 'I' for Inactive)
REMARK    1  A    between atoms: C2_2  and  C3_3 
REMARK    2  A    between atoms: C3_3  and  N1_4 
REMARK    3  A    between atoms: N1_4  and  N2_5 
REMARK    4  A    between atoms: N1_4  and  C9_13 
REMARK       I    between atoms: N2_5  and  C4_7 
REMARK    5  A    between atoms: C4_7  and  C5_9 
REMARK    6  A    between atoms: C10_16  and  N4_17 
REMARK    7  A    between atoms: N4_17  and  C11_19 
REMARK    8  A    between atoms: C11_19  and  C14_22 
ROOT
HETATM    1  C9  UNL     1      13.069  12.939  30.302  1.00  0.00     0.197 A 
HETATM    2  N3  UNL     1      11.830  12.987  29.870  1.00  0.00    -0.167 N 
ATOM      3  H3  UNL     1      11.463  12.231  29.294  1.00  0.00     0.186 HD
HETATM    4  C10 UNL     1      11.069  13.998  30.174  1.00  0.00     0.687 A 
HETATM    5  N5  UNL     1      11.594  14.963  30.929  1.00  0.00    -0.157 N 
ATOM      6  H5  UNL     1      11.159  15.821  31.266  1.00  0.00     0.193 HD
HETATM    7  S1  UNL     1      13.182  14.389  31.186  1.00  0.00     0.040 SA
ENDROOT
BRANCH   1   8
HETATM    8  N1  UNL     1      14.015  11.908  30.055  1.00  0.00    -0.267 N 
BRANCH   8   9
HETATM    9  C3  UNL     1      15.262  11.889  30.747  1.00  0.00     0.151 C 
BRANCH   9  10
HETATM   10  C2  UNL     1      16.243  10.897  30.138  1.00  0.00     0.017 C 
HETATM   11  C1  UNL     1      17.261  10.555  31.201  1.00  0.00     0.007 C 
ENDBRANCH   9  10
ENDBRANCH   8   9
BRANCH   8  12
HETATM   12  N2  UNL     1      13.718  10.911  29.124  1.00  0.00    -0.265 N 
HETATM   13  C4  UNL     1      13.379  11.129  27.787  1.00  0.00     0.243 C 
HETATM   14  O1  UNL     1      13.315  12.284  27.333  1.00  0.00    -0.271 OA
ATOM     15  H2  UNL     1      13.752   9.944  29.447  1.00  0.00     0.190 HD
BRANCH  13  16
HETATM   16  C5  UNL     1      13.097   9.982  26.900  1.00  0.00     0.032 C 
HETATM   17  C6  UNL     1      11.615   9.948  26.584  1.00  0.00     0.025 C 
HETATM   18  C7  UNL     1      13.627   8.721  27.496  1.00  0.00     0.025 C 
HETATM   19  C8  UNL     1      13.810  10.228  25.560  1.00  0.00     0.025 C 
ENDBRANCH  13  16
ENDBRANCH   8  12
ENDBRANCH   1   8
BRANCH   4  20
HETATM   20  N4  UNL     1       9.856  14.021  29.731  1.00  0.00    -0.217 N 
ATOM     21  H4  UNL     1       9.131  13.886  30.436  1.00  0.00     0.178 HD
BRANCH  20  22
HETATM   22  C11 UNL     1       9.388  14.208  28.413  1.00  0.00     0.039 C 
HETATM   23  C12 UNL     1       8.119  15.082  28.539  1.00  0.00     0.038 C 
HETATM   24  C13 UNL     1      10.327  14.990  27.565  1.00  0.00     0.038 C 
BRANCH  22  25
HETATM   25  C14 UNL     1       8.966  12.890  27.813  1.00  0.00     0.026 C 
HETATM   26  C15 UNL     1       7.652  12.364  28.254  1.00  0.00     0.007 C 
ENDBRANCH  22  25
ENDBRANCH  20  22
ENDBRANCH   4  20
TORSDOF 8
ENDMDL
MODEL 4
REMARK VINA RESULT: -5.323390341      0.753      1.744
REMARK  8 active torsions:
REMARK  status: ('A' for Active; 'I' for Inactive)
REMARK    1  A    between atoms: C2_2  and  C3_3 
REMARK    2  A    between atoms: C3_3  and  N1_4 
REMARK    3  A    between atoms: N1_4  and  N2_5 
REMARK    4  A    between atoms: N1_4  and  C9_13 
REMARK       I    between atoms: N2_5  and  C4_7 
REMARK    5  A    between atoms: C4_7  and  C5_9 
REMARK    6  A    between atoms: C10_16  and  N4_17 
REMARK    7  A    between atoms: N4_17  and  C11_19 
REMARK    8  A    between atoms: C11_19  and  C14_22 
ROOT
HETATM    1  C9  UNL     1      13.427  12.536  30.135  1.00  0.00     0.197 A 
HETATM    2  N3  UNL     1      13.185  13.116  31.287  1.00  0.00    -0.167 N 
ATOM      3  H3  UNL     1      12.300  13.601  31.436  1.00  0.00     0.186 HD
HETATM    4  C10 UNL     1      14.070  13.075  32.240  1.00  0.00     0.687 A 
HETATM    5  N5  UNL     1      15.210  12.430  31.999  1.00  0.00    -0.157 N 
ATOM      6  H5  UNL     1      16.012  12.293  32.613  1.00  0.00     0.193 HD
HETATM    7  S1  UNL     1      14.982  11.892  30.394  1.00  0.00     0.040 SA
ENDROOT
BRANCH   1   8
HETATM    8  N1  UNL     1      12.565  12.494  29.006  1.00  0.00    -0.267 N 
BRANCH   8   9
HETATM    9  C3  UNL     1      11.845  13.656  28.602  1.00  0.00     0.151 C 
BRANCH   9  10
HETATM   10  C2  UNL     1      10.338  13.460  28.691  1.00  0.00     0.017 C 
HETATM   11  C1  UNL     1       9.863  14.158  29.945  1.00  0.00     0.007 C 
ENDBRANCH   9  10
ENDBRANCH   8   9
BRANCH   8  12
HETATM   12  N2  UNL     1      12.422  11.302  28.294  1.00  0.00    -0.265 N 
HETATM   13  C4  UNL     1      12.861  11.084  26.986  1.00  0.00     0.243 C 
HETATM   14  O1  UNL     1      13.426  11.991  26.351  1.00  0.00    -0.271 OA
ATOM     15  H2  UNL     1      11.960  10.526  28.768  1.00  0.00     0.190 HD
BRANCH  13  16
HETATM   16  C5  UNL     1      12.657   9.767  26.348  1.00  0.00     0.032 C 
HETATM   17  C6  UNL     1      13.218   8.684  27.249  1.00  0.00     0.025 C 
HETATM   18  C7  UNL     1      13.217   9.768  24.966  1.00  0.00     0.025 C 
HETATM   19  C8  UNL     1      11.145   9.506  26.264  1.00  0.00     0.025 C 
ENDBRANCH  13  16
ENDBRANCH   8  12
ENDBRANCH   1   8
BRANCH   4  20
HETATM   20  N4  UNL     1      13.806  13.659  33.362  1.00  0.00    -0.217 N 
ATOM     21  H4  UNL     1      13.077  13.218  33.923  1.00  0.00     0.178 HD
BRANCH  20  22
HETATM   22  C11 UNL     1      14.380  14.820  33.923  1.00  0.00     0.039 C 
HETATM   23  C12 UNL     1      13.260  15.477  34.761  1.00  0.00     0.038 C 
HETATM   24  C13 UNL     1      15.475  14.523  34.885  1.00  0.00     0.038 C 
BRANCH  22  25
HETATM   25  C14 UNL     1      14.759  15.796  32.838  1.00  0.00     0.026 C 
HETATM   26  C15 UNL     1      13.713  16.769  32.441  1.00  0.00     0.007 C 
ENDBRANCH  22  25
ENDBRANCH  20  22
ENDBRANCH   4  20
TORSDOF 8
ENDMDL
MODEL 5
REMARK VINA RESULT: -5.242976641      3.540      8.074
REMARK  8 active torsions:
REMARK  status: ('A' for Active; 'I' for Inactive)
REMARK    1  A    between atoms: C2_2  and  C3_3 
REMARK    2  A    between atoms: C3_3  and  N1_4 
REMARK    3  A    between atoms: N1_4  and  N2_5 
REMARK    4  A    between atoms: N1_4  and  C9_13 
REMARK       I    between atoms: N2_5  and  C4_7 
REMARK    5  A    between atoms: C4_7  and  C5_9 
REMARK    6  A    between atoms: C10_16  and  N4_17 
REMARK    7  A    between atoms: N4_17  and  C11_19 
REMARK    8  A    between atoms: C11_19  and  C14_22 
ROOT
HETATM    1  C9  UNL     1      14.380  16.000  32.651  1.00  0.00     0.197 A 
HETATM    2  N3  UNL     1      14.819  14.839  32.224  1.00  0.00    -0.167 N 
ATOM      3  H3  UNL     1      15.513  14.327  32.767  1.00  0.00     0.186 HD
HETATM    4  C10 UNL     1      14.372  14.340  31.108  1.00  0.00     0.687 A 
HETATM    5  N5  UNL     1      13.465  15.046  30.434  1.00  0.00    -0.157 N 
ATOM      6  H5  UNL     1      13.004  14.823  29.553  1.00  0.00     0.193 HD
HETATM    7  S1  UNL     1      13.276  16.423  31.427  1.00  0.00     0.040 SA
ENDROOT
BRANCH   1   8
HETATM    8  N1  UNL     1      14.771  16.670  33.843  1.00  0.00    -0.267 N 
BRANCH   8   9
HETATM    9  C3  UNL     1      15.802  17.653  33.815  1.00  0.00     0.151 C 
BRANCH   9  10
HETATM   10  C2  UNL     1      15.399  18.931  34.540  1.00  0.00     0.017 C 
HETATM   11  C1  UNL     1      16.658  19.730  34.783  1.00  0.00     0.007 C 
ENDBRANCH   9  10
ENDBRANCH   8   9
BRANCH   8  12
HETATM   12  N2  UNL     1      14.139  16.354  35.047  1.00  0.00    -0.265 N 
HETATM   13  C4  UNL     1      14.493  15.302  35.894  1.00  0.00     0.243 C 
HETATM   14  O1  UNL     1      15.436  14.546  35.601  1.00  0.00    -0.271 OA
ATOM     15  H2  UNL     1      13.355  16.941  35.332  1.00  0.00     0.190 HD
BRANCH  13  16
HETATM   16  C5  UNL     1      13.748  15.081  37.151  1.00  0.00     0.032 C 
HETATM   17  C6  UNL     1      14.709  14.614  38.226  1.00  0.00     0.025 C 
HETATM   18  C7  UNL     1      12.595  14.164  36.916  1.00  0.00     0.025 C 
HETATM   19  C8  UNL     1      13.206  16.438  37.629  1.00  0.00     0.025 C 
ENDBRANCH  13  16
ENDBRANCH   8  12
ENDBRANCH   1   8
BRANCH   4  20
HETATM   20  N4  UNL     1      14.825  13.198  30.709  1.00  0.00    -0.217 N 
ATOM     21  H4  UNL     1      15.841  13.110  30.703  1.00  0.00     0.178 HD
BRANCH  20  22
HETATM   22  C11 UNL     1      14.117  12.055  30.281  1.00  0.00     0.039 C 
HETATM   23  C12 UNL     1      13.255  11.620  31.488  1.00  0.00     0.038 C 
HETATM   24  C13 UNL     1      13.153  12.341  29.186  1.00  0.00     0.038 C 
BRANCH  22  25
HETATM   25  C14 UNL     1      15.073  10.926  29.984  1.00  0.00     0.026 C 
HETATM   26  C15 UNL     1      16.394  10.996  30.653  1.00  0.00     0.007 C 
ENDBRANCH  22  25
ENDBRANCH  20  22
ENDBRANCH   4  20
TORSDOF 8
ENDMDL
