MODEL 1
REMARK VINA RESULT: -6.962156595      0.000      0.000
REMARK  6 active torsions:
REMARK  status: ('A' for Active; 'I' for Inactive)
REMARK    1  A    between atoms: C6_6  and  C7_7 
REMARK    2  A    between atoms: C7_7  and  C8_8 
REMARK    3  A    between atoms: C9_12  and  C10_13 
REMARK    4  A    between atoms: C10_13  and  C11_14 
REMARK    5  A    between atoms: C11_14  and  C12_15 
REMARK    6  A    between atoms: C12_15  and  N2_16 
ROOT
HETATM    1  C8  UNL     1      13.645   9.515  26.803  1.00  0.00     0.092 A 
HETATM    2  N1  UNL     1      13.954  10.168  25.677  1.00  0.00    -0.314 N 
ATOM      3  H1  UNL     1      14.752  10.776  25.494  1.00  0.00     0.175 HD
HETATM    4  S1  UNL     1      12.704   9.741  24.636  1.00  0.00     0.000 SA
HETATM    5  C9  UNL     1      11.827   8.734  25.696  1.00  0.00     0.069 A 
HETATM    6  N3  UNL     1      12.561   8.790  26.796  1.00  0.00    -0.342 N 
ATOM      7  H3  UNL     1      12.282   8.273  27.629  1.00  0.00     0.167 HD
ENDROOT
BRANCH   1   8
HETATM    8  C7  UNL     1      14.532   9.622  28.039  1.00  0.00     0.115 C 
BRANCH   8   9
HETATM    9  C6  UNL     1      14.120  10.731  28.907  1.00  0.00    -0.049 A 
HETATM   10  C1  UNL     1      12.977  11.478  28.711  1.00  0.00     0.010 A 
HETATM   11  C2  UNL     1      12.651  12.509  29.567  1.00  0.00     0.032 A 
HETATM   12  C3  UNL     1      13.433  12.851  30.654  1.00  0.00     0.054 A 
HETATM   13  C4  UNL     1      14.580  12.100  30.851  1.00  0.00     0.055 A 
HETATM   14  N5  UNL     1      13.102  13.908  31.536  1.00  0.00    -0.387 N 
HETATM   15  C5  UNL     1      14.914  11.069  29.999  1.00  0.00     0.039 A 
HETATM   16  N4  UNL     1      15.397  12.441  31.969  1.00  0.00    -0.387 N 
HETATM   17  C17 UNL     1      14.937  13.288  33.042  1.00  0.00     0.139 C 
ATOM     18  H4  UNL     1      16.347  12.071  32.011  1.00  0.00     0.159 HD
HETATM   19  C18 UNL     1      14.044  14.406  32.514  1.00  0.00     0.139 C 
ATOM     20  H5  UNL     1      12.174  14.330  31.480  1.00  0.00     0.159 HD
ENDBRANCH   8   9
ENDBRANCH   1   8
BRANCH   5  21
HETATM   21  C10 UNL     1      10.547   7.968  25.461  1.00  0.00     0.068 C 
BRANCH  21  22
HETATM   22  C11 UNL     1       9.482   8.972  25.127  1.00  0.00     0.037 C 
BRANCH  22  23
HETATM   23  C12 UNL     1       8.596   9.332  26.289  1.00  0.00     0.272 C 
BRANCH  23  24
HETATM   24  N2  UNL     1       8.284  10.718  26.366  1.00  0.00     0.088 N 
HETATM   25  C13 UNL     1       9.384  11.611  26.433  1.00  0.00     0.272 C 
HETATM   26  C14 UNL     1       9.232  12.477  27.654  1.00  0.00     0.032 C 
HETATM   27  C15 UNL     1       7.820  12.236  28.122  1.00  0.00     0.032 C 
HETATM   28  C16 UNL     1       7.296  11.080  27.324  1.00  0.00     0.272 C 
ENDBRANCH  23  24
ENDBRANCH  22  23
ENDBRANCH  21  22
ENDBRANCH   5  21
TORSDOF 6
ENDMDL
MODEL 2
REMARK VINA RESULT: -6.563356269      1.569      3.184
REMARK  6 active torsions:
REMARK  status: ('A' for Active; 'I' for Inactive)
REMARK    1  A    between atoms: C6_6  and  C7_7 
REMARK    2  A    between atoms: C7_7  and  C8_8 
REMARK    3  A    between atoms: C9_12  and  C10_13 
REMARK    4  A    between atoms: C10_13  and  C11_14 
REMARK    5  A    between atoms: C11_14  and  C12_15 
REMARK    6  A    between atoms: C12_15  and  N2_16 
ROOT
HETATM    1  C8  UNL     1      12.798  11.284  27.416  1.00  0.00     0.092 A 
HETATM    2  N1  UNL     1      13.246  12.289  26.654  1.00  0.00    -0.314 N 
ATOM      3  H1  UNL     1      14.210  12.554  26.455  1.00  0.00     0.175 HD
HETATM    4  S1  UNL     1      11.828  13.007  26.105  1.00  0.00     0.000 SA
HETATM    5  C9  UNL     1      10.709  11.982  26.882  1.00  0.00     0.069 A 
HETATM    6  N3  UNL     1      11.506  11.141  27.521  1.00  0.00    -0.342 N 
ATOM      7  H3  UNL     1      11.115  10.391  28.090  1.00  0.00     0.167 HD
ENDROOT
BRANCH   1   8
HETATM    8  C7  UNL     1      13.770  10.349  28.129  1.00  0.00     0.115 C 
BRANCH   8   9
HETATM    9  C6  UNL     1      14.322  10.964  29.342  1.00  0.00    -0.049 A 
HETATM   10  C1  UNL     1      15.574  10.681  29.846  1.00  0.00     0.010 A 
HETATM   11  C2  UNL     1      16.030  11.296  30.993  1.00  0.00     0.032 A 
HETATM   12  C3  UNL     1      15.276  12.217  31.695  1.00  0.00     0.054 A 
HETATM   13  C4  UNL     1      14.019  12.502  31.188  1.00  0.00     0.055 A 
HETATM   14  N5  UNL     1      15.740  12.852  32.872  1.00  0.00    -0.387 N 
HETATM   15  C5  UNL     1      13.556  11.890  30.042  1.00  0.00     0.039 A 
HETATM   16  N4  UNL     1      13.229  13.451  31.901  1.00  0.00    -0.387 N 
HETATM   17  C17 UNL     1      13.781  14.329  32.903  1.00  0.00     0.139 C 
ATOM     18  H4  UNL     1      12.232  13.511  31.693  1.00  0.00     0.159 HD
HETATM   19  C18 UNL     1      14.856  13.621  33.721  1.00  0.00     0.139 C 
ATOM     20  H5  UNL     1      16.724  12.765  33.129  1.00  0.00     0.159 HD
ENDBRANCH   8   9
ENDBRANCH   1   8
BRANCH   5  21
HETATM   21  C10 UNL     1       9.199  12.008  26.858  1.00  0.00     0.068 C 
BRANCH  21  22
HETATM   22  C11 UNL     1       8.740  10.727  26.223  1.00  0.00     0.037 C 
BRANCH  22  23
HETATM   23  C12 UNL     1       9.093  10.607  24.766  1.00  0.00     0.272 C 
BRANCH  23  24
HETATM   24  N2  UNL     1       9.856   9.447  24.453  1.00  0.00     0.088 N 
HETATM   25  C13 UNL     1       9.906   8.435  25.446  1.00  0.00     0.272 C 
HETATM   26  C14 UNL     1      11.346   8.141  25.765  1.00  0.00     0.032 C 
HETATM   27  C15 UNL     1      12.129   8.828  24.676  1.00  0.00     0.032 C 
HETATM   28  C16 UNL     1      11.156   9.683  23.923  1.00  0.00     0.272 C 
ENDBRANCH  23  24
ENDBRANCH  22  23
ENDBRANCH  21  22
ENDBRANCH   5  21
TORSDOF 6
ENDMDL
MODEL 3
REMARK VINA RESULT: -6.536472449      2.353      4.195
REMARK  6 active torsions:
REMARK  status: ('A' for Active; 'I' for Inactive)
REMARK    1  A    between atoms: C6_6  and  C7_7 
REMARK    2  A    between atoms: C7_7  and  C8_8 
REMARK    3  A    between atoms: C9_12  and  C10_13 
REMARK    4  A    between atoms: C10_13  and  C11_14 
REMARK    5  A    between atoms: C11_14  and  C12_15 
REMARK    6  A    between atoms: C12_15  and  N2_16 
ROOT
HETATM    1  C8  UNL     1      13.638   9.563  26.842  1.00  0.00     0.092 A 
HETATM    2  N1  UNL     1      13.943  10.243  25.731  1.00  0.00    -0.314 N 
ATOM      3  H1  UNL     1      14.744  10.850  25.557  1.00  0.00     0.175 HD
HETATM    4  S1  UNL     1      12.681   9.850  24.690  1.00  0.00     0.000 SA
HETATM    5  C9  UNL     1      11.806   8.823  25.731  1.00  0.00     0.069 A 
HETATM    6  N3  UNL     1      12.549   8.846  26.826  1.00  0.00    -0.342 N 
ATOM      7  H3  UNL     1      12.273   8.310  27.648  1.00  0.00     0.167 HD
ENDROOT
BRANCH   1   8
HETATM    8  C7  UNL     1      14.535   9.632  28.074  1.00  0.00     0.115 C 
BRANCH   8   9
HETATM    9  C6  UNL     1      14.156  10.739  28.959  1.00  0.00    -0.049 A 
HETATM   10  C1  UNL     1      13.029  11.514  28.782  1.00  0.00     0.010 A 
HETATM   11  C2  UNL     1      12.734  12.541  29.654  1.00  0.00     0.032 A 
HETATM   12  C3  UNL     1      13.532  12.852  30.738  1.00  0.00     0.054 A 
HETATM   13  C4  UNL     1      14.663  12.073  30.916  1.00  0.00     0.055 A 
HETATM   14  N5  UNL     1      13.232  13.905  31.636  1.00  0.00    -0.387 N 
HETATM   15  C5  UNL     1      14.966  11.045  30.048  1.00  0.00     0.039 A 
HETATM   16  N4  UNL     1      15.497  12.380  32.032  1.00  0.00    -0.387 N 
HETATM   17  C17 UNL     1      15.065  13.223  33.119  1.00  0.00     0.139 C 
ATOM     18  H4  UNL     1      16.438  11.988  32.061  1.00  0.00     0.159 HD
HETATM   19  C18 UNL     1      14.193  14.368  32.613  1.00  0.00     0.139 C 
ATOM     20  H5  UNL     1      12.314  14.348  31.593  1.00  0.00     0.159 HD
ENDBRANCH   8   9
ENDBRANCH   1   8
BRANCH   5  21
HETATM   21  C10 UNL     1      10.519   8.072  25.487  1.00  0.00     0.068 C 
BRANCH  21  22
HETATM   22  C11 UNL     1      10.731   7.202  24.282  1.00  0.00     0.037 C 
BRANCH  22  23
HETATM   23  C12 UNL     1       9.512   6.424  23.867  1.00  0.00     0.272 C 
BRANCH  23  24
HETATM   24  N2  UNL     1       9.794   5.335  22.996  1.00  0.00     0.088 N 
HETATM   25  C13 UNL     1       9.361   4.054  23.423  1.00  0.00     0.272 C 
HETATM   26  C14 UNL     1      10.542   3.122  23.431  1.00  0.00     0.032 C 
HETATM   27  C15 UNL     1      11.623   3.865  22.690  1.00  0.00     0.032 C 
HETATM   28  C16 UNL     1      11.126   5.266  22.499  1.00  0.00     0.272 C 
ENDBRANCH  23  24
ENDBRANCH  22  23
ENDBRANCH  21  22
ENDBRANCH   5  21
TORSDOF 6
ENDMDL
MODEL 4
REMARK VINA RESULT: -6.532399942      2.063      3.386
REMARK  6 active torsions:
REMARK  status: ('A' for Active; 'I' for Inactive)
REMARK    1  A    between atoms: C6_6  and  C7_7 
REMARK    2  A    between atoms: C7_7  and  C8_8 
REMARK    3  A    between atoms: C9_12  and  C10_13 
REMARK    4  A    between atoms: C10_13  and  C11_14 
REMARK    5  A    between atoms: C11_14  and  C12_15 
REMARK    6  A    between atoms: C12_15  and  N2_16 
ROOT
HETATM    1  C8  UNL     1      12.969  11.529  26.583  1.00  0.00     0.092 A 
HETATM    2  N1  UNL     1      13.041  12.808  26.194  1.00  0.00    -0.314 N 
ATOM      3  H1  UNL     1      12.721  13.641  26.688  1.00  0.00     0.175 HD
HETATM    4  S1  UNL     1      13.788  12.704  24.691  1.00  0.00     0.000 SA
HETATM    5  C9  UNL     1      13.979  11.011  24.621  1.00  0.00     0.069 A 
HETATM    6  N3  UNL     1      13.450  10.629  25.772  1.00  0.00    -0.342 N 
ATOM      7  H3  UNL     1      13.419   9.641  26.023  1.00  0.00     0.167 HD
ENDROOT
BRANCH   1   8
HETATM    8  C7  UNL     1      12.346  11.153  27.923  1.00  0.00     0.115 C 
BRANCH   8   9
HETATM    9  C6  UNL     1      13.233  11.479  29.045  1.00  0.00    -0.049 A 
HETATM   10  C1  UNL     1      14.456  10.878  29.258  1.00  0.00     0.010 A 
HETATM   11  C2  UNL     1      15.240  11.234  30.336  1.00  0.00     0.032 A 
HETATM   12  C3  UNL     1      14.858  12.196  31.250  1.00  0.00     0.054 A 
HETATM   13  C4  UNL     1      13.630  12.801  31.035  1.00  0.00     0.055 A 
HETATM   14  N5  UNL     1      15.660  12.565  32.358  1.00  0.00    -0.387 N 
HETATM   15  C5  UNL     1      12.840  12.449  29.961  1.00  0.00     0.039 A 
HETATM   16  N4  UNL     1      13.222  13.796  31.971  1.00  0.00    -0.387 N 
HETATM   17  C17 UNL     1      14.132  14.405  32.909  1.00  0.00     0.139 C 
ATOM     18  H4  UNL     1      12.245  14.090  31.976  1.00  0.00     0.159 HD
HETATM   19  C18 UNL     1      15.144  13.389  33.430  1.00  0.00     0.139 C 
ATOM     20  H5  UNL     1      16.626  12.241  32.401  1.00  0.00     0.159 HD
ENDBRANCH   8   9
ENDBRANCH   1   8
BRANCH   5  21
HETATM   21  C10 UNL     1      14.590  10.154  23.539  1.00  0.00     0.068 C 
BRANCH  21  22
HETATM   22  C11 UNL     1      13.587   9.093  23.190  1.00  0.00     0.037 C 
BRANCH  22  23
HETATM   23  C12 UNL     1      12.270   9.633  22.703  1.00  0.00     0.272 C 
BRANCH  23  24
HETATM   24  N2  UNL     1      11.139   9.044  23.334  1.00  0.00     0.088 N 
HETATM   25  C13 UNL     1      10.235   9.933  23.972  1.00  0.00     0.272 C 
HETATM   26  C14 UNL     1      10.071   9.509  25.406  1.00  0.00     0.032 C 
HETATM   27  C15 UNL     1      10.697   8.140  25.477  1.00  0.00     0.032 C 
HETATM   28  C16 UNL     1      11.407   7.927  24.174  1.00  0.00     0.272 C 
ENDBRANCH  23  24
ENDBRANCH  22  23
ENDBRANCH  21  22
ENDBRANCH   5  21
TORSDOF 6
ENDMDL
MODEL 5
REMARK VINA RESULT: -6.498332124      2.244      3.474
REMARK  6 active torsions:
REMARK  status: ('A' for Active; 'I' for Inactive)
REMARK    1  A    between atoms: C6_6  and  C7_7 
REMARK    2  A    between atoms: C7_7  and  C8_8 
REMARK    3  A    between atoms: C9_12  and  C10_13 
REMARK    4  A    between atoms: C10_13  and  C11_14 
REMARK    5  A    between atoms: C11_14  and  C12_15 
REMARK    6  A    between atoms: C12_15  and  N2_16 
ROOT
HETATM    1  C8  UNL     1      12.533  11.536  27.292  1.00  0.00     0.092 A 
HETATM    2  N1  UNL     1      13.155  12.465  26.556  1.00  0.00    -0.314 N 
ATOM      3  H1  UNL     1      14.155  12.583  26.394  1.00  0.00     0.175 HD
HETATM    4  S1  UNL     1      11.882  13.392  25.965  1.00  0.00     0.000 SA
HETATM    5  C9  UNL     1      10.594  12.544  26.691  1.00  0.00     0.069 A 
HETATM    6  N3  UNL     1      11.232  11.590  27.350  1.00  0.00    -0.342 N 
ATOM      7  H3  UNL     1      10.712  10.904  27.897  1.00  0.00     0.167 HD
ENDROOT
BRANCH   1   8
HETATM    8  C7  UNL     1      13.326  10.462  28.029  1.00  0.00     0.115 C 
BRANCH   8   9
HETATM    9  C6  UNL     1      14.007  11.005  29.209  1.00  0.00    -0.049 A 
HETATM   10  C1  UNL     1      15.298  10.680  29.571  1.00  0.00     0.010 A 
HETATM   11  C2  UNL     1      15.877  11.229  30.696  1.00  0.00     0.032 A 
HETATM   12  C3  UNL     1      15.213  12.122  31.515  1.00  0.00     0.054 A 
HETATM   13  C4  UNL     1      13.918  12.450  31.152  1.00  0.00     0.055 A 
HETATM   14  N5  UNL     1      15.804  12.689  32.671  1.00  0.00    -0.387 N 
HETATM   15  C5  UNL     1      13.332  11.904  30.029  1.00  0.00     0.039 A 
HETATM   16  N4  UNL     1      13.220  13.371  31.987  1.00  0.00    -0.387 N 
HETATM   17  C17 UNL     1      13.885  14.188  32.972  1.00  0.00     0.139 C 
ATOM     18  H4  UNL     1      12.209  13.455  31.884  1.00  0.00     0.159 HD
HETATM   19  C18 UNL     1      15.023  13.425  33.642  1.00  0.00     0.139 C 
ATOM     20  H5  UNL     1      16.807  12.575  32.823  1.00  0.00     0.159 HD
ENDBRANCH   8   9
ENDBRANCH   1   8
BRANCH   5  21
HETATM   21  C10 UNL     1       9.107  12.798  26.615  1.00  0.00     0.068 C 
BRANCH  21  22
HETATM   22  C11 UNL     1       8.561  12.677  28.008  1.00  0.00     0.037 C 
BRANCH  22  23
HETATM   23  C12 UNL     1       7.892  13.926  28.513  1.00  0.00     0.272 C 
BRANCH  23  24
HETATM   24  N2  UNL     1       8.759  14.788  29.240  1.00  0.00     0.088 N 
HETATM   25  C13 UNL     1       9.174  15.973  28.579  1.00  0.00     0.272 C 
HETATM   26  C14 UNL     1      10.677  16.023  28.572  1.00  0.00     0.032 C 
HETATM   27  C15 UNL     1      11.102  14.946  29.537  1.00  0.00     0.032 C 
HETATM   28  C16 UNL     1       9.869  14.163  29.874  1.00  0.00     0.272 C 
ENDBRANCH  23  24
ENDBRANCH  22  23
ENDBRANCH  21  22
ENDBRANCH   5  21
TORSDOF 6
ENDMDL
