MODEL 1
REMARK VINA RESULT: -6.806149575      0.000      0.000
REMARK  10 active torsions:
REMARK  status: ('A' for Active; 'I' for Inactive)
REMARK    1  A    between atoms: C2_2  and  C4_4 
REMARK    2  A    between atoms: C11_11  and  O1_12 
REMARK    3  A    between atoms: C11_11  and  C12_14 
REMARK    4  A    between atoms: C15_18  and  C16_19 
REMARK    5  A    between atoms: C16_19  and  C18_21 
REMARK    6  A    between atoms: C18_21  and  O3_22 
REMARK    7  A    between atoms: C18_21  and  C19_24 
REMARK    8  A    between atoms: C19_24  and  C20_25 
REMARK    9  A    between atoms: C20_25  and  O5_27 
REMARK   10  A    between atoms: O5_27  and  C21_28 
ROOT
HETATM    1  C4  UNL     1       1.974  21.613   3.866  1.00  0.00     0.022 C 
HETATM    2  C5  UNL     1       1.338  20.268   4.234  1.00  0.00     0.010 C 
HETATM    3  C6  UNL     1       2.397  19.215   3.874  1.00  0.00     0.006 C 
HETATM    4  C7  UNL     1       3.587  20.070   3.532  1.00  0.00    -0.001 C 
HETATM    5  C8  UNL     1       4.755  19.438   2.963  1.00  0.00     0.002 C 
HETATM    6  C9  UNL     1       4.580  18.325   2.002  1.00  0.00     0.009 C 
HETATM    7  C10 UNL     1       5.485  18.688   0.851  1.00  0.00     0.042 C 
HETATM    8  C11 UNL     1       6.547  19.656   1.457  1.00  0.00     0.095 C 
HETATM    9  C23 UNL     1       5.712  20.444   2.362  1.00  0.00    -0.006 C 
HETATM   10  C24 UNL     1       6.375  21.174   3.486  1.00  0.00     0.019 C 
HETATM   11  C25 UNL     1       4.973  21.495   1.548  1.00  0.00     0.013 C 
HETATM   12  C26 UNL     1       3.886  22.185   2.340  1.00  0.00     0.011 C 
HETATM   13  C27 UNL     1       2.890  21.171   2.762  1.00  0.00    -0.033 C 
HETATM   14  C28 UNL     1       2.109  20.681   1.602  1.00  0.00     0.016 C 
ENDROOT
BRANCH   8  15
HETATM   15  O1  UNL     1       6.947  20.417   0.343  1.00  0.00    -0.386 OA
ATOM     16  H1  UNL     1       7.878  20.532   0.489  1.00  0.00     0.210 HD
ENDBRANCH   8  15
BRANCH   8  17
HETATM   17  C12 UNL     1       7.614  18.783   1.966  1.00  0.00     0.187 C 
HETATM   18  O2  UNL     1       8.535  19.286   2.842  1.00  0.00    -0.374 OA
HETATM   19  C13 UNL     1       9.505  18.445   2.296  1.00  0.00     0.205 C 
HETATM   20  C14 UNL     1       8.683  18.327   1.068  1.00  0.00    -0.028 C 
HETATM   21  C15 UNL     1       8.831  17.978  -0.174  1.00  0.00    -0.012 C 
BRANCH  21  22
HETATM   22  C16 UNL     1      10.070  17.543  -0.844  1.00  0.00     0.034 C 
HETATM   23  C17 UNL     1      10.352  16.070  -0.773  1.00  0.00     0.017 C 
BRANCH  22  24
HETATM   24  C18 UNL     1      10.063  17.913  -2.324  1.00  0.00     0.134 C 
BRANCH  24  25
HETATM   25  O3  UNL     1       8.815  18.376  -2.720  1.00  0.00    -0.394 OA
ATOM     26  H3  UNL     1       8.363  18.803  -2.001  1.00  0.00     0.210 HD
ENDBRANCH  24  25
BRANCH  24  27
HETATM   27  C19 UNL     1      11.076  18.977  -2.629  1.00  0.00     0.143 C 
BRANCH  27  28
HETATM   28  C20 UNL     1      10.448  19.985  -3.519  1.00  0.00     0.261 C 
HETATM   29  O4  UNL     1      10.486  19.892  -4.767  1.00  0.00    -0.265 OA
BRANCH  28  30
HETATM   30  O5  UNL     1       9.777  21.097  -2.997  1.00  0.00    -0.322 OA
BRANCH  30  31
HETATM   31  C21 UNL     1       9.829  21.440  -1.633  1.00  0.00     0.174 C 
HETATM   32  C22 UNL     1      10.940  22.429  -1.334  1.00  0.00     0.034 C 
ENDBRANCH  30  31
ENDBRANCH  28  30
ENDBRANCH  27  28
ENDBRANCH  24  27
ENDBRANCH  22  24
ENDBRANCH  21  22
ENDBRANCH   8  17
BRANCH   1  33
HETATM   33  C2  UNL     1       1.039  22.683   3.618  1.00  0.00    -0.088 C 
HETATM   34  C1  UNL     1      -0.239  22.479   3.915  1.00  0.00     0.014 C 
HETATM   35  C3  UNL     1       1.389  23.990   3.026  1.00  0.00     0.043 C 
ENDBRANCH   1  33
TORSDOF 10
ENDMDL
MODEL 2
REMARK VINA RESULT: -6.573820457      1.607      2.327
REMARK  10 active torsions:
REMARK  status: ('A' for Active; 'I' for Inactive)
REMARK    1  A    between atoms: C2_2  and  C4_4 
REMARK    2  A    between atoms: C11_11  and  O1_12 
REMARK    3  A    between atoms: C11_11  and  C12_14 
REMARK    4  A    between atoms: C15_18  and  C16_19 
REMARK    5  A    between atoms: C16_19  and  C18_21 
REMARK    6  A    between atoms: C18_21  and  O3_22 
REMARK    7  A    between atoms: C18_21  and  C19_24 
REMARK    8  A    between atoms: C19_24  and  C20_25 
REMARK    9  A    between atoms: C20_25  and  O5_27 
REMARK   10  A    between atoms: O5_27  and  C21_28 
ROOT
HETATM    1  C4  UNL     1       1.478  23.694   3.710  1.00  0.00     0.022 C 
HETATM    2  C5  UNL     1       0.566  22.970   4.707  1.00  0.00     0.010 C 
HETATM    3  C6  UNL     1       0.989  21.495   4.632  1.00  0.00     0.006 C 
HETATM    4  C7  UNL     1       2.217  21.563   3.765  1.00  0.00    -0.001 C 
HETATM    5  C8  UNL     1       2.814  20.328   3.311  1.00  0.00     0.002 C 
HETATM    6  C9  UNL     1       1.939  19.192   2.942  1.00  0.00     0.009 C 
HETATM    7  C10 UNL     1       2.469  18.740   1.604  1.00  0.00     0.042 C 
HETATM    8  C11 UNL     1       3.945  19.242   1.559  1.00  0.00     0.095 C 
HETATM    9  C23 UNL     1       3.806  20.553   2.190  1.00  0.00    -0.006 C 
HETATM   10  C24 UNL     1       5.024  21.192   2.776  1.00  0.00     0.019 C 
HETATM   11  C25 UNL     1       3.265  21.532   1.159  1.00  0.00     0.013 C 
HETATM   12  C26 UNL     1       2.833  22.843   1.773  1.00  0.00     0.011 C 
HETATM   13  C27 UNL     1       1.745  22.577   2.744  1.00  0.00    -0.033 C 
HETATM   14  C28 UNL     1       0.499  22.183   2.048  1.00  0.00     0.016 C 
ENDROOT
BRANCH   8  15
HETATM   15  O1  UNL     1       4.190  19.365   0.179  1.00  0.00    -0.386 OA
ATOM     16  H1  UNL     1       4.688  20.172   0.125  1.00  0.00     0.210 HD
ENDBRANCH   8  15
BRANCH   8  17
HETATM   17  C12 UNL     1       4.732  18.171   2.187  1.00  0.00     0.187 C 
HETATM   18  O2  UNL     1       5.316  18.389   3.402  1.00  0.00    -0.374 OA
HETATM   19  C13 UNL     1       6.377  17.561   3.035  1.00  0.00     0.205 C 
HETATM   20  C14 UNL     1       6.024  17.773   1.611  1.00  0.00    -0.028 C 
HETATM   21  C15 UNL     1       6.575  17.651   0.441  1.00  0.00    -0.012 C 
BRANCH  21  22
HETATM   22  C16 UNL     1       7.949  17.212   0.137  1.00  0.00     0.034 C 
HETATM   23  C17 UNL     1       8.265  15.795   0.518  1.00  0.00     0.017 C 
BRANCH  22  24
HETATM   24  C18 UNL     1       8.258  17.341  -1.351  1.00  0.00     0.134 C 
BRANCH  24  25
HETATM   25  O3  UNL     1       7.204  17.934  -2.034  1.00  0.00    -0.394 OA
ATOM     26  H3  UNL     1       7.517  18.459  -2.762  1.00  0.00     0.210 HD
ENDBRANCH  24  25
BRANCH  24  27
HETATM   27  C19 UNL     1       9.491  18.163  -1.587  1.00  0.00     0.143 C 
BRANCH  27  28
HETATM   28  C20 UNL     1       9.149  19.272  -2.513  1.00  0.00     0.261 C 
HETATM   29  O4  UNL     1       9.254  19.161  -3.755  1.00  0.00    -0.265 OA
BRANCH  28  30
HETATM   30  O5  UNL     1       8.688  20.503  -2.032  1.00  0.00    -0.322 OA
BRANCH  30  31
HETATM   31  C21 UNL     1       9.307  21.722  -2.360  1.00  0.00     0.174 C 
HETATM   32  C22 UNL     1      10.545  21.979  -1.521  1.00  0.00     0.034 C 
ENDBRANCH  30  31
ENDBRANCH  28  30
ENDBRANCH  27  28
ENDBRANCH  24  27
ENDBRANCH  22  24
ENDBRANCH  21  22
ENDBRANCH   8  17
BRANCH   1  33
HETATM   33  C2  UNL     1       0.965  24.947   3.212  1.00  0.00    -0.088 C 
HETATM   34  C1  UNL     1      -0.179  25.399   3.714  1.00  0.00     0.014 C 
HETATM   35  C3  UNL     1       1.601  25.761   2.156  1.00  0.00     0.043 C 
ENDBRANCH   1  33
TORSDOF 10
ENDMDL
MODEL 3
REMARK VINA RESULT: -6.524448371      1.623      2.643
REMARK  10 active torsions:
REMARK  status: ('A' for Active; 'I' for Inactive)
REMARK    1  A    between atoms: C2_2  and  C4_4 
REMARK    2  A    between atoms: C11_11  and  O1_12 
REMARK    3  A    between atoms: C11_11  and  C12_14 
REMARK    4  A    between atoms: C15_18  and  C16_19 
REMARK    5  A    between atoms: C16_19  and  C18_21 
REMARK    6  A    between atoms: C18_21  and  O3_22 
REMARK    7  A    between atoms: C18_21  and  C19_24 
REMARK    8  A    between atoms: C19_24  and  C20_25 
REMARK    9  A    between atoms: C20_25  and  O5_27 
REMARK   10  A    between atoms: O5_27  and  C21_28 
ROOT
HETATM    1  C4  UNL     1       1.479  23.757   3.638  1.00  0.00     0.022 C 
HETATM    2  C5  UNL     1       0.511  23.053   4.596  1.00  0.00     0.010 C 
HETATM    3  C6  UNL     1       0.913  21.571   4.548  1.00  0.00     0.006 C 
HETATM    4  C7  UNL     1       2.179  21.614   3.737  1.00  0.00    -0.001 C 
HETATM    5  C8  UNL     1       2.776  20.368   3.316  1.00  0.00     0.002 C 
HETATM    6  C9  UNL     1       1.900  19.244   2.914  1.00  0.00     0.009 C 
HETATM    7  C10 UNL     1       2.483  18.775   1.604  1.00  0.00     0.042 C 
HETATM    8  C11 UNL     1       3.968  19.253   1.623  1.00  0.00     0.095 C 
HETATM    9  C23 UNL     1       3.821  20.570   2.241  1.00  0.00    -0.006 C 
HETATM   10  C24 UNL     1       5.022  21.193   2.879  1.00  0.00     0.019 C 
HETATM   11  C25 UNL     1       3.344  21.552   1.182  1.00  0.00     0.013 C 
HETATM   12  C26 UNL     1       2.906  22.873   1.769  1.00  0.00     0.011 C 
HETATM   13  C27 UNL     1       1.771  22.630   2.691  1.00  0.00    -0.033 C 
HETATM   14  C28 UNL     1       0.551  22.252   1.940  1.00  0.00     0.016 C 
ENDROOT
BRANCH   8  15
HETATM   15  O1  UNL     1       4.277  19.365   0.255  1.00  0.00    -0.386 OA
ATOM     16  H1  UNL     1       3.453  19.648  -0.124  1.00  0.00     0.210 HD
ENDBRANCH   8  15
BRANCH   8  17
HETATM   17  C12 UNL     1       4.708  18.173   2.291  1.00  0.00     0.187 C 
HETATM   18  O2  UNL     1       4.862  18.203   3.649  1.00  0.00    -0.374 OA
HETATM   19  C13 UNL     1       6.110  17.595   3.515  1.00  0.00     0.205 C 
HETATM   20  C14 UNL     1       6.160  18.052   2.105  1.00  0.00    -0.028 C 
HETATM   21  C15 UNL     1       7.043  18.237   1.171  1.00  0.00    -0.012 C 
BRANCH  21  22
HETATM   22  C16 UNL     1       8.500  18.029   1.258  1.00  0.00     0.034 C 
HETATM   23  C17 UNL     1       8.929  16.613   1.509  1.00  0.00     0.017 C 
BRANCH  22  24
HETATM   24  C18 UNL     1       9.203  18.476  -0.020  1.00  0.00     0.134 C 
BRANCH  24  25
HETATM   25  O3  UNL     1       8.619  17.904  -1.142  1.00  0.00    -0.394 OA
ATOM     26  H3  UNL     1       8.311  18.569  -1.747  1.00  0.00     0.210 HD
ENDBRANCH  24  25
BRANCH  24  27
HETATM   27  C19 UNL     1       9.160  19.968  -0.178  1.00  0.00     0.143 C 
BRANCH  27  28
HETATM   28  C20 UNL     1       9.386  20.297  -1.608  1.00  0.00     0.261 C 
HETATM   29  O4  UNL     1       8.486  20.776  -2.333  1.00  0.00    -0.265 OA
BRANCH  28  30
HETATM   30  O5  UNL     1      10.629  20.084  -2.214  1.00  0.00    -0.322 OA
BRANCH  30  31
HETATM   31  C21 UNL     1      10.788  19.265  -3.347  1.00  0.00     0.174 C 
HETATM   32  C22 UNL     1      10.844  20.070  -4.631  1.00  0.00     0.034 C 
ENDBRANCH  30  31
ENDBRANCH  28  30
ENDBRANCH  27  28
ENDBRANCH  24  27
ENDBRANCH  22  24
ENDBRANCH  21  22
ENDBRANCH   8  17
BRANCH   1  33
HETATM   33  C2  UNL     1       1.009  25.015   3.111  1.00  0.00    -0.088 C 
HETATM   34  C1  UNL     1      -0.143  25.494   3.566  1.00  0.00     0.014 C 
HETATM   35  C3  UNL     1       1.699  25.807   2.072  1.00  0.00     0.043 C 
ENDBRANCH   1  33
TORSDOF 10
ENDMDL
MODEL 4
REMARK VINA RESULT: -6.493150068      1.716      2.757
REMARK  10 active torsions:
REMARK  status: ('A' for Active; 'I' for Inactive)
REMARK    1  A    between atoms: C2_2  and  C4_4 
REMARK    2  A    between atoms: C11_11  and  O1_12 
REMARK    3  A    between atoms: C11_11  and  C12_14 
REMARK    4  A    between atoms: C15_18  and  C16_19 
REMARK    5  A    between atoms: C16_19  and  C18_21 
REMARK    6  A    between atoms: C18_21  and  O3_22 
REMARK    7  A    between atoms: C18_21  and  C19_24 
REMARK    8  A    between atoms: C19_24  and  C20_25 
REMARK    9  A    between atoms: C20_25  and  O5_27 
REMARK   10  A    between atoms: O5_27  and  C21_28 
ROOT
HETATM    1  C4  UNL     1       1.371  23.762   3.687  1.00  0.00     0.022 C 
HETATM    2  C5  UNL     1       0.319  23.071   4.562  1.00  0.00     0.010 C 
HETATM    3  C6  UNL     1       0.680  21.578   4.513  1.00  0.00     0.006 C 
HETATM    4  C7  UNL     1       2.000  21.597   3.791  1.00  0.00    -0.001 C 
HETATM    5  C8  UNL     1       2.588  20.340   3.388  1.00  0.00     0.002 C 
HETATM    6  C9  UNL     1       1.708  19.251   2.905  1.00  0.00     0.009 C 
HETATM    7  C10 UNL     1       2.365  18.787   1.629  1.00  0.00     0.042 C 
HETATM    8  C11 UNL     1       3.859  19.219   1.759  1.00  0.00     0.095 C 
HETATM    9  C23 UNL     1       3.709  20.529   2.390  1.00  0.00    -0.006 C 
HETATM   10  C24 UNL     1       4.881  21.103   3.120  1.00  0.00     0.019 C 
HETATM   11  C25 UNL     1       3.335  21.543   1.320  1.00  0.00     0.013 C 
HETATM   12  C26 UNL     1       2.897  22.867   1.902  1.00  0.00     0.011 C 
HETATM   13  C27 UNL     1       1.694  22.643   2.740  1.00  0.00    -0.033 C 
HETATM   14  C28 UNL     1       0.518  22.316   1.901  1.00  0.00     0.016 C 
ENDROOT
BRANCH   8  15
HETATM   15  O1  UNL     1       4.264  19.345   0.417  1.00  0.00    -0.386 OA
ATOM     16  H1  UNL     1       5.119  19.752   0.493  1.00  0.00     0.210 HD
ENDBRANCH   8  15
BRANCH   8  17
HETATM   17  C12 UNL     1       4.519  18.105   2.454  1.00  0.00     0.187 C 
HETATM   18  O2  UNL     1       4.489  18.052   3.819  1.00  0.00    -0.374 OA
HETATM   19  C13 UNL     1       5.753  17.462   3.819  1.00  0.00     0.205 C 
HETATM   20  C14 UNL     1       5.984  18.007   2.459  1.00  0.00    -0.028 C 
HETATM   21  C15 UNL     1       6.983  18.255   1.666  1.00  0.00    -0.012 C 
BRANCH  21  22
HETATM   22  C16 UNL     1       8.417  18.053   1.936  1.00  0.00     0.034 C 
HETATM   23  C17 UNL     1       8.873  16.623   1.933  1.00  0.00     0.017 C 
BRANCH  22  24
HETATM   24  C18 UNL     1       9.285  18.787   0.918  1.00  0.00     0.134 C 
BRANCH  24  25
HETATM   25  O3  UNL     1       9.892  17.897   0.042  1.00  0.00    -0.394 OA
ATOM     26  H3  UNL     1      10.464  18.350  -0.567  1.00  0.00     0.210 HD
ENDBRANCH  24  25
BRANCH  24  27
HETATM   27  C19 UNL     1       8.479  19.762   0.111  1.00  0.00     0.143 C 
BRANCH  27  28
HETATM   28  C20 UNL     1       8.875  19.637  -1.314  1.00  0.00     0.261 C 
HETATM   29  O4  UNL     1       8.254  18.907  -2.118  1.00  0.00    -0.265 OA
BRANCH  28  30
HETATM   30  O5  UNL     1       9.974  20.337  -1.826  1.00  0.00    -0.322 OA
BRANCH  30  31
HETATM   31  C21 UNL     1       9.950  21.726  -2.046  1.00  0.00     0.174 C 
HETATM   32  C22 UNL     1      10.992  22.455  -1.219  1.00  0.00     0.034 C 
ENDBRANCH  30  31
ENDBRANCH  28  30
ENDBRANCH  27  28
ENDBRANCH  24  27
ENDBRANCH  22  24
ENDBRANCH  21  22
ENDBRANCH   8  17
BRANCH   1  33
HETATM   33  C2  UNL     1       0.976  25.042   3.153  1.00  0.00    -0.088 C 
HETATM   34  C1  UNL     1      -0.147  25.589   3.605  1.00  0.00     0.014 C 
HETATM   35  C3  UNL     1       1.713  25.788   2.112  1.00  0.00     0.043 C 
ENDBRANCH   1  33
TORSDOF 10
ENDMDL
MODEL 5
REMARK VINA RESULT: -6.308754525      4.418      6.927
REMARK  10 active torsions:
REMARK  status: ('A' for Active; 'I' for Inactive)
REMARK    1  A    between atoms: C2_2  and  C4_4 
REMARK    2  A    between atoms: C11_11  and  O1_12 
REMARK    3  A    between atoms: C11_11  and  C12_14 
REMARK    4  A    between atoms: C15_18  and  C16_19 
REMARK    5  A    between atoms: C16_19  and  C18_21 
REMARK    6  A    between atoms: C18_21  and  O3_22 
REMARK    7  A    between atoms: C18_21  and  C19_24 
REMARK    8  A    between atoms: C19_24  and  C20_25 
REMARK    9  A    between atoms: C20_25  and  O5_27 
REMARK   10  A    between atoms: O5_27  and  C21_28 
ROOT
HETATM    1  C4  UNL     1      -3.037  19.961  -3.284  1.00  0.00     0.022 C 
HETATM    2  C5  UNL     1      -4.064  20.021  -2.148  1.00  0.00     0.010 C 
HETATM    3  C6  UNL     1      -3.255  20.407  -0.901  1.00  0.00     0.006 C 
HETATM    4  C7  UNL     1      -1.905  20.721  -1.486  1.00  0.00    -0.001 C 
HETATM    5  C8  UNL     1      -0.798  20.959  -0.587  1.00  0.00     0.002 C 
HETATM    6  C9  UNL     1      -0.691  20.163   0.657  1.00  0.00     0.009 C 
HETATM    7  C10 UNL     1       0.742  19.692   0.668  1.00  0.00     0.042 C 
HETATM    8  C11 UNL     1       1.512  20.705  -0.235  1.00  0.00     0.095 C 
HETATM    9  C23 UNL     1       0.535  20.916  -1.301  1.00  0.00    -0.006 C 
HETATM   10  C24 UNL     1       0.649  22.152  -2.135  1.00  0.00     0.019 C 
HETATM   11  C25 UNL     1       0.610  19.743  -2.267  1.00  0.00     0.013 C 
HETATM   12  C26 UNL     1      -0.535  19.727  -3.253  1.00  0.00     0.011 C 
HETATM   13  C27 UNL     1      -1.807  19.602  -2.501  1.00  0.00    -0.033 C 
HETATM   14  C28 UNL     1      -1.943  18.250  -1.911  1.00  0.00     0.016 C 
ENDROOT
BRANCH   8  15
HETATM   15  O1  UNL     1       2.606  19.947  -0.691  1.00  0.00    -0.386 OA
ATOM     16  H1  UNL     1       3.349  20.499  -0.476  1.00  0.00     0.210 HD
ENDBRANCH   8  15
BRANCH   8  17
HETATM   17  C12 UNL     1       1.907  21.796   0.667  1.00  0.00     0.187 C 
HETATM   18  O2  UNL     1       2.404  22.956   0.142  1.00  0.00    -0.374 OA
HETATM   19  C13 UNL     1       3.228  23.102   1.258  1.00  0.00     0.205 C 
HETATM   20  C14 UNL     1       3.091  21.650   1.524  1.00  0.00    -0.028 C 
HETATM   21  C15 UNL     1       3.702  20.719   2.194  1.00  0.00    -0.012 C 
BRANCH  21  22
HETATM   22  C16 UNL     1       4.925  20.852   3.006  1.00  0.00     0.034 C 
HETATM   23  C17 UNL     1       5.188  19.719   3.954  1.00  0.00     0.017 C 
BRANCH  22  24
HETATM   24  C18 UNL     1       6.165  20.979   2.127  1.00  0.00     0.134 C 
BRANCH  24  25
HETATM   25  O3  UNL     1       7.271  21.369   2.872  1.00  0.00    -0.394 OA
ATOM     26  H3  UNL     1       7.992  20.760   2.761  1.00  0.00     0.210 HD
ENDBRANCH  24  25
BRANCH  24  27
HETATM   27  C19 UNL     1       6.492  19.681   1.447  1.00  0.00     0.143 C 
BRANCH  27  28
HETATM   28  C20 UNL     1       7.829  19.804   0.815  1.00  0.00     0.261 C 
HETATM   29  O4  UNL     1       8.886  19.530   1.428  1.00  0.00    -0.265 OA
BRANCH  28  30
HETATM   30  O5  UNL     1       7.970  20.236  -0.509  1.00  0.00    -0.322 OA
BRANCH  30  31
HETATM   31  C21 UNL     1       9.213  20.272  -1.165  1.00  0.00     0.174 C 
HETATM   32  C22 UNL     1       9.345  21.479  -2.075  1.00  0.00     0.034 C 
ENDBRANCH  30  31
ENDBRANCH  28  30
ENDBRANCH  27  28
ENDBRANCH  24  27
ENDBRANCH  22  24
ENDBRANCH  21  22
ENDBRANCH   8  17
BRANCH   1  33
HETATM   33  C2  UNL     1      -3.417  19.143  -4.409  1.00  0.00    -0.088 C 
HETATM   34  C1  UNL     1      -4.656  18.663  -4.444  1.00  0.00     0.014 C 
HETATM   35  C3  UNL     1      -2.522  18.766  -5.522  1.00  0.00     0.043 C 
ENDBRANCH   1  33
TORSDOF 10
ENDMDL
