MODEL 1
REMARK VINA RESULT: -7.368219427      0.000      0.000
REMARK  7 active torsions:
REMARK  status: ('A' for Active; 'I' for Inactive)
REMARK    1  A    between atoms: C2_2  and  C3_3 
REMARK    2  A    between atoms: C2_2  and  C4_6 
REMARK    3  A    between atoms: C3_3  and  O1_4 
REMARK    4  A    between atoms: C9_12  and  O3_13 
REMARK    5  A    between atoms: C13_18  and  O4_19 
REMARK    6  A    between atoms: O4_19  and  C14_20 
REMARK    7  A    between atoms: C14_20  and  C17_23 
ROOT
HETATM    1  C4  UNL     1      -1.307  16.491  -5.748  1.00  0.00     0.069 C 
HETATM    2  C5  UNL     1      -2.568  17.240  -6.134  1.00  0.00     0.132 C 
HETATM    3  O2  UNL     1      -3.442  16.837  -6.839  1.00  0.00    -0.298 OA
HETATM    4  C6  UNL     1      -2.469  18.557  -5.453  1.00  0.00     0.084 C 
HETATM    5  C7  UNL     1      -1.188  18.466  -4.673  1.00  0.00     0.008 C 
HETATM    6  C8  UNL     1      -1.068  19.358  -3.519  1.00  0.00     0.024 C 
HETATM    7  C9  UNL     1      -0.746  20.759  -4.062  1.00  0.00     0.123 C 
HETATM    8  C10 UNL     1      -0.494  21.705  -2.908  1.00  0.00     0.037 C 
HETATM    9  C11 UNL     1       0.609  21.242  -2.033  1.00  0.00    -0.001 C 
HETATM   10  C12 UNL     1       0.973  22.228  -0.962  1.00  0.00     0.037 C 
HETATM   11  C13 UNL     1       0.493  21.798   0.383  1.00  0.00     0.123 C 
HETATM   12  C21 UNL     1      -0.784  20.962   0.280  1.00  0.00     0.033 C 
HETATM   13  C22 UNL     1      -0.553  19.712  -0.487  1.00  0.00     0.012 C 
HETATM   14  C23 UNL     1       0.465  19.844  -1.555  1.00  0.00    -0.036 C 
HETATM   15  C24 UNL     1       1.815  19.313  -1.044  1.00  0.00     0.016 C 
HETATM   16  C25 UNL     1       0.146  18.949  -2.749  1.00  0.00     0.001 C 
HETATM   17  C26 UNL     1       0.034  17.492  -2.318  1.00  0.00     0.007 C 
HETATM   18  C27 UNL     1       0.062  16.663  -3.613  1.00  0.00     0.011 C 
HETATM   19  C28 UNL     1      -1.184  16.961  -4.348  1.00  0.00    -0.029 C 
HETATM   20  C29 UNL     1      -2.409  16.687  -3.507  1.00  0.00     0.016 C 
ENDROOT
BRANCH  11  21
HETATM   21  O4  UNL     1       1.364  21.365   1.288  1.00  0.00    -0.371 OA
BRANCH  21  22
HETATM   22  C14 UNL     1       2.180  22.064   2.044  1.00  0.00     0.077 C 
HETATM   23  C15 UNL     1       2.086  21.471   3.473  1.00  0.00     0.051 C 
HETATM   24  C16 UNL     1       3.673  21.843   1.725  1.00  0.00     0.051 C 
BRANCH  22  25
HETATM   25  C17 UNL     1       1.952  23.515   2.240  1.00  0.00    -0.050 A 
HETATM   26  C18 UNL     1       1.274  24.257   3.076  1.00  0.00    -0.021 A 
HETATM   27  C19 UNL     1       1.719  25.483   2.408  1.00  0.00     0.032 A 
HETATM   28  C20 UNL     1       2.501  24.677   1.432  1.00  0.00     0.040 A 
ENDBRANCH  22  25
ENDBRANCH  21  22
ENDBRANCH  11  21
BRANCH   7  29
HETATM   29  O3  UNL     1       0.260  20.740  -4.992  1.00  0.00    -0.395 OA
ATOM     30  H3  UNL     1       0.446  21.603  -5.341  1.00  0.00     0.210 HD
ENDBRANCH   7  29
BRANCH   1  31
HETATM   31  C2  UNL     1      -1.339  15.087  -6.086  1.00  0.00     0.017 C 
HETATM   32  C1  UNL     1      -2.015  14.114  -5.196  1.00  0.00     0.013 C 
BRANCH  31  33
HETATM   33  C3  UNL     1      -0.008  14.554  -6.525  1.00  0.00     0.169 C 
BRANCH  33  34
HETATM   34  O1  UNL     1       0.928  15.620  -6.675  1.00  0.00    -0.400 OA
ATOM     35  H1  UNL     1       1.564  15.410  -7.349  1.00  0.00     0.209 HD
ENDBRANCH  33  34
ENDBRANCH  31  33
ENDBRANCH   1  31
TORSDOF 7
ENDMDL
MODEL 2
REMARK VINA RESULT: -6.787301317      5.940     10.267
REMARK  7 active torsions:
REMARK  status: ('A' for Active; 'I' for Inactive)
REMARK    1  A    between atoms: C2_2  and  C3_3 
REMARK    2  A    between atoms: C2_2  and  C4_6 
REMARK    3  A    between atoms: C3_3  and  O1_4 
REMARK    4  A    between atoms: C9_12  and  O3_13 
REMARK    5  A    between atoms: C13_18  and  O4_19 
REMARK    6  A    between atoms: O4_19  and  C14_20 
REMARK    7  A    between atoms: C14_20  and  C17_23 
ROOT
HETATM    1  C4  UNL     1       7.255  15.361   6.391  1.00  0.00     0.069 C 
HETATM    2  C5  UNL     1       8.400  15.132   5.422  1.00  0.00     0.132 C 
HETATM    3  O2  UNL     1       9.178  14.228   5.447  1.00  0.00    -0.298 OA
HETATM    4  C6  UNL     1       8.334  16.263   4.461  1.00  0.00     0.084 C 
HETATM    5  C7  UNL     1       7.125  17.041   4.897  1.00  0.00     0.008 C 
HETATM    6  C8  UNL     1       6.494  17.883   3.880  1.00  0.00     0.024 C 
HETATM    7  C9  UNL     1       7.365  19.140   3.732  1.00  0.00     0.123 C 
HETATM    8  C10 UNL     1       6.701  20.107   2.776  1.00  0.00     0.037 C 
HETATM    9  C11 UNL     1       5.340  20.491   3.220  1.00  0.00    -0.001 C 
HETATM   10  C12 UNL     1       4.712  21.553   2.366  1.00  0.00     0.037 C 
HETATM   11  C13 UNL     1       3.646  21.004   1.479  1.00  0.00     0.123 C 
HETATM   12  C21 UNL     1       3.930  19.549   1.100  1.00  0.00     0.033 C 
HETATM   13  C22 UNL     1       3.954  18.671   2.297  1.00  0.00     0.012 C 
HETATM   14  C23 UNL     1       4.449  19.342   3.522  1.00  0.00    -0.036 C 
HETATM   15  C24 UNL     1       3.253  19.803   4.371  1.00  0.00     0.016 C 
HETATM   16  C25 UNL     1       5.194  18.370   4.432  1.00  0.00     0.001 C 
HETATM   17  C26 UNL     1       4.304  17.193   4.811  1.00  0.00     0.007 C 
HETATM   18  C27 UNL     1       5.012  16.483   5.977  1.00  0.00     0.011 C 
HETATM   19  C28 UNL     1       6.254  15.891   5.437  1.00  0.00    -0.029 C 
HETATM   20  C29 UNL     1       5.973  14.967   4.274  1.00  0.00     0.016 C 
ENDROOT
BRANCH  11  21
HETATM   21  O4  UNL     1       2.370  21.267   1.739  1.00  0.00    -0.371 OA
BRANCH  21  22
HETATM   22  C14 UNL     1       1.608  22.215   1.242  1.00  0.00     0.077 C 
HETATM   23  C15 UNL     1       2.042  22.411  -0.233  1.00  0.00     0.051 C 
HETATM   24  C16 UNL     1       0.131  21.805   1.070  1.00  0.00     0.051 C 
BRANCH  22  25
HETATM   25  C17 UNL     1       1.652  23.581   1.816  1.00  0.00    -0.050 A 
HETATM   26  C18 UNL     1       2.175  24.730   1.473  1.00  0.00    -0.021 A 
HETATM   27  C19 UNL     1       1.644  25.374   2.677  1.00  0.00     0.032 A 
HETATM   28  C20 UNL     1       1.035  24.086   3.107  1.00  0.00     0.040 A 
ENDBRANCH  22  25
ENDBRANCH  21  22
ENDBRANCH  11  21
BRANCH   7  29
HETATM   29  O3  UNL     1       7.691  19.695   4.942  1.00  0.00    -0.395 OA
ATOM     30  H3  UNL     1       7.143  20.439   5.158  1.00  0.00     0.210 HD
ENDBRANCH   7  29
BRANCH   1  31
HETATM   31  C2  UNL     1       6.978  14.225   7.241  1.00  0.00     0.017 C 
HETATM   32  C1  UNL     1       6.129  13.112   6.757  1.00  0.00     0.013 C 
BRANCH  31  33
HETATM   33  C3  UNL     1       6.585  14.613   8.635  1.00  0.00     0.169 C 
BRANCH  33  34
HETATM   34  O1  UNL     1       6.970  15.961   8.903  1.00  0.00    -0.400 OA
ATOM     35  H1  UNL     1       6.448  16.563   8.386  1.00  0.00     0.209 HD
ENDBRANCH  33  34
ENDBRANCH  31  33
ENDBRANCH   1  31
TORSDOF 7
ENDMDL
MODEL 3
REMARK VINA RESULT: -6.440887785      1.811      8.898
REMARK  7 active torsions:
REMARK  status: ('A' for Active; 'I' for Inactive)
REMARK    1  A    between atoms: C2_2  and  C3_3 
REMARK    2  A    between atoms: C2_2  and  C4_6 
REMARK    3  A    between atoms: C3_3  and  O1_4 
REMARK    4  A    between atoms: C9_12  and  O3_13 
REMARK    5  A    between atoms: C13_18  and  O4_19 
REMARK    6  A    between atoms: O4_19  and  C14_20 
REMARK    7  A    between atoms: C14_20  and  C17_23 
ROOT
HETATM    1  C4  UNL     1       1.098  22.826   1.696  1.00  0.00     0.069 C 
HETATM    2  C5  UNL     1       2.514  22.958   1.168  1.00  0.00     0.132 C 
HETATM    3  O2  UNL     1       3.458  23.366   1.771  1.00  0.00    -0.298 OA
HETATM    4  C6  UNL     1       2.456  22.476  -0.236  1.00  0.00     0.084 C 
HETATM    5  C7  UNL     1       1.028  22.044  -0.414  1.00  0.00     0.008 C 
HETATM    6  C8  UNL     1       0.774  21.065  -1.472  1.00  0.00     0.024 C 
HETATM    7  C9  UNL     1       0.808  21.824  -2.807  1.00  0.00     0.123 C 
HETATM    8  C10 UNL     1       0.435  20.886  -3.934  1.00  0.00     0.037 C 
HETATM    9  C11 UNL     1      -0.901  20.276  -3.740  1.00  0.00    -0.001 C 
HETATM   10  C12 UNL     1      -1.355  19.450  -4.907  1.00  0.00     0.037 C 
HETATM   11  C13 UNL     1      -1.280  17.988  -4.623  1.00  0.00     0.123 C 
HETATM   12  C21 UNL     1      -0.157  17.668  -3.634  1.00  0.00     0.033 C 
HETATM   13  C22 UNL     1      -0.387  18.324  -2.322  1.00  0.00     0.012 C 
HETATM   14  C23 UNL     1      -1.090  19.625  -2.418  1.00  0.00    -0.036 C 
HETATM   15  C24 UNL     1      -2.586  19.420  -2.133  1.00  0.00     0.016 C 
HETATM   16  C25 UNL     1      -0.636  20.590  -1.327  1.00  0.00     0.001 C 
HETATM   17  C26 UNL     1      -0.852  19.986   0.054  1.00  0.00     0.007 C 
HETATM   18  C27 UNL     1      -0.697  21.145   1.054  1.00  0.00     0.011 C 
HETATM   19  C28 UNL     1       0.719  21.566   1.017  1.00  0.00    -0.029 C 
HETATM   20  C29 UNL     1       1.652  20.414   1.309  1.00  0.00     0.016 C 
ENDROOT
BRANCH  11  21
HETATM   21  O4  UNL     1      -2.396  17.293  -4.433  1.00  0.00    -0.371 OA
BRANCH  21  22
HETATM   22  C14 UNL     1      -3.207  16.778  -5.330  1.00  0.00     0.077 C 
HETATM   23  C15 UNL     1      -2.323  16.007  -6.342  1.00  0.00     0.051 C 
HETATM   24  C16 UNL     1      -4.102  15.645  -4.786  1.00  0.00     0.051 C 
BRANCH  22  25
HETATM   25  C17 UNL     1      -4.037  17.666  -6.177  1.00  0.00    -0.050 A 
HETATM   26  C18 UNL     1      -4.343  17.740  -7.447  1.00  0.00    -0.021 A 
HETATM   27  C19 UNL     1      -5.180  18.919  -7.217  1.00  0.00     0.032 A 
HETATM   28  C20 UNL     1      -4.856  18.876  -5.765  1.00  0.00     0.040 A 
ENDBRANCH  22  25
ENDBRANCH  21  22
ENDBRANCH  11  21
BRANCH   7  29
HETATM   29  O3  UNL     1       0.061  22.973  -2.774  1.00  0.00    -0.395 OA
ATOM     30  H3  UNL     1      -0.658  22.955  -3.394  1.00  0.00     0.210 HD
ENDBRANCH   7  29
BRANCH   1  31
HETATM   31  C2  UNL     1       0.995  22.987   3.129  1.00  0.00     0.017 C 
HETATM   32  C1  UNL     1       0.345  21.945   3.958  1.00  0.00     0.013 C 
BRANCH  31  33
HETATM   33  C3  UNL     1       0.523  24.349   3.538  1.00  0.00     0.169 C 
BRANCH  33  34
HETATM   34  O1  UNL     1       1.496  25.335   3.196  1.00  0.00    -0.400 OA
ATOM     35  H1  UNL     1       1.287  25.729   2.357  1.00  0.00     0.209 HD
ENDBRANCH  33  34
ENDBRANCH  31  33
ENDBRANCH   1  31
TORSDOF 7
ENDMDL
MODEL 4
REMARK VINA RESULT: -6.364124723      2.686      4.616
REMARK  7 active torsions:
REMARK  status: ('A' for Active; 'I' for Inactive)
REMARK    1  A    between atoms: C2_2  and  C3_3 
REMARK    2  A    between atoms: C2_2  and  C4_6 
REMARK    3  A    between atoms: C3_3  and  O1_4 
REMARK    4  A    between atoms: C9_12  and  O3_13 
REMARK    5  A    between atoms: C13_18  and  O4_19 
REMARK    6  A    between atoms: O4_19  and  C14_20 
REMARK    7  A    between atoms: C14_20  and  C17_23 
ROOT
HETATM    1  C4  UNL     1      -1.535  19.441  -3.184  1.00  0.00     0.069 C 
HETATM    2  C5  UNL     1      -2.495  20.486  -2.648  1.00  0.00     0.132 C 
HETATM    3  O2  UNL     1      -3.638  20.623  -2.959  1.00  0.00    -0.298 OA
HETATM    4  C6  UNL     1      -1.706  21.281  -1.672  1.00  0.00     0.084 C 
HETATM    5  C7  UNL     1      -0.360  20.612  -1.662  1.00  0.00     0.008 C 
HETATM    6  C8  UNL     1       0.454  20.811  -0.463  1.00  0.00     0.024 C 
HETATM    7  C9  UNL     1       1.053  22.223  -0.553  1.00  0.00     0.123 C 
HETATM    8  C10 UNL     1       2.002  22.447   0.604  1.00  0.00     0.037 C 
HETATM    9  C11 UNL     1       3.092  21.443   0.640  1.00  0.00    -0.001 C 
HETATM   10  C12 UNL     1       4.123  21.721   1.693  1.00  0.00     0.037 C 
HETATM   11  C13 UNL     1       4.006  20.792   2.854  1.00  0.00     0.123 C 
HETATM   12  C21 UNL     1       2.560  20.339   3.062  1.00  0.00     0.033 C 
HETATM   13  C22 UNL     1       2.053  19.585   1.887  1.00  0.00     0.012 C 
HETATM   14  C23 UNL     1       2.626  20.034   0.596  1.00  0.00    -0.036 C 
HETATM   15  C24 UNL     1       3.782  19.102   0.198  1.00  0.00     0.016 C 
HETATM   16  C25 UNL     1       1.624  19.884  -0.545  1.00  0.00     0.001 C 
HETATM   17  C26 UNL     1       1.149  18.442  -0.662  1.00  0.00     0.007 C 
HETATM   18  C27 UNL     1       0.438  18.338  -2.023  1.00  0.00     0.011 C 
HETATM   19  C28 UNL     1      -0.788  19.158  -1.937  1.00  0.00    -0.029 C 
HETATM   20  C29 UNL     1      -1.667  18.731  -0.785  1.00  0.00     0.016 C 
ENDROOT
BRANCH  11  21
HETATM   21  O4  UNL     1       4.914  19.839   3.031  1.00  0.00    -0.371 OA
BRANCH  21  22
HETATM   22  C14 UNL     1       6.180  19.960   3.363  1.00  0.00     0.077 C 
HETATM   23  C15 UNL     1       6.349  21.372   3.978  1.00  0.00     0.051 C 
HETATM   24  C16 UNL     1       6.606  19.064   4.544  1.00  0.00     0.051 C 
BRANCH  22  25
HETATM   25  C17 UNL     1       7.230  19.893   2.320  1.00  0.00    -0.050 A 
HETATM   26  C18 UNL     1       7.275  19.606   1.045  1.00  0.00    -0.021 A 
HETATM   27  C19 UNL     1       8.721  19.836   1.003  1.00  0.00     0.032 A 
HETATM   28  C20 UNL     1       8.718  20.167   2.455  1.00  0.00     0.040 A 
ENDBRANCH  22  25
ENDBRANCH  21  22
ENDBRANCH  11  21
BRANCH   7  29
HETATM   29  O3  UNL     1       1.607  22.478  -1.780  1.00  0.00    -0.395 OA
ATOM     30  H3  UNL     1       1.549  23.395  -2.020  1.00  0.00     0.210 HD
ENDBRANCH   7  29
BRANCH   1  31
HETATM   31  C2  UNL     1      -2.181  18.395  -3.945  1.00  0.00     0.017 C 
HETATM   32  C1  UNL     1      -2.045  16.976  -3.541  1.00  0.00     0.013 C 
BRANCH  31  33
HETATM   33  C3  UNL     1      -1.990  18.537  -5.425  1.00  0.00     0.169 C 
BRANCH  33  34
HETATM   34  O1  UNL     1      -0.916  19.434  -5.703  1.00  0.00    -0.400 OA
ATOM     35  H1  UNL     1      -1.031  20.247  -5.225  1.00  0.00     0.209 HD
ENDBRANCH  33  34
ENDBRANCH  31  33
ENDBRANCH   1  31
TORSDOF 7
ENDMDL
MODEL 5
REMARK VINA RESULT: -6.308320100      1.043      1.245
REMARK  7 active torsions:
REMARK  status: ('A' for Active; 'I' for Inactive)
REMARK    1  A    between atoms: C2_2  and  C3_3 
REMARK    2  A    between atoms: C2_2  and  C4_6 
REMARK    3  A    between atoms: C3_3  and  O1_4 
REMARK    4  A    between atoms: C9_12  and  O3_13 
REMARK    5  A    between atoms: C13_18  and  O4_19 
REMARK    6  A    between atoms: O4_19  and  C14_20 
REMARK    7  A    between atoms: C14_20  and  C17_23 
ROOT
HETATM    1  C4  UNL     1      -0.041  16.023  -5.129  1.00  0.00     0.069 C 
HETATM    2  C5  UNL     1      -1.312  16.616  -5.705  1.00  0.00     0.132 C 
HETATM    3  O2  UNL     1      -2.051  16.090  -6.480  1.00  0.00    -0.298 OA
HETATM    4  C6  UNL     1      -1.424  17.970  -5.102  1.00  0.00     0.084 C 
HETATM    5  C7  UNL     1      -0.244  18.052  -4.174  1.00  0.00     0.008 C 
HETATM    6  C8  UNL     1      -0.353  19.008  -3.072  1.00  0.00     0.024 C 
HETATM    7  C9  UNL     1      -0.104  20.406  -3.661  1.00  0.00     0.123 C 
HETATM    8  C10 UNL     1      -0.086  21.430  -2.548  1.00  0.00     0.037 C 
HETATM    9  C11 UNL     1       0.942  21.130  -1.524  1.00  0.00    -0.001 C 
HETATM   10  C12 UNL     1       1.075  22.201  -0.481  1.00  0.00     0.037 C 
HETATM   11  C13 UNL     1       0.479  21.793   0.823  1.00  0.00     0.123 C 
HETATM   12  C21 UNL     1      -0.689  20.825   0.625  1.00  0.00     0.033 C 
HETATM   13  C22 UNL     1      -0.247  19.568  -0.029  1.00  0.00     0.012 C 
HETATM   14  C23 UNL     1       0.876  19.750  -0.979  1.00  0.00    -0.036 C 
HETATM   15  C24 UNL     1       2.198  19.388  -0.282  1.00  0.00     0.016 C 
HETATM   16  C25 UNL     1       0.792  18.767  -2.142  1.00  0.00     0.001 C 
HETATM   17  C26 UNL     1       0.770  17.330  -1.636  1.00  0.00     0.007 C 
HETATM   18  C27 UNL     1       1.035  16.443  -2.865  1.00  0.00     0.011 C 
HETATM   19  C28 UNL     1      -0.135  16.573  -3.757  1.00  0.00    -0.029 C 
HETATM   20  C29 UNL     1      -1.422  16.218  -3.047  1.00  0.00     0.016 C 
ENDROOT
BRANCH  11  21
HETATM   21  O4  UNL     1       1.271  21.498   1.848  1.00  0.00    -0.371 OA
BRANCH  21  22
HETATM   22  C14 UNL     1       2.041  22.300   2.549  1.00  0.00     0.077 C 
HETATM   23  C15 UNL     1       1.728  22.031   4.043  1.00  0.00     0.051 C 
HETATM   24  C16 UNL     1       3.541  21.940   2.487  1.00  0.00     0.051 C 
BRANCH  22  25
HETATM   25  C17 UNL     1       1.906  23.769   2.410  1.00  0.00    -0.050 A 
HETATM   26  C18 UNL     1       2.465  24.702   1.684  1.00  0.00    -0.021 A 
HETATM   27  C19 UNL     1       1.637  25.738   2.307  1.00  0.00     0.032 A 
HETATM   28  C20 UNL     1       0.976  24.709   3.156  1.00  0.00     0.040 A 
ENDBRANCH  22  25
ENDBRANCH  21  22
ENDBRANCH  11  21
BRANCH   7  29
HETATM   29  O3  UNL     1       1.005  20.443  -4.465  1.00  0.00    -0.395 OA
ATOM     30  H3  UNL     1       1.133  21.295  -4.866  1.00  0.00     0.210 HD
ENDBRANCH   7  29
BRANCH   1  31
HETATM   31  C2  UNL     1       0.104  14.607  -5.379  1.00  0.00     0.017 C 
HETATM   32  C1  UNL     1      -0.425  13.614  -4.415  1.00  0.00     0.013 C 
BRANCH  31  33
HETATM   33  C3  UNL     1       1.485  14.223  -5.818  1.00  0.00     0.169 C 
BRANCH  33  34
HETATM   34  O1  UNL     1       1.670  12.813  -5.701  1.00  0.00    -0.400 OA
ATOM     35  H1  UNL     1       2.334  12.515  -6.311  1.00  0.00     0.209 HD
ENDBRANCH  33  34
ENDBRANCH  31  33
ENDBRANCH   1  31
TORSDOF 7
ENDMDL
