MODEL 1
REMARK VINA RESULT: -6.559233195      0.000      0.000
REMARK  9 active torsions:
REMARK  status: ('A' for Active; 'I' for Inactive)
REMARK    1  A    between atoms: C4_4  and  C5_5 
REMARK    2  A    between atoms: C5_5  and  C6_6 
REMARK    3  A    between atoms: C6_6  and  C7_7 
REMARK    4  A    between atoms: C10_11  and  O2_12 
REMARK    5  A    between atoms: C11_14  and  C12_15 
REMARK    6  A    between atoms: C12_15  and  O3_16 
REMARK    7  A    between atoms: C19_24  and  C20_25 
REMARK    8  A    between atoms: C20_25  and  O4_26 
REMARK    9  A    between atoms: C21_28  and  C22_29 
ROOT
HETATM    1  C7  UNL     1       6.517  18.173   1.426  1.00  0.00     0.066 C 
HETATM    2  C8  UNL     1       5.210  17.594   0.802  1.00  0.00     0.046 C 
HETATM    3  O1  UNL     1       6.959  19.074   0.540  1.00  0.00    -0.367 OA
HETATM    4  C9  UNL     1       8.103  18.581  -0.129  1.00  0.00     0.190 C 
HETATM    5  C10 UNL     1       8.886  19.714  -0.603  1.00  0.00     0.081 C 
HETATM    6  C11 UNL     1       9.493  19.992  -1.709  1.00  0.00    -0.003 C 
HETATM    7  C13 UNL     1       9.647  19.243  -2.948  1.00  0.00     0.018 C 
HETATM    8  C14 UNL     1       9.135  17.934  -3.150  1.00  0.00    -0.065 C 
HETATM    9  C15 UNL     1       8.239  17.692  -4.361  1.00  0.00     0.048 C 
HETATM   10  C16 UNL     1       9.363  16.902  -2.383  1.00  0.00    -0.020 C 
HETATM   11  C17 UNL     1      10.212  16.991  -1.174  1.00  0.00     0.028 C 
HETATM   12  C18 UNL     1       9.362  16.513  -0.013  1.00  0.00     0.019 C 
HETATM   13  C19 UNL     1       8.737  17.603   0.830  1.00  0.00     0.023 C 
HETATM   14  C21 UNL     1       7.509  17.061   1.453  1.00  0.00     0.067 C 
ENDROOT
BRANCH  14  15
HETATM   15  C22 UNL     1       7.481  16.182   2.645  1.00  0.00     0.065 C 
HETATM   16  C23 UNL     1       6.080  15.564   2.786  1.00  0.00     0.046 C 
HETATM   17  C24 UNL     1       8.366  15.003   2.766  1.00  0.00     0.038 C 
HETATM   18  C25 UNL     1       8.898  14.677   4.122  1.00  0.00     0.006 C 
HETATM   19  C26 UNL     1       8.218  15.309   5.268  1.00  0.00     0.032 C 
HETATM   20  C27 UNL     1       7.785  16.697   4.948  1.00  0.00     0.118 C 
HETATM   21  C28 UNL     1       6.702  17.054   5.961  1.00  0.00     0.039 C 
HETATM   22  O5  UNL     1       7.559  17.046   3.700  1.00  0.00    -0.375 OA
ENDBRANCH  14  15
BRANCH   1  23
HETATM   23  C6  UNL     1       6.197  18.893   2.676  1.00  0.00     0.042 C 
BRANCH  23  24
HETATM   24  C5  UNL     1       6.087  20.412   2.518  1.00  0.00     0.030 C 
BRANCH  24  25
HETATM   25  C4  UNL     1       4.908  21.013   3.090  1.00  0.00    -0.025 C 
HETATM   26  C2  UNL     1       3.873  21.383   2.384  1.00  0.00    -0.091 C 
HETATM   27  C1  UNL     1       3.804  21.217   0.919  1.00  0.00     0.042 C 
HETATM   28  C3  UNL     1       2.693  22.006   3.066  1.00  0.00     0.042 C 
ENDBRANCH  24  25
ENDBRANCH  23  24
ENDBRANCH   1  23
BRANCH  13  29
HETATM   29  C20 UNL     1       9.762  18.164   1.724  1.00  0.00     0.177 C 
BRANCH  29  30
HETATM   30  O4  UNL     1       9.394  19.025   2.716  1.00  0.00    -0.400 OA
ATOM     31  H4  UNL     1       9.574  18.803   3.622  1.00  0.00     0.209 HD
ENDBRANCH  29  30
ENDBRANCH  13  29
BRANCH   5  32
HETATM   32  O2  UNL     1       8.998  20.734   0.386  1.00  0.00    -0.362 OA
ATOM     33  H2  UNL     1       9.415  21.515   0.044  1.00  0.00     0.217 HD
ENDBRANCH   5  32
BRANCH   6  34
HETATM   34  C12 UNL     1      10.230  21.328  -1.827  1.00  0.00     0.205 C 
BRANCH  34  35
HETATM   35  O3  UNL     1       9.241  22.288  -2.059  1.00  0.00    -0.396 OA
ATOM     36  H3  UNL     1       9.051  22.675  -1.212  1.00  0.00     0.209 HD
ENDBRANCH  34  35
ENDBRANCH   6  34
TORSDOF 9
ENDMDL
MODEL 2
REMARK VINA RESULT: -6.555933269      4.879      8.463
REMARK  9 active torsions:
REMARK  status: ('A' for Active; 'I' for Inactive)
REMARK    1  A    between atoms: C4_4  and  C5_5 
REMARK    2  A    between atoms: C5_5  and  C6_6 
REMARK    3  A    between atoms: C6_6  and  C7_7 
REMARK    4  A    between atoms: C10_11  and  O2_12 
REMARK    5  A    between atoms: C11_14  and  C12_15 
REMARK    6  A    between atoms: C12_15  and  O3_16 
REMARK    7  A    between atoms: C19_24  and  C20_25 
REMARK    8  A    between atoms: C20_25  and  O4_26 
REMARK    9  A    between atoms: C21_28  and  C22_29 
ROOT
HETATM    1  C7  UNL     1       2.389  22.484   1.283  1.00  0.00     0.066 C 
HETATM    2  C8  UNL     1       2.257  23.983   0.870  1.00  0.00     0.046 C 
HETATM    3  O1  UNL     1       2.552  21.817   0.134  1.00  0.00    -0.367 OA
HETATM    4  C9  UNL     1       1.377  21.097  -0.185  1.00  0.00     0.190 C 
HETATM    5  C10 UNL     1       1.740  19.971  -1.034  1.00  0.00     0.081 C 
HETATM    6  C11 UNL     1       1.243  19.455  -2.109  1.00  0.00    -0.003 C 
HETATM    7  C13 UNL     1       0.075  19.804  -2.905  1.00  0.00     0.018 C 
HETATM    8  C14 UNL     1      -0.823  20.853  -2.575  1.00  0.00    -0.065 C 
HETATM    9  C15 UNL     1      -1.106  21.916  -3.631  1.00  0.00     0.048 C 
HETATM   10  C16 UNL     1      -1.438  20.995  -1.431  1.00  0.00    -0.020 C 
HETATM   11  C17 UNL     1      -1.256  20.040  -0.314  1.00  0.00     0.028 C 
HETATM   12  C18 UNL     1      -0.788  20.852   0.877  1.00  0.00     0.019 C 
HETATM   13  C19 UNL     1       0.702  20.828   1.138  1.00  0.00     0.023 C 
HETATM   14  C21 UNL     1       1.069  22.076   1.844  1.00  0.00     0.067 C 
ENDROOT
BRANCH  14  15
HETATM   15  C22 UNL     1       0.863  22.324   3.289  1.00  0.00     0.065 C 
HETATM   16  C23 UNL     1       1.932  21.564   4.091  1.00  0.00     0.046 C 
HETATM   17  C24 UNL     1       0.936  23.685   3.866  1.00  0.00     0.038 C 
HETATM   18  C25 UNL     1       0.001  24.011   4.983  1.00  0.00     0.006 C 
HETATM   19  C26 UNL     1      -0.642  22.871   5.660  1.00  0.00     0.032 C 
HETATM   20  C27 UNL     1      -0.974  21.781   4.701  1.00  0.00     0.118 C 
HETATM   21  C28 UNL     1      -1.152  20.515   5.532  1.00  0.00     0.039 C 
HETATM   22  O5  UNL     1      -0.293  21.658   3.582  1.00  0.00    -0.375 OA
ENDBRANCH  14  15
BRANCH   1  23
HETATM   23  C6  UNL     1       3.612  22.295   2.089  1.00  0.00     0.042 C 
BRANCH  23  24
HETATM   24  C5  UNL     1       4.614  21.303   1.491  1.00  0.00     0.030 C 
BRANCH  24  25
HETATM   25  C4  UNL     1       4.857  20.117   2.275  1.00  0.00    -0.025 C 
HETATM   26  C2  UNL     1       5.735  20.060   3.239  1.00  0.00    -0.091 C 
HETATM   27  C1  UNL     1       6.570  21.212   3.630  1.00  0.00     0.042 C 
HETATM   28  C3  UNL     1       5.925  18.780   3.996  1.00  0.00     0.042 C 
ENDBRANCH  24  25
ENDBRANCH  23  24
ENDBRANCH   1  23
BRANCH  13  29
HETATM   29  C20 UNL     1       1.054  19.554   1.784  1.00  0.00     0.177 C 
BRANCH  29  30
HETATM   30  O4  UNL     1       0.145  18.931   2.588  1.00  0.00    -0.400 OA
ATOM     31  H4  UNL     1      -0.282  19.421   3.281  1.00  0.00     0.209 HD
ENDBRANCH  29  30
ENDBRANCH  13  29
BRANCH   5  32
HETATM   32  O2  UNL     1       2.905  19.301  -0.560  1.00  0.00    -0.362 OA
ATOM     33  H2  UNL     1       3.207  18.640  -1.171  1.00  0.00     0.217 HD
ENDBRANCH   5  32
BRANCH   6  34
HETATM   34  C12 UNL     1       1.934  18.236  -2.725  1.00  0.00     0.205 C 
BRANCH  34  35
HETATM   35  O3  UNL     1       3.001  18.741  -3.473  1.00  0.00    -0.396 OA
ATOM     36  H3  UNL     1       3.456  17.982  -3.820  1.00  0.00     0.209 HD
ENDBRANCH  34  35
ENDBRANCH   6  34
TORSDOF 9
ENDMDL
MODEL 3
REMARK VINA RESULT: -6.404160166      1.727      2.654
REMARK  9 active torsions:
REMARK  status: ('A' for Active; 'I' for Inactive)
REMARK    1  A    between atoms: C4_4  and  C5_5 
REMARK    2  A    between atoms: C5_5  and  C6_6 
REMARK    3  A    between atoms: C6_6  and  C7_7 
REMARK    4  A    between atoms: C10_11  and  O2_12 
REMARK    5  A    between atoms: C11_14  and  C12_15 
REMARK    6  A    between atoms: C12_15  and  O3_16 
REMARK    7  A    between atoms: C19_24  and  C20_25 
REMARK    8  A    between atoms: C20_25  and  O4_26 
REMARK    9  A    between atoms: C21_28  and  C22_29 
ROOT
HETATM    1  C7  UNL     1       5.618  18.564   1.839  1.00  0.00     0.066 C 
HETATM    2  C8  UNL     1       4.742  17.313   1.519  1.00  0.00     0.046 C 
HETATM    3  O1  UNL     1       6.237  18.861   0.689  1.00  0.00    -0.367 OA
HETATM    4  C9  UNL     1       7.606  18.515   0.768  1.00  0.00     0.190 C 
HETATM    5  C10 UNL     1       8.348  19.343  -0.173  1.00  0.00     0.081 C 
HETATM    6  C11 UNL     1       9.287  19.115  -1.030  1.00  0.00    -0.003 C 
HETATM    7  C13 UNL     1      10.004  17.899  -1.385  1.00  0.00     0.018 C 
HETATM    8  C14 UNL     1       9.793  16.644  -0.756  1.00  0.00    -0.065 C 
HETATM    9  C15 UNL     1       9.471  15.443  -1.640  1.00  0.00     0.048 C 
HETATM   10  C16 UNL     1       9.850  16.418   0.529  1.00  0.00    -0.020 C 
HETATM   11  C17 UNL     1      10.151  17.490   1.505  1.00  0.00     0.028 C 
HETATM   12  C18 UNL     1       8.996  17.518   2.486  1.00  0.00     0.019 C 
HETATM   13  C19 UNL     1       7.953  18.586   2.236  1.00  0.00     0.023 C 
HETATM   14  C21 UNL     1       6.666  18.119   2.800  1.00  0.00     0.067 C 
ENDROOT
BRANCH  14  15
HETATM   15  C22 UNL     1       6.306  18.163   4.235  1.00  0.00     0.065 C 
HETATM   16  C23 UNL     1       7.543  18.560   5.057  1.00  0.00     0.046 C 
HETATM   17  C24 UNL     1       5.269  19.085   4.751  1.00  0.00     0.038 C 
HETATM   18  C25 UNL     1       4.403  18.593   5.864  1.00  0.00     0.006 C 
HETATM   19  C26 UNL     1       4.880  17.408   6.598  1.00  0.00     0.032 C 
HETATM   20  C27 UNL     1       5.553  16.438   5.692  1.00  0.00     0.118 C 
HETATM   21  C28 UNL     1       6.413  15.544   6.579  1.00  0.00     0.039 C 
HETATM   22  O5  UNL     1       6.102  16.855   4.571  1.00  0.00    -0.375 OA
ENDBRANCH  14  15
BRANCH   1  23
HETATM   23  C6  UNL     1       4.748  19.706   2.188  1.00  0.00     0.042 C 
BRANCH  23  24
HETATM   24  C5  UNL     1       4.355  20.586   0.998  1.00  0.00     0.030 C 
BRANCH  24  25
HETATM   25  C4  UNL     1       4.161  21.983   1.295  1.00  0.00    -0.025 C 
HETATM   26  C2  UNL     1       3.129  22.670   0.883  1.00  0.00    -0.091 C 
HETATM   27  C1  UNL     1       2.049  22.079   0.069  1.00  0.00     0.042 C 
HETATM   28  C3  UNL     1       3.014  24.121   1.236  1.00  0.00     0.042 C 
ENDBRANCH  24  25
ENDBRANCH  23  24
ENDBRANCH   1  23
BRANCH  13  29
HETATM   29  C20 UNL     1       8.470  19.881   2.705  1.00  0.00     0.177 C 
BRANCH  29  30
HETATM   30  O4  UNL     1       7.688  20.995   2.607  1.00  0.00    -0.400 OA
ATOM     31  H4  UNL     1       7.926  21.779   3.089  1.00  0.00     0.209 HD
ENDBRANCH  29  30
ENDBRANCH  13  29
BRANCH   5  32
HETATM   32  O2  UNL     1       7.931  20.706  -0.125  1.00  0.00    -0.362 OA
ATOM     33  H2  UNL     1       7.450  20.901   0.670  1.00  0.00     0.217 HD
ENDBRANCH   5  32
BRANCH   6  34
HETATM   34  C12 UNL     1       9.821  20.283  -1.862  1.00  0.00     0.205 C 
BRANCH  34  35
HETATM   35  O3  UNL     1       8.767  20.672  -2.693  1.00  0.00    -0.396 OA
ATOM     36  H3  UNL     1       9.164  21.174  -3.396  1.00  0.00     0.209 HD
ENDBRANCH  34  35
ENDBRANCH   6  34
TORSDOF 9
ENDMDL
MODEL 4
REMARK VINA RESULT: -6.330831679      1.489      2.322
REMARK  9 active torsions:
REMARK  status: ('A' for Active; 'I' for Inactive)
REMARK    1  A    between atoms: C4_4  and  C5_5 
REMARK    2  A    between atoms: C5_5  and  C6_6 
REMARK    3  A    between atoms: C6_6  and  C7_7 
REMARK    4  A    between atoms: C10_11  and  O2_12 
REMARK    5  A    between atoms: C11_14  and  C12_15 
REMARK    6  A    between atoms: C12_15  and  O3_16 
REMARK    7  A    between atoms: C19_24  and  C20_25 
REMARK    8  A    between atoms: C20_25  and  O4_26 
REMARK    9  A    between atoms: C21_28  and  C22_29 
ROOT
HETATM    1  C7  UNL     1       6.075  18.850   1.265  1.00  0.00     0.066 C 
HETATM    2  C8  UNL     1       4.985  17.867   0.736  1.00  0.00     0.046 C 
HETATM    3  O1  UNL     1       6.762  19.230   0.180  1.00  0.00    -0.367 OA
HETATM    4  C9  UNL     1       8.039  18.623   0.172  1.00  0.00     0.190 C 
HETATM    5  C10 UNL     1       8.941  19.454  -0.613  1.00  0.00     0.081 C 
HETATM    6  C11 UNL     1       9.837  19.213  -1.512  1.00  0.00    -0.003 C 
HETATM    7  C13 UNL     1      10.319  17.969  -2.096  1.00  0.00     0.018 C 
HETATM    8  C14 UNL     1       9.862  16.683  -1.705  1.00  0.00    -0.065 C 
HETATM    9  C15 UNL     1       9.336  15.747  -2.788  1.00  0.00     0.048 C 
HETATM   10  C16 UNL     1       9.851  16.219  -0.483  1.00  0.00    -0.020 C 
HETATM   11  C17 UNL     1      10.330  17.018   0.667  1.00  0.00     0.028 C 
HETATM   12  C18 UNL     1       9.182  17.084   1.656  1.00  0.00     0.019 C 
HETATM   13  C19 UNL     1       8.364  18.357   1.622  1.00  0.00     0.023 C 
HETATM   14  C21 UNL     1       7.002  18.046   2.111  1.00  0.00     0.067 C 
ENDROOT
BRANCH  14  15
HETATM   15  C22 UNL     1       6.629  17.895   3.536  1.00  0.00     0.065 C 
HETATM   16  C23 UNL     1       7.730  17.111   4.268  1.00  0.00     0.046 C 
HETATM   17  C24 UNL     1       6.427  19.065   4.419  1.00  0.00     0.038 C 
HETATM   18  C25 UNL     1       5.354  18.971   5.452  1.00  0.00     0.006 C 
HETATM   19  C26 UNL     1       4.846  17.621   5.758  1.00  0.00     0.032 C 
HETATM   20  C27 UNL     1       4.784  16.772   4.537  1.00  0.00     0.118 C 
HETATM   21  C28 UNL     1       4.741  15.326   5.020  1.00  0.00     0.039 C 
HETATM   22  O5  UNL     1       5.575  17.026   3.517  1.00  0.00    -0.375 OA
ENDBRANCH  14  15
BRANCH   1  23
HETATM   23  C6  UNL     1       5.431  20.052   1.832  1.00  0.00     0.042 C 
BRANCH  23  24
HETATM   24  C5  UNL     1       4.059  20.373   1.232  1.00  0.00     0.030 C 
BRANCH  24  25
HETATM   25  C4  UNL     1       3.832  21.760   0.905  1.00  0.00    -0.025 C 
HETATM   26  C2  UNL     1       3.125  22.568   1.648  1.00  0.00    -0.091 C 
HETATM   27  C1  UNL     1       2.487  22.143   2.909  1.00  0.00     0.042 C 
HETATM   28  C3  UNL     1       2.938  23.993   1.224  1.00  0.00     0.042 C 
ENDBRANCH  24  25
ENDBRANCH  23  24
ENDBRANCH   1  23
BRANCH  13  29
HETATM   29  C20 UNL     1       9.108  19.422   2.312  1.00  0.00     0.177 C 
BRANCH  29  30
HETATM   30  O4  UNL     1       8.581  20.679   2.377  1.00  0.00    -0.400 OA
ATOM     31  H4  UNL     1       7.661  20.814   2.183  1.00  0.00     0.209 HD
ENDBRANCH  29  30
ENDBRANCH  13  29
BRANCH   5  32
HETATM   32  O2  UNL     1       8.789  20.838  -0.310  1.00  0.00    -0.362 OA
ATOM     33  H2  UNL     1       8.468  21.331  -1.056  1.00  0.00     0.217 HD
ENDBRANCH   5  32
BRANCH   6  34
HETATM   34  C12 UNL     1      10.599  20.391  -2.124  1.00  0.00     0.205 C 
BRANCH  34  35
HETATM   35  O3  UNL     1       9.789  20.872  -3.157  1.00  0.00    -0.396 OA
ATOM     36  H3  UNL     1       9.981  21.800  -3.224  1.00  0.00     0.209 HD
ENDBRANCH  34  35
ENDBRANCH   6  34
TORSDOF 9
ENDMDL
MODEL 5
REMARK VINA RESULT: -6.268641694      1.108      1.396
REMARK  9 active torsions:
REMARK  status: ('A' for Active; 'I' for Inactive)
REMARK    1  A    between atoms: C4_4  and  C5_5 
REMARK    2  A    between atoms: C5_5  and  C6_6 
REMARK    3  A    between atoms: C6_6  and  C7_7 
REMARK    4  A    between atoms: C10_11  and  O2_12 
REMARK    5  A    between atoms: C11_14  and  C12_15 
REMARK    6  A    between atoms: C12_15  and  O3_16 
REMARK    7  A    between atoms: C19_24  and  C20_25 
REMARK    8  A    between atoms: C20_25  and  O4_26 
REMARK    9  A    between atoms: C21_28  and  C22_29 
ROOT
HETATM    1  C7  UNL     1       6.131  18.361   1.088  1.00  0.00     0.066 C 
HETATM    2  C8  UNL     1       5.045  17.460   0.423  1.00  0.00     0.046 C 
HETATM    3  O1  UNL     1       6.731  18.993   0.073  1.00  0.00    -0.367 OA
HETATM    4  C9  UNL     1       8.026  18.465  -0.136  1.00  0.00     0.190 C 
HETATM    5  C10 UNL     1       8.846  19.485  -0.775  1.00  0.00     0.081 C 
HETATM    6  C11 UNL     1       9.689  19.483  -1.753  1.00  0.00    -0.003 C 
HETATM    7  C13 UNL     1      10.176  18.414  -2.614  1.00  0.00     0.018 C 
HETATM    8  C14 UNL     1       9.792  17.054  -2.481  1.00  0.00    -0.065 C 
HETATM    9  C15 UNL     1       9.231  16.343  -3.708  1.00  0.00     0.048 C 
HETATM   10  C16 UNL     1       9.876  16.344  -1.388  1.00  0.00    -0.020 C 
HETATM   11  C17 UNL     1      10.400  16.905  -0.122  1.00  0.00     0.028 C 
HETATM   12  C18 UNL     1       9.317  16.705   0.920  1.00  0.00     0.019 C 
HETATM   13  C19 UNL     1       8.454  17.915   1.204  1.00  0.00     0.023 C 
HETATM   14  C21 UNL     1       7.139  17.443   1.691  1.00  0.00     0.067 C 
ENDROOT
BRANCH  14  15
HETATM   15  C22 UNL     1       6.864  16.977   3.069  1.00  0.00     0.065 C 
HETATM   16  C23 UNL     1       5.535  16.204   3.087  1.00  0.00     0.046 C 
HETATM   17  C24 UNL     1       7.780  16.056   3.779  1.00  0.00     0.038 C 
HETATM   18  C25 UNL     1       7.950  16.253   5.249  1.00  0.00     0.006 C 
HETATM   19  C26 UNL     1       6.936  17.079   5.928  1.00  0.00     0.032 C 
HETATM   20  C27 UNL     1       6.489  18.211   5.069  1.00  0.00     0.118 C 
HETATM   21  C28 UNL     1       5.147  18.671   5.628  1.00  0.00     0.039 C 
HETATM   22  O5  UNL     1       6.580  18.120   3.760  1.00  0.00    -0.375 OA
ENDBRANCH  14  15
BRANCH   1  23
HETATM   23  C6  UNL     1       5.481  19.384   1.933  1.00  0.00     0.042 C 
BRANCH  23  24
HETATM   24  C5  UNL     1       4.272  20.062   1.284  1.00  0.00     0.030 C 
BRANCH  24  25
HETATM   25  C4  UNL     1       4.183  21.489   1.474  1.00  0.00    -0.025 C 
HETATM   26  C2  UNL     1       3.230  22.224   0.966  1.00  0.00    -0.091 C 
HETATM   27  C1  UNL     1       2.139  21.665   0.145  1.00  0.00     0.042 C 
HETATM   28  C3  UNL     1       3.222  23.702   1.212  1.00  0.00     0.042 C 
ENDBRANCH  24  25
ENDBRANCH  23  24
ENDBRANCH   1  23
BRANCH  13  29
HETATM   29  C20 UNL     1       9.202  18.846   2.063  1.00  0.00     0.177 C 
BRANCH  29  30
HETATM   30  O4  UNL     1       8.583  19.961   2.549  1.00  0.00    -0.400 OA
ATOM     31  H4  UNL     1       9.032  20.797   2.523  1.00  0.00     0.209 HD
ENDBRANCH  29  30
ENDBRANCH  13  29
BRANCH   5  32
HETATM   32  O2  UNL     1       8.663  20.765  -0.175  1.00  0.00    -0.362 OA
ATOM     33  H2  UNL     1       8.025  20.740   0.528  1.00  0.00     0.217 HD
ENDBRANCH   5  32
BRANCH   6  34
HETATM   34  C12 UNL     1      10.367  20.799  -2.141  1.00  0.00     0.205 C 
BRANCH  34  35
HETATM   35  O3  UNL     1       9.394  21.544  -2.813  1.00  0.00    -0.396 OA
ATOM     36  H3  UNL     1       9.419  22.411  -2.425  1.00  0.00     0.209 HD
ENDBRANCH  34  35
ENDBRANCH   6  34
TORSDOF 9
ENDMDL
