MODEL 1
REMARK VINA RESULT: -6.591049084      0.000      0.000
REMARK  7 active torsions:
REMARK  status: ('A' for Active; 'I' for Inactive)
REMARK    1  A    between atoms: C2_2  and  C3_3 
REMARK    2  A    between atoms: C3_3  and  C4_4 
REMARK    3  A    between atoms: C4_4  and  O1_5 
REMARK    4  A    between atoms: O1_5  and  C5_6 
REMARK    5  A    between atoms: C5_6  and  C7_8 
REMARK    6  A    between atoms: C16_17  and  O2_18 
REMARK    7  A    between atoms: O2_18  and  C17_19 
REMARK       I    between atoms: N1_23  and  C20_24 
REMARK       I    between atoms: C20_24  and  N2_25 
REMARK       I    between atoms: C20_24  and  N3_29 
ROOT
HETATM    1  C7  UNL     1       2.990  21.934   1.298  1.00  0.00     0.023 C 
HETATM    2  C8  UNL     1       3.170  23.401   1.610  1.00  0.00     0.008 C 
HETATM    3  C9  UNL     1       1.675  23.768   1.626  1.00  0.00     0.006 C 
HETATM    4  C10 UNL     1       1.128  22.668   2.514  1.00  0.00    -0.001 C 
HETATM    5  C11 UNL     1       1.117  23.186   3.927  1.00  0.00    -0.003 C 
HETATM    6  C12 UNL     1       0.309  24.453   3.967  1.00  0.00     0.006 C 
HETATM    7  C13 UNL     1      -0.184  24.559   5.423  1.00  0.00     0.011 C 
HETATM    8  C14 UNL     1      -1.224  23.462   5.518  1.00  0.00     0.038 C 
HETATM    9  C15 UNL     1      -2.047  23.741   6.706  1.00  0.00     0.015 C 
HETATM   10  C16 UNL     1      -1.706  23.196   7.859  1.00  0.00     0.071 C 
HETATM   11  C19 UNL     1      -0.479  22.323   7.834  1.00  0.00     0.186 C 
HETATM   12  N1  UNL     1      -0.640  21.484   6.699  1.00  0.00    -0.349 N 
HETATM   13  C20 UNL     1      -1.003  20.162   6.896  1.00  0.00     0.479 C 
HETATM   14  N2  UNL     1      -0.021  19.424   7.708  1.00  0.00    -0.033 N 
ATOM     15  H21 UNL     1      -0.289  18.451   7.854  1.00  0.00     0.278 HD
ATOM     16  H22 UNL     1       0.150  19.895   8.597  1.00  0.00     0.278 HD
ATOM     17  H23 UNL     1       0.914  19.491   7.306  1.00  0.00     0.278 HD
HETATM   18  N3  UNL     1      -2.243  20.105   7.689  1.00  0.00    -0.033 N 
ATOM     19  H31 UNL     1      -2.511  19.132   7.835  1.00  0.00     0.278 HD
ATOM     20  H32 UNL     1      -2.994  20.652   7.269  1.00  0.00     0.278 HD
ATOM     21  H33 UNL     1      -2.163  20.618   8.568  1.00  0.00     0.278 HD
HETATM   22  C21 UNL     1      -0.626  22.086   5.435  1.00  0.00     0.039 C 
HETATM   23  C22 UNL     1      -1.526  21.305   4.515  1.00  0.00     0.039 C 
HETATM   24  C23 UNL     1       0.806  22.190   4.974  1.00  0.00     0.018 C 
HETATM   25  C24 UNL     1       1.466  20.898   4.654  1.00  0.00     0.008 C 
HETATM   26  C25 UNL     1       2.621  21.126   3.661  1.00  0.00     0.010 C 
HETATM   27  C26 UNL     1       2.062  21.479   2.343  1.00  0.00    -0.034 C 
HETATM   28  C27 UNL     1       1.279  20.303   1.810  1.00  0.00     0.016 C 
ENDROOT
BRANCH  10  29
HETATM   29  O2  UNL     1      -2.430  23.412   9.023  1.00  0.00    -0.282 OA
BRANCH  29  30
HETATM   30  C17 UNL     1      -1.825  23.638  10.236  1.00  0.00     0.259 C 
HETATM   31  C18 UNL     1      -1.325  24.976  10.677  1.00  0.00     0.126 C 
HETATM   32  O3  UNL     1      -1.678  22.690  11.025  1.00  0.00    -0.265 OA
ENDBRANCH  29  30
ENDBRANCH  10  29
BRANCH   1  33
HETATM   33  C5  UNL     1       4.163  21.174   0.926  1.00  0.00     0.122 C 
HETATM   34  C6  UNL     1       4.157  19.700   1.216  1.00  0.00     0.040 C 
BRANCH  33  35
HETATM   35  O1  UNL     1       5.247  21.769   1.629  1.00  0.00    -0.386 OA
BRANCH  35  36
HETATM   36  C4  UNL     1       6.029  20.821   2.235  1.00  0.00     0.168 C 
BRANCH  36  37
HETATM   37  C3  UNL     1       6.543  21.304   3.551  1.00  0.00     0.026 C 
BRANCH  37  38
HETATM   38  C2  UNL     1       6.767  20.273   4.598  1.00  0.00    -0.002 C 
HETATM   39  C1  UNL     1       5.714  19.206   4.672  1.00  0.00     0.005 C 
ENDBRANCH  37  38
ENDBRANCH  36  37
ENDBRANCH  35  36
ENDBRANCH  33  35
ENDBRANCH   1  33
TORSDOF 7
ENDMDL
MODEL 2
REMARK VINA RESULT: -6.539653880      6.122      8.965
REMARK  7 active torsions:
REMARK  status: ('A' for Active; 'I' for Inactive)
REMARK    1  A    between atoms: C2_2  and  C3_3 
REMARK    2  A    between atoms: C3_3  and  C4_4 
REMARK    3  A    between atoms: C4_4  and  O1_5 
REMARK    4  A    between atoms: O1_5  and  C5_6 
REMARK    5  A    between atoms: C5_6  and  C7_8 
REMARK    6  A    between atoms: C16_17  and  O2_18 
REMARK    7  A    between atoms: O2_18  and  C17_19 
REMARK       I    between atoms: N1_23  and  C20_24 
REMARK       I    between atoms: C20_24  and  N2_25 
REMARK       I    between atoms: C20_24  and  N3_29 
ROOT
HETATM    1  C7  UNL     1       1.534  21.647   1.776  1.00  0.00     0.023 C 
HETATM    2  C8  UNL     1       1.324  22.918   0.988  1.00  0.00     0.008 C 
HETATM    3  C9  UNL     1       1.718  22.348  -0.386  1.00  0.00     0.006 C 
HETATM    4  C10 UNL     1       0.898  21.074  -0.404  1.00  0.00    -0.001 C 
HETATM    5  C11 UNL     1      -0.412  21.384  -1.076  1.00  0.00    -0.003 C 
HETATM    6  C12 UNL     1      -0.132  21.940  -2.443  1.00  0.00     0.006 C 
HETATM    7  C13 UNL     1      -1.401  21.633  -3.261  1.00  0.00     0.011 C 
HETATM    8  C14 UNL     1      -1.332  20.133  -3.459  1.00  0.00     0.038 C 
HETATM    9  C15 UNL     1      -2.244  19.795  -4.563  1.00  0.00     0.015 C 
HETATM   10  C16 UNL     1      -3.491  19.466  -4.282  1.00  0.00     0.071 C 
HETATM   11  C19 UNL     1      -3.856  19.471  -2.820  1.00  0.00     0.186 C 
HETATM   12  N1  UNL     1      -2.799  18.780  -2.168  1.00  0.00    -0.349 N 
HETATM   13  C20 UNL     1      -3.020  17.482  -1.738  1.00  0.00     0.479 C 
HETATM   14  N2  UNL     1      -4.118  17.393  -0.760  1.00  0.00    -0.033 N 
ATOM     15  H21 UNL     1      -4.280  16.437  -0.443  1.00  0.00     0.278 HD
ATOM     16  H22 UNL     1      -4.973  17.809  -1.128  1.00  0.00     0.278 HD
ATOM     17  H23 UNL     1      -3.958  18.019   0.030  1.00  0.00     0.278 HD
HETATM   18  N3  UNL     1      -3.478  16.659  -2.870  1.00  0.00    -0.033 N 
ATOM     19  H31 UNL     1      -3.640  15.703  -2.554  1.00  0.00     0.278 HD
ATOM     20  H32 UNL     1      -2.833  16.698  -3.660  1.00  0.00     0.278 HD
ATOM     21  H33 UNL     1      -4.297  17.057  -3.330  1.00  0.00     0.278 HD
HETATM   22  C21 UNL     1      -1.529  19.369  -2.179  1.00  0.00     0.039 C 
HETATM   23  C22 UNL     1      -0.489  18.282  -2.190  1.00  0.00     0.039 C 
HETATM   24  C23 UNL     1      -1.435  20.318  -1.011  1.00  0.00     0.018 C 
HETATM   25  C24 UNL     1      -1.412  19.676   0.329  1.00  0.00     0.008 C 
HETATM   26  C25 UNL     1      -0.725  20.603   1.348  1.00  0.00     0.010 C 
HETATM   27  C26 UNL     1       0.718  20.662   1.050  1.00  0.00    -0.034 C 
HETATM   28  C27 UNL     1       1.320  19.293   1.260  1.00  0.00     0.016 C 
ENDROOT
BRANCH  10  29
HETATM   29  O2  UNL     1      -4.410  19.136  -5.267  1.00  0.00    -0.282 OA
BRANCH  29  30
HETATM   30  C17 UNL     1      -4.049  18.490  -6.425  1.00  0.00     0.259 C 
HETATM   31  C18 UNL     1      -3.623  17.058  -6.476  1.00  0.00     0.126 C 
HETATM   32  O3  UNL     1      -4.074  19.113  -7.499  1.00  0.00    -0.265 OA
ENDBRANCH  29  30
ENDBRANCH  10  29
BRANCH   1  33
HETATM   33  C5  UNL     1       1.527  21.737   3.219  1.00  0.00     0.122 C 
HETATM   34  C6  UNL     1       1.326  23.095   3.830  1.00  0.00     0.040 C 
BRANCH  33  35
HETATM   35  O1  UNL     1       2.786  21.232   3.645  1.00  0.00    -0.386 OA
BRANCH  35  36
HETATM   36  C4  UNL     1       3.795  21.642   2.814  1.00  0.00     0.168 C 
BRANCH  36  37
HETATM   37  C3  UNL     1       4.979  20.737   2.912  1.00  0.00     0.026 C 
BRANCH  37  38
HETATM   38  C2  UNL     1       6.177  21.279   3.604  1.00  0.00    -0.002 C 
HETATM   39  C1  UNL     1       6.882  20.307   4.505  1.00  0.00     0.005 C 
ENDBRANCH  37  38
ENDBRANCH  36  37
ENDBRANCH  35  36
ENDBRANCH  33  35
ENDBRANCH   1  33
TORSDOF 7
ENDMDL
MODEL 3
REMARK VINA RESULT: -6.466695521      5.306      8.139
REMARK  7 active torsions:
REMARK  status: ('A' for Active; 'I' for Inactive)
REMARK    1  A    between atoms: C2_2  and  C3_3 
REMARK    2  A    between atoms: C3_3  and  C4_4 
REMARK    3  A    between atoms: C4_4  and  O1_5 
REMARK    4  A    between atoms: O1_5  and  C5_6 
REMARK    5  A    between atoms: C5_6  and  C7_8 
REMARK    6  A    between atoms: C16_17  and  O2_18 
REMARK    7  A    between atoms: O2_18  and  C17_19 
REMARK       I    between atoms: N1_23  and  C20_24 
REMARK       I    between atoms: C20_24  and  N2_25 
REMARK       I    between atoms: C20_24  and  N3_29 
ROOT
HETATM    1  C7  UNL     1      -0.981  19.688  -2.599  1.00  0.00     0.023 C 
HETATM    2  C8  UNL     1      -0.547  21.093  -2.949  1.00  0.00     0.008 C 
HETATM    3  C9  UNL     1      -0.680  21.682  -1.533  1.00  0.00     0.006 C 
HETATM    4  C10 UNL     1       0.058  20.634  -0.725  1.00  0.00    -0.001 C 
HETATM    5  C11 UNL     1       1.493  21.073  -0.611  1.00  0.00    -0.003 C 
HETATM    6  C12 UNL     1       1.528  22.445   0.003  1.00  0.00     0.006 C 
HETATM    7  C13 UNL     1       2.920  22.548   0.655  1.00  0.00     0.011 C 
HETATM    8  C14 UNL     1       2.815  21.620   1.847  1.00  0.00     0.038 C 
HETATM    9  C15 UNL     1       3.916  21.958   2.764  1.00  0.00     0.015 C 
HETATM   10  C16 UNL     1       5.059  21.309   2.655  1.00  0.00     0.071 C 
HETATM   11  C19 UNL     1       5.116  20.261   1.573  1.00  0.00     0.186 C 
HETATM   12  N1  UNL     1       3.913  19.517   1.710  1.00  0.00    -0.349 N 
HETATM   13  C20 UNL     1       3.973  18.257   2.284  1.00  0.00     0.479 C 
HETATM   14  N2  UNL     1       4.840  17.336   1.530  1.00  0.00    -0.033 N 
ATOM     15  H21 UNL     1       4.884  16.409   1.952  1.00  0.00     0.278 HD
ATOM     16  H22 UNL     1       5.774  17.728   1.405  1.00  0.00     0.278 HD
ATOM     17  H23 UNL     1       4.555  17.281   0.552  1.00  0.00     0.278 HD
HETATM   18  N3  UNL     1       4.609  18.349   3.609  1.00  0.00    -0.033 N 
ATOM     19  H31 UNL     1       4.653  17.422   4.032  1.00  0.00     0.278 HD
ATOM     20  H32 UNL     1       4.144  19.026   4.214  1.00  0.00     0.278 HD
ATOM     21  H33 UNL     1       5.525  18.797   3.566  1.00  0.00     0.278 HD
HETATM   22  C21 UNL     1       2.705  20.174   1.449  1.00  0.00     0.039 C 
HETATM   23  C22 UNL     1       1.633  19.590   2.330  1.00  0.00     0.039 C 
HETATM   24  C23 UNL     1       2.424  20.082  -0.029  1.00  0.00     0.018 C 
HETATM   25  C24 UNL     1       2.092  18.723  -0.529  1.00  0.00     0.008 C 
HETATM   26  C25 UNL     1       1.260  18.823  -1.821  1.00  0.00     0.010 C 
HETATM   27  C26 UNL     1      -0.085  19.326  -1.490  1.00  0.00    -0.034 C 
HETATM   28  C27 UNL     1      -0.789  18.313  -0.619  1.00  0.00     0.016 C 
ENDROOT
BRANCH  10  29
HETATM   29  O2  UNL     1       6.142  21.572   3.480  1.00  0.00    -0.282 OA
BRANCH  29  30
HETATM   30  C17 UNL     1       7.175  20.680   3.648  1.00  0.00     0.259 C 
HETATM   31  C18 UNL     1       8.507  20.821   2.984  1.00  0.00     0.126 C 
HETATM   32  O3  UNL     1       7.012  19.698   4.391  1.00  0.00    -0.265 OA
ENDBRANCH  29  30
ENDBRANCH  10  29
BRANCH   1  33
HETATM   33  C5  UNL     1      -1.265  18.779  -3.686  1.00  0.00     0.122 C 
HETATM   34  C6  UNL     1      -1.215  19.328  -5.084  1.00  0.00     0.040 C 
BRANCH  33  35
HETATM   35  O1  UNL     1      -2.575  18.282  -3.443  1.00  0.00    -0.386 OA
BRANCH  35  36
HETATM   36  C4  UNL     1      -3.521  19.253  -3.635  1.00  0.00     0.168 C 
BRANCH  36  37
HETATM   37  C3  UNL     1      -4.446  19.348  -2.466  1.00  0.00     0.026 C 
BRANCH  37  38
HETATM   38  C2  UNL     1      -4.302  20.544  -1.597  1.00  0.00    -0.002 C 
HETATM   39  C1  UNL     1      -3.902  20.253  -0.180  1.00  0.00     0.005 C 
ENDBRANCH  37  38
ENDBRANCH  36  37
ENDBRANCH  35  36
ENDBRANCH  33  35
ENDBRANCH   1  33
TORSDOF 7
ENDMDL
MODEL 4
REMARK VINA RESULT: -6.463319806      4.850      7.793
REMARK  7 active torsions:
REMARK  status: ('A' for Active; 'I' for Inactive)
REMARK    1  A    between atoms: C2_2  and  C3_3 
REMARK    2  A    between atoms: C3_3  and  C4_4 
REMARK    3  A    between atoms: C4_4  and  O1_5 
REMARK    4  A    between atoms: O1_5  and  C5_6 
REMARK    5  A    between atoms: C5_6  and  C7_8 
REMARK    6  A    between atoms: C16_17  and  O2_18 
REMARK    7  A    between atoms: O2_18  and  C17_19 
REMARK       I    between atoms: N1_23  and  C20_24 
REMARK       I    between atoms: C20_24  and  N2_25 
REMARK       I    between atoms: C20_24  and  N3_29 
ROOT
HETATM    1  C7  UNL     1       2.530  22.098   2.177  1.00  0.00     0.023 C 
HETATM    2  C8  UNL     1       1.947  22.183   3.568  1.00  0.00     0.008 C 
HETATM    3  C9  UNL     1       1.548  20.700   3.689  1.00  0.00     0.006 C 
HETATM    4  C10 UNL     1       2.830  20.030   3.235  1.00  0.00    -0.001 C 
HETATM    5  C11 UNL     1       3.658  19.752   4.461  1.00  0.00    -0.003 C 
HETATM    6  C12 UNL     1       2.844  18.920   5.412  1.00  0.00     0.006 C 
HETATM    7  C13 UNL     1       3.883  18.170   6.267  1.00  0.00     0.011 C 
HETATM    8  C14 UNL     1       4.462  17.157   5.302  1.00  0.00     0.038 C 
HETATM    9  C15 UNL     1       5.143  16.128   6.103  1.00  0.00     0.015 C 
HETATM   10  C16 UNL     1       6.430  16.268   6.362  1.00  0.00     0.071 C 
HETATM   11  C19 UNL     1       7.081  17.502   5.793  1.00  0.00     0.186 C 
HETATM   12  N1  UNL     1       6.640  17.568   4.443  1.00  0.00    -0.349 N 
HETATM   13  C20 UNL     1       7.523  17.207   3.438  1.00  0.00     0.479 C 
HETATM   14  N2  UNL     1       8.734  18.046   3.425  1.00  0.00    -0.033 N 
ATOM     15  H21 UNL     1       9.383  17.780   2.685  1.00  0.00     0.278 HD
ATOM     16  H22 UNL     1       9.193  18.043   4.336  1.00  0.00     0.278 HD
ATOM     17  H23 UNL     1       8.495  19.035   3.366  1.00  0.00     0.278 HD
HETATM   18  N3  UNL     1       8.028  15.847   3.690  1.00  0.00    -0.033 N 
ATOM     19  H31 UNL     1       8.677  15.581   2.950  1.00  0.00     0.278 HD
ATOM     20  H32 UNL     1       7.272  15.171   3.800  1.00  0.00     0.278 HD
ATOM     21  H33 UNL     1       8.442  15.756   4.618  1.00  0.00     0.278 HD
HETATM   22  C21 UNL     1       5.278  17.794   4.212  1.00  0.00     0.039 C 
HETATM   23  C22 UNL     1       4.878  17.094   2.941  1.00  0.00     0.039 C 
HETATM   24  C23 UNL     1       5.037  19.283   4.212  1.00  0.00     0.018 C 
HETATM   25  C24 UNL     1       5.622  20.021   3.062  1.00  0.00     0.008 C 
HETATM   26  C25 UNL     1       4.846  21.330   2.825  1.00  0.00     0.010 C 
HETATM   27  C26 UNL     1       3.511  21.009   2.289  1.00  0.00    -0.034 C 
HETATM   28  C27 UNL     1       3.667  20.363   0.933  1.00  0.00     0.016 C 
ENDROOT
BRANCH  10  29
HETATM   29  O2  UNL     1       7.140  15.342   7.112  1.00  0.00    -0.282 OA
BRANCH  29  30
HETATM   30  C17 UNL     1       6.709  14.903   8.341  1.00  0.00     0.259 C 
HETATM   31  C18 UNL     1       6.431  13.469   8.657  1.00  0.00     0.126 C 
HETATM   32  O3  UNL     1       6.538  15.728   9.253  1.00  0.00    -0.265 OA
ENDBRANCH  29  30
ENDBRANCH  10  29
BRANCH   1  33
HETATM   33  C5  UNL     1       2.831  23.337   1.495  1.00  0.00     0.122 C 
HETATM   34  C6  UNL     1       2.186  24.591   2.013  1.00  0.00     0.040 C 
BRANCH  33  35
HETATM   35  O1  UNL     1       2.425  23.144   0.146  1.00  0.00    -0.386 OA
BRANCH  35  36
HETATM   36  C4  UNL     1       1.102  22.797   0.068  1.00  0.00     0.168 C 
BRANCH  36  37
HETATM   37  C3  UNL     1       0.859  21.837  -1.051  1.00  0.00     0.026 C 
BRANCH  37  38
HETATM   38  C2  UNL     1       0.161  20.573  -0.704  1.00  0.00    -0.002 C 
HETATM   39  C1  UNL     1      -0.548  20.583   0.619  1.00  0.00     0.005 C 
ENDBRANCH  37  38
ENDBRANCH  36  37
ENDBRANCH  35  36
ENDBRANCH  33  35
ENDBRANCH   1  33
TORSDOF 7
ENDMDL
MODEL 5
REMARK VINA RESULT: -6.446520046      6.249      9.261
REMARK  7 active torsions:
REMARK  status: ('A' for Active; 'I' for Inactive)
REMARK    1  A    between atoms: C2_2  and  C3_3 
REMARK    2  A    between atoms: C3_3  and  C4_4 
REMARK    3  A    between atoms: C4_4  and  O1_5 
REMARK    4  A    between atoms: O1_5  and  C5_6 
REMARK    5  A    between atoms: C5_6  and  C7_8 
REMARK    6  A    between atoms: C16_17  and  O2_18 
REMARK    7  A    between atoms: O2_18  and  C17_19 
REMARK       I    between atoms: N1_23  and  C20_24 
REMARK       I    between atoms: C20_24  and  N2_25 
REMARK       I    between atoms: C20_24  and  N3_29 
ROOT
HETATM    1  C7  UNL     1       1.384  21.666   1.791  1.00  0.00     0.023 C 
HETATM    2  C8  UNL     1       1.143  22.947   1.027  1.00  0.00     0.008 C 
HETATM    3  C9  UNL     1       1.835  22.513  -0.278  1.00  0.00     0.006 C 
HETATM    4  C10 UNL     1       1.205  21.150  -0.486  1.00  0.00    -0.001 C 
HETATM    5  C11 UNL     1      -0.003  21.335  -1.364  1.00  0.00    -0.003 C 
HETATM    6  C12 UNL     1       0.428  22.003  -2.640  1.00  0.00     0.006 C 
HETATM    7  C13 UNL     1      -0.634  21.591  -3.678  1.00  0.00     0.011 C 
HETATM    8  C14 UNL     1      -0.335  20.125  -3.917  1.00  0.00     0.038 C 
HETATM    9  C15 UNL     1      -0.996  19.743  -5.175  1.00  0.00     0.015 C 
HETATM   10  C16 UNL     1      -2.217  19.246  -5.128  1.00  0.00     0.071 C 
HETATM   11  C19 UNL     1      -2.820  19.119  -3.753  1.00  0.00     0.186 C 
HETATM   12  N1  UNL     1      -1.806  18.526  -2.953  1.00  0.00    -0.349 N 
HETATM   13  C20 UNL     1      -1.923  17.187  -2.618  1.00  0.00     0.479 C 
HETATM   14  N2  UNL     1      -3.148  16.905  -1.850  1.00  0.00    -0.033 N 
ATOM     15  H21 UNL     1      -3.234  15.919  -1.603  1.00  0.00     0.278 HD
ATOM     16  H22 UNL     1      -3.977  17.233  -2.345  1.00  0.00     0.278 HD
ATOM     17  H23 UNL     1      -3.208  17.498  -1.022  1.00  0.00     0.278 HD
HETATM   18  N3  UNL     1      -2.071  16.383  -3.842  1.00  0.00    -0.033 N 
ATOM     19  H31 UNL     1      -2.157  15.397  -3.595  1.00  0.00     0.278 HD
ATOM     20  H32 UNL     1      -1.313  16.549  -4.505  1.00  0.00     0.278 HD
ATOM     21  H33 UNL     1      -2.846  16.703  -4.423  1.00  0.00     0.278 HD
HETATM   22  C21 UNL     1      -0.642  19.268  -2.720  1.00  0.00     0.039 C 
HETATM   23  C22 UNL     1       0.520  18.320  -2.590  1.00  0.00     0.039 C 
HETATM   24  C23 UNL     1      -0.872  20.149  -1.519  1.00  0.00     0.018 C 
HETATM   25  C24 UNL     1      -0.990  19.436  -0.221  1.00  0.00     0.008 C 
HETATM   26  C25 UNL     1      -0.612  20.378   0.937  1.00  0.00     0.010 C 
HETATM   27  C26 UNL     1       0.839  20.634   0.898  1.00  0.00    -0.034 C 
HETATM   28  C27 UNL     1       1.573  19.340   1.157  1.00  0.00     0.016 C 
ENDROOT
BRANCH  10  29
HETATM   29  O2  UNL     1      -2.906  18.865  -6.270  1.00  0.00    -0.282 OA
BRANCH  29  30
HETATM   30  C17 UNL     1      -4.106  18.196  -6.219  1.00  0.00     0.259 C 
HETATM   31  C18 UNL     1      -5.430  18.854  -6.441  1.00  0.00     0.126 C 
HETATM   32  O3  UNL     1      -4.111  16.978  -5.979  1.00  0.00    -0.265 OA
ENDBRANCH  29  30
ENDBRANCH  10  29
BRANCH   1  33
HETATM   33  C5  UNL     1       1.122  21.669   3.213  1.00  0.00     0.122 C 
HETATM   34  C6  UNL     1       0.366  22.837   3.779  1.00  0.00     0.040 C 
BRANCH  33  35
HETATM   35  O1  UNL     1       2.397  21.609   3.841  1.00  0.00    -0.386 OA
BRANCH  35  36
HETATM   36  C4  UNL     1       2.825  20.315   3.979  1.00  0.00     0.168 C 
BRANCH  36  37
HETATM   37  C3  UNL     1       4.241  20.162   3.529  1.00  0.00     0.026 C 
BRANCH  37  38
HETATM   38  C2  UNL     1       4.848  21.326   2.834  1.00  0.00    -0.002 C 
HETATM   39  C1  UNL     1       5.089  21.132   1.365  1.00  0.00     0.005 C 
ENDBRANCH  37  38
ENDBRANCH  36  37
ENDBRANCH  35  36
ENDBRANCH  33  35
ENDBRANCH   1  33
TORSDOF 7
ENDMDL
