MODEL 1
REMARK VINA RESULT: -5.668755657      0.000      0.000
REMARK  8 active torsions:
REMARK  status: ('A' for Active; 'I' for Inactive)
REMARK    1  A    between atoms: C2_2  and  C3_3 
REMARK    2  A    between atoms: C3_3  and  C6_6 
REMARK    3  A    between atoms: C6_6  and  O2_8 
REMARK    4  A    between atoms: O2_8  and  C7_9 
REMARK    5  A    between atoms: C16_19  and  C17_20 
REMARK    6  A    between atoms: C24_27  and  C26_29 
REMARK    7  A    between atoms: C26_29  and  O4_30 
REMARK    8  A    between atoms: C28_33  and  O5_34 
ROOT
HETATM    1  C7  UNL     1       3.088  22.094   1.112  1.00  0.00     0.189 C 
HETATM    2  C8  UNL     1       2.030  22.171   0.088  1.00  0.00     0.051 C 
HETATM    3  C9  UNL     1       1.121  21.043  -0.160  1.00  0.00    -0.015 C 
HETATM    4  C10 UNL     1       0.668  21.128  -1.641  1.00  0.00     0.018 C 
HETATM    5  C11 UNL     1       1.668  19.666  -0.035  1.00  0.00     0.018 C 
HETATM    6  C12 UNL     1      -0.161  21.217   0.612  1.00  0.00     0.153 C 
HETATM    7  C13 UNL     1      -0.787  19.990   1.077  1.00  0.00     0.004 C 
HETATM    8  C14 UNL     1      -0.720  19.975   2.386  1.00  0.00     0.008 C 
HETATM    9  C15 UNL     1      -0.033  21.215   2.835  1.00  0.00     0.178 C 
HETATM   10  O3  UNL     1       0.116  21.930   1.720  1.00  0.00    -0.367 OA
HETATM   11  C16 UNL     1       1.184  20.880   3.632  1.00  0.00    -0.019 C 
HETATM   12  C27 UNL     1       2.406  21.636   3.525  1.00  0.00     0.045 C 
HETATM   13  C28 UNL     1       2.742  22.608   2.493  1.00  0.00     0.073 C 
ENDROOT
BRANCH  11  14
HETATM   14  C17 UNL     1       0.719  20.566   5.058  1.00  0.00    -0.052 C 
HETATM   15  C18 UNL     1       0.192  21.620   5.914  1.00  0.00    -0.023 C 
HETATM   16  C19 UNL     1      -1.351  21.639   6.038  1.00  0.00     0.019 C 
HETATM   17  C20 UNL     1       0.587  23.041   5.715  1.00  0.00     0.019 C 
HETATM   18  C21 UNL     1       0.643  21.411   7.377  1.00  0.00     0.013 C 
HETATM   19  C22 UNL     1       0.424  20.049   7.886  1.00  0.00     0.002 C 
HETATM   20  C23 UNL     1       0.441  18.978   6.845  1.00  0.00     0.016 C 
HETATM   21  C24 UNL     1       1.369  19.375   5.671  1.00  0.00     0.002 C 
HETATM   22  C25 UNL     1       1.223  18.157   4.729  1.00  0.00     0.022 C 
BRANCH  21  23
HETATM   23  C26 UNL     1       2.737  19.362   6.142  1.00  0.00     0.177 C 
BRANCH  23  24
HETATM   24  O4  UNL     1       2.991  18.169   6.893  1.00  0.00    -0.400 OA
ATOM     25  H4  UNL     1       3.910  18.117   7.128  1.00  0.00     0.209 HD
ENDBRANCH  23  24
ENDBRANCH  21  23
ENDBRANCH  11  14
BRANCH  13  26
HETATM   26  O5  UNL     1       2.062  23.822   2.481  1.00  0.00    -0.362 OA
ATOM     27  H5  UNL     1       1.151  23.751   2.744  1.00  0.00     0.217 HD
ENDBRANCH  13  26
BRANCH   1  28
HETATM   28  O2  UNL     1       3.790  20.888   1.246  1.00  0.00    -0.309 OA
BRANCH  28  29
HETATM   29  C6  UNL     1       5.162  20.794   1.460  1.00  0.00     0.267 C 
HETATM   30  O1  UNL     1       5.874  21.442   0.651  1.00  0.00    -0.264 OA
BRANCH  29  31
HETATM   31  C3  UNL     1       5.822  20.018   2.528  1.00  0.00     0.040 C 
HETATM   32  C4  UNL     1       7.010  19.238   2.030  1.00  0.00     0.025 C 
HETATM   33  C5  UNL     1       4.829  18.982   3.054  1.00  0.00     0.025 C 
BRANCH  31  34
HETATM   34  C2  UNL     1       6.143  20.918   3.670  1.00  0.00     0.014 C 
HETATM   35  C1  UNL     1       6.980  20.253   4.737  1.00  0.00     0.006 C 
ENDBRANCH  31  34
ENDBRANCH  29  31
ENDBRANCH  28  29
ENDBRANCH   1  28
TORSDOF 8
ENDMDL
MODEL 2
REMARK VINA RESULT: -5.552491739      2.175      5.519
REMARK  8 active torsions:
REMARK  status: ('A' for Active; 'I' for Inactive)
REMARK    1  A    between atoms: C2_2  and  C3_3 
REMARK    2  A    between atoms: C3_3  and  C6_6 
REMARK    3  A    between atoms: C6_6  and  O2_8 
REMARK    4  A    between atoms: O2_8  and  C7_9 
REMARK    5  A    between atoms: C16_19  and  C17_20 
REMARK    6  A    between atoms: C24_27  and  C26_29 
REMARK    7  A    between atoms: C26_29  and  O4_30 
REMARK    8  A    between atoms: C28_33  and  O5_34 
ROOT
HETATM    1  C7  UNL     1       4.787  20.936   1.368  1.00  0.00     0.189 C 
HETATM    2  C8  UNL     1       6.216  20.619   1.537  1.00  0.00     0.051 C 
HETATM    3  C9  UNL     1       6.810  20.443   2.871  1.00  0.00    -0.015 C 
HETATM    4  C10 UNL     1       8.307  20.831   2.768  1.00  0.00     0.018 C 
HETATM    5  C11 UNL     1       6.298  21.293   3.979  1.00  0.00     0.018 C 
HETATM    6  C12 UNL     1       6.847  18.984   3.246  1.00  0.00     0.153 C 
HETATM    7  C13 UNL     1       6.679  18.693   4.660  1.00  0.00     0.004 C 
HETATM    8  C14 UNL     1       5.536  18.070   4.809  1.00  0.00     0.008 C 
HETATM    9  C15 UNL     1       4.900  17.928   3.472  1.00  0.00     0.178 C 
HETATM   10  O3  UNL     1       5.825  18.370   2.621  1.00  0.00    -0.367 OA
HETATM   11  C16 UNL     1       3.556  18.579   3.461  1.00  0.00    -0.019 C 
HETATM   12  C27 UNL     1       3.067  19.314   2.322  1.00  0.00     0.045 C 
HETATM   13  C28 UNL     1       3.846  19.766   1.176  1.00  0.00     0.073 C 
ENDROOT
BRANCH  11  14
HETATM   14  C17 UNL     1       2.568  17.588   4.087  1.00  0.00    -0.052 C 
HETATM   15  C18 UNL     1       2.259  16.330   3.420  1.00  0.00    -0.023 C 
HETATM   16  C19 UNL     1       2.976  15.093   4.013  1.00  0.00     0.019 C 
HETATM   17  C20 UNL     1       2.391  16.190   1.945  1.00  0.00     0.019 C 
HETATM   18  C21 UNL     1       0.767  15.970   3.600  1.00  0.00     0.013 C 
HETATM   19  C22 UNL     1       0.290  16.055   4.988  1.00  0.00     0.002 C 
HETATM   20  C23 UNL     1       1.023  17.034   5.846  1.00  0.00     0.016 C 
HETATM   21  C24 UNL     1       1.563  18.207   4.993  1.00  0.00     0.002 C 
HETATM   22  C25 UNL     1       2.281  19.066   6.060  1.00  0.00     0.022 C 
BRANCH  21  23
HETATM   23  C26 UNL     1       0.441  18.993   4.529  1.00  0.00     0.177 C 
BRANCH  23  24
HETATM   24  O4  UNL     1      -0.065  19.811   5.591  1.00  0.00    -0.400 OA
ATOM     25  H4  UNL     1       0.621  19.989   6.224  1.00  0.00     0.209 HD
ENDBRANCH  23  24
ENDBRANCH  21  23
ENDBRANCH  11  14
BRANCH  13  26
HETATM   26  O5  UNL     1       4.317  18.812   0.280  1.00  0.00    -0.362 OA
ATOM     27  H5  UNL     1       3.735  18.658  -0.454  1.00  0.00     0.217 HD
ENDBRANCH  13  26
BRANCH   1  28
HETATM   28  O2  UNL     1       4.201  21.840   2.265  1.00  0.00    -0.309 OA
BRANCH  28  29
HETATM   29  C6  UNL     1       3.363  22.887   1.893  1.00  0.00     0.267 C 
HETATM   30  O1  UNL     1       3.871  23.724   1.104  1.00  0.00    -0.264 OA
BRANCH  29  31
HETATM   31  C3  UNL     1       1.969  23.082   2.338  1.00  0.00     0.040 C 
HETATM   32  C4  UNL     1       1.693  22.454   3.678  1.00  0.00     0.025 C 
HETATM   33  C5  UNL     1       1.045  22.377   1.344  1.00  0.00     0.025 C 
BRANCH  31  34
HETATM   34  C2  UNL     1       1.627  24.530   2.282  1.00  0.00     0.014 C 
HETATM   35  C1  UNL     1       0.885  25.015   3.505  1.00  0.00     0.006 C 
ENDBRANCH  31  34
ENDBRANCH  29  31
ENDBRANCH  28  29
ENDBRANCH   1  28
TORSDOF 8
ENDMDL
MODEL 3
REMARK VINA RESULT: -5.527568577      5.185      8.568
REMARK  8 active torsions:
REMARK  status: ('A' for Active; 'I' for Inactive)
REMARK    1  A    between atoms: C2_2  and  C3_3 
REMARK    2  A    between atoms: C3_3  and  C6_6 
REMARK    3  A    between atoms: C6_6  and  O2_8 
REMARK    4  A    between atoms: O2_8  and  C7_9 
REMARK    5  A    between atoms: C16_19  and  C17_20 
REMARK    6  A    between atoms: C24_27  and  C26_29 
REMARK    7  A    between atoms: C26_29  and  O4_30 
REMARK    8  A    between atoms: C28_33  and  O5_34 
ROOT
HETATM    1  C7  UNL     1       8.384  16.907  -1.670  1.00  0.00     0.189 C 
HETATM    2  C8  UNL     1       9.231  15.704  -1.588  1.00  0.00     0.051 C 
HETATM    3  C9  UNL     1      10.387  15.642  -0.682  1.00  0.00    -0.015 C 
HETATM    4  C10 UNL     1      11.413  14.660  -1.303  1.00  0.00     0.018 C 
HETATM    5  C11 UNL     1      11.172  16.886  -0.466  1.00  0.00     0.018 C 
HETATM    6  C12 UNL     1      10.005  14.979   0.617  1.00  0.00     0.153 C 
HETATM    7  C13 UNL     1      10.693  15.468   1.800  1.00  0.00     0.004 C 
HETATM    8  C14 UNL     1       9.811  16.071   2.558  1.00  0.00     0.008 C 
HETATM    9  C15 UNL     1       8.486  15.998   1.886  1.00  0.00     0.178 C 
HETATM   10  O3  UNL     1       8.696  15.212   0.831  1.00  0.00    -0.367 OA
HETATM   11  C16 UNL     1       7.942  17.369   1.653  1.00  0.00    -0.019 C 
HETATM   12  C27 UNL     1       7.226  17.718   0.452  1.00  0.00     0.045 C 
HETATM   13  C28 UNL     1       7.159  16.942  -0.780  1.00  0.00     0.073 C 
ENDROOT
BRANCH  11  14
HETATM   14  C17 UNL     1       7.301  17.831   2.966  1.00  0.00    -0.052 C 
HETATM   15  C18 UNL     1       6.211  17.073   3.566  1.00  0.00    -0.023 C 
HETATM   16  C19 UNL     1       6.628  16.180   4.760  1.00  0.00     0.019 C 
HETATM   17  C20 UNL     1       5.318  16.223   2.734  1.00  0.00     0.019 C 
HETATM   18  C21 UNL     1       5.174  18.022   4.205  1.00  0.00     0.013 C 
HETATM   19  C22 UNL     1       5.756  19.049   5.083  1.00  0.00     0.002 C 
HETATM   20  C23 UNL     1       7.155  19.446   4.745  1.00  0.00     0.016 C 
HETATM   21  C24 UNL     1       7.411  19.293   3.225  1.00  0.00     0.002 C 
HETATM   22  C25 UNL     1       8.890  19.734   3.111  1.00  0.00     0.022 C 
BRANCH  21  23
HETATM   23  C26 UNL     1       6.635  20.292   2.525  1.00  0.00     0.177 C 
BRANCH  23  24
HETATM   24  O4  UNL     1       7.003  21.605   2.967  1.00  0.00    -0.400 OA
ATOM     25  H4  UNL     1       6.514  22.263   2.486  1.00  0.00     0.209 HD
ENDBRANCH  23  24
ENDBRANCH  21  23
ENDBRANCH  11  14
BRANCH  13  26
HETATM   26  O5  UNL     1       6.442  15.750  -0.772  1.00  0.00    -0.362 OA
ATOM     27  H5  UNL     1       5.525  15.859  -0.549  1.00  0.00     0.217 HD
ENDBRANCH  13  26
BRANCH   1  28
HETATM   28  O2  UNL     1       9.009  18.160  -1.621  1.00  0.00    -0.309 OA
BRANCH  28  29
HETATM   29  C6  UNL     1       9.066  19.056  -2.685  1.00  0.00     0.267 C 
HETATM   30  O1  UNL     1       8.093  19.001  -3.480  1.00  0.00    -0.264 OA
BRANCH  29  31
HETATM   31  C3  UNL     1      10.142  20.032  -2.942  1.00  0.00     0.040 C 
HETATM   32  C4  UNL     1      10.640  19.988  -4.362  1.00  0.00     0.025 C 
HETATM   33  C5  UNL     1      11.340  19.668  -2.064  1.00  0.00     0.025 C 
BRANCH  31  34
HETATM   34  C2  UNL     1       9.697  21.387  -2.513  1.00  0.00     0.014 C 
HETATM   35  C1  UNL     1      10.638  22.039  -1.527  1.00  0.00     0.006 C 
ENDBRANCH  31  34
ENDBRANCH  29  31
ENDBRANCH  28  29
ENDBRANCH   1  28
TORSDOF 8
ENDMDL
MODEL 4
REMARK VINA RESULT: -5.419349242      1.953      6.290
REMARK  8 active torsions:
REMARK  status: ('A' for Active; 'I' for Inactive)
REMARK    1  A    between atoms: C2_2  and  C3_3 
REMARK    2  A    between atoms: C3_3  and  C6_6 
REMARK    3  A    between atoms: C6_6  and  O2_8 
REMARK    4  A    between atoms: O2_8  and  C7_9 
REMARK    5  A    between atoms: C16_19  and  C17_20 
REMARK    6  A    between atoms: C24_27  and  C26_29 
REMARK    7  A    between atoms: C26_29  and  O4_30 
REMARK    8  A    between atoms: C28_33  and  O5_34 
ROOT
HETATM    1  C7  UNL     1       2.201  22.876   2.435  1.00  0.00     0.189 C 
HETATM    2  C8  UNL     1       3.579  22.353   2.420  1.00  0.00     0.051 C 
HETATM    3  C9  UNL     1       3.855  20.919   2.583  1.00  0.00    -0.015 C 
HETATM    4  C10 UNL     1       5.264  20.786   3.218  1.00  0.00     0.018 C 
HETATM    5  C11 UNL     1       2.979  20.140   3.498  1.00  0.00     0.018 C 
HETATM    6  C12 UNL     1       4.008  20.253   1.241  1.00  0.00     0.153 C 
HETATM    7  C13 UNL     1       3.551  18.875   1.164  1.00  0.00     0.004 C 
HETATM    8  C14 UNL     1       2.505  18.842   0.375  1.00  0.00     0.008 C 
HETATM    9  C15 UNL     1       2.233  20.223  -0.103  1.00  0.00     0.178 C 
HETATM   10  O3  UNL     1       3.262  20.936   0.352  1.00  0.00    -0.367 OA
HETATM   11  C16 UNL     1       0.853  20.646   0.277  1.00  0.00    -0.019 C 
HETATM   12  C27 UNL     1       0.551  21.987   0.707  1.00  0.00     0.045 C 
HETATM   13  C28 UNL     1       1.508  23.015   1.096  1.00  0.00     0.073 C 
ENDROOT
BRANCH  11  14
HETATM   14  C17 UNL     1      -0.105  20.049  -0.760  1.00  0.00    -0.052 C 
HETATM   15  C18 UNL     1      -0.163  20.589  -2.112  1.00  0.00    -0.023 C 
HETATM   16  C19 UNL     1       0.584  19.746  -3.174  1.00  0.00     0.019 C 
HETATM   17  C20 UNL     1       0.217  21.999  -2.393  1.00  0.00     0.019 C 
HETATM   18  C21 UNL     1      -1.614  20.582  -2.641  1.00  0.00     0.013 C 
HETATM   19  C22 UNL     1      -2.313  19.299  -2.468  1.00  0.00     0.002 C 
HETATM   20  C23 UNL     1      -1.839  18.475  -1.316  1.00  0.00     0.016 C 
HETATM   21  C24 UNL     1      -1.304  19.383  -0.181  1.00  0.00     0.002 C 
HETATM   22  C25 UNL     1      -0.864  18.342   0.874  1.00  0.00     0.022 C 
BRANCH  21  23
HETATM   23  C26 UNL     1      -2.419  20.100   0.398  1.00  0.00     0.177 C 
BRANCH  23  24
HETATM   24  O4  UNL     1      -2.349  20.054   1.828  1.00  0.00    -0.400 OA
ATOM     25  H4  UNL     1      -1.521  20.410   2.129  1.00  0.00     0.209 HD
ENDBRANCH  23  24
ENDBRANCH  21  23
ENDBRANCH  11  14
BRANCH  13  26
HETATM   26  O5  UNL     1       2.310  23.578   0.109  1.00  0.00    -0.362 OA
ATOM     27  H5  UNL     1       1.882  24.270  -0.382  1.00  0.00     0.217 HD
ENDBRANCH  13  26
BRANCH   1  28
HETATM   28  O2  UNL     1       1.296  22.326   3.353  1.00  0.00    -0.309 OA
BRANCH  28  29
HETATM   29  C6  UNL     1       0.545  23.068   4.261  1.00  0.00     0.267 C 
HETATM   30  O1  UNL     1       0.622  24.315   4.123  1.00  0.00    -0.264 OA
BRANCH  29  31
HETATM   31  C3  UNL     1      -0.306  22.520   5.335  1.00  0.00     0.040 C 
HETATM   32  C4  UNL     1      -1.112  21.329   4.887  1.00  0.00     0.025 C 
HETATM   33  C5  UNL     1      -1.322  23.589   5.735  1.00  0.00     0.025 C 
BRANCH  31  34
HETATM   34  C2  UNL     1       0.526  22.251   6.540  1.00  0.00     0.014 C 
HETATM   35  C1  UNL     1       0.881  20.792   6.707  1.00  0.00     0.006 C 
ENDBRANCH  31  34
ENDBRANCH  29  31
ENDBRANCH  28  29
ENDBRANCH   1  28
TORSDOF 8
ENDMDL
MODEL 5
REMARK VINA RESULT: -5.315083879      2.118      6.250
REMARK  8 active torsions:
REMARK  status: ('A' for Active; 'I' for Inactive)
REMARK    1  A    between atoms: C2_2  and  C3_3 
REMARK    2  A    between atoms: C3_3  and  C6_6 
REMARK    3  A    between atoms: C6_6  and  O2_8 
REMARK    4  A    between atoms: O2_8  and  C7_9 
REMARK    5  A    between atoms: C16_19  and  C17_20 
REMARK    6  A    between atoms: C24_27  and  C26_29 
REMARK    7  A    between atoms: C26_29  and  O4_30 
REMARK    8  A    between atoms: C28_33  and  O5_34 
ROOT
HETATM    1  C7  UNL     1       1.577  22.640   0.752  1.00  0.00     0.189 C 
HETATM    2  C8  UNL     1       1.216  23.199   2.068  1.00  0.00     0.051 C 
HETATM    3  C9  UNL     1       0.664  22.351   3.134  1.00  0.00    -0.015 C 
HETATM    4  C10 UNL     1      -0.228  23.250   4.028  1.00  0.00     0.018 C 
HETATM    5  C11 UNL     1      -0.238  21.235   2.741  1.00  0.00     0.018 C 
HETATM    6  C12 UNL     1       1.755  21.896   4.068  1.00  0.00     0.153 C 
HETATM    7  C13 UNL     1       1.578  20.576   4.649  1.00  0.00     0.004 C 
HETATM    8  C14 UNL     1       2.511  19.794   4.164  1.00  0.00     0.008 C 
HETATM    9  C15 UNL     1       3.351  20.588   3.228  1.00  0.00     0.178 C 
HETATM   10  O3  UNL     1       2.903  21.836   3.365  1.00  0.00    -0.367 OA
HETATM   11  C16 UNL     1       3.340  19.976   1.867  1.00  0.00    -0.019 C 
HETATM   12  C27 UNL     1       3.308  20.771   0.666  1.00  0.00     0.045 C 
HETATM   13  C28 UNL     1       3.013  22.195   0.570  1.00  0.00     0.073 C 
ENDROOT
BRANCH  11  14
HETATM   14  C17 UNL     1       4.358  18.829   1.879  1.00  0.00    -0.052 C 
HETATM   15  C18 UNL     1       5.780  19.103   2.037  1.00  0.00    -0.023 C 
HETATM   16  C19 UNL     1       6.333  18.834   3.458  1.00  0.00     0.019 C 
HETATM   17  C20 UNL     1       6.360  20.412   1.632  1.00  0.00     0.019 C 
HETATM   18  C21 UNL     1       6.620  18.146   1.164  1.00  0.00     0.013 C 
HETATM   19  C22 UNL     1       6.255  16.727   1.302  1.00  0.00     0.002 C 
HETATM   20  C23 UNL     1       4.833  16.478   1.685  1.00  0.00     0.016 C 
HETATM   21  C24 UNL     1       3.920  17.608   1.149  1.00  0.00     0.002 C 
HETATM   22  C25 UNL     1       2.532  17.161   1.666  1.00  0.00     0.022 C 
BRANCH  21  23
HETATM   23  C26 UNL     1       3.866  17.511  -0.292  1.00  0.00     0.177 C 
BRANCH  23  24
HETATM   24  O4  UNL     1       2.507  17.572  -0.743  1.00  0.00    -0.400 OA
ATOM     25  H4  UNL     1       2.452  17.322  -1.658  1.00  0.00     0.209 HD
ENDBRANCH  23  24
ENDBRANCH  21  23
ENDBRANCH  11  14
BRANCH  13  26
HETATM   26  O5  UNL     1       3.945  23.098   1.071  1.00  0.00    -0.362 OA
ATOM     27  H5  UNL     1       4.324  23.662   0.406  1.00  0.00     0.217 HD
ENDBRANCH  13  26
BRANCH   1  28
HETATM   28  O2  UNL     1       0.733  21.672   0.192  1.00  0.00    -0.309 OA
BRANCH  28  29
HETATM   29  C6  UNL     1       0.246  21.711  -1.112  1.00  0.00     0.267 C 
HETATM   30  O1  UNL     1       0.847  22.502  -1.883  1.00  0.00    -0.264 OA
BRANCH  29  31
HETATM   31  C3  UNL     1      -0.884  20.921  -1.640  1.00  0.00     0.040 C 
HETATM   32  C4  UNL     1      -1.859  20.514  -0.567  1.00  0.00     0.025 C 
HETATM   33  C5  UNL     1      -0.329  19.620  -2.220  1.00  0.00     0.025 C 
BRANCH  31  34
HETATM   34  C2  UNL     1      -1.518  21.654  -2.769  1.00  0.00     0.014 C 
HETATM   35  C1  UNL     1      -2.944  22.066  -2.487  1.00  0.00     0.006 C 
ENDBRANCH  31  34
ENDBRANCH  29  31
ENDBRANCH  28  29
ENDBRANCH   1  28
TORSDOF 8
ENDMDL
