MODEL 1
REMARK VINA RESULT: -7.491720759      0.000      0.000
REMARK  8 active torsions:
REMARK  status: ('A' for Active; 'I' for Inactive)
REMARK    1  A    between atoms: C2_2  and  C3_3 
REMARK    2  A    between atoms: C2_2  and  C10_11 
REMARK    3  A    between atoms: C3_3  and  C4_4 
REMARK    4  A    between atoms: C4_4  and  N1_5 
REMARK    5  A    between atoms: C10_11  and  O1_12 
REMARK    6  A    between atoms: C10_11  and  C11_14 
REMARK    7  A    between atoms: C12_15  and  C13_16 
REMARK    8  A    between atoms: C18_21  and  O2_22 
ROOT
HETATM    1  C13 UNL     1       5.577  20.559   2.345  1.00  0.00     0.047 C 
HETATM    2  C14 UNL     1       5.777  19.781   3.593  1.00  0.00    -0.029 A 
HETATM    3  C15 UNL     1       6.848  19.696   4.387  1.00  0.00     0.021 A 
HETATM    4  C16 UNL     1       6.696  19.030   5.579  1.00  0.00     0.016 A 
HETATM    5  C17 UNL     1       5.458  18.460   5.930  1.00  0.00     0.038 A 
HETATM    6  C18 UNL     1       4.381  18.565   5.067  1.00  0.00     0.072 A 
HETATM    7  C19 UNL     1       4.531  19.232   3.872  1.00  0.00    -0.017 A 
HETATM    8  C20 UNL     1       3.672  19.361   2.630  1.00  0.00     0.048 C 
HETATM    9  C21 UNL     1       4.840  19.399   1.602  1.00  0.00     0.007 C 
HETATM   10  C22 UNL     1       5.783  18.325   1.751  1.00  0.00     0.003 A 
HETATM   11  C23 UNL     1       6.375  18.188   0.441  1.00  0.00     0.018 A 
HETATM   12  C24 UNL     1       7.080  17.924   1.609  1.00  0.00    -0.006 A 
HETATM   13  C25 UNL     1       7.439  16.438   1.901  1.00  0.00     0.019 C 
HETATM   14  C26 UNL     1       8.333  18.767   1.765  1.00  0.00     0.096 A 
HETATM   15  C27 UNL     1       8.828  19.596   0.701  1.00  0.00     0.208 A 
HETATM   16  O3  UNL     1       9.328  18.320   0.839  1.00  0.00    -0.374 OA
HETATM   17  C28 UNL     1       8.848  18.967   3.161  1.00  0.00     0.125 C 
HETATM   18  C29 UNL     1       8.241  20.116   3.962  1.00  0.00     0.274 C 
HETATM   19  F1  UNL     1       8.954  20.255   5.142  1.00  0.00    -0.201 F 
HETATM   20  F2  UNL     1       8.288  21.316   3.350  1.00  0.00    -0.201 F 
ENDROOT
BRANCH   1  21
HETATM   21  C12 UNL     1       4.569  21.641   2.531  1.00  0.00    -0.018 C 
HETATM   22  C11 UNL     1       4.214  22.462   1.573  1.00  0.00     0.001 C 
BRANCH  22  23
HETATM   23  C10 UNL     1       3.236  23.537   1.697  1.00  0.00     0.144 C 
BRANCH  23  24
HETATM   24  C2  UNL     1       1.888  23.242   1.055  1.00  0.00     0.016 C 
HETATM   25  C1  UNL     1       1.045  22.415   2.007  1.00  0.00     0.013 C 
BRANCH  24  26
HETATM   26  C3  UNL     1       2.135  22.494  -0.236  1.00  0.00     0.037 C 
BRANCH  26  27
HETATM   27  C4  UNL     1       0.926  21.818  -0.799  1.00  0.00     0.273 C 
BRANCH  27  28
HETATM   28  N1  UNL     1       0.848  21.904  -2.224  1.00  0.00     0.088 N 
HETATM   29  C5  UNL     1      -0.255  21.216  -2.835  1.00  0.00     0.272 C 
HETATM   30  C6  UNL     1      -0.379  21.729  -4.258  1.00  0.00     0.030 C 
HETATM   31  C7  UNL     1       0.906  21.585  -5.020  1.00  0.00     0.003 C 
HETATM   32  C8  UNL     1       2.091  22.063  -4.249  1.00  0.00     0.030 C 
HETATM   33  C9  UNL     1       2.072  21.455  -2.845  1.00  0.00     0.272 C 
ENDBRANCH  27  28
ENDBRANCH  26  27
ENDBRANCH  24  26
ENDBRANCH  23  24
BRANCH  23  34
HETATM   34  O1  UNL     1       3.719  24.695   1.071  1.00  0.00    -0.391 OA
ATOM     35  H1  UNL     1       4.560  24.878   1.470  1.00  0.00     0.210 HD
ENDBRANCH  23  34
ENDBRANCH  22  23
ENDBRANCH   1  21
BRANCH   6  36
HETATM   36  O2  UNL     1       3.160  18.005   5.398  1.00  0.00    -0.360 OA
ATOM     37  H2  UNL     1       2.360  18.328   5.002  1.00  0.00     0.217 HD
ENDBRANCH   6  36
TORSDOF 8
ENDMDL
MODEL 2
REMARK VINA RESULT: -7.491576138      5.208      8.445
REMARK  8 active torsions:
REMARK  status: ('A' for Active; 'I' for Inactive)
REMARK    1  A    between atoms: C2_2  and  C3_3 
REMARK    2  A    between atoms: C2_2  and  C10_11 
REMARK    3  A    between atoms: C3_3  and  C4_4 
REMARK    4  A    between atoms: C4_4  and  N1_5 
REMARK    5  A    between atoms: C10_11  and  O1_12 
REMARK    6  A    between atoms: C10_11  and  C11_14 
REMARK    7  A    between atoms: C12_15  and  C13_16 
REMARK    8  A    between atoms: C18_21  and  O2_22 
ROOT
HETATM    1  C13 UNL     1       0.254  20.541  -0.648  1.00  0.00     0.047 C 
HETATM    2  C14 UNL     1       0.768  20.727  -2.028  1.00  0.00    -0.029 A 
HETATM    3  C15 UNL     1       0.250  21.416  -3.049  1.00  0.00     0.021 A 
HETATM    4  C16 UNL     1       1.031  21.560  -4.171  1.00  0.00     0.016 A 
HETATM    5  C17 UNL     1       2.318  20.992  -4.227  1.00  0.00     0.038 A 
HETATM    6  C18 UNL     1       2.804  20.278  -3.146  1.00  0.00     0.072 A 
HETATM    7  C19 UNL     1       2.024  20.131  -2.021  1.00  0.00    -0.017 A 
HETATM    8  C20 UNL     1       2.131  19.273  -0.777  1.00  0.00     0.048 C 
HETATM    9  C21 UNL     1       0.605  19.020  -0.598  1.00  0.00     0.007 C 
HETATM   10  C22 UNL     1      -0.050  18.539  -1.784  1.00  0.00     0.003 A 
HETATM   11  C23 UNL     1      -1.207  17.832  -1.289  1.00  0.00     0.018 A 
HETATM   12  C24 UNL     1      -1.207  18.502  -2.506  1.00  0.00    -0.006 A 
HETATM   13  C25 UNL     1      -1.255  17.632  -3.796  1.00  0.00     0.019 C 
HETATM   14  C26 UNL     1      -2.273  19.579  -2.605  1.00  0.00     0.096 A 
HETATM   15  C27 UNL     1      -3.297  19.727  -1.609  1.00  0.00     0.208 A 
HETATM   16  O3  UNL     1      -3.561  18.966  -2.727  1.00  0.00    -0.374 OA
HETATM   17  C28 UNL     1      -2.031  20.686  -3.590  1.00  0.00     0.125 C 
HETATM   18  C29 UNL     1      -1.195  21.868  -3.108  1.00  0.00     0.274 C 
HETATM   19  F1  UNL     1      -1.227  22.856  -4.079  1.00  0.00    -0.201 F 
HETATM   20  F2  UNL     1      -1.635  22.442  -1.970  1.00  0.00    -0.201 F 
ENDROOT
BRANCH   1  21
HETATM   21  C12 UNL     1       1.132  21.205   0.357  1.00  0.00    -0.018 C 
HETATM   22  C11 UNL     1       1.206  22.507   0.495  1.00  0.00     0.001 C 
BRANCH  22  23
HETATM   23  C10 UNL     1       2.047  23.209   1.458  1.00  0.00     0.144 C 
BRANCH  23  24
HETATM   24  C2  UNL     1       1.302  23.748   2.672  1.00  0.00     0.016 C 
HETATM   25  C1  UNL     1       1.690  25.195   2.901  1.00  0.00     0.013 C 
BRANCH  24  26
HETATM   26  C3  UNL     1       1.669  22.895   3.865  1.00  0.00     0.037 C 
BRANCH  26  27
HETATM   27  C4  UNL     1       0.537  22.091   4.420  1.00  0.00     0.273 C 
BRANCH  27  28
HETATM   28  N1  UNL     1       0.350  20.845   3.745  1.00  0.00     0.088 N 
HETATM   29  C5  UNL     1      -0.970  20.281   3.822  1.00  0.00     0.272 C 
HETATM   30  C6  UNL     1      -1.065  19.200   2.760  1.00  0.00     0.030 C 
HETATM   31  C7  UNL     1       0.026  18.179   2.901  1.00  0.00     0.003 C 
HETATM   32  C8  UNL     1       1.372  18.795   3.094  1.00  0.00     0.030 C 
HETATM   33  C9  UNL     1       1.300  19.856   4.194  1.00  0.00     0.272 C 
ENDBRANCH  27  28
ENDBRANCH  26  27
ENDBRANCH  24  26
ENDBRANCH  23  24
BRANCH  23  34
HETATM   34  O1  UNL     1       2.646  24.320   0.846  1.00  0.00    -0.391 OA
ATOM     35  H1  UNL     1       3.560  24.094   0.729  1.00  0.00     0.210 HD
ENDBRANCH  23  34
ENDBRANCH  22  23
ENDBRANCH   1  21
BRANCH   6  36
HETATM   36  O2  UNL     1       4.065  19.711  -3.191  1.00  0.00    -0.360 OA
ATOM     37  H2  UNL     1       4.616  19.700  -2.416  1.00  0.00     0.217 HD
ENDBRANCH   6  36
TORSDOF 8
ENDMDL
MODEL 3
REMARK VINA RESULT: -7.459809592      4.135      8.780
REMARK  8 active torsions:
REMARK  status: ('A' for Active; 'I' for Inactive)
REMARK    1  A    between atoms: C2_2  and  C3_3 
REMARK    2  A    between atoms: C2_2  and  C10_11 
REMARK    3  A    between atoms: C3_3  and  C4_4 
REMARK    4  A    between atoms: C4_4  and  N1_5 
REMARK    5  A    between atoms: C10_11  and  O1_12 
REMARK    6  A    between atoms: C10_11  and  C11_14 
REMARK    7  A    between atoms: C12_15  and  C13_16 
REMARK    8  A    between atoms: C18_21  and  O2_22 
ROOT
HETATM    1  C13 UNL     1       0.083  20.496  -0.704  1.00  0.00     0.047 C 
HETATM    2  C14 UNL     1       0.633  20.718  -2.064  1.00  0.00    -0.029 A 
HETATM    3  C15 UNL     1       0.147  21.442  -3.076  1.00  0.00     0.021 A 
HETATM    4  C16 UNL     1       0.957  21.613  -4.173  1.00  0.00     0.016 A 
HETATM    5  C17 UNL     1       2.241  21.037  -4.214  1.00  0.00     0.038 A 
HETATM    6  C18 UNL     1       2.695  20.287  -3.143  1.00  0.00     0.072 A 
HETATM    7  C19 UNL     1       1.885  20.113  -2.043  1.00  0.00    -0.017 A 
HETATM    8  C20 UNL     1       1.954  19.217  -0.823  1.00  0.00     0.048 C 
HETATM    9  C21 UNL     1       0.422  18.971  -0.690  1.00  0.00     0.007 C 
HETATM   10  C22 UNL     1      -0.206  18.531  -1.906  1.00  0.00     0.003 A 
HETATM   11  C23 UNL     1      -1.380  17.818  -1.462  1.00  0.00     0.018 A 
HETATM   12  C24 UNL     1      -1.344  18.524  -2.658  1.00  0.00    -0.006 A 
HETATM   13  C25 UNL     1      -1.366  17.693  -3.974  1.00  0.00     0.019 C 
HETATM   14  C26 UNL     1      -2.400  19.612  -2.752  1.00  0.00     0.096 A 
HETATM   15  C27 UNL     1      -3.448  19.738  -1.778  1.00  0.00     0.208 A 
HETATM   16  O3  UNL     1      -3.688  19.013  -2.924  1.00  0.00    -0.374 OA
HETATM   17  C28 UNL     1      -2.125  20.745  -3.697  1.00  0.00     0.125 C 
HETATM   18  C29 UNL     1      -1.293  21.906  -3.159  1.00  0.00     0.274 C 
HETATM   19  F1  UNL     1      -1.294  22.923  -4.100  1.00  0.00    -0.201 F 
HETATM   20  F2  UNL     1      -1.758  22.449  -2.016  1.00  0.00    -0.201 F 
ENDROOT
BRANCH   1  21
HETATM   21  C12 UNL     1       0.940  21.122   0.343  1.00  0.00    -0.018 C 
HETATM   22  C11 UNL     1       1.273  22.390   0.331  1.00  0.00     0.001 C 
BRANCH  22  23
HETATM   23  C10 UNL     1       2.107  23.055   1.325  1.00  0.00     0.144 C 
BRANCH  23  24
HETATM   24  C2  UNL     1       1.486  23.147   2.713  1.00  0.00     0.016 C 
HETATM   25  C1  UNL     1       1.367  24.603   3.118  1.00  0.00     0.013 C 
BRANCH  24  26
HETATM   26  C3  UNL     1       2.372  22.389   3.675  1.00  0.00     0.037 C 
BRANCH  26  27
HETATM   27  C4  UNL     1       2.933  21.116   3.126  1.00  0.00     0.273 C 
BRANCH  27  28
HETATM   28  N1  UNL     1       4.265  20.851   3.574  1.00  0.00     0.088 N 
HETATM   29  C5  UNL     1       5.320  21.359   2.741  1.00  0.00     0.272 C 
HETATM   30  C6  UNL     1       6.601  21.317   3.554  1.00  0.00     0.030 C 
HETATM   31  C7  UNL     1       6.879  19.943   4.091  1.00  0.00     0.003 C 
HETATM   32  C8  UNL     1       5.679  19.316   4.720  1.00  0.00     0.030 C 
HETATM   33  C9  UNL     1       4.479  19.438   3.778  1.00  0.00     0.272 C 
ENDBRANCH  27  28
ENDBRANCH  26  27
ENDBRANCH  24  26
ENDBRANCH  23  24
BRANCH  23  34
HETATM   34  O1  UNL     1       2.362  24.376   0.927  1.00  0.00    -0.391 OA
ATOM     35  H1  UNL     1       1.636  24.893   1.255  1.00  0.00     0.210 HD
ENDBRANCH  23  34
ENDBRANCH  22  23
ENDBRANCH   1  21
BRANCH   6  36
HETATM   36  O2  UNL     1       3.952  19.711  -3.173  1.00  0.00    -0.360 OA
ATOM     37  H2  UNL     1       4.190  19.041  -2.543  1.00  0.00     0.217 HD
ENDBRANCH   6  36
TORSDOF 8
ENDMDL
MODEL 4
REMARK VINA RESULT: -7.337979386      3.787      8.202
REMARK  8 active torsions:
REMARK  status: ('A' for Active; 'I' for Inactive)
REMARK    1  A    between atoms: C2_2  and  C3_3 
REMARK    2  A    between atoms: C2_2  and  C10_11 
REMARK    3  A    between atoms: C3_3  and  C4_4 
REMARK    4  A    between atoms: C4_4  and  N1_5 
REMARK    5  A    between atoms: C10_11  and  O1_12 
REMARK    6  A    between atoms: C10_11  and  C11_14 
REMARK    7  A    between atoms: C12_15  and  C13_16 
REMARK    8  A    between atoms: C18_21  and  O2_22 
ROOT
HETATM    1  C13 UNL     1       0.199  21.050  -0.699  1.00  0.00     0.047 C 
HETATM    2  C14 UNL     1       1.263  20.556  -1.608  1.00  0.00    -0.029 A 
HETATM    3  C15 UNL     1       1.600  20.966  -2.834  1.00  0.00     0.021 A 
HETATM    4  C16 UNL     1       2.747  20.441  -3.381  1.00  0.00     0.016 A 
HETATM    5  C17 UNL     1       3.519  19.505  -2.666  1.00  0.00     0.038 A 
HETATM    6  C18 UNL     1       3.120  19.104  -1.403  1.00  0.00     0.072 A 
HETATM    7  C19 UNL     1       1.972  19.629  -0.854  1.00  0.00    -0.017 A 
HETATM    8  C20 UNL     1       1.142  19.283   0.366  1.00  0.00     0.048 C 
HETATM    9  C21 UNL     1      -0.245  19.620  -0.254  1.00  0.00     0.007 C 
HETATM   10  C22 UNL     1      -0.485  18.991  -1.524  1.00  0.00     0.003 A 
HETATM   11  C23 UNL     1      -1.923  18.922  -1.621  1.00  0.00     0.018 A 
HETATM   12  C24 UNL     1      -1.108  19.078  -2.735  1.00  0.00    -0.006 A 
HETATM   13  C25 UNL     1      -1.008  17.872  -3.715  1.00  0.00     0.019 C 
HETATM   14  C26 UNL     1      -1.408  20.333  -3.536  1.00  0.00     0.096 A 
HETATM   15  C27 UNL     1      -2.559  21.149  -3.265  1.00  0.00     0.208 A 
HETATM   16  O3  UNL     1      -2.648  20.171  -4.230  1.00  0.00    -0.374 OA
HETATM   17  C28 UNL     1      -0.299  20.875  -4.389  1.00  0.00     0.125 C 
HETATM   18  C29 UNL     1       0.699  21.811  -3.713  1.00  0.00     0.274 C 
HETATM   19  F1  UNL     1       1.532  22.343  -4.683  1.00  0.00    -0.201 F 
HETATM   20  F2  UNL     1       0.143  22.860  -3.076  1.00  0.00    -0.201 F 
ENDROOT
BRANCH   1  21
HETATM   21  C12 UNL     1       0.774  21.703   0.511  1.00  0.00    -0.018 C 
HETATM   22  C11 UNL     1       1.592  22.725   0.453  1.00  0.00     0.001 C 
BRANCH  22  23
HETATM   23  C10 UNL     1       2.184  23.402   1.602  1.00  0.00     0.144 C 
BRANCH  23  24
HETATM   24  C2  UNL     1       1.448  23.177   2.916  1.00  0.00     0.016 C 
HETATM   25  C1  UNL     1       1.073  24.516   3.520  1.00  0.00     0.013 C 
BRANCH  24  26
HETATM   26  C3  UNL     1       2.362  22.404   3.840  1.00  0.00     0.037 C 
BRANCH  26  27
HETATM   27  C4  UNL     1       2.877  21.122   3.269  1.00  0.00     0.273 C 
BRANCH  27  28
HETATM   28  N1  UNL     1       4.232  20.850   3.633  1.00  0.00     0.088 N 
HETATM   29  C5  UNL     1       5.238  21.398   2.765  1.00  0.00     0.272 C 
HETATM   30  C6  UNL     1       6.562  21.334   3.504  1.00  0.00     0.030 C 
HETATM   31  C7  UNL     1       6.876  19.942   3.971  1.00  0.00     0.003 C 
HETATM   32  C8  UNL     1       5.715  19.282   4.640  1.00  0.00     0.030 C 
HETATM   33  C9  UNL     1       4.465  19.432   3.770  1.00  0.00     0.272 C 
ENDBRANCH  27  28
ENDBRANCH  26  27
ENDBRANCH  24  26
ENDBRANCH  23  24
BRANCH  23  34
HETATM   34  O1  UNL     1       2.185  24.789   1.390  1.00  0.00    -0.391 OA
ATOM     35  H1  UNL     1       2.576  24.923   0.536  1.00  0.00     0.210 HD
ENDBRANCH  23  34
ENDBRANCH  22  23
ENDBRANCH   1  21
BRANCH   6  36
HETATM   36  O2  UNL     1       3.868  18.181  -0.693  1.00  0.00    -0.360 OA
ATOM     37  H2  UNL     1       4.395  18.457   0.048  1.00  0.00     0.217 HD
ENDBRANCH   6  36
TORSDOF 8
ENDMDL
MODEL 5
REMARK VINA RESULT: -7.312024030      4.165      8.846
REMARK  8 active torsions:
REMARK  status: ('A' for Active; 'I' for Inactive)
REMARK    1  A    between atoms: C2_2  and  C3_3 
REMARK    2  A    between atoms: C2_2  and  C10_11 
REMARK    3  A    between atoms: C3_3  and  C4_4 
REMARK    4  A    between atoms: C4_4  and  N1_5 
REMARK    5  A    between atoms: C10_11  and  O1_12 
REMARK    6  A    between atoms: C10_11  and  C11_14 
REMARK    7  A    between atoms: C12_15  and  C13_16 
REMARK    8  A    between atoms: C18_21  and  O2_22 
ROOT
HETATM    1  C13 UNL     1       0.150  20.277  -0.521  1.00  0.00     0.047 C 
HETATM    2  C14 UNL     1       0.711  20.580  -1.861  1.00  0.00    -0.029 A 
HETATM    3  C15 UNL     1       0.235  21.367  -2.830  1.00  0.00     0.021 A 
HETATM    4  C16 UNL     1       1.054  21.601  -3.909  1.00  0.00     0.016 A 
HETATM    5  C17 UNL     1       2.335  21.020  -3.978  1.00  0.00     0.038 A 
HETATM    6  C18 UNL     1       2.776  20.202  -2.953  1.00  0.00     0.072 A 
HETATM    7  C19 UNL     1       1.958  19.966  -1.870  1.00  0.00    -0.017 A 
HETATM    8  C20 UNL     1       2.013  18.996  -0.708  1.00  0.00     0.048 C 
HETATM    9  C21 UNL     1       0.479  18.752  -0.600  1.00  0.00     0.007 C 
HETATM   10  C22 UNL     1      -0.143  18.392  -1.845  1.00  0.00     0.003 A 
HETATM   11  C23 UNL     1      -1.324  17.661  -1.453  1.00  0.00     0.018 A 
HETATM   12  C24 UNL     1      -1.276  18.440  -2.603  1.00  0.00    -0.006 A 
HETATM   13  C25 UNL     1      -1.294  17.692  -3.968  1.00  0.00     0.019 C 
HETATM   14  C26 UNL     1      -2.325  19.538  -2.636  1.00  0.00     0.096 A 
HETATM   15  C27 UNL     1      -3.379  19.611  -1.663  1.00  0.00     0.208 A 
HETATM   16  O3  UNL     1      -3.615  18.959  -2.853  1.00  0.00    -0.374 OA
HETATM   17  C28 UNL     1      -2.037  20.726  -3.507  1.00  0.00     0.125 C 
HETATM   18  C29 UNL     1      -1.201  21.846  -2.893  1.00  0.00     0.274 C 
HETATM   19  F1  UNL     1      -1.189  22.919  -3.769  1.00  0.00    -0.201 F 
HETATM   20  F2  UNL     1      -1.670  22.320  -1.721  1.00  0.00    -0.201 F 
ENDROOT
BRANCH   1  21
HETATM   21  C12 UNL     1       1.004  20.831   0.567  1.00  0.00    -0.018 C 
HETATM   22  C11 UNL     1       1.001  22.098   0.905  1.00  0.00     0.001 C 
BRANCH  22  23
HETATM   23  C10 UNL     1       1.814  22.696   1.958  1.00  0.00     0.144 C 
BRANCH  23  24
HETATM   24  C2  UNL     1       2.305  21.712   3.011  1.00  0.00     0.016 C 
HETATM   25  C1  UNL     1       1.786  22.129   4.373  1.00  0.00     0.013 C 
BRANCH  24  26
HETATM   26  C3  UNL     1       3.817  21.713   2.986  1.00  0.00     0.037 C 
BRANCH  26  27
HETATM   27  C4  UNL     1       4.426  20.444   2.480  1.00  0.00     0.273 C 
BRANCH  27  28
HETATM   28  N1  UNL     1       5.652  20.110   3.137  1.00  0.00     0.088 N 
HETATM   29  C5  UNL     1       5.524  19.422   4.392  1.00  0.00     0.272 C 
HETATM   30  C6  UNL     1       6.881  18.833   4.728  1.00  0.00     0.030 C 
HETATM   31  C7  UNL     1       7.960  19.877   4.732  1.00  0.00     0.003 C 
HETATM   32  C8  UNL     1       7.906  20.765   3.533  1.00  0.00     0.030 C 
HETATM   33  C9  UNL     1       6.478  21.277   3.334  1.00  0.00     0.272 C 
ENDBRANCH  27  28
ENDBRANCH  26  27
ENDBRANCH  24  26
ENDBRANCH  23  24
BRANCH  23  34
HETATM   34  O1  UNL     1       1.066  23.661   2.648  1.00  0.00    -0.391 OA
ATOM     35  H1  UNL     1       0.467  24.032   2.012  1.00  0.00     0.210 HD
ENDBRANCH  23  34
ENDBRANCH  22  23
ENDBRANCH   1  21
BRANCH   6  36
HETATM   36  O2  UNL     1       4.031  19.622  -3.010  1.00  0.00    -0.360 OA
ATOM     37  H2  UNL     1       4.811  20.150  -2.888  1.00  0.00     0.217 HD
ENDBRANCH   6  36
TORSDOF 8
ENDMDL
