MODEL 1
REMARK VINA RESULT: -7.577707220      0.000      0.000
REMARK  9 active torsions:
REMARK  status: ('A' for Active; 'I' for Inactive)
REMARK    1  A    between atoms: C2_2  and  O1_5 
REMARK    2  A    between atoms: O1_5  and  C5_6 
REMARK       I    between atoms: C5_6  and  N1_8 
REMARK    3  A    between atoms: N1_8  and  C6_10 
REMARK    4  A    between atoms: C6_10  and  C7_11 
REMARK    5  A    between atoms: C7_11  and  N2_12 
REMARK    6  A    between atoms: C11_16  and  C12_17 
REMARK    7  A    between atoms: C11_16  and  C14_23 
REMARK    8  A    between atoms: C12_17  and  C13_18 
REMARK    9  A    between atoms: C13_18  and  N3_19 
ROOT
HETATM    1  N2  UNL     1       5.910  20.046   3.254  1.00  0.00    -0.359 N 
HETATM    2  C8  UNL     1       4.884  19.102   3.224  1.00  0.00     0.064 C 
HETATM    3  C9  UNL     1       3.791  19.583   4.143  1.00  0.00     0.046 C 
HETATM    4  C10 UNL     1       2.901  20.650   3.740  1.00  0.00     0.020 C 
HETATM    5  C11 UNL     1       3.094  21.377   2.439  1.00  0.00    -0.007 C 
HETATM    6  C20 UNL     1       4.474  21.382   1.930  1.00  0.00     0.059 C 
HETATM    7  C21 UNL     1       5.532  21.366   3.023  1.00  0.00     0.065 C 
ENDROOT
BRANCH   1   8
HETATM    8  C7  UNL     1       7.264  19.685   2.920  1.00  0.00     0.067 C 
HETATM    9  C22 UNL     1       8.071  20.908   3.127  1.00  0.00     0.037 C 
HETATM   10  C23 UNL     1       9.420  20.688   3.780  1.00  0.00     0.003 C 
HETATM   11  C24 UNL     1       9.361  20.093   5.148  1.00  0.00     0.000 C 
HETATM   12  C25 UNL     1       8.060  19.312   5.280  1.00  0.00     0.003 C 
HETATM   13  C26 UNL     1       7.792  18.672   3.940  1.00  0.00     0.037 C 
BRANCH   8  14
HETATM   14  C6  UNL     1       7.218  19.116   1.571  1.00  0.00     0.097 C 
BRANCH  14  15
HETATM   15  N1  UNL     1       7.988  19.480   0.483  1.00  0.00    -0.314 N 
HETATM   16  C5  UNL     1       9.300  19.184   0.119  1.00  0.00     0.365 C 
HETATM   17  O2  UNL     1      10.112  18.467   0.809  1.00  0.00    -0.238 OA
ATOM     18  H1  UNL     1       7.502  20.081  -0.183  1.00  0.00     0.170 HD
BRANCH  16  19
HETATM   19  O1  UNL     1       9.883  19.654  -1.064  1.00  0.00    -0.294 OA
BRANCH  19  20
HETATM   20  C2  UNL     1      10.313  18.817  -2.114  1.00  0.00     0.061 C 
HETATM   21  C1  UNL     1       9.150  17.946  -2.491  1.00  0.00     0.046 C 
HETATM   22  C3  UNL     1      11.552  18.025  -1.805  1.00  0.00     0.046 C 
HETATM   23  C4  UNL     1      10.627  19.746  -3.272  1.00  0.00     0.046 C 
ENDBRANCH  19  20
ENDBRANCH  16  19
ENDBRANCH  14  15
ENDBRANCH   8  14
ENDBRANCH   1   8
BRANCH   5  24
HETATM   24  C12 UNL     1       2.228  20.639   1.433  1.00  0.00     0.042 C 
BRANCH  24  25
HETATM   25  C13 UNL     1       2.975  20.063   0.274  1.00  0.00     0.230 C 
BRANCH  25  26
HETATM   26  N3  UNL     1       2.747  20.915  -0.918  1.00  0.00    -0.079 N 
ATOM     27  H33 UNL     1       2.506  20.369  -1.745  1.00  0.00     0.274 HD
ATOM     28  H32 UNL     1       1.886  21.458  -0.849  1.00  0.00     0.274 HD
ATOM     29  H31 UNL     1       3.566  21.504  -1.066  1.00  0.00     0.274 HD
ENDBRANCH  25  26
ENDBRANCH  24  25
ENDBRANCH   5  24
BRANCH   5  30
HETATM   30  C14 UNL     1       2.502  22.752   2.500  1.00  0.00    -0.049 A 
HETATM   31  C15 UNL     1       1.639  23.216   3.421  1.00  0.00     0.011 A 
HETATM   32  C16 UNL     1       1.168  24.531   3.366  1.00  0.00     0.043 A 
HETATM   33  C17 UNL     1       1.577  25.381   2.369  1.00  0.00     0.116 A 
HETATM   34  F1  UNL     1       1.109  26.679   2.320  1.00  0.00    -0.206 F 
HETATM   35  C18 UNL     1       2.454  24.940   1.417  1.00  0.00     0.043 A 
HETATM   36  C19 UNL     1       2.904  23.637   1.494  1.00  0.00     0.011 A 
ENDBRANCH   5  30
TORSDOF 9
ENDMDL
MODEL 2
REMARK VINA RESULT: -7.179945947      0.824      1.170
REMARK  9 active torsions:
REMARK  status: ('A' for Active; 'I' for Inactive)
REMARK    1  A    between atoms: C2_2  and  O1_5 
REMARK    2  A    between atoms: O1_5  and  C5_6 
REMARK       I    between atoms: C5_6  and  N1_8 
REMARK    3  A    between atoms: N1_8  and  C6_10 
REMARK    4  A    between atoms: C6_10  and  C7_11 
REMARK    5  A    between atoms: C7_11  and  N2_12 
REMARK    6  A    between atoms: C11_16  and  C12_17 
REMARK    7  A    between atoms: C11_16  and  C14_23 
REMARK    8  A    between atoms: C12_17  and  C13_18 
REMARK    9  A    between atoms: C13_18  and  N3_19 
ROOT
HETATM    1  N2  UNL     1       5.871  20.029   3.306  1.00  0.00    -0.359 N 
HETATM    2  C8  UNL     1       4.809  19.125   3.329  1.00  0.00     0.064 C 
HETATM    3  C9  UNL     1       3.736  19.701   4.217  1.00  0.00     0.046 C 
HETATM    4  C10 UNL     1       2.887  20.776   3.751  1.00  0.00     0.020 C 
HETATM    5  C11 UNL     1       3.108  21.418   2.410  1.00  0.00    -0.007 C 
HETATM    6  C20 UNL     1       4.487  21.340   1.905  1.00  0.00     0.059 C 
HETATM    7  C21 UNL     1       5.543  21.347   2.999  1.00  0.00     0.065 C 
ENDROOT
BRANCH   1   8
HETATM    8  C7  UNL     1       7.209  19.597   2.996  1.00  0.00     0.067 C 
HETATM    9  C22 UNL     1       8.044  20.819   3.022  1.00  0.00     0.037 C 
HETATM   10  C23 UNL     1       9.403  20.658   3.671  1.00  0.00     0.003 C 
HETATM   11  C24 UNL     1       9.365  20.251   5.107  1.00  0.00     0.000 C 
HETATM   12  C25 UNL     1       8.052  19.524   5.368  1.00  0.00     0.003 C 
HETATM   13  C26 UNL     1       7.741  18.718   4.131  1.00  0.00     0.037 C 
BRANCH   8  14
HETATM   14  C6  UNL     1       7.122  18.855   1.736  1.00  0.00     0.097 C 
BRANCH  14  15
HETATM   15  N1  UNL     1       7.833  19.091   0.575  1.00  0.00    -0.314 N 
HETATM   16  C5  UNL     1       7.986  18.358  -0.599  1.00  0.00     0.365 C 
HETATM   17  O2  UNL     1       7.457  17.210  -0.825  1.00  0.00    -0.238 OA
ATOM     18  H1  UNL     1       8.345  19.974   0.579  1.00  0.00     0.170 HD
BRANCH  16  19
HETATM   19  O1  UNL     1       8.755  18.808  -1.680  1.00  0.00    -0.294 OA
BRANCH  19  20
HETATM   20  C2  UNL     1      10.065  18.362  -1.951  1.00  0.00     0.061 C 
HETATM   21  C1  UNL     1       9.971  17.365  -3.069  1.00  0.00     0.046 C 
HETATM   22  C3  UNL     1      10.795  17.823  -0.754  1.00  0.00     0.046 C 
HETATM   23  C4  UNL     1      10.815  19.585  -2.446  1.00  0.00     0.046 C 
ENDBRANCH  19  20
ENDBRANCH  16  19
ENDBRANCH  14  15
ENDBRANCH   8  14
ENDBRANCH   1   8
BRANCH   5  24
HETATM   24  C12 UNL     1       2.214  20.657   1.448  1.00  0.00     0.042 C 
BRANCH  24  25
HETATM   25  C13 UNL     1       2.926  20.056   0.280  1.00  0.00     0.230 C 
BRANCH  25  26
HETATM   26  N3  UNL     1       2.718  20.918  -0.909  1.00  0.00    -0.079 N 
ATOM     27  H33 UNL     1       2.739  21.911  -0.677  1.00  0.00     0.274 HD
ATOM     28  H32 UNL     1       3.515  20.902  -1.545  1.00  0.00     0.274 HD
ATOM     29  H31 UNL     1       1.849  20.644  -1.368  1.00  0.00     0.274 HD
ENDBRANCH  25  26
ENDBRANCH  24  25
ENDBRANCH   5  24
BRANCH   5  30
HETATM   30  C14 UNL     1       2.570  22.816   2.391  1.00  0.00    -0.049 A 
HETATM   31  C15 UNL     1       2.898  23.794   1.527  1.00  0.00     0.011 A 
HETATM   32  C16 UNL     1       2.310  25.059   1.617  1.00  0.00     0.043 A 
HETATM   33  C17 UNL     1       1.382  25.333   2.590  1.00  0.00     0.116 A 
HETATM   34  F1  UNL     1       0.804  26.585   2.673  1.00  0.00    -0.206 F 
HETATM   35  C18 UNL     1       1.026  24.362   3.483  1.00  0.00     0.043 A 
HETATM   36  C19 UNL     1       1.622  23.120   3.373  1.00  0.00     0.011 A 
ENDBRANCH   5  30
TORSDOF 9
ENDMDL
MODEL 3
REMARK VINA RESULT: -7.138303757      1.075      1.432
REMARK  9 active torsions:
REMARK  status: ('A' for Active; 'I' for Inactive)
REMARK    1  A    between atoms: C2_2  and  O1_5 
REMARK    2  A    between atoms: O1_5  and  C5_6 
REMARK       I    between atoms: C5_6  and  N1_8 
REMARK    3  A    between atoms: N1_8  and  C6_10 
REMARK    4  A    between atoms: C6_10  and  C7_11 
REMARK    5  A    between atoms: C7_11  and  N2_12 
REMARK    6  A    between atoms: C11_16  and  C12_17 
REMARK    7  A    between atoms: C11_16  and  C14_23 
REMARK    8  A    between atoms: C12_17  and  C13_18 
REMARK    9  A    between atoms: C13_18  and  N3_19 
ROOT
HETATM    1  N2  UNL     1       5.491  19.692   2.332  1.00  0.00    -0.359 N 
HETATM    2  C8  UNL     1       4.642  19.123   1.382  1.00  0.00     0.064 C 
HETATM    3  C9  UNL     1       3.240  19.168   1.935  1.00  0.00     0.046 C 
HETATM    4  C10 UNL     1       2.490  20.406   1.951  1.00  0.00     0.020 C 
HETATM    5  C11 UNL     1       3.113  21.700   1.510  1.00  0.00    -0.007 C 
HETATM    6  C20 UNL     1       4.576  21.762   1.644  1.00  0.00     0.059 C 
HETATM    7  C21 UNL     1       5.121  20.947   2.807  1.00  0.00     0.065 C 
ENDROOT
BRANCH   1   8
HETATM    8  C7  UNL     1       6.893  19.364   2.367  1.00  0.00     0.067 C 
HETATM    9  C22 UNL     1       7.589  20.612   2.753  1.00  0.00     0.037 C 
HETATM   10  C23 UNL     1       8.727  20.437   3.737  1.00  0.00     0.003 C 
HETATM   11  C24 UNL     1       8.330  19.856   5.055  1.00  0.00     0.000 C 
HETATM   12  C25 UNL     1       7.058  19.042   4.859  1.00  0.00     0.003 C 
HETATM   13  C26 UNL     1       7.163  18.379   3.507  1.00  0.00     0.037 C 
BRANCH   8  14
HETATM   14  C6  UNL     1       7.212  18.778   1.063  1.00  0.00     0.097 C 
BRANCH  14  15
HETATM   15  N1  UNL     1       8.050  19.297   0.095  1.00  0.00    -0.314 N 
HETATM   16  C5  UNL     1       9.393  19.076  -0.203  1.00  0.00     0.365 C 
HETATM   17  O2  UNL     1      10.171  18.288   0.446  1.00  0.00    -0.238 OA
ATOM     18  H1  UNL     1       7.598  19.974  -0.521  1.00  0.00     0.170 HD
BRANCH  16  19
HETATM   19  O1  UNL     1      10.049  19.710  -1.266  1.00  0.00    -0.294 OA
BRANCH  19  20
HETATM   20  C2  UNL     1      10.530  19.035  -2.406  1.00  0.00     0.061 C 
HETATM   21  C1  UNL     1       9.435  18.122  -2.875  1.00  0.00     0.046 C 
HETATM   22  C3  UNL     1      11.832  18.317  -2.196  1.00  0.00     0.046 C 
HETATM   23  C4  UNL     1      10.752  20.112  -3.452  1.00  0.00     0.046 C 
ENDBRANCH  19  20
ENDBRANCH  16  19
ENDBRANCH  14  15
ENDBRANCH   8  14
ENDBRANCH   1   8
BRANCH   5  24
HETATM   24  C12 UNL     1       2.773  21.829   0.036  1.00  0.00     0.042 C 
BRANCH  24  25
HETATM   25  C13 UNL     1       1.339  21.572  -0.297  1.00  0.00     0.230 C 
BRANCH  25  26
HETATM   26  N3  UNL     1       0.951  22.422  -1.448  1.00  0.00    -0.079 N 
ATOM     27  H33 UNL     1       1.198  22.000  -2.343  1.00  0.00     0.274 HD
ATOM     28  H32 UNL     1      -0.059  22.458  -1.581  1.00  0.00     0.274 HD
ATOM     29  H31 UNL     1       1.361  23.348  -1.329  1.00  0.00     0.274 HD
ENDBRANCH  25  26
ENDBRANCH  24  25
ENDBRANCH   5  24
BRANCH   5  30
HETATM   30  C14 UNL     1       2.430  22.869   2.151  1.00  0.00    -0.049 A 
HETATM   31  C15 UNL     1       2.549  24.162   1.802  1.00  0.00     0.011 A 
HETATM   32  C16 UNL     1       1.843  25.159   2.483  1.00  0.00     0.043 A 
HETATM   33  C17 UNL     1       1.010  24.839   3.526  1.00  0.00     0.116 A 
HETATM   34  F1  UNL     1       0.316  25.828   4.195  1.00  0.00    -0.206 F 
HETATM   35  C18 UNL     1       0.867  23.534   3.906  1.00  0.00     0.043 A 
HETATM   36  C19 UNL     1       1.575  22.569   3.217  1.00  0.00     0.011 A 
ENDBRANCH   5  30
TORSDOF 9
ENDMDL
MODEL 4
REMARK VINA RESULT: -6.992239398      1.090      1.357
REMARK  9 active torsions:
REMARK  status: ('A' for Active; 'I' for Inactive)
REMARK    1  A    between atoms: C2_2  and  O1_5 
REMARK    2  A    between atoms: O1_5  and  C5_6 
REMARK       I    between atoms: C5_6  and  N1_8 
REMARK    3  A    between atoms: N1_8  and  C6_10 
REMARK    4  A    between atoms: C6_10  and  C7_11 
REMARK    5  A    between atoms: C7_11  and  N2_12 
REMARK    6  A    between atoms: C11_16  and  C12_17 
REMARK    7  A    between atoms: C11_16  and  C14_23 
REMARK    8  A    between atoms: C12_17  and  C13_18 
REMARK    9  A    between atoms: C13_18  and  N3_19 
ROOT
HETATM    1  N2  UNL     1       5.764  20.062   3.285  1.00  0.00    -0.359 N 
HETATM    2  C8  UNL     1       4.712  19.148   3.340  1.00  0.00     0.064 C 
HETATM    3  C9  UNL     1       3.674  19.700   4.283  1.00  0.00     0.046 C 
HETATM    4  C10 UNL     1       2.796  20.774   3.871  1.00  0.00     0.020 C 
HETATM    5  C11 UNL     1       2.953  21.438   2.532  1.00  0.00    -0.007 C 
HETATM    6  C20 UNL     1       4.309  21.380   1.966  1.00  0.00     0.059 C 
HETATM    7  C21 UNL     1       5.412  21.381   3.013  1.00  0.00     0.065 C 
ENDROOT
BRANCH   1   8
HETATM    8  C7  UNL     1       7.091  19.647   2.911  1.00  0.00     0.067 C 
HETATM    9  C22 UNL     1       7.941  20.853   3.031  1.00  0.00     0.037 C 
HETATM   10  C23 UNL     1       9.310  20.620   3.636  1.00  0.00     0.003 C 
HETATM   11  C24 UNL     1       9.294  20.085   5.030  1.00  0.00     0.000 C 
HETATM   12  C25 UNL     1       7.978  19.350   5.250  1.00  0.00     0.003 C 
HETATM   13  C26 UNL     1       7.635  18.663   3.950  1.00  0.00     0.037 C 
BRANCH   8  14
HETATM   14  C6  UNL     1       6.972  19.023   1.591  1.00  0.00     0.097 C 
BRANCH  14  15
HETATM   15  N1  UNL     1       7.966  18.385   0.874  1.00  0.00    -0.314 N 
HETATM   16  C5  UNL     1       9.040  18.862   0.126  1.00  0.00     0.365 C 
HETATM   17  O2  UNL     1       9.310  20.102  -0.065  1.00  0.00    -0.238 OA
ATOM     18  H1  UNL     1       7.900  17.367   0.897  1.00  0.00     0.170 HD
BRANCH  16  19
HETATM   19  O1  UNL     1       9.955  18.016  -0.513  1.00  0.00    -0.294 OA
BRANCH  19  20
HETATM   20  C2  UNL     1      10.758  17.075   0.163  1.00  0.00     0.061 C 
HETATM   21  C1  UNL     1      10.128  15.728  -0.039  1.00  0.00     0.046 C 
HETATM   22  C3  UNL     1      10.993  17.392   1.613  1.00  0.00     0.046 C 
HETATM   23  C4  UNL     1      12.099  17.102  -0.546  1.00  0.00     0.046 C 
ENDBRANCH  19  20
ENDBRANCH  16  19
ENDBRANCH  14  15
ENDBRANCH   8  14
ENDBRANCH   1   8
BRANCH   5  24
HETATM   24  C12 UNL     1       2.024  20.684   1.597  1.00  0.00     0.042 C 
BRANCH  24  25
HETATM   25  C13 UNL     1       2.680  20.152   0.364  1.00  0.00     0.230 C 
BRANCH  25  26
HETATM   26  N3  UNL     1       2.188  20.912  -0.810  1.00  0.00    -0.079 N 
ATOM     27  H33 UNL     1       2.939  21.390  -1.306  1.00  0.00     0.274 HD
ATOM     28  H32 UNL     1       1.882  20.301  -1.568  1.00  0.00     0.274 HD
ATOM     29  H31 UNL     1       1.453  21.551  -0.507  1.00  0.00     0.274 HD
ENDBRANCH  25  26
ENDBRANCH  24  25
ENDBRANCH   5  24
BRANCH   5  30
HETATM   30  C14 UNL     1       2.402  22.831   2.557  1.00  0.00    -0.049 A 
HETATM   31  C15 UNL     1       1.571  23.351   3.478  1.00  0.00     0.011 A 
HETATM   32  C16 UNL     1       1.137  24.677   3.387  1.00  0.00     0.043 A 
HETATM   33  C17 UNL     1       1.551  25.481   2.353  1.00  0.00     0.116 A 
HETATM   34  F1  UNL     1       1.119  26.790   2.269  1.00  0.00    -0.206 F 
HETATM   35  C18 UNL     1       2.396  24.983   1.402  1.00  0.00     0.043 A 
HETATM   36  C19 UNL     1       2.809  23.670   1.515  1.00  0.00     0.011 A 
ENDBRANCH   5  30
TORSDOF 9
ENDMDL
MODEL 5
REMARK VINA RESULT: -6.933779007      1.291      1.854
REMARK  9 active torsions:
REMARK  status: ('A' for Active; 'I' for Inactive)
REMARK    1  A    between atoms: C2_2  and  O1_5 
REMARK    2  A    between atoms: O1_5  and  C5_6 
REMARK       I    between atoms: C5_6  and  N1_8 
REMARK    3  A    between atoms: N1_8  and  C6_10 
REMARK    4  A    between atoms: C6_10  and  C7_11 
REMARK    5  A    between atoms: C7_11  and  N2_12 
REMARK    6  A    between atoms: C11_16  and  C12_17 
REMARK    7  A    between atoms: C11_16  and  C14_23 
REMARK    8  A    between atoms: C12_17  and  C13_18 
REMARK    9  A    between atoms: C13_18  and  N3_19 
ROOT
HETATM    1  N2  UNL     1       5.602  19.970   2.654  1.00  0.00    -0.359 N 
HETATM    2  C8  UNL     1       4.874  19.415   1.601  1.00  0.00     0.064 C 
HETATM    3  C9  UNL     1       3.433  19.331   2.034  1.00  0.00     0.046 C 
HETATM    4  C10 UNL     1       2.599  20.513   2.065  1.00  0.00     0.020 C 
HETATM    5  C11 UNL     1       3.163  21.873   1.763  1.00  0.00    -0.007 C 
HETATM    6  C20 UNL     1       4.603  22.020   2.025  1.00  0.00     0.059 C 
HETATM    7  C21 UNL     1       5.108  21.162   3.175  1.00  0.00     0.065 C 
ENDROOT
BRANCH   1   8
HETATM    8  C7  UNL     1       7.016  19.732   2.787  1.00  0.00     0.067 C 
HETATM    9  C22 UNL     1       7.415  20.374   4.060  1.00  0.00     0.037 C 
HETATM   10  C23 UNL     1       8.396  19.584   4.901  1.00  0.00     0.003 C 
HETATM   11  C24 UNL     1       7.903  18.247   5.345  1.00  0.00     0.000 C 
HETATM   12  C25 UNL     1       6.838  17.774   4.363  1.00  0.00     0.003 C 
HETATM   13  C26 UNL     1       7.269  18.235   2.991  1.00  0.00     0.037 C 
BRANCH   8  14
HETATM   14  C6  UNL     1       7.635  20.218   1.551  1.00  0.00     0.097 C 
BRANCH  14  15
HETATM   15  N1  UNL     1       8.722  19.678   0.892  1.00  0.00    -0.314 N 
HETATM   16  C5  UNL     1       8.837  18.937  -0.282  1.00  0.00     0.365 C 
HETATM   17  O2  UNL     1       7.853  18.571  -1.021  1.00  0.00    -0.238 OA
ATOM     18  H1  UNL     1       9.614  19.857   1.354  1.00  0.00     0.170 HD
BRANCH  16  19
HETATM   19  O1  UNL     1      10.068  18.501  -0.787  1.00  0.00    -0.294 OA
BRANCH  19  20
HETATM   20  C2  UNL     1      10.661  19.012  -1.960  1.00  0.00     0.061 C 
HETATM   21  C1  UNL     1      10.807  20.495  -1.773  1.00  0.00     0.046 C 
HETATM   22  C3  UNL     1       9.932  18.658  -3.225  1.00  0.00     0.046 C 
HETATM   23  C4  UNL     1      12.042  18.387  -2.023  1.00  0.00     0.046 C 
ENDBRANCH  19  20
ENDBRANCH  16  19
ENDBRANCH  14  15
ENDBRANCH   8  14
ENDBRANCH   1   8
BRANCH   5  24
HETATM   24  C12 UNL     1       2.936  22.082   0.276  1.00  0.00     0.042 C 
BRANCH  24  25
HETATM   25  C13 UNL     1       1.580  21.681  -0.208  1.00  0.00     0.230 C 
BRANCH  25  26
HETATM   26  N3  UNL     1       1.247  22.469  -1.418  1.00  0.00    -0.079 N 
ATOM     27  H33 UNL     1       0.342  22.932  -1.343  1.00  0.00     0.274 HD
ATOM     28  H32 UNL     1       1.827  23.303  -1.510  1.00  0.00     0.274 HD
ATOM     29  H31 UNL     1       1.307  21.863  -2.236  1.00  0.00     0.274 HD
ENDBRANCH  25  26
ENDBRANCH  24  25
ENDBRANCH   5  24
BRANCH   5  30
HETATM   30  C14 UNL     1       2.350  22.947   2.417  1.00  0.00    -0.049 A 
HETATM   31  C15 UNL     1       2.398  24.266   2.156  1.00  0.00     0.011 A 
HETATM   32  C16 UNL     1       1.572  25.165   2.838  1.00  0.00     0.043 A 
HETATM   33  C17 UNL     1       0.691  24.721   3.793  1.00  0.00     0.116 A 
HETATM   34  F1  UNL     1      -0.121  25.613   4.463  1.00  0.00    -0.206 F 
HETATM   35  C18 UNL     1       0.618  23.387   4.082  1.00  0.00     0.043 A 
HETATM   36  C19 UNL     1       1.444  22.521   3.394  1.00  0.00     0.011 A 
ENDBRANCH   5  30
TORSDOF 9
ENDMDL
