MODEL 1
REMARK VINA RESULT: -7.217241878      0.000      0.000
REMARK  8 active torsions:
REMARK  status: ('A' for Active; 'I' for Inactive)
REMARK    1  A    between atoms: C4_4  and  N1_5 
REMARK       I    between atoms: N1_5  and  C5_7 
REMARK    2  A    between atoms: C5_7  and  C6_9 
REMARK    3  A    between atoms: C11_14  and  N2_15 
REMARK    4  A    between atoms: C13_20  and  C14_21 
REMARK    5  A    between atoms: C14_21  and  O2_22 
REMARK    6  A    between atoms: O2_22  and  C15_23 
REMARK    7  A    between atoms: C19_28  and  O3_29 
REMARK    8  A    between atoms: O3_29  and  C20_30 
ROOT
HETATM    1  C1  UNL     1       0.125  19.610  -0.593  1.00  0.00     0.010 C 
HETATM    2  C2  UNL     1      -0.288  20.463  -1.775  1.00  0.00    -0.010 C 
HETATM    3  C3  UNL     1      -0.160  19.656  -3.012  1.00  0.00     0.029 C 
HETATM    4  C4  UNL     1      -0.822  20.325  -4.212  1.00  0.00     0.086 C 
HETATM    5  C10 UNL     1       0.307  20.920  -5.020  1.00  0.00     0.058 C 
HETATM    6  C11 UNL     1       1.123  21.931  -4.248  1.00  0.00     0.186 C 
HETATM    7  C12 UNL     1       0.481  22.489  -3.053  1.00  0.00     0.040 C 
HETATM    8  C13 UNL     1       0.522  21.736  -1.774  1.00  0.00     0.016 C 
ENDROOT
BRANCH   8   9
HETATM    9  C14 UNL     1       1.905  21.525  -1.212  1.00  0.00     0.180 C 
BRANCH   9  10
HETATM   10  O2  UNL     1       2.365  22.537  -0.445  1.00  0.00    -0.351 OA
BRANCH  10  11
HETATM   11  C15 UNL     1       2.048  23.088   0.751  1.00  0.00     0.074 A 
HETATM   12  C16 UNL     1       2.369  24.359   1.162  1.00  0.00     0.079 A 
HETATM   13  C17 UNL     1       2.010  24.844   2.401  1.00  0.00     0.121 A 
HETATM   14  F1  UNL     1       2.320  26.093   2.816  1.00  0.00    -0.206 F 
HETATM   15  C18 UNL     1       1.296  24.034   3.286  1.00  0.00     0.079 A 
HETATM   16  C19 UNL     1       0.950  22.758   2.926  1.00  0.00     0.074 A 
HETATM   17  C26 UNL     1       1.338  22.307   1.653  1.00  0.00     0.073 A 
BRANCH  16  18
HETATM   18  O3  UNL     1       0.249  21.917   3.751  1.00  0.00    -0.346 OA
BRANCH  18  19
HETATM   19  C20 UNL     1       0.061  22.091   5.092  1.00  0.00     0.132 C 
HETATM   20  C21 UNL     1      -1.333  21.690   5.565  1.00  0.00     0.062 C 
HETATM   21  C22 UNL     1      -1.327  21.569   7.061  1.00  0.00     0.274 C 
HETATM   22  N3  UNL     1      -0.262  22.324   7.681  1.00  0.00     0.084 N 
HETATM   23  C23 UNL     1      -0.410  22.198   9.114  1.00  0.00     0.309 C 
HETATM   24  C24 UNL     1       1.039  21.843   7.321  1.00  0.00     0.274 C 
HETATM   25  C25 UNL     1       1.019  21.233   5.937  1.00  0.00     0.062 C 
ENDBRANCH  18  19
ENDBRANCH  16  18
ENDBRANCH  10  11
ENDBRANCH   9  10
ENDBRANCH   8   9
BRANCH   6  26
HETATM   26  N2  UNL     1       2.478  21.451  -4.040  1.00  0.00    -0.075 N 
ATOM     27  H23 UNL     1       2.682  21.315  -3.050  1.00  0.00     0.274 HD
ATOM     28  H22 UNL     1       2.589  20.488  -4.354  1.00  0.00     0.274 HD
ATOM     29  H21 UNL     1       3.154  22.073  -4.482  1.00  0.00     0.274 HD
ENDBRANCH   6  26
BRANCH   4  30
HETATM   30  N1  UNL     1      -1.459  19.328  -5.047  1.00  0.00    -0.356 N 
HETATM   31  C5  UNL     1      -2.838  19.044  -4.897  1.00  0.00     0.225 C 
HETATM   32  O1  UNL     1      -3.515  19.659  -4.035  1.00  0.00    -0.273 OA
ATOM     33  H1  UNL     1      -0.911  18.828  -5.746  1.00  0.00     0.162 HD
BRANCH  31  34
HETATM   34  C6  UNL     1      -3.475  18.024  -5.757  1.00  0.00     0.030 C 
HETATM   35  C7  UNL     1      -4.491  17.261  -4.934  1.00  0.00     0.024 C 
HETATM   36  C8  UNL     1      -2.411  17.063  -6.235  1.00  0.00     0.024 C 
HETATM   37  C9  UNL     1      -4.115  18.639  -6.982  1.00  0.00     0.024 C 
ENDBRANCH  31  34
ENDBRANCH   4  30
TORSDOF 8
ENDMDL
MODEL 2
REMARK VINA RESULT: -7.017113376      1.101      1.640
REMARK  8 active torsions:
REMARK  status: ('A' for Active; 'I' for Inactive)
REMARK    1  A    between atoms: C4_4  and  N1_5 
REMARK       I    between atoms: N1_5  and  C5_7 
REMARK    2  A    between atoms: C5_7  and  C6_9 
REMARK    3  A    between atoms: C11_14  and  N2_15 
REMARK    4  A    between atoms: C13_20  and  C14_21 
REMARK    5  A    between atoms: C14_21  and  O2_22 
REMARK    6  A    between atoms: O2_22  and  C15_23 
REMARK    7  A    between atoms: C19_28  and  O3_29 
REMARK    8  A    between atoms: O3_29  and  C20_30 
ROOT
HETATM    1  C1  UNL     1      -0.030  19.646  -0.495  1.00  0.00     0.010 C 
HETATM    2  C2  UNL     1      -0.377  20.501  -1.697  1.00  0.00    -0.010 C 
HETATM    3  C3  UNL     1      -0.230  19.679  -2.923  1.00  0.00     0.029 C 
HETATM    4  C4  UNL     1      -0.831  20.357  -4.150  1.00  0.00     0.086 C 
HETATM    5  C10 UNL     1       0.342  20.912  -4.923  1.00  0.00     0.058 C 
HETATM    6  C11 UNL     1       1.160  21.906  -4.131  1.00  0.00     0.186 C 
HETATM    7  C12 UNL     1       0.494  22.492  -2.964  1.00  0.00     0.040 C 
HETATM    8  C13 UNL     1       0.469  21.749  -1.678  1.00  0.00     0.016 C 
ENDROOT
BRANCH   8   9
HETATM    9  C14 UNL     1       1.825  21.504  -1.067  1.00  0.00     0.180 C 
BRANCH   9  10
HETATM   10  O2  UNL     1       2.314  22.532  -0.340  1.00  0.00    -0.351 OA
BRANCH  10  11
HETATM   11  C15 UNL     1       2.023  23.128   0.841  1.00  0.00     0.074 A 
HETATM   12  C16 UNL     1       2.368  24.407   1.203  1.00  0.00     0.079 A 
HETATM   13  C17 UNL     1       2.035  24.939   2.430  1.00  0.00     0.121 A 
HETATM   14  F1  UNL     1       2.369  26.197   2.797  1.00  0.00    -0.206 F 
HETATM   15  C18 UNL     1       1.324  24.170   3.354  1.00  0.00     0.079 A 
HETATM   16  C19 UNL     1       0.955  22.887   3.043  1.00  0.00     0.074 A 
HETATM   17  C26 UNL     1       1.317  22.388   1.780  1.00  0.00     0.073 A 
BRANCH  16  18
HETATM   18  O3  UNL     1       0.257  22.084   3.907  1.00  0.00    -0.346 OA
BRANCH  18  19
HETATM   19  C20 UNL     1       0.800  21.153   4.745  1.00  0.00     0.132 C 
HETATM   20  C21 UNL     1       1.148  21.708   6.122  1.00  0.00     0.062 C 
HETATM   21  C22 UNL     1       1.387  20.565   7.065  1.00  0.00     0.274 C 
HETATM   22  N3  UNL     1       1.741  19.340   6.384  1.00  0.00     0.084 N 
HETATM   23  C23 UNL     1       2.025  18.342   7.392  1.00  0.00     0.309 C 
HETATM   24  C24 UNL     1       0.685  18.846   5.550  1.00  0.00     0.274 C 
HETATM   25  C25 UNL     1      -0.162  19.985   5.028  1.00  0.00     0.062 C 
ENDBRANCH  18  19
ENDBRANCH  16  18
ENDBRANCH  10  11
ENDBRANCH   9  10
ENDBRANCH   8   9
BRANCH   6  26
HETATM   26  N2  UNL     1       2.492  21.389  -3.872  1.00  0.00    -0.075 N 
ATOM     27  H23 UNL     1       2.943  21.064  -4.727  1.00  0.00     0.274 HD
ATOM     28  H22 UNL     1       3.145  22.134  -3.628  1.00  0.00     0.274 HD
ATOM     29  H21 UNL     1       2.466  20.661  -3.159  1.00  0.00     0.274 HD
ENDBRANCH   6  26
BRANCH   4  30
HETATM   30  N1  UNL     1      -1.468  19.372  -4.999  1.00  0.00    -0.356 N 
HETATM   31  C5  UNL     1      -2.834  19.048  -4.819  1.00  0.00     0.225 C 
HETATM   32  O1  UNL     1      -3.501  19.617  -3.917  1.00  0.00    -0.273 OA
ATOM     33  H1  UNL     1      -0.929  18.909  -5.730  1.00  0.00     0.162 HD
BRANCH  31  34
HETATM   34  C6  UNL     1      -3.471  18.040  -5.693  1.00  0.00     0.030 C 
HETATM   35  C7  UNL     1      -4.217  18.758  -6.798  1.00  0.00     0.024 C 
HETATM   36  C8  UNL     1      -4.458  17.243  -4.873  1.00  0.00     0.024 C 
HETATM   37  C9  UNL     1      -2.461  17.066  -6.260  1.00  0.00     0.024 C 
ENDBRANCH  31  34
ENDBRANCH   4  30
TORSDOF 8
ENDMDL
MODEL 3
REMARK VINA RESULT: -6.998224148      3.349      4.140
REMARK  8 active torsions:
REMARK  status: ('A' for Active; 'I' for Inactive)
REMARK    1  A    between atoms: C4_4  and  N1_5 
REMARK       I    between atoms: N1_5  and  C5_7 
REMARK    2  A    between atoms: C5_7  and  C6_9 
REMARK    3  A    between atoms: C11_14  and  N2_15 
REMARK    4  A    between atoms: C13_20  and  C14_21 
REMARK    5  A    between atoms: C14_21  and  O2_22 
REMARK    6  A    between atoms: O2_22  and  C15_23 
REMARK    7  A    between atoms: C19_28  and  O3_29 
REMARK    8  A    between atoms: O3_29  and  C20_30 
ROOT
HETATM    1  C1  UNL     1      -0.627  20.343  -0.836  1.00  0.00     0.010 C 
HETATM    2  C2  UNL     1      -0.731  20.928  -2.229  1.00  0.00    -0.010 C 
HETATM    3  C3  UNL     1      -0.493  19.848  -3.217  1.00  0.00     0.029 C 
HETATM    4  C4  UNL     1      -0.860  20.270  -4.636  1.00  0.00     0.086 C 
HETATM    5  C10 UNL     1       0.452  20.572  -5.322  1.00  0.00     0.058 C 
HETATM    6  C11 UNL     1       1.239  21.669  -4.643  1.00  0.00     0.186 C 
HETATM    7  C12 UNL     1       0.475  22.536  -3.741  1.00  0.00     0.040 C 
HETATM    8  C13 UNL     1       0.212  22.099  -2.346  1.00  0.00     0.016 C 
ENDROOT
BRANCH   8   9
HETATM    9  C14 UNL     1       1.445  21.919  -1.499  1.00  0.00     0.180 C 
BRANCH   9  10
HETATM   10  O2  UNL     1       1.472  22.662  -0.372  1.00  0.00    -0.351 OA
BRANCH  10  11
HETATM   11  C15 UNL     1       1.919  22.509   0.898  1.00  0.00     0.074 A 
HETATM   12  C16 UNL     1       1.153  22.589   2.036  1.00  0.00     0.079 A 
HETATM   13  C17 UNL     1       1.688  22.423   3.295  1.00  0.00     0.121 A 
HETATM   14  F1  UNL     1       0.944  22.500   4.421  1.00  0.00    -0.206 F 
HETATM   15  C18 UNL     1       3.051  22.164   3.445  1.00  0.00     0.079 A 
HETATM   16  C19 UNL     1       3.860  22.072   2.342  1.00  0.00     0.074 A 
HETATM   17  C26 UNL     1       3.271  22.249   1.079  1.00  0.00     0.073 A 
BRANCH  16  18
HETATM   18  O3  UNL     1       5.205  21.819   2.426  1.00  0.00    -0.346 OA
BRANCH  18  19
HETATM   19  C20 UNL     1       5.786  20.841   3.181  1.00  0.00     0.132 C 
HETATM   20  C21 UNL     1       5.687  19.454   2.555  1.00  0.00     0.062 C 
HETATM   21  C22 UNL     1       6.645  18.532   3.252  1.00  0.00     0.274 C 
HETATM   22  N3  UNL     1       6.995  18.985   4.579  1.00  0.00     0.084 N 
HETATM   23  C23 UNL     1       7.849  17.981   5.176  1.00  0.00     0.309 C 
HETATM   24  C24 UNL     1       7.706  20.229   4.569  1.00  0.00     0.274 C 
HETATM   25  C25 UNL     1       7.295  21.070   3.381  1.00  0.00     0.062 C 
ENDBRANCH  18  19
ENDBRANCH  16  18
ENDBRANCH  10  11
ENDBRANCH   9  10
ENDBRANCH   8   9
BRANCH   6  26
HETATM   26  N2  UNL     1       2.473  21.148  -4.083  1.00  0.00    -0.075 N 
ATOM     27  H23 UNL     1       3.255  21.249  -4.731  1.00  0.00     0.274 HD
ATOM     28  H22 UNL     1       2.823  21.736  -3.327  1.00  0.00     0.274 HD
ATOM     29  H21 UNL     1       2.355  20.180  -3.784  1.00  0.00     0.274 HD
ENDBRANCH   6  26
BRANCH   4  30
HETATM   30  N1  UNL     1      -1.460  19.159  -5.344  1.00  0.00    -0.356 N 
HETATM   31  C5  UNL     1      -2.852  18.916  -5.248  1.00  0.00     0.225 C 
HETATM   32  O1  UNL     1      -3.572  19.668  -4.544  1.00  0.00    -0.273 OA
ATOM     33  H1  UNL     1      -0.877  18.547  -5.916  1.00  0.00     0.162 HD
BRANCH  31  34
HETATM   34  C6  UNL     1      -3.451  17.777  -5.977  1.00  0.00     0.030 C 
HETATM   35  C7  UNL     1      -4.062  18.292  -7.263  1.00  0.00     0.024 C 
HETATM   36  C8  UNL     1      -4.542  17.177  -5.122  1.00  0.00     0.024 C 
HETATM   37  C9  UNL     1      -2.438  16.688  -6.252  1.00  0.00     0.024 C 
ENDBRANCH  31  34
ENDBRANCH   4  30
TORSDOF 8
ENDMDL
MODEL 4
REMARK VINA RESULT: -6.966582971      1.346      1.681
REMARK  8 active torsions:
REMARK  status: ('A' for Active; 'I' for Inactive)
REMARK    1  A    between atoms: C4_4  and  N1_5 
REMARK       I    between atoms: N1_5  and  C5_7 
REMARK    2  A    between atoms: C5_7  and  C6_9 
REMARK    3  A    between atoms: C11_14  and  N2_15 
REMARK    4  A    between atoms: C13_20  and  C14_21 
REMARK    5  A    between atoms: C14_21  and  O2_22 
REMARK    6  A    between atoms: O2_22  and  C15_23 
REMARK    7  A    between atoms: C19_28  and  O3_29 
REMARK    8  A    between atoms: O3_29  and  C20_30 
ROOT
HETATM    1  C1  UNL     1      -0.106  20.092   0.237  1.00  0.00     0.010 C 
HETATM    2  C2  UNL     1       0.029  20.714  -1.137  1.00  0.00    -0.010 C 
HETATM    3  C3  UNL     1       0.082  19.630  -2.147  1.00  0.00     0.029 C 
HETATM    4  C4  UNL     1      -0.073  20.155  -3.571  1.00  0.00     0.086 C 
HETATM    5  C10 UNL     1       1.319  20.158  -4.158  1.00  0.00     0.058 C 
HETATM    6  C11 UNL     1       2.287  21.027  -3.388  1.00  0.00     0.186 C 
HETATM    7  C12 UNL     1       1.680  22.029  -2.506  1.00  0.00     0.040 C 
HETATM    8  C13 UNL     1       1.222  21.636  -1.149  1.00  0.00     0.016 C 
ENDROOT
BRANCH   8   9
HETATM    9  C14 UNL     1       2.316  21.156  -0.230  1.00  0.00     0.180 C 
BRANCH   9  10
HETATM   10  O2  UNL     1       2.800  22.093   0.614  1.00  0.00    -0.351 OA
BRANCH  10  11
HETATM   11  C15 UNL     1       2.284  23.013   1.463  1.00  0.00     0.074 A 
HETATM   12  C16 UNL     1       2.293  24.375   1.278  1.00  0.00     0.079 A 
HETATM   13  C17 UNL     1       1.747  25.245   2.196  1.00  0.00     0.121 A 
HETATM   14  F1  UNL     1       1.751  26.586   2.024  1.00  0.00    -0.206 F 
HETATM   15  C18 UNL     1       1.159  24.751   3.362  1.00  0.00     0.079 A 
HETATM   16  C19 UNL     1       1.121  23.401   3.595  1.00  0.00     0.074 A 
HETATM   17  C26 UNL     1       1.691  22.552   2.631  1.00  0.00     0.073 A 
BRANCH  16  18
HETATM   18  O3  UNL     1       0.557  22.857   4.720  1.00  0.00    -0.346 OA
BRANCH  18  19
HETATM   19  C20 UNL     1       1.008  21.751   5.383  1.00  0.00     0.132 C 
HETATM   20  C21 UNL     1       1.112  21.950   6.891  1.00  0.00     0.062 C 
HETATM   21  C22 UNL     1       1.257  20.611   7.553  1.00  0.00     0.274 C 
HETATM   22  N3  UNL     1       1.771  19.597   6.661  1.00  0.00     0.084 N 
HETATM   23  C23 UNL     1       1.944  18.383   7.429  1.00  0.00     0.309 C 
HETATM   24  C24 UNL     1       0.882  19.315   5.573  1.00  0.00     0.274 C 
HETATM   25  C25 UNL     1       0.073  20.541   5.213  1.00  0.00     0.062 C 
ENDBRANCH  18  19
ENDBRANCH  16  18
ENDBRANCH  10  11
ENDBRANCH   9  10
ENDBRANCH   8   9
BRANCH   6  26
HETATM   26  N2  UNL     1       3.323  20.221  -2.767  1.00  0.00    -0.075 N 
ATOM     27  H23 UNL     1       3.579  20.579  -1.847  1.00  0.00     0.274 HD
ATOM     28  H22 UNL     1       2.971  19.307  -2.484  1.00  0.00     0.274 HD
ATOM     29  H21 UNL     1       4.135  20.141  -3.379  1.00  0.00     0.274 HD
ENDBRANCH   6  26
BRANCH   4  30
HETATM   30  N1  UNL     1      -0.861  19.229  -4.358  1.00  0.00    -0.356 N 
HETATM   31  C5  UNL     1      -2.272  19.343  -4.397  1.00  0.00     0.225 C 
HETATM   32  O1  UNL     1      -2.846  20.252  -3.746  1.00  0.00    -0.273 OA
ATOM     33  H1  UNL     1      -0.397  18.491  -4.886  1.00  0.00     0.162 HD
BRANCH  31  34
HETATM   34  C6  UNL     1      -3.063  18.391  -5.206  1.00  0.00     0.030 C 
HETATM   35  C7  UNL     1      -3.955  17.592  -4.279  1.00  0.00     0.024 C 
HETATM   36  C8  UNL     1      -2.113  17.447  -5.905  1.00  0.00     0.024 C 
HETATM   37  C9  UNL     1      -3.873  19.093  -6.273  1.00  0.00     0.024 C 
ENDBRANCH  31  34
ENDBRANCH   4  30
TORSDOF 8
ENDMDL
MODEL 5
REMARK VINA RESULT: -6.955913040      3.313      4.267
REMARK  8 active torsions:
REMARK  status: ('A' for Active; 'I' for Inactive)
REMARK    1  A    between atoms: C4_4  and  N1_5 
REMARK       I    between atoms: N1_5  and  C5_7 
REMARK    2  A    between atoms: C5_7  and  C6_9 
REMARK    3  A    between atoms: C11_14  and  N2_15 
REMARK    4  A    between atoms: C13_20  and  C14_21 
REMARK    5  A    between atoms: C14_21  and  O2_22 
REMARK    6  A    between atoms: O2_22  and  C15_23 
REMARK    7  A    between atoms: C19_28  and  O3_29 
REMARK    8  A    between atoms: O3_29  and  C20_30 
ROOT
HETATM    1  C1  UNL     1       0.676  19.467  -0.701  1.00  0.00     0.010 C 
HETATM    2  C2  UNL     1      -0.013  20.306  -1.757  1.00  0.00    -0.010 C 
HETATM    3  C3  UNL     1       0.071  19.597  -3.057  1.00  0.00     0.029 C 
HETATM    4  C4  UNL     1      -0.837  20.217  -4.114  1.00  0.00     0.086 C 
HETATM    5  C10 UNL     1       0.074  21.026  -5.008  1.00  0.00     0.058 C 
HETATM    6  C11 UNL     1       0.822  22.111  -4.268  1.00  0.00     0.186 C 
HETATM    7  C12 UNL     1       0.266  22.494  -2.966  1.00  0.00     0.040 C 
HETATM    8  C13 UNL     1       0.589  21.689  -1.761  1.00  0.00     0.016 C 
ENDROOT
BRANCH   8   9
HETATM    9  C14 UNL     1       2.049  21.671  -1.388  1.00  0.00     0.180 C 
BRANCH   9  10
HETATM   10  O2  UNL     1       2.381  22.479  -0.358  1.00  0.00    -0.351 OA
BRANCH  10  11
HETATM   11  C15 UNL     1       2.319  22.426   0.994  1.00  0.00     0.074 A 
HETATM   12  C16 UNL     1       1.461  23.146   1.789  1.00  0.00     0.079 A 
HETATM   13  C17 UNL     1       1.464  23.035   3.163  1.00  0.00     0.121 A 
HETATM   14  F1  UNL     1       0.625  23.740   3.955  1.00  0.00    -0.206 F 
HETATM   15  C18 UNL     1       2.360  22.168   3.791  1.00  0.00     0.079 A 
HETATM   16  C19 UNL     1       3.237  21.425   3.044  1.00  0.00     0.074 A 
HETATM   17  C26 UNL     1       3.197  21.572   1.647  1.00  0.00     0.073 A 
BRANCH  16  18
HETATM   18  O3  UNL     1       4.139  20.557   3.603  1.00  0.00    -0.346 OA
BRANCH  18  19
HETATM   19  C20 UNL     1       5.401  20.313   3.142  1.00  0.00     0.132 C 
HETATM   20  C21 UNL     1       6.401  21.404   3.511  1.00  0.00     0.062 C 
HETATM   21  C22 UNL     1       7.793  20.888   3.290  1.00  0.00     0.274 C 
HETATM   22  N3  UNL     1       7.842  19.791   2.350  1.00  0.00     0.084 N 
HETATM   23  C23 UNL     1       9.232  19.438   2.158  1.00  0.00     0.309 C 
HETATM   24  C24 UNL     1       7.146  18.629   2.820  1.00  0.00     0.274 C 
HETATM   25  C25 UNL     1       6.001  19.022   3.726  1.00  0.00     0.062 C 
ENDBRANCH  18  19
ENDBRANCH  16  18
ENDBRANCH  10  11
ENDBRANCH   9  10
ENDBRANCH   8   9
BRANCH   6  26
HETATM   26  N2  UNL     1       2.249  21.843  -4.262  1.00  0.00    -0.075 N 
ATOM     27  H23 UNL     1       2.795  22.703  -4.308  1.00  0.00     0.274 HD
ATOM     28  H22 UNL     1       2.566  21.508  -3.352  1.00  0.00     0.274 HD
ATOM     29  H21 UNL     1       2.499  21.197  -5.010  1.00  0.00     0.274 HD
ENDBRANCH   6  26
BRANCH   4  30
HETATM   30  N1  UNL     1      -1.420  19.178  -4.937  1.00  0.00    -0.356 N 
HETATM   31  C5  UNL     1      -2.804  18.892  -4.855  1.00  0.00     0.225 C 
HETATM   32  O1  UNL     1      -3.533  19.542  -4.063  1.00  0.00    -0.273 OA
ATOM     33  H1  UNL     1      -0.830  18.649  -5.580  1.00  0.00     0.162 HD
BRANCH  31  34
HETATM   34  C6  UNL     1      -3.386  17.828  -5.701  1.00  0.00     0.030 C 
HETATM   35  C7  UNL     1      -4.435  17.088  -4.899  1.00  0.00     0.024 C 
HETATM   36  C8  UNL     1      -2.290  16.863  -6.084  1.00  0.00     0.024 C 
HETATM   37  C9  UNL     1      -3.970  18.384  -6.982  1.00  0.00     0.024 C 
ENDBRANCH  31  34
ENDBRANCH   4  30
TORSDOF 8
ENDMDL
