MODEL 1
REMARK VINA RESULT: -6.965692676      0.000      0.000
REMARK  6 active torsions:
REMARK  status: ('A' for Active; 'I' for Inactive)
REMARK    1  A    between atoms: O1_2  and  C2_3 
REMARK    2  A    between atoms: C7_8  and  O2_9 
REMARK    3  A    between atoms: O2_9  and  C8_10 
REMARK    4  A    between atoms: C8_10  and  C9_11 
REMARK    5  A    between atoms: C19_23  and  C20_24 
REMARK    6  A    between atoms: N2_28  and  C22_30 
ROOT
HETATM    1  C2  UNL     1       2.768  19.730   0.167  1.00  0.00     0.104 A 
HETATM    2  C3  UNL     1       2.328  18.627  -0.546  1.00  0.00     0.054 A 
HETATM    3  C4  UNL     1       1.708  18.888  -1.778  1.00  0.00     0.007 A 
HETATM    4  C5  UNL     1       1.592  20.176  -2.171  1.00  0.00     0.016 A 
HETATM    5  C6  UNL     1       2.004  21.282  -1.514  1.00  0.00     0.077 A 
HETATM    6  C7  UNL     1       2.625  21.044  -0.276  1.00  0.00     0.129 A 
HETATM    7  N1  UNL     1       1.643  22.356  -2.341  1.00  0.00    -0.374 N 
ATOM      8  H1  UNL     1       1.812  23.336  -2.114  1.00  0.00     0.161 HD
HETATM    9  C15 UNL     1       0.985  21.891  -3.588  1.00  0.00     0.052 A 
HETATM   10  C16 UNL     1       1.799  22.225  -4.781  1.00  0.00     0.043 C 
HETATM   11  C17 UNL     1      -0.404  22.429  -3.591  1.00  0.00     0.043 C 
HETATM   12  C18 UNL     1       0.964  20.392  -3.434  1.00  0.00     0.002 A 
HETATM   13  C19 UNL     1       0.653  19.190  -3.883  1.00  0.00     0.077 A 
HETATM   14  C21 UNL     1       1.095  18.157  -2.873  1.00  0.00     0.057 A 
HETATM   15  N2  UNL     1       0.872  16.936  -2.996  1.00  0.00    -0.384 N 
ATOM     16  H2  UNL     1       0.429  16.671  -3.876  1.00  0.00     0.160 HD
ENDROOT
BRANCH  13  17
HETATM   17  C20 UNL     1      -0.002  18.891  -5.127  1.00  0.00     0.212 C 
HETATM   18  O3  UNL     1      -0.958  19.548  -5.593  1.00  0.00    -0.644 OA
HETATM   19  O4  UNL     1       0.423  17.798  -5.911  1.00  0.00    -0.644 OA
ENDBRANCH  13  17
BRANCH  15  20
HETATM   20  C22 UNL     1       1.128  15.870  -2.127  1.00  0.00     0.082 C 
HETATM   21  C23 UNL     1       2.472  15.236  -2.195  1.00  0.00     0.031 C 
HETATM   22  C24 UNL     1       2.706  14.275  -3.314  1.00  0.00     0.081 C 
HETATM   23  C25 UNL     1       1.552  13.327  -3.447  1.00  0.00     0.243 C 
HETATM   24  F1  UNL     1       0.836  13.713  -4.595  1.00  0.00    -0.206 F 
HETATM   25  F2  UNL     1       2.011  12.047  -3.615  1.00  0.00    -0.206 F 
HETATM   26  C26 UNL     1       0.596  13.464  -2.273  1.00  0.00     0.081 C 
HETATM   27  C27 UNL     1      -0.018  14.849  -2.291  1.00  0.00     0.031 C 
ENDBRANCH  15  20
BRANCH   1  28
HETATM   28  O1  UNL     1       3.397  19.593   1.387  1.00  0.00    -0.353 OA
HETATM   29  C1  UNL     1       2.693  19.126   2.513  1.00  0.00     0.210 C 
ENDBRANCH   1  28
BRANCH   6  30
HETATM   30  O2  UNL     1       3.047  22.140   0.414  1.00  0.00    -0.346 OA
BRANCH  30  31
HETATM   31  C8  UNL     1       2.246  23.300   0.599  1.00  0.00     0.180 C 
BRANCH  31  32
HETATM   32  C9  UNL     1       2.553  23.838   1.982  1.00  0.00     0.010 C 
HETATM   33  C10 UNL     1       1.731  25.087   2.269  1.00  0.00     0.007 C 
HETATM   34  C11 UNL     1       1.453  25.149   3.749  1.00  0.00     0.000 C 
HETATM   35  C12 UNL     1       0.369  24.122   4.048  1.00  0.00     0.000 C 
HETATM   36  C13 UNL     1       0.772  22.810   3.391  1.00  0.00     0.000 C 
HETATM   37  C14 UNL     1       2.248  22.794   3.051  1.00  0.00     0.007 C 
ENDBRANCH  31  32
ENDBRANCH  30  31
ENDBRANCH   6  30
TORSDOF 6
ENDMDL
MODEL 2
REMARK VINA RESULT: -6.817592877      0.776      1.169
REMARK  6 active torsions:
REMARK  status: ('A' for Active; 'I' for Inactive)
REMARK    1  A    between atoms: O1_2  and  C2_3 
REMARK    2  A    between atoms: C7_8  and  O2_9 
REMARK    3  A    between atoms: O2_9  and  C8_10 
REMARK    4  A    between atoms: C8_10  and  C9_11 
REMARK    5  A    between atoms: C19_23  and  C20_24 
REMARK    6  A    between atoms: N2_28  and  C22_30 
ROOT
HETATM    1  C2  UNL     1       2.956  19.188   0.198  1.00  0.00     0.104 A 
HETATM    2  C3  UNL     1       2.472  18.194  -0.635  1.00  0.00     0.054 A 
HETATM    3  C4  UNL     1       1.851  18.621  -1.820  1.00  0.00     0.007 A 
HETATM    4  C5  UNL     1       1.778  19.949  -2.055  1.00  0.00     0.016 A 
HETATM    5  C6  UNL     1       2.234  20.954  -1.277  1.00  0.00     0.077 A 
HETATM    6  C7  UNL     1       2.856  20.550  -0.084  1.00  0.00     0.129 A 
HETATM    7  N1  UNL     1       1.904  22.131  -1.967  1.00  0.00    -0.374 N 
ATOM      8  H1  UNL     1       2.109  23.070  -1.626  1.00  0.00     0.161 HD
HETATM    9  C15 UNL     1       1.220  21.841  -3.251  1.00  0.00     0.052 A 
HETATM   10  C16 UNL     1       2.035  22.286  -4.406  1.00  0.00     0.043 C 
HETATM   11  C17 UNL     1      -0.149  22.422  -3.173  1.00  0.00     0.043 C 
HETATM   12  C18 UNL     1       1.147  20.336  -3.276  1.00  0.00     0.002 A 
HETATM   13  C19 UNL     1       0.790  19.207  -3.861  1.00  0.00     0.077 A 
HETATM   14  C21 UNL     1       1.204  18.047  -2.986  1.00  0.00     0.057 A 
HETATM   15  N2  UNL     1       0.936  16.857  -3.251  1.00  0.00    -0.384 N 
ATOM     16  H2  UNL     1       0.477  16.714  -4.150  1.00  0.00     0.160 HD
ENDROOT
BRANCH  13  17
HETATM   17  C20 UNL     1       0.114  19.081  -5.123  1.00  0.00     0.212 C 
HETATM   18  O3  UNL     1      -0.703  19.915  -5.569  1.00  0.00    -0.644 OA
HETATM   19  O4  UNL     1       0.355  17.964  -5.951  1.00  0.00    -0.644 OA
ENDBRANCH  13  17
BRANCH  15  20
HETATM   20  C22 UNL     1       1.162  15.687  -2.518  1.00  0.00     0.082 C 
HETATM   21  C23 UNL     1       2.481  15.018  -2.680  1.00  0.00     0.031 C 
HETATM   22  C24 UNL     1       2.667  14.189  -3.908  1.00  0.00     0.081 C 
HETATM   23  C25 UNL     1       1.477  13.305  -4.135  1.00  0.00     0.243 C 
HETATM   24  F1  UNL     1       0.764  13.849  -5.219  1.00  0.00    -0.206 F 
HETATM   25  F2  UNL     1       1.887  12.038  -4.460  1.00  0.00    -0.206 F 
HETATM   26  C26 UNL     1       0.539  13.336  -2.940  1.00  0.00     0.081 C 
HETATM   27  C27 UNL     1      -0.023  14.734  -2.784  1.00  0.00     0.031 C 
ENDBRANCH  15  20
BRANCH   1  28
HETATM   28  O1  UNL     1       3.590  18.885   1.385  1.00  0.00    -0.353 OA
HETATM   29  C1  UNL     1       4.910  18.397   1.395  1.00  0.00     0.210 C 
ENDBRANCH   1  28
BRANCH   6  30
HETATM   30  O2  UNL     1       3.322  21.540   0.726  1.00  0.00    -0.346 OA
BRANCH  30  31
HETATM   31  C8  UNL     1       2.934  21.682   2.086  1.00  0.00     0.180 C 
BRANCH  31  32
HETATM   32  C9  UNL     1       1.694  22.553   2.108  1.00  0.00     0.010 C 
HETATM   33  C10 UNL     1       1.441  23.094   3.509  1.00  0.00     0.007 C 
HETATM   34  C11 UNL     1       0.778  24.442   3.389  1.00  0.00     0.000 C 
HETATM   35  C12 UNL     1       1.853  25.439   2.979  1.00  0.00     0.000 C 
HETATM   36  C13 UNL     1       2.618  24.848   1.805  1.00  0.00     0.000 C 
HETATM   37  C14 UNL     1       1.840  23.728   1.147  1.00  0.00     0.007 C 
ENDBRANCH  31  32
ENDBRANCH  30  31
ENDBRANCH   6  30
TORSDOF 6
ENDMDL
MODEL 3
REMARK VINA RESULT: -6.776154078      6.666      9.209
REMARK  6 active torsions:
REMARK  status: ('A' for Active; 'I' for Inactive)
REMARK    1  A    between atoms: O1_2  and  C2_3 
REMARK    2  A    between atoms: C7_8  and  O2_9 
REMARK    3  A    between atoms: O2_9  and  C8_10 
REMARK    4  A    between atoms: C8_10  and  C9_11 
REMARK    5  A    between atoms: C19_23  and  C20_24 
REMARK    6  A    between atoms: N2_28  and  C22_30 
ROOT
HETATM    1  C2  UNL     1       1.632  19.420   5.666  1.00  0.00     0.104 A 
HETATM    2  C3  UNL     1       2.342  18.444   6.346  1.00  0.00     0.054 A 
HETATM    3  C4  UNL     1       3.681  18.267   5.963  1.00  0.00     0.007 A 
HETATM    4  C5  UNL     1       4.169  19.051   4.977  1.00  0.00     0.016 A 
HETATM    5  C6  UNL     1       3.519  20.013   4.287  1.00  0.00     0.077 A 
HETATM    6  C7  UNL     1       2.176  20.206   4.652  1.00  0.00     0.129 A 
HETATM    7  N1  UNL     1       4.465  20.518   3.382  1.00  0.00    -0.374 N 
ATOM      8  H1  UNL     1       4.273  21.257   2.705  1.00  0.00     0.161 HD
HETATM    9  C15 UNL     1       5.779  19.843   3.528  1.00  0.00     0.052 A 
HETATM   10  C16 UNL     1       6.822  20.792   3.985  1.00  0.00     0.043 C 
HETATM   11  C17 UNL     1       6.070  19.142   2.247  1.00  0.00     0.043 C 
HETATM   12  C18 UNL     1       5.537  18.841   4.627  1.00  0.00     0.002 A 
HETATM   13  C19 UNL     1       5.958  17.872   5.420  1.00  0.00     0.077 A 
HETATM   14  C21 UNL     1       4.820  17.438   6.314  1.00  0.00     0.057 A 
HETATM   15  N2  UNL     1       4.905  16.491   7.122  1.00  0.00    -0.384 N 
ATOM     16  H2  UNL     1       5.832  16.072   7.191  1.00  0.00     0.160 HD
ENDROOT
BRANCH  13  17
HETATM   17  C20 UNL     1       7.279  17.307   5.442  1.00  0.00     0.212 C 
HETATM   18  O3  UNL     1       8.140  17.501   4.557  1.00  0.00    -0.644 OA
HETATM   19  O4  UNL     1       7.679  16.475   6.509  1.00  0.00    -0.644 OA
ENDBRANCH  13  17
BRANCH  15  20
HETATM   20  C22 UNL     1       3.937  15.909   7.948  1.00  0.00     0.082 C 
HETATM   21  C23 UNL     1       4.107  16.062   9.418  1.00  0.00     0.031 C 
HETATM   22  C24 UNL     1       5.098  15.159  10.078  1.00  0.00     0.081 C 
HETATM   23  C25 UNL     1       4.924  13.747   9.604  1.00  0.00     0.243 C 
HETATM   24  F1  UNL     1       6.000  13.470   8.741  1.00  0.00    -0.206 F 
HETATM   25  F2  UNL     1       4.971  12.885  10.669  1.00  0.00    -0.206 F 
HETATM   26  C26 UNL     1       3.657  13.600   8.778  1.00  0.00     0.081 C 
HETATM   27  C27 UNL     1       3.785  14.433   7.519  1.00  0.00     0.031 C 
ENDBRANCH  15  20
BRANCH   1  28
HETATM   28  O1  UNL     1       0.311  19.685   5.962  1.00  0.00    -0.353 OA
HETATM   29  C1  UNL     1      -0.037  20.415   7.115  1.00  0.00     0.210 C 
ENDBRANCH   1  28
BRANCH   6  30
HETATM   30  O2  UNL     1       1.492  21.166   3.970  1.00  0.00    -0.346 OA
BRANCH  30  31
HETATM   31  C8  UNL     1       1.461  22.531   4.366  1.00  0.00     0.180 C 
BRANCH  31  32
HETATM   32  C9  UNL     1       1.066  23.341   3.147  1.00  0.00     0.010 C 
HETATM   33  C10 UNL     1       1.616  24.757   3.241  1.00  0.00     0.007 C 
HETATM   34  C11 UNL     1       1.894  25.257   1.847  1.00  0.00     0.000 C 
HETATM   35  C12 UNL     1       3.170  24.577   1.369  1.00  0.00     0.000 C 
HETATM   36  C13 UNL     1       3.039  23.086   1.645  1.00  0.00     0.000 C 
HETATM   37  C14 UNL     1       1.594  22.692   1.871  1.00  0.00     0.007 C 
ENDBRANCH  31  32
ENDBRANCH  30  31
ENDBRANCH   6  30
TORSDOF 6
ENDMDL
MODEL 4
REMARK VINA RESULT: -6.719875263      4.327      7.661
REMARK  6 active torsions:
REMARK  status: ('A' for Active; 'I' for Inactive)
REMARK    1  A    between atoms: O1_2  and  C2_3 
REMARK    2  A    between atoms: C7_8  and  O2_9 
REMARK    3  A    between atoms: O2_9  and  C8_10 
REMARK    4  A    between atoms: C8_10  and  C9_11 
REMARK    5  A    between atoms: C19_23  and  C20_24 
REMARK    6  A    between atoms: N2_28  and  C22_30 
ROOT
HETATM    1  C2  UNL     1       2.978  22.414   0.721  1.00  0.00     0.104 A 
HETATM    2  C3  UNL     1       3.812  21.704   1.568  1.00  0.00     0.054 A 
HETATM    3  C4  UNL     1       3.871  20.316   1.367  1.00  0.00     0.007 A 
HETATM    4  C5  UNL     1       3.122  19.787   0.374  1.00  0.00     0.016 A 
HETATM    5  C6  UNL     1       2.297  20.434  -0.475  1.00  0.00     0.077 A 
HETATM    6  C7  UNL     1       2.220  21.825  -0.290  1.00  0.00     0.129 A 
HETATM    7  N1  UNL     1       1.760  19.434  -1.300  1.00  0.00    -0.374 N 
ATOM      8  H1  UNL     1       1.086  19.607  -2.046  1.00  0.00     0.161 HD
HETATM    9  C15 UNL     1       2.294  18.093  -0.954  1.00  0.00     0.052 A 
HETATM   10  C16 UNL     1       3.094  17.530  -2.067  1.00  0.00     0.043 C 
HETATM   11  C17 UNL     1       1.148  17.255  -0.504  1.00  0.00     0.043 C 
HETATM   12  C18 UNL     1       3.220  18.373   0.201  1.00  0.00     0.002 A 
HETATM   13  C19 UNL     1       4.069  17.963   1.125  1.00  0.00     0.077 A 
HETATM   14  C21 UNL     1       4.537  19.155   1.928  1.00  0.00     0.057 A 
HETATM   15  N2  UNL     1       5.294  19.063   2.916  1.00  0.00    -0.384 N 
ATOM     16  H2  UNL     1       5.639  18.122   3.101  1.00  0.00     0.160 HD
ENDROOT
BRANCH  13  17
HETATM   17  C20 UNL     1       4.492  16.608   1.350  1.00  0.00     0.212 C 
HETATM   18  O3  UNL     1       3.775  15.605   1.140  1.00  0.00    -0.644 OA
HETATM   19  O4  UNL     1       5.788  16.337   1.836  1.00  0.00    -0.644 OA
ENDBRANCH  13  17
BRANCH  15  20
HETATM   20  C22 UNL     1       5.745  20.039   3.811  1.00  0.00     0.082 C 
HETATM   21  C23 UNL     1       6.596  21.131   3.266  1.00  0.00     0.031 C 
HETATM   22  C24 UNL     1       8.033  20.804   3.021  1.00  0.00     0.081 C 
HETATM   23  C25 UNL     1       8.616  20.073   4.193  1.00  0.00     0.243 C 
HETATM   24  F1  UNL     1       8.765  18.729   3.804  1.00  0.00    -0.206 F 
HETATM   25  F2  UNL     1       9.848  20.587   4.503  1.00  0.00    -0.206 F 
HETATM   26  C26 UNL     1       7.658  20.079   5.372  1.00  0.00     0.081 C 
HETATM   27  C27 UNL     1       6.407  19.309   5.001  1.00  0.00     0.031 C 
ENDBRANCH  15  20
BRANCH   1  28
HETATM   28  O1  UNL     1       2.847  23.783   0.823  1.00  0.00    -0.353 OA
HETATM   29  C1  UNL     1       2.180  24.365   1.919  1.00  0.00     0.210 C 
ENDBRANCH   1  28
BRANCH   6  30
HETATM   30  O2  UNL     1       1.391  22.507  -1.128  1.00  0.00    -0.346 OA
BRANCH  30  31
HETATM   31  C8  UNL     1       0.141  21.997  -1.572  1.00  0.00     0.180 C 
BRANCH  31  32
HETATM   32  C9  UNL     1       0.019  22.333  -3.045  1.00  0.00     0.010 C 
HETATM   33  C10 UNL     1       1.338  22.086  -3.765  1.00  0.00     0.007 C 
HETATM   34  C11 UNL     1       1.040  21.683  -5.186  1.00  0.00     0.000 C 
HETATM   35  C12 UNL     1       0.555  20.240  -5.154  1.00  0.00     0.000 C 
HETATM   36  C13 UNL     1      -0.515  20.128  -4.079  1.00  0.00     0.000 C 
HETATM   37  C14 UNL     1      -1.066  21.489  -3.706  1.00  0.00     0.007 C 
ENDBRANCH  31  32
ENDBRANCH  30  31
ENDBRANCH   6  30
TORSDOF 6
ENDMDL
MODEL 5
REMARK VINA RESULT: -6.711673230      6.468      9.207
REMARK  6 active torsions:
REMARK  status: ('A' for Active; 'I' for Inactive)
REMARK    1  A    between atoms: O1_2  and  C2_3 
REMARK    2  A    between atoms: C7_8  and  O2_9 
REMARK    3  A    between atoms: O2_9  and  C8_10 
REMARK    4  A    between atoms: C8_10  and  C9_11 
REMARK    5  A    between atoms: C19_23  and  C20_24 
REMARK    6  A    between atoms: N2_28  and  C22_30 
ROOT
HETATM    1  C2  UNL     1       3.553  19.035   4.239  1.00  0.00     0.104 A 
HETATM    2  C3  UNL     1       2.658  19.714   5.050  1.00  0.00     0.054 A 
HETATM    3  C4  UNL     1       2.183  20.941   4.562  1.00  0.00     0.007 A 
HETATM    4  C5  UNL     1       2.625  21.359   3.356  1.00  0.00     0.016 A 
HETATM    5  C6  UNL     1       3.493  20.736   2.531  1.00  0.00     0.077 A 
HETATM    6  C7  UNL     1       3.985  19.507   3.000  1.00  0.00     0.129 A 
HETATM    7  N1  UNL     1       3.619  21.585   1.421  1.00  0.00    -0.374 N 
ATOM      8  H1  UNL     1       4.221  21.395   0.619  1.00  0.00     0.161 HD
HETATM    9  C15 UNL     1       2.770  22.795   1.556  1.00  0.00     0.052 A 
HETATM   10  C16 UNL     1       1.716  22.831   0.515  1.00  0.00     0.043 C 
HETATM   11  C17 UNL     1       3.675  23.978   1.590  1.00  0.00     0.043 C 
HETATM   12  C18 UNL     1       2.107  22.608   2.896  1.00  0.00     0.002 A 
HETATM   13  C19 UNL     1       1.293  23.024   3.850  1.00  0.00     0.077 A 
HETATM   14  C21 UNL     1       1.284  22.007   4.967  1.00  0.00     0.057 A 
HETATM   15  N2  UNL     1       0.656  22.165   6.034  1.00  0.00    -0.384 N 
ATOM     16  H2  UNL     1       0.081  23.006   6.069  1.00  0.00     0.160 HD
ENDROOT
BRANCH  13  17
HETATM   17  C20 UNL     1       0.531  24.242   3.845  1.00  0.00     0.212 C 
HETATM   18  O3  UNL     1      -0.577  24.379   4.407  1.00  0.00    -0.644 OA
HETATM   19  O4  UNL     1       1.021  25.386   3.179  1.00  0.00    -0.644 OA
ENDBRANCH  13  17
BRANCH  15  20
HETATM   20  C22 UNL     1       0.612  21.378   7.190  1.00  0.00     0.082 C 
HETATM   21  C23 UNL     1      -0.315  20.214   7.195  1.00  0.00     0.031 C 
HETATM   22  C24 UNL     1      -1.760  20.507   7.435  1.00  0.00     0.081 C 
HETATM   23  C25 UNL     1      -1.924  21.451   8.588  1.00  0.00     0.243 C 
HETATM   24  F1  UNL     1      -2.277  22.701   8.048  1.00  0.00    -0.206 F 
HETATM   25  F2  UNL     1      -2.931  21.018   9.411  1.00  0.00    -0.206 F 
HETATM   26  C26 UNL     1      -0.607  21.652   9.320  1.00  0.00     0.081 C 
HETATM   27  C27 UNL     1       0.382  22.324   8.389  1.00  0.00     0.031 C 
ENDBRANCH  15  20
BRANCH   1  28
HETATM   28  O1  UNL     1       4.081  17.817   4.614  1.00  0.00    -0.353 OA
HETATM   29  C1  UNL     1       4.529  17.599   5.931  1.00  0.00     0.210 C 
ENDBRANCH   1  28
BRANCH   6  30
HETATM   30  O2  UNL     1       4.868  18.856   2.193  1.00  0.00    -0.346 OA
BRANCH  30  31
HETATM   31  C8  UNL     1       6.250  19.182   2.128  1.00  0.00     0.180 C 
BRANCH  31  32
HETATM   32  C9  UNL     1       6.625  19.809   3.455  1.00  0.00     0.010 C 
HETATM   33  C10 UNL     1       7.578  18.907   4.227  1.00  0.00     0.007 C 
HETATM   34  C11 UNL     1       8.484  19.772   5.065  1.00  0.00     0.000 C 
HETATM   35  C12 UNL     1       9.510  20.392   4.126  1.00  0.00     0.000 C 
HETATM   36  C13 UNL     1       8.764  20.979   2.937  1.00  0.00     0.000 C 
HETATM   37  C14 UNL     1       7.293  21.164   3.246  1.00  0.00     0.007 C 
ENDBRANCH  31  32
ENDBRANCH  30  31
ENDBRANCH   6  30
TORSDOF 6
ENDMDL
