MODEL 1
REMARK VINA RESULT: -5.698499461      0.000      0.000
REMARK  5 active torsions:
REMARK  status: ('A' for Active; 'I' for Inactive)
REMARK    1  A    between atoms: C4_9  and  C5_10 
REMARK    2  A    between atoms: C7_14  and  C8_15 
REMARK    3  A    between atoms: C11_18  and  C12_19 
REMARK    4  A    between atoms: C18_25  and  C19_26 
REMARK       I    between atoms: C19_26  and  N3_28 
REMARK    5  A    between atoms: N3_28  and  N4_30 
ROOT
HETATM    1  C1  UNL     1      -2.921  21.153  -1.831  1.00  0.00     0.064 C 
HETATM    2  C2  UNL     1      -1.435  20.907  -2.032  1.00  0.00     0.001 C 
HETATM    3  N1  UNL     1      -0.905  21.227  -3.165  1.00  0.00    -0.340 N 
ATOM      4  H1  UNL     1      -1.499  21.621  -3.893  1.00  0.00     0.167 HD
HETATM    5  C3  UNL     1       0.484  21.048  -3.434  1.00  0.00     0.172 C 
HETATM    6  S1  UNL     1       1.211  21.387  -4.826  1.00  0.00    -0.041 SA
HETATM    7  N2  UNL     1       1.220  20.506  -2.334  1.00  0.00    -0.357 N 
ATOM      8  H2  UNL     1       2.009  19.874  -2.472  1.00  0.00     0.162 HD
HETATM    9  C4  UNL     1       0.763  20.923  -0.965  1.00  0.00     0.143 C 
HETATM   10  C18 UNL     1      -0.622  20.245  -1.013  1.00  0.00     0.152 C 
ENDROOT
BRANCH   9  11
HETATM   11  C5  UNL     1       1.595  20.294   0.042  1.00  0.00     0.019 A 
HETATM   12  S2  UNL     1       1.995  18.660  -0.062  1.00  0.00    -0.079 SA
HETATM   13  C6  UNL     1       2.950  18.510   1.339  1.00  0.00     0.086 A 
HETATM   14 CL1  UNL     1       3.754  17.011   1.854  1.00  0.00    -0.075 Cl
HETATM   15  C7  UNL     1       2.948  19.773   1.882  1.00  0.00     0.006 A 
HETATM   16  C11 UNL     1       2.228  20.726   1.206  1.00  0.00    -0.006 A 
BRANCH  15  17
HETATM   17  C8  UNL     1       3.701  19.977   3.165  1.00  0.00    -0.074 C 
HETATM   18  C9  UNL     1       5.189  20.072   2.990  1.00  0.00     0.044 C 
HETATM   19  C10 UNL     1       3.195  19.390   4.400  1.00  0.00     0.044 C 
ENDBRANCH  15  17
BRANCH  16  20
HETATM   20  C12 UNL     1       2.040  22.134   1.655  1.00  0.00    -0.068 C 
HETATM   21  C13 UNL     1       3.319  22.944   1.394  1.00  0.00     0.035 C 
HETATM   22  C14 UNL     1       2.978  24.387   1.177  1.00  0.00     0.004 C 
HETATM   23  C15 UNL     1       1.645  24.747   1.752  1.00  0.00     0.001 C 
HETATM   24  C16 UNL     1       1.279  24.002   2.976  1.00  0.00     0.004 C 
HETATM   25  C17 UNL     1       1.271  22.465   2.822  1.00  0.00     0.035 C 
ENDBRANCH  16  20
ENDBRANCH   9  11
BRANCH  10  26
HETATM   26  C19 UNL     1      -1.237  20.082   0.317  1.00  0.00     0.248 C 
HETATM   27  O1  UNL     1      -1.356  21.012   1.113  1.00  0.00    -0.271 OA
HETATM   28  N3  UNL     1      -1.701  18.793   0.664  1.00  0.00    -0.264 N 
ATOM     29  H3  UNL     1      -1.570  18.055  -0.027  1.00  0.00     0.190 HD
BRANCH  28  30
HETATM   30  N4  UNL     1      -2.321  18.433   1.863  1.00  0.00    -0.280 N 
HETATM   31  C20 UNL     1      -1.447  17.811   2.770  1.00  0.00     0.114 C 
HETATM   32  C21 UNL     1      -2.145  17.058   3.860  1.00  0.00     0.214 C 
HETATM   33  O2  UNL     1      -3.258  16.377   3.318  1.00  0.00    -0.381 OA
HETATM   34  C22 UNL     1      -4.186  17.366   2.990  1.00  0.00     0.214 C 
HETATM   35  C23 UNL     1      -3.687  18.162   1.811  1.00  0.00     0.114 C 
ENDBRANCH  28  30
ENDBRANCH  10  26
TORSDOF 5
ENDMDL
MODEL 2
REMARK VINA RESULT: -5.691929157      0.799      1.150
REMARK  5 active torsions:
REMARK  status: ('A' for Active; 'I' for Inactive)
REMARK    1  A    between atoms: C4_9  and  C5_10 
REMARK    2  A    between atoms: C7_14  and  C8_15 
REMARK    3  A    between atoms: C11_18  and  C12_19 
REMARK    4  A    between atoms: C18_25  and  C19_26 
REMARK       I    between atoms: C19_26  and  N3_28 
REMARK    5  A    between atoms: N3_28  and  N4_30 
ROOT
HETATM    1  C1  UNL     1      -2.928  21.369  -1.913  1.00  0.00     0.064 C 
HETATM    2  C2  UNL     1      -1.451  21.055  -2.081  1.00  0.00     0.001 C 
HETATM    3  N1  UNL     1      -0.884  21.338  -3.206  1.00  0.00    -0.340 N 
ATOM      4  H1  UNL     1      -1.446  21.750  -3.951  1.00  0.00     0.167 HD
HETATM    5  C3  UNL     1       0.500  21.095  -3.445  1.00  0.00     0.172 C 
HETATM    6  S1  UNL     1       1.269  21.385  -4.825  1.00  0.00    -0.041 SA
HETATM    7  N2  UNL     1       1.190  20.534  -2.325  1.00  0.00    -0.357 N 
ATOM      8  H2  UNL     1       1.952  19.866  -2.439  1.00  0.00     0.162 HD
HETATM    9  C4  UNL     1       0.725  20.986  -0.969  1.00  0.00     0.143 C 
HETATM   10  C18 UNL     1      -0.688  20.370  -1.039  1.00  0.00     0.152 C 
ENDROOT
BRANCH   9  11
HETATM   11  C5  UNL     1       1.507  20.333   0.061  1.00  0.00     0.019 A 
HETATM   12  S2  UNL     1       1.851  18.686  -0.027  1.00  0.00    -0.079 SA
HETATM   13  C6  UNL     1       2.765  18.508   1.399  1.00  0.00     0.086 A 
HETATM   14 CL1  UNL     1       3.501  16.984   1.939  1.00  0.00    -0.075 Cl
HETATM   15  C7  UNL     1       2.793  19.773   1.937  1.00  0.00     0.006 A 
HETATM   16  C11 UNL     1       2.125  20.747   1.239  1.00  0.00    -0.006 A 
BRANCH  15  17
HETATM   17  C8  UNL     1       3.520  19.955   3.238  1.00  0.00    -0.074 C 
HETATM   18  C9  UNL     1       5.013  20.032   3.097  1.00  0.00     0.044 C 
HETATM   19  C10 UNL     1       2.979  19.364   4.456  1.00  0.00     0.044 C 
ENDBRANCH  15  17
BRANCH  16  20
HETATM   20  C12 UNL     1       1.975  22.163   1.679  1.00  0.00    -0.068 C 
HETATM   21  C13 UNL     1       3.273  22.939   1.402  1.00  0.00     0.035 C 
HETATM   22  C14 UNL     1       2.966  24.388   1.176  1.00  0.00     0.004 C 
HETATM   23  C15 UNL     1       1.647  24.786   1.757  1.00  0.00     0.001 C 
HETATM   24  C16 UNL     1       1.271  24.060   2.990  1.00  0.00     0.004 C 
HETATM   25  C17 UNL     1       1.223  22.523   2.848  1.00  0.00     0.035 C 
ENDBRANCH  16  20
ENDBRANCH   9  11
BRANCH  10  26
HETATM   26  C19 UNL     1      -1.336  20.250   0.281  1.00  0.00     0.248 C 
HETATM   27  O1  UNL     1      -1.383  21.179   1.085  1.00  0.00    -0.271 OA
HETATM   28  N3  UNL     1      -1.919  19.005   0.606  1.00  0.00    -0.264 N 
ATOM     29  H3  UNL     1      -1.845  18.264  -0.092  1.00  0.00     0.190 HD
BRANCH  28  30
HETATM   30  N4  UNL     1      -2.588  18.690   1.791  1.00  0.00    -0.280 N 
HETATM   31  C20 UNL     1      -3.902  19.187   1.830  1.00  0.00     0.114 C 
HETATM   32  C21 UNL     1      -4.489  19.233   3.208  1.00  0.00     0.214 C 
HETATM   33  O2  UNL     1      -3.503  19.670   4.121  1.00  0.00    -0.381 OA
HETATM   34  C22 UNL     1      -2.584  18.624   4.217  1.00  0.00     0.214 C 
HETATM   35  C23 UNL     1      -1.807  18.511   2.930  1.00  0.00     0.114 C 
ENDBRANCH  28  30
ENDBRANCH  10  26
TORSDOF 5
ENDMDL
MODEL 3
REMARK VINA RESULT: -5.540959666      3.491      6.468
REMARK  5 active torsions:
REMARK  status: ('A' for Active; 'I' for Inactive)
REMARK    1  A    between atoms: C4_9  and  C5_10 
REMARK    2  A    between atoms: C7_14  and  C8_15 
REMARK    3  A    between atoms: C11_18  and  C12_19 
REMARK    4  A    between atoms: C18_25  and  C19_26 
REMARK       I    between atoms: C19_26  and  N3_28 
REMARK    5  A    between atoms: N3_28  and  N4_30 
ROOT
HETATM    1  C1  UNL     1       2.493  25.011   1.700  1.00  0.00     0.064 C 
HETATM    2  C2  UNL     1       1.529  24.105   2.447  1.00  0.00     0.001 C 
HETATM    3  N1  UNL     1       0.675  24.643   3.254  1.00  0.00    -0.340 N 
ATOM      4  H1  UNL     1       0.683  25.655   3.374  1.00  0.00     0.167 HD
HETATM    5  C3  UNL     1      -0.278  23.871   3.981  1.00  0.00     0.172 C 
HETATM    6  S1  UNL     1      -1.345  24.461   5.027  1.00  0.00    -0.041 SA
HETATM    7  N2  UNL     1      -0.207  22.468   3.717  1.00  0.00    -0.357 N 
ATOM      8  H2  UNL     1      -0.400  21.773   4.438  1.00  0.00     0.162 HD
HETATM    9  C4  UNL     1       0.169  22.078   2.316  1.00  0.00     0.143 C 
HETATM   10  C18 UNL     1       1.603  22.648   2.339  1.00  0.00     0.152 C 
ENDROOT
BRANCH   9  11
HETATM   11  C5  UNL     1       0.206  20.633   2.202  1.00  0.00     0.019 A 
HETATM   12  S2  UNL     1       0.585  19.669   3.531  1.00  0.00    -0.079 SA
HETATM   13  C6  UNL     1       0.469  18.131   2.811  1.00  0.00     0.086 A 
HETATM   14 CL1  UNL     1       0.720  16.596   3.670  1.00  0.00    -0.075 Cl
HETATM   15  C7  UNL     1       0.121  18.397   1.508  1.00  0.00     0.006 A 
HETATM   16  C11 UNL     1      -0.015  19.721   1.172  1.00  0.00    -0.006 A 
BRANCH  15  17
HETATM   17  C8  UNL     1      -0.043  17.227   0.581  1.00  0.00    -0.074 C 
HETATM   18  C9  UNL     1      -1.323  16.467   0.781  1.00  0.00     0.044 C 
HETATM   19  C10 UNL     1       1.131  16.483   0.143  1.00  0.00     0.044 C 
ENDBRANCH  15  17
BRANCH  16  20
HETATM   20  C12 UNL     1      -0.319  20.229  -0.195  1.00  0.00    -0.068 C 
HETATM   21  C13 UNL     1      -1.828  20.129  -0.469  1.00  0.00     0.035 C 
HETATM   22  C14 UNL     1      -2.244  21.188  -1.445  1.00  0.00     0.004 C 
HETATM   23  C15 UNL     1      -1.094  21.695  -2.256  1.00  0.00     0.001 C 
HETATM   24  C16 UNL     1      -0.051  20.688  -2.547  1.00  0.00     0.004 C 
HETATM   25  C17 UNL     1       0.572  20.019  -1.302  1.00  0.00     0.035 C 
ENDBRANCH  16  20
ENDBRANCH   9  11
BRANCH  10  26
HETATM   26  C19 UNL     1       2.461  22.110   1.267  1.00  0.00     0.248 C 
HETATM   27  O1  UNL     1       2.329  22.430   0.087  1.00  0.00    -0.271 OA
HETATM   28  N3  UNL     1       3.468  21.194   1.642  1.00  0.00    -0.264 N 
ATOM     29  H3  UNL     1       3.530  20.955   2.631  1.00  0.00     0.190 HD
BRANCH  28  30
HETATM   30  N4  UNL     1       4.388  20.582   0.787  1.00  0.00    -0.280 N 
HETATM   31  C20 UNL     1       3.983  19.305   0.363  1.00  0.00     0.114 C 
HETATM   32  C21 UNL     1       5.096  18.473  -0.196  1.00  0.00     0.214 C 
HETATM   33  O2  UNL     1       6.258  18.662   0.586  1.00  0.00    -0.381 OA
HETATM   34  C22 UNL     1       6.688  19.962   0.321  1.00  0.00     0.214 C 
HETATM   35  C23 UNL     1       5.725  20.950   0.929  1.00  0.00     0.114 C 
ENDBRANCH  28  30
ENDBRANCH  10  26
TORSDOF 5
ENDMDL
MODEL 4
REMARK VINA RESULT: -5.533334078      1.099      1.247
REMARK  5 active torsions:
REMARK  status: ('A' for Active; 'I' for Inactive)
REMARK    1  A    between atoms: C4_9  and  C5_10 
REMARK    2  A    between atoms: C7_14  and  C8_15 
REMARK    3  A    between atoms: C11_18  and  C12_19 
REMARK    4  A    between atoms: C18_25  and  C19_26 
REMARK       I    between atoms: C19_26  and  N3_28 
REMARK    5  A    between atoms: N3_28  and  N4_30 
ROOT
HETATM    1  C1  UNL     1      -2.908  20.860  -0.864  1.00  0.00     0.064 C 
HETATM    2  C2  UNL     1      -1.465  20.760  -1.331  1.00  0.00     0.001 C 
HETATM    3  N1  UNL     1      -1.188  21.082  -2.550  1.00  0.00    -0.340 N 
ATOM      4  H1  UNL     1      -1.944  21.381  -3.165  1.00  0.00     0.167 HD
HETATM    5  C3  UNL     1       0.140  21.035  -3.067  1.00  0.00     0.172 C 
HETATM    6  S1  UNL     1       0.560  21.385  -4.578  1.00  0.00    -0.041 SA
HETATM    7  N2  UNL     1       1.119  20.621  -2.111  1.00  0.00    -0.357 N 
ATOM      8  H2  UNL     1       1.933  20.068  -2.377  1.00  0.00     0.162 HD
HETATM    9  C4  UNL     1       0.876  21.048  -0.691  1.00  0.00     0.143 C 
HETATM   10  C18 UNL     1      -0.413  20.230  -0.465  1.00  0.00     0.152 C 
ENDROOT
BRANCH   9  11
HETATM   11  C5  UNL     1       1.941  20.553   0.159  1.00  0.00     0.019 A 
HETATM   12  S2  UNL     1       2.674  19.068  -0.149  1.00  0.00    -0.079 SA
HETATM   13  C6  UNL     1       3.801  19.036   1.127  1.00  0.00     0.086 A 
HETATM   14 CL1  UNL     1       4.970  17.728   1.406  1.00  0.00    -0.075 Cl
HETATM   15  C7  UNL     1       3.586  20.220   1.793  1.00  0.00     0.006 A 
HETATM   16  C11 UNL     1       2.598  21.030   1.291  1.00  0.00    -0.006 A 
BRANCH  15  17
HETATM   17  C8  UNL     1       4.425  20.494   3.008  1.00  0.00    -0.074 C 
HETATM   18  C9  UNL     1       5.799  21.013   2.696  1.00  0.00     0.044 C 
HETATM   19  C10 UNL     1       4.261  19.670   4.199  1.00  0.00     0.044 C 
ENDBRANCH  15  17
BRANCH  16  20
HETATM   20  C12 UNL     1       2.160  22.319   1.897  1.00  0.00    -0.068 C 
HETATM   21  C13 UNL     1       3.146  23.437   1.522  1.00  0.00     0.035 C 
HETATM   22  C14 UNL     1       2.440  24.758   1.499  1.00  0.00     0.004 C 
HETATM   23  C15 UNL     1       1.179  24.741   2.302  1.00  0.00     0.001 C 
HETATM   24  C16 UNL     1       1.215  23.862   3.491  1.00  0.00     0.004 C 
HETATM   25  C17 UNL     1       1.546  22.382   3.194  1.00  0.00     0.035 C 
ENDBRANCH  16  20
ENDBRANCH   9  11
BRANCH  10  26
HETATM   26  C19 UNL     1      -0.754  20.064   0.960  1.00  0.00     0.248 C 
HETATM   27  O1  UNL     1      -1.117  21.000   1.671  1.00  0.00    -0.271 OA
HETATM   28  N3  UNL     1      -0.651  18.764   1.504  1.00  0.00    -0.264 N 
ATOM     29  H3  UNL     1      -0.336  18.025   0.876  1.00  0.00     0.190 HD
BRANCH  28  30
HETATM   30  N4  UNL     1      -0.939  18.394   2.820  1.00  0.00    -0.280 N 
HETATM   31  C20 UNL     1       0.183  18.447   3.665  1.00  0.00     0.114 C 
HETATM   32  C21 UNL     1       0.014  17.680   4.941  1.00  0.00     0.214 C 
HETATM   33  O2  UNL     1      -0.654  16.464   4.669  1.00  0.00    -0.381 OA
HETATM   34  C22 UNL     1      -1.966  16.815   4.350  1.00  0.00     0.214 C 
HETATM   35  C23 UNL     1      -1.996  17.507   3.010  1.00  0.00     0.114 C 
ENDBRANCH  28  30
ENDBRANCH  10  26
TORSDOF 5
ENDMDL
MODEL 5
REMARK VINA RESULT: -5.500655066      6.844      9.593
REMARK  5 active torsions:
REMARK  status: ('A' for Active; 'I' for Inactive)
REMARK    1  A    between atoms: C4_9  and  C5_10 
REMARK    2  A    between atoms: C7_14  and  C8_15 
REMARK    3  A    between atoms: C11_18  and  C12_19 
REMARK    4  A    between atoms: C18_25  and  C19_26 
REMARK       I    between atoms: C19_26  and  N3_28 
REMARK    5  A    between atoms: N3_28  and  N4_30 
ROOT
HETATM    1  C1  UNL     1       8.002  20.307   4.002  1.00  0.00     0.064 C 
HETATM    2  C2  UNL     1       7.050  20.211   2.821  1.00  0.00     0.001 C 
HETATM    3  N1  UNL     1       6.088  21.068   2.733  1.00  0.00    -0.340 N 
ATOM      4  H1  UNL     1       5.988  21.772   3.463  1.00  0.00     0.167 HD
HETATM    5  C3  UNL     1       5.160  21.064   1.650  1.00  0.00     0.172 C 
HETATM    6  S1  UNL     1       3.919  22.071   1.488  1.00  0.00    -0.041 SA
HETATM    7  N2  UNL     1       5.410  20.045   0.679  1.00  0.00    -0.357 N 
ATOM      8  H2  UNL     1       4.654  19.578   0.179  1.00  0.00     0.162 HD
HETATM    9  C4  UNL     1       6.854  19.703   0.438  1.00  0.00     0.143 C 
HETATM   10  C18 UNL     1       7.149  19.131   1.840  1.00  0.00     0.152 C 
ENDROOT
BRANCH   9  11
HETATM   11  C5  UNL     1       6.950  18.658  -0.561  1.00  0.00     0.019 A 
HETATM   12  S2  UNL     1       5.863  17.370  -0.574  1.00  0.00    -0.079 SA
HETATM   13  C6  UNL     1       6.454  16.510  -1.920  1.00  0.00     0.086 A 
HETATM   14 CL1  UNL     1       5.740  15.010  -2.549  1.00  0.00    -0.075 Cl
HETATM   15  C7  UNL     1       7.519  17.264  -2.356  1.00  0.00     0.006 A 
HETATM   16  C11 UNL     1       7.794  18.401  -1.640  1.00  0.00    -0.006 A 
BRANCH  15  17
HETATM   17  C8  UNL     1       8.286  16.756  -3.543  1.00  0.00    -0.074 C 
HETATM   18  C9  UNL     1       7.652  17.084  -4.864  1.00  0.00     0.044 C 
HETATM   19  C10 UNL     1       9.040  15.513  -3.437  1.00  0.00     0.044 C 
ENDBRANCH  15  17
BRANCH  16  20
HETATM   20  C12 UNL     1       8.938  19.319  -1.900  1.00  0.00    -0.068 C 
HETATM   21  C13 UNL     1      10.267  18.591  -1.635  1.00  0.00     0.035 C 
HETATM   22  C14 UNL     1      11.351  19.175  -2.490  1.00  0.00     0.004 C 
HETATM   23  C15 UNL     1      11.024  20.558  -2.955  1.00  0.00     0.001 C 
HETATM   24  C16 UNL     1      10.223  21.357  -2.003  1.00  0.00     0.004 C 
HETATM   25  C17 UNL     1       8.877  20.721  -1.592  1.00  0.00     0.035 C 
ENDBRANCH  16  20
ENDBRANCH   9  11
BRANCH  10  26
HETATM   26  C19 UNL     1       8.372  18.308   1.887  1.00  0.00     0.248 C 
HETATM   27  O1  UNL     1       9.484  18.754   1.612  1.00  0.00    -0.271 OA
HETATM   28  N3  UNL     1       8.229  16.955   2.269  1.00  0.00    -0.264 N 
ATOM     29  H3  UNL     1       7.284  16.632   2.478  1.00  0.00     0.190 HD
BRANCH  28  30
HETATM   30  N4  UNL     1       9.257  16.017   2.388  1.00  0.00    -0.280 N 
HETATM   31  C20 UNL     1       9.492  15.304   1.201  1.00  0.00     0.114 C 
HETATM   32  C21 UNL     1      10.273  14.041   1.400  1.00  0.00     0.214 C 
HETATM   33  O2  UNL     1       9.827  13.397   2.577  1.00  0.00    -0.381 OA
HETATM   34  C22 UNL     1      10.264  14.195   3.635  1.00  0.00     0.214 C 
HETATM   35  C23 UNL     1       9.484  15.485   3.656  1.00  0.00     0.114 C 
ENDBRANCH  28  30
ENDBRANCH  10  26
TORSDOF 5
ENDMDL
