MODEL 1
REMARK VINA RESULT: -6.849302020      0.000      0.000
REMARK  7 active torsions:
REMARK  status: ('A' for Active; 'I' for Inactive)
REMARK       I    between atoms: N1_2  and  C2_4 
REMARK       I    between atoms: C2_4  and  N2_6 
REMARK    1  A    between atoms: N2_6  and  C3_8 
REMARK    2  A    between atoms: C3_8  and  C5_10 
REMARK    3  A    between atoms: C7_14  and  N4_15 
REMARK    4  A    between atoms: C13_21  and  N5_22 
REMARK       I    between atoms: N5_22  and  C14_23 
REMARK    5  A    between atoms: N5_22  and  C19_30 
REMARK    6  A    between atoms: C14_23  and  O3_25 
REMARK    7  A    between atoms: O3_25  and  C15_26 
ROOT
HETATM    1  N4  UNL     1       2.009  22.214   2.727  1.00  0.00    -0.366 N 
HETATM    2  C8  UNL     1       2.099  22.118   1.297  1.00  0.00     0.125 C 
HETATM    3  C9  UNL     1       3.476  21.851   0.794  1.00  0.00     0.029 C 
HETATM    4  C10 UNL     1       4.342  21.019   1.686  1.00  0.00    -0.035 C 
HETATM    5  C11 UNL     1       5.441  21.782   2.351  1.00  0.00     0.012 C 
HETATM    6  C12 UNL     1       6.526  20.779   2.562  1.00  0.00     0.026 C 
HETATM    7  C13 UNL     1       6.306  19.628   1.652  1.00  0.00     0.090 C 
HETATM    8  C22 UNL     1       5.109  20.027   0.833  1.00  0.00     0.035 C 
HETATM    9  C23 UNL     1       3.466  20.283   2.678  1.00  0.00     0.029 C 
HETATM   10  C24 UNL     1       2.753  21.274   3.536  1.00  0.00     0.125 C 
ENDROOT
BRANCH   1  11
HETATM   11  C7  UNL     1       1.187  23.229   3.312  1.00  0.00     0.125 A 
HETATM   12  N3  UNL     1       0.310  22.899   4.305  1.00  0.00    -0.350 N 
HETATM   13  C6  UNL     1      -0.484  23.808   4.876  1.00  0.00     0.099 A 
ATOM     14  H3  UNL     1       0.260  21.930   4.620  1.00  0.00     0.166 HD
HETATM   15  C5  UNL     1      -0.480  25.134   4.514  1.00  0.00    -0.019 A 
HETATM   16  C26 UNL     1       0.398  25.489   3.513  1.00  0.00     0.038 A 
HETATM   17  C25 UNL     1       1.213  24.547   2.929  1.00  0.00     0.078 A 
HETATM   18 CL1  UNL     1       2.312  25.049   1.678  1.00  0.00    -0.080 Cl
BRANCH  15  19
HETATM   19  C3  UNL     1      -1.374  26.156   5.157  1.00  0.00     0.116 C 
HETATM   20  C4  UNL     1      -2.712  26.133   4.491  1.00  0.00     0.037 C 
BRANCH  19  21
HETATM   21  N2  UNL     1      -1.554  25.699   6.543  1.00  0.00    -0.335 N 
HETATM   22  C2  UNL     1      -1.559  26.628   7.611  1.00  0.00     0.316 C 
HETATM   23  N1  UNL     1      -1.733  26.173   8.936  1.00  0.00    -0.347 N 
HETATM   24  O1  UNL     1      -1.412  27.836   7.381  1.00  0.00    -0.247 OA
HETATM   25  C1  UNL     1      -1.742  27.104  10.041  1.00  0.00     0.151 C 
ATOM     26  H1  UNL     1      -1.852  25.176   9.115  1.00  0.00     0.163 HD
ATOM     27  H2  UNL     1      -1.676  24.705   6.736  1.00  0.00     0.165 HD
ENDBRANCH  19  21
ENDBRANCH  15  19
ENDBRANCH   1  11
BRANCH   7  28
HETATM   28  N5  UNL     1       7.468  19.274   0.878  1.00  0.00    -0.319 N 
HETATM   29  C14 UNL     1       8.601  18.715   1.525  1.00  0.00     0.364 C 
HETATM   30  O2  UNL     1       8.593  18.525   2.760  1.00  0.00    -0.238 OA
BRANCH  29  31
HETATM   31  O3  UNL     1       9.747  18.360   0.835  1.00  0.00    -0.294 OA
BRANCH  31  32
HETATM   32  C15 UNL     1      10.276  17.046   0.814  1.00  0.00     0.061 C 
HETATM   33  C16 UNL     1      11.426  16.972   1.781  1.00  0.00     0.046 C 
HETATM   34  C17 UNL     1      10.860  16.821  -0.581  1.00  0.00     0.046 C 
HETATM   35  C18 UNL     1       9.232  16.008   1.112  1.00  0.00     0.046 C 
ENDBRANCH  31  32
ENDBRANCH  29  31
BRANCH  28  36
HETATM   36  C19 UNL     1       7.535  19.465  -0.561  1.00  0.00     0.081 C 
HETATM   37  C20 UNL     1       8.765  20.212  -0.979  1.00  0.00     0.032 C 
HETATM   38  C21 UNL     1       7.428  18.112  -1.249  1.00  0.00     0.032 C 
ENDBRANCH  28  36
ENDBRANCH   7  28
TORSDOF 7
ENDMDL
MODEL 2
REMARK VINA RESULT: -6.803603247      1.110      1.837
REMARK  7 active torsions:
REMARK  status: ('A' for Active; 'I' for Inactive)
REMARK       I    between atoms: N1_2  and  C2_4 
REMARK       I    between atoms: C2_4  and  N2_6 
REMARK    1  A    between atoms: N2_6  and  C3_8 
REMARK    2  A    between atoms: C3_8  and  C5_10 
REMARK    3  A    between atoms: C7_14  and  N4_15 
REMARK    4  A    between atoms: C13_21  and  N5_22 
REMARK       I    between atoms: N5_22  and  C14_23 
REMARK    5  A    between atoms: N5_22  and  C19_30 
REMARK    6  A    between atoms: C14_23  and  O3_25 
REMARK    7  A    between atoms: O3_25  and  C15_26 
ROOT
HETATM    1  N4  UNL     1       2.056  22.125   2.856  1.00  0.00    -0.366 N 
HETATM    2  C8  UNL     1       2.392  22.135   1.460  1.00  0.00     0.125 C 
HETATM    3  C9  UNL     1       3.800  21.739   1.173  1.00  0.00     0.029 C 
HETATM    4  C10 UNL     1       4.394  20.736   2.110  1.00  0.00    -0.035 C 
HETATM    5  C11 UNL     1       5.432  21.300   3.025  1.00  0.00     0.012 C 
HETATM    6  C12 UNL     1       6.345  20.156   3.315  1.00  0.00     0.026 C 
HETATM    7  C13 UNL     1       6.169  19.119   2.269  1.00  0.00     0.090 C 
HETATM    8  C22 UNL     1       5.190  19.728   1.303  1.00  0.00     0.035 C 
HETATM    9  C23 UNL     1       3.280  20.038   2.859  1.00  0.00     0.029 C 
HETATM   10  C24 UNL     1       2.536  21.038   3.679  1.00  0.00     0.125 C 
ENDROOT
BRANCH   1  11
HETATM   11  C7  UNL     1       1.257  23.185   3.393  1.00  0.00     0.125 A 
HETATM   12  N3  UNL     1       0.398  22.928   4.422  1.00  0.00    -0.350 N 
HETATM   13  C6  UNL     1      -0.374  23.880   4.951  1.00  0.00     0.099 A 
ATOM     14  H3  UNL     1       0.345  21.981   4.798  1.00  0.00     0.166 HD
HETATM   15  C5  UNL     1      -0.364  25.181   4.507  1.00  0.00    -0.019 A 
HETATM   16  C26 UNL     1       0.497  25.463   3.468  1.00  0.00     0.038 A 
HETATM   17  C25 UNL     1       1.289  24.476   2.927  1.00  0.00     0.078 A 
HETATM   18 CL1  UNL     1       2.367  24.885   1.625  1.00  0.00    -0.080 Cl
BRANCH  15  19
HETATM   19  C3  UNL     1      -1.233  26.252   5.103  1.00  0.00     0.116 C 
HETATM   20  C4  UNL     1      -2.543  26.283   4.383  1.00  0.00     0.037 C 
BRANCH  19  21
HETATM   21  N2  UNL     1      -1.490  25.821   6.485  1.00  0.00    -0.335 N 
HETATM   22  C2  UNL     1      -1.549  26.769   7.533  1.00  0.00     0.316 C 
HETATM   23  N1  UNL     1      -1.796  26.339   8.855  1.00  0.00    -0.347 N 
HETATM   24  O1  UNL     1      -1.386  27.972   7.290  1.00  0.00    -0.247 OA
HETATM   25  C1  UNL     1      -1.862  27.290   9.941  1.00  0.00     0.151 C 
ATOM     26  H1  UNL     1      -1.928  25.346   9.046  1.00  0.00     0.163 HD
ATOM     27  H2  UNL     1      -1.625  24.831   6.689  1.00  0.00     0.165 HD
ENDBRANCH  19  21
ENDBRANCH  15  19
ENDBRANCH   1  11
BRANCH   7  28
HETATM   28  N5  UNL     1       7.406  18.686   1.671  1.00  0.00    -0.319 N 
HETATM   29  C14 UNL     1       8.048  19.508   0.709  1.00  0.00     0.364 C 
HETATM   30  O2  UNL     1       7.549  20.605   0.381  1.00  0.00    -0.238 OA
BRANCH  29  31
HETATM   31  O3  UNL     1       9.236  19.142   0.097  1.00  0.00    -0.294 OA
BRANCH  31  32
HETATM   32  C15 UNL     1       9.336  18.781  -1.270  1.00  0.00     0.061 C 
HETATM   33  C16 UNL     1      10.423  17.752  -1.419  1.00  0.00     0.046 C 
HETATM   34  C17 UNL     1       9.800  20.024  -2.028  1.00  0.00     0.046 C 
HETATM   35  C18 UNL     1       8.029  18.293  -1.826  1.00  0.00     0.046 C 
ENDBRANCH  31  32
ENDBRANCH  29  31
BRANCH  28  36
HETATM   36  C19 UNL     1       8.040  17.424   2.015  1.00  0.00     0.081 C 
HETATM   37  C20 UNL     1       8.001  17.150   3.487  1.00  0.00     0.032 C 
HETATM   38  C21 UNL     1       7.392  16.306   1.210  1.00  0.00     0.032 C 
ENDBRANCH  28  36
ENDBRANCH   7  28
TORSDOF 7
ENDMDL
MODEL 3
REMARK VINA RESULT: -6.777245301      1.416      1.925
REMARK  7 active torsions:
REMARK  status: ('A' for Active; 'I' for Inactive)
REMARK       I    between atoms: N1_2  and  C2_4 
REMARK       I    between atoms: C2_4  and  N2_6 
REMARK    1  A    between atoms: N2_6  and  C3_8 
REMARK    2  A    between atoms: C3_8  and  C5_10 
REMARK    3  A    between atoms: C7_14  and  N4_15 
REMARK    4  A    between atoms: C13_21  and  N5_22 
REMARK       I    between atoms: N5_22  and  C14_23 
REMARK    5  A    between atoms: N5_22  and  C19_30 
REMARK    6  A    between atoms: C14_23  and  O3_25 
REMARK    7  A    between atoms: O3_25  and  C15_26 
ROOT
HETATM    1  N4  UNL     1       1.821  21.802   2.680  1.00  0.00    -0.366 N 
HETATM    2  C8  UNL     1       1.387  21.286   1.412  1.00  0.00     0.125 C 
HETATM    3  C9  UNL     1       2.502  20.926   0.492  1.00  0.00     0.029 C 
HETATM    4  C10 UNL     1       3.749  20.428   1.149  1.00  0.00    -0.035 C 
HETATM    5  C11 UNL     1       4.891  21.390   1.095  1.00  0.00     0.012 C 
HETATM    6  C12 UNL     1       6.112  20.534   1.112  1.00  0.00     0.026 C 
HETATM    7  C13 UNL     1       5.743  19.156   0.701  1.00  0.00     0.090 C 
HETATM    8  C22 UNL     1       4.282  19.251   0.354  1.00  0.00     0.035 C 
HETATM    9  C23 UNL     1       3.424  19.995   2.563  1.00  0.00     0.029 C 
HETATM   10  C24 UNL     1       2.942  21.173   3.341  1.00  0.00     0.125 C 
ENDROOT
BRANCH   1  11
HETATM   11  C7  UNL     1       1.134  22.919   3.256  1.00  0.00     0.125 A 
HETATM   12  N3  UNL     1       0.255  22.716   4.281  1.00  0.00    -0.350 N 
HETATM   13  C6  UNL     1      -0.415  23.723   4.845  1.00  0.00     0.099 A 
ATOM     14  H3  UNL     1       0.107  21.768   4.625  1.00  0.00     0.166 HD
HETATM   15  C5  UNL     1      -0.275  25.030   4.443  1.00  0.00    -0.019 A 
HETATM   16  C26 UNL     1       0.607  25.258   3.409  1.00  0.00     0.038 A 
HETATM   17  C25 UNL     1       1.295  24.215   2.832  1.00  0.00     0.078 A 
HETATM   18 CL1  UNL     1       2.406  24.556   1.538  1.00  0.00    -0.080 Cl
BRANCH  15  19
HETATM   19  C3  UNL     1      -1.031  26.163   5.078  1.00  0.00     0.116 C 
HETATM   20  C4  UNL     1      -2.327  26.358   4.359  1.00  0.00     0.037 C 
BRANCH  19  21
HETATM   21  N2  UNL     1      -1.338  25.709   6.442  1.00  0.00    -0.335 N 
HETATM   22  C2  UNL     1      -1.480  26.645   7.495  1.00  0.00     0.316 C 
HETATM   23  N1  UNL     1      -1.774  26.193   8.800  1.00  0.00    -0.347 N 
HETATM   24  O1  UNL     1      -1.345  27.855   7.270  1.00  0.00    -0.247 OA
HETATM   25  C1  UNL     1      -1.923  27.130   9.889  1.00  0.00     0.151 C 
ATOM     26  H1  UNL     1      -1.881  25.194   8.975  1.00  0.00     0.163 HD
ATOM     27  H2  UNL     1      -1.450  24.714   6.631  1.00  0.00     0.165 HD
ENDBRANCH  19  21
ENDBRANCH  15  19
ENDBRANCH   1  11
BRANCH   7  28
HETATM   28  N5  UNL     1       6.573  18.625  -0.349  1.00  0.00    -0.319 N 
HETATM   29  C14 UNL     1       7.592  19.433  -0.918  1.00  0.00     0.364 C 
HETATM   30  O2  UNL     1       7.774  20.599  -0.509  1.00  0.00    -0.238 OA
BRANCH  29  31
HETATM   31  O3  UNL     1       8.417  18.979  -1.933  1.00  0.00    -0.294 OA
BRANCH  31  32
HETATM   32  C15 UNL     1       9.763  18.585  -1.734  1.00  0.00     0.061 C 
HETATM   33  C16 UNL     1      10.663  19.723  -2.130  1.00  0.00     0.046 C 
HETATM   34  C17 UNL     1      10.044  17.442  -2.709  1.00  0.00     0.046 C 
HETATM   35  C18 UNL     1      10.022  18.138  -0.323  1.00  0.00     0.046 C 
ENDBRANCH  31  32
ENDBRANCH  29  31
BRANCH  28  36
HETATM   36  C19 UNL     1       6.413  17.275  -0.863  1.00  0.00     0.081 C 
HETATM   37  C20 UNL     1       6.056  16.295   0.213  1.00  0.00     0.032 C 
HETATM   38  C21 UNL     1       5.387  17.287  -1.986  1.00  0.00     0.032 C 
ENDBRANCH  28  36
ENDBRANCH   7  28
TORSDOF 7
ENDMDL
MODEL 4
REMARK VINA RESULT: -6.697936369      1.517      2.165
REMARK  7 active torsions:
REMARK  status: ('A' for Active; 'I' for Inactive)
REMARK       I    between atoms: N1_2  and  C2_4 
REMARK       I    between atoms: C2_4  and  N2_6 
REMARK    1  A    between atoms: N2_6  and  C3_8 
REMARK    2  A    between atoms: C3_8  and  C5_10 
REMARK    3  A    between atoms: C7_14  and  N4_15 
REMARK    4  A    between atoms: C13_21  and  N5_22 
REMARK       I    between atoms: N5_22  and  C14_23 
REMARK    5  A    between atoms: N5_22  and  C19_30 
REMARK    6  A    between atoms: C14_23  and  O3_25 
REMARK    7  A    between atoms: O3_25  and  C15_26 
ROOT
HETATM    1  N4  UNL     1       0.925  22.293   3.294  1.00  0.00    -0.366 N 
HETATM    2  C8  UNL     1       0.936  21.993   1.889  1.00  0.00     0.125 C 
HETATM    3  C9  UNL     1       2.265  21.557   1.374  1.00  0.00     0.029 C 
HETATM    4  C10 UNL     1       3.116  20.796   2.340  1.00  0.00    -0.035 C 
HETATM    5  C11 UNL     1       4.297  21.562   2.843  1.00  0.00     0.012 C 
HETATM    6  C12 UNL     1       5.321  20.522   3.151  1.00  0.00     0.026 C 
HETATM    7  C13 UNL     1       4.979  19.275   2.425  1.00  0.00     0.090 C 
HETATM    8  C22 UNL     1       3.771  19.641   1.606  1.00  0.00     0.035 C 
HETATM    9  C23 UNL     1       2.245  20.273   3.461  1.00  0.00     0.029 C 
HETATM   10  C24 UNL     1       1.645  21.423   4.197  1.00  0.00     0.125 C 
ENDROOT
BRANCH   1  11
HETATM   11  C7  UNL     1       0.203  23.437   3.761  1.00  0.00     0.125 A 
HETATM   12  N3  UNL     1      -0.862  23.269   4.598  1.00  0.00    -0.350 N 
HETATM   13  C6  UNL     1      -1.572  24.303   5.054  1.00  0.00     0.099 A 
ATOM     14  H3  UNL     1      -1.124  22.325   4.883  1.00  0.00     0.166 HD
HETATM   15  C5  UNL     1      -1.288  25.607   4.721  1.00  0.00    -0.019 A 
HETATM   16  C26 UNL     1      -0.216  25.800   3.877  1.00  0.00     0.038 A 
HETATM   17  C25 UNL     1       0.511  24.729   3.411  1.00  0.00     0.078 A 
HETATM   18 CL1  UNL     1       1.863  25.027   2.357  1.00  0.00    -0.080 Cl
BRANCH  15  19
HETATM   19  C3  UNL     1      -2.088  26.771   5.235  1.00  0.00     0.116 C 
HETATM   20  C4  UNL     1      -3.278  26.980   4.355  1.00  0.00     0.037 C 
BRANCH  19  21
HETATM   21  N2  UNL     1      -2.575  26.355   6.558  1.00  0.00    -0.335 N 
HETATM   22  C2  UNL     1      -2.038  26.931   7.734  1.00  0.00     0.316 C 
HETATM   23  N1  UNL     1      -2.516  26.520   8.997  1.00  0.00    -0.347 N 
HETATM   24  O1  UNL     1      -1.152  27.792   7.653  1.00  0.00    -0.247 OA
HETATM   25  C1  UNL     1      -1.983  27.095  10.211  1.00  0.00     0.151 C 
ATOM     26  H1  UNL     1      -3.246  25.809   9.054  1.00  0.00     0.163 HD
ATOM     27  H2  UNL     1      -3.305  25.647   6.628  1.00  0.00     0.165 HD
ENDBRANCH  19  21
ENDBRANCH  15  19
ENDBRANCH   1  11
BRANCH   7  28
HETATM   28  N5  UNL     1       6.074  18.731   1.662  1.00  0.00    -0.319 N 
HETATM   29  C14 UNL     1       6.677  19.513   0.642  1.00  0.00     0.364 C 
HETATM   30  O2  UNL     1       6.266  20.668   0.405  1.00  0.00    -0.238 OA
BRANCH  29  31
HETATM   31  O3  UNL     1       7.728  19.043  -0.127  1.00  0.00    -0.294 OA
BRANCH  31  32
HETATM   32  C15 UNL     1       9.084  19.386   0.103  1.00  0.00     0.061 C 
HETATM   33  C16 UNL     1       9.532  20.332  -0.977  1.00  0.00     0.046 C 
HETATM   34  C17 UNL     1       9.903  18.106  -0.064  1.00  0.00     0.046 C 
HETATM   35  C18 UNL     1       9.299  19.964   1.473  1.00  0.00     0.046 C 
ENDBRANCH  31  32
ENDBRANCH  29  31
BRANCH  28  36
HETATM   36  C19 UNL     1       6.600  17.397   1.894  1.00  0.00     0.081 C 
HETATM   37  C20 UNL     1       7.322  17.289   3.202  1.00  0.00     0.032 C 
HETATM   38  C21 UNL     1       5.466  16.388   1.783  1.00  0.00     0.032 C 
ENDBRANCH  28  36
ENDBRANCH   7  28
TORSDOF 7
ENDMDL
MODEL 5
REMARK VINA RESULT: -6.695373585      1.183      1.682
REMARK  7 active torsions:
REMARK  status: ('A' for Active; 'I' for Inactive)
REMARK       I    between atoms: N1_2  and  C2_4 
REMARK       I    between atoms: C2_4  and  N2_6 
REMARK    1  A    between atoms: N2_6  and  C3_8 
REMARK    2  A    between atoms: C3_8  and  C5_10 
REMARK    3  A    between atoms: C7_14  and  N4_15 
REMARK    4  A    between atoms: C13_21  and  N5_22 
REMARK       I    between atoms: N5_22  and  C14_23 
REMARK    5  A    between atoms: N5_22  and  C19_30 
REMARK    6  A    between atoms: C14_23  and  O3_25 
REMARK    7  A    between atoms: O3_25  and  C15_26 
ROOT
HETATM    1  N4  UNL     1       1.779  22.147   2.686  1.00  0.00    -0.366 N 
HETATM    2  C8  UNL     1       1.939  22.101   1.260  1.00  0.00     0.125 C 
HETATM    3  C9  UNL     1       3.310  21.722   0.816  1.00  0.00     0.029 C 
HETATM    4  C10 UNL     1       4.043  20.775   1.712  1.00  0.00    -0.035 C 
HETATM    5  C11 UNL     1       5.171  21.401   2.466  1.00  0.00     0.012 C 
HETATM    6  C12 UNL     1       6.143  20.291   2.687  1.00  0.00     0.026 C 
HETATM    7  C13 UNL     1       5.866  19.204   1.715  1.00  0.00     0.090 C 
HETATM    8  C22 UNL     1       4.758  19.749   0.855  1.00  0.00     0.035 C 
HETATM    9  C23 UNL     1       3.048  20.088   2.624  1.00  0.00     0.029 C 
HETATM   10  C24 UNL     1       2.386  21.107   3.488  1.00  0.00     0.125 C 
ENDROOT
BRANCH   1  11
HETATM   11  C7  UNL     1       1.025  23.212   3.274  1.00  0.00     0.125 A 
HETATM   12  N3  UNL     1       0.079  22.930   4.217  1.00  0.00    -0.350 N 
HETATM   13  C6  UNL     1      -0.655  23.887   4.788  1.00  0.00     0.099 A 
ATOM     14  H3  UNL     1      -0.071  21.960   4.492  1.00  0.00     0.166 HD
HETATM   15  C5  UNL     1      -0.517  25.219   4.476  1.00  0.00    -0.019 A 
HETATM   16  C26 UNL     1       0.433  25.527   3.527  1.00  0.00     0.038 A 
HETATM   17  C25 UNL     1       1.186  24.534   2.942  1.00  0.00     0.078 A 
HETATM   18 CL1  UNL     1       2.381  24.976   1.758  1.00  0.00    -0.080 Cl
BRANCH  15  19
HETATM   19  C3  UNL     1      -1.344  26.296   5.120  1.00  0.00     0.116 C 
HETATM   20  C4  UNL     1      -2.682  26.356   4.455  1.00  0.00     0.037 C 
BRANCH  19  21
HETATM   21  N2  UNL     1      -1.551  25.852   6.506  1.00  0.00    -0.335 N 
HETATM   22  C2  UNL     1      -1.584  26.792   7.563  1.00  0.00     0.316 C 
HETATM   23  N1  UNL     1      -1.782  26.350   8.889  1.00  0.00    -0.347 N 
HETATM   24  O1  UNL     1      -1.438  27.998   7.324  1.00  0.00    -0.247 OA
HETATM   25  C1  UNL     1      -1.820  27.292   9.984  1.00  0.00     0.151 C 
ATOM     26  H1  UNL     1      -1.901  25.354   9.076  1.00  0.00     0.163 HD
ATOM     27  H2  UNL     1      -1.672  24.860   6.706  1.00  0.00     0.165 HD
ENDBRANCH  19  21
ENDBRANCH  15  19
ENDBRANCH   1  11
BRANCH   7  28
HETATM   28  N5  UNL     1       7.030  18.771   0.986  1.00  0.00    -0.319 N 
HETATM   29  C14 UNL     1       7.098  17.441   0.494  1.00  0.00     0.364 C 
HETATM   30  O2  UNL     1       6.153  16.648   0.687  1.00  0.00    -0.238 OA
BRANCH  29  31
HETATM   31  O3  UNL     1       8.193  16.967  -0.208  1.00  0.00    -0.294 OA
BRANCH  31  32
HETATM   32  C15 UNL     1       8.137  16.548  -1.561  1.00  0.00     0.061 C 
HETATM   33  C16 UNL     1       8.143  15.044  -1.602  1.00  0.00     0.046 C 
HETATM   34  C17 UNL     1       9.432  17.012  -2.227  1.00  0.00     0.046 C 
HETATM   35  C18 UNL     1       6.950  17.118  -2.283  1.00  0.00     0.046 C 
ENDBRANCH  31  32
ENDBRANCH  29  31
BRANCH  28  36
HETATM   36  C19 UNL     1       8.159  19.649   0.725  1.00  0.00     0.081 C 
HETATM   37  C20 UNL     1       9.471  18.998   1.039  1.00  0.00     0.032 C 
HETATM   38  C21 UNL     1       8.092  20.130  -0.717  1.00  0.00     0.032 C 
ENDBRANCH  28  36
ENDBRANCH   7  28
TORSDOF 7
ENDMDL
