MODEL 1
REMARK VINA RESULT: -6.642883450      0.000      0.000
REMARK  8 active torsions:
REMARK  status: ('A' for Active; 'I' for Inactive)
REMARK    1  A    between atoms: C2_2  and  O1_3 
REMARK    2  A    between atoms: O1_3  and  C3_4 
REMARK    3  A    between atoms: C3_4  and  C4_6 
REMARK    4  A    between atoms: C13_15  and  O3_16 
REMARK    5  A    between atoms: C15_20  and  O4_21 
REMARK    6  A    between atoms: C17_24  and  C18_25 
REMARK    7  A    between atoms: C18_25  and  C19_26 
REMARK    8  A    between atoms: C19_26  and  N1_27 
ROOT
HETATM    1  C4  UNL     1       5.144  19.407   2.679  1.00  0.00     0.094 C 
HETATM    2  C5  UNL     1       4.918  20.419   3.793  1.00  0.00     0.016 C 
HETATM    3  C6  UNL     1       3.634  21.088   3.229  1.00  0.00     0.007 C 
HETATM    4  C7  UNL     1       4.093  21.471   1.906  1.00  0.00    -0.001 C 
HETATM    5  C8  UNL     1       3.192  21.829   0.808  1.00  0.00    -0.005 C 
HETATM    6  C9  UNL     1       2.863  23.268   0.592  1.00  0.00     0.010 C 
HETATM    7  C10 UNL     1       2.256  24.028   1.664  1.00  0.00     0.040 C 
HETATM    8  C11 UNL     1       1.193  23.377   2.428  1.00  0.00    -0.046 A 
HETATM    9  C12 UNL     1       0.799  24.221   3.489  1.00  0.00     0.045 A 
HETATM   10  C13 UNL     1      -0.164  23.856   4.357  1.00  0.00     0.086 A 
HETATM   11  C14 UNL     1      -0.759  22.640   4.190  1.00  0.00     0.077 A 
HETATM   12 BR1  UNL     1      -2.122  22.141   5.433  1.00  0.00    -0.045 Br
HETATM   13  C15 UNL     1      -0.374  21.785   3.133  1.00  0.00     0.093 A 
HETATM   14  C16 UNL     1       0.625  22.162   2.231  1.00  0.00    -0.013 A 
HETATM   15  C17 UNL     1       0.785  21.071   1.263  1.00  0.00     0.028 C 
HETATM   16  C22 UNL     1       2.042  20.917   0.519  1.00  0.00    -0.002 C 
HETATM   17  C23 UNL     1       2.602  19.503   0.564  1.00  0.00     0.006 C 
HETATM   18  C24 UNL     1       4.091  19.471   0.409  1.00  0.00     0.011 C 
HETATM   19  C25 UNL     1       4.865  20.208   1.463  1.00  0.00    -0.027 C 
HETATM   20  C26 UNL     1       6.163  20.650   0.819  1.00  0.00     0.016 C 
ENDROOT
BRANCH   1  21
HETATM   21  C3  UNL     1       6.466  18.795   2.732  1.00  0.00     0.263 C 
HETATM   22  O2  UNL     1       6.664  17.767   1.999  1.00  0.00    -0.265 OA
BRANCH  21  23
HETATM   23  O1  UNL     1       7.522  19.220   3.496  1.00  0.00    -0.322 OA
BRANCH  23  24
HETATM   24  C2  UNL     1       8.735  19.574   2.881  1.00  0.00     0.174 C 
HETATM   25  C1  UNL     1       9.124  20.955   3.359  1.00  0.00     0.034 C 
ENDBRANCH  23  24
ENDBRANCH  21  23
ENDBRANCH   1  21
BRANCH  15  26
HETATM   26  C18 UNL     1      -0.405  21.200   0.327  1.00  0.00     0.040 C 
BRANCH  26  27
HETATM   27  C19 UNL     1      -0.080  21.645  -1.054  1.00  0.00     0.272 C 
BRANCH  27  28
HETATM   28  N1  UNL     1      -1.364  21.618  -1.788  1.00  0.00     0.080 N 
HETATM   29  C20 UNL     1      -1.086  21.993  -3.153  1.00  0.00     0.309 C 
HETATM   30  C21 UNL     1      -2.001  20.330  -1.677  1.00  0.00     0.309 C 
ENDBRANCH  27  28
ENDBRANCH  26  27
ENDBRANCH  15  26
BRANCH  13  31
HETATM   31  O4  UNL     1      -1.069  20.601   3.106  1.00  0.00    -0.359 OA
ATOM     32  H4  UNL     1      -0.512  19.834   3.168  1.00  0.00     0.217 HD
ENDBRANCH  13  31
BRANCH  10  33
HETATM   33  O3  UNL     1      -0.530  24.710   5.393  1.00  0.00    -0.359 OA
ATOM     34  H3  UNL     1       0.116  24.984   6.033  1.00  0.00     0.217 HD
ENDBRANCH  10  33
TORSDOF 8
ENDMDL
MODEL 2
REMARK VINA RESULT: -6.327856250      0.750      1.003
REMARK  8 active torsions:
REMARK  status: ('A' for Active; 'I' for Inactive)
REMARK    1  A    between atoms: C2_2  and  O1_3 
REMARK    2  A    between atoms: O1_3  and  C3_4 
REMARK    3  A    between atoms: C3_4  and  C4_6 
REMARK    4  A    between atoms: C13_15  and  O3_16 
REMARK    5  A    between atoms: C15_20  and  O4_21 
REMARK    6  A    between atoms: C17_24  and  C18_25 
REMARK    7  A    between atoms: C18_25  and  C19_26 
REMARK    8  A    between atoms: C19_26  and  N1_27 
ROOT
HETATM    1  C4  UNL     1       5.185  19.371   2.680  1.00  0.00     0.094 C 
HETATM    2  C5  UNL     1       4.927  20.360   3.808  1.00  0.00     0.016 C 
HETATM    3  C6  UNL     1       3.651  21.029   3.230  1.00  0.00     0.007 C 
HETATM    4  C7  UNL     1       4.134  21.441   1.924  1.00  0.00    -0.001 C 
HETATM    5  C8  UNL     1       3.253  21.814   0.815  1.00  0.00    -0.005 C 
HETATM    6  C9  UNL     1       2.917  23.254   0.619  1.00  0.00     0.010 C 
HETATM    7  C10 UNL     1       2.282  23.989   1.693  1.00  0.00     0.040 C 
HETATM    8  C11 UNL     1       1.208  23.315   2.421  1.00  0.00    -0.046 A 
HETATM    9  C12 UNL     1       0.786  24.135   3.490  1.00  0.00     0.045 A 
HETATM   10  C13 UNL     1      -0.192  23.746   4.331  1.00  0.00     0.086 A 
HETATM   11  C14 UNL     1      -0.774  22.530   4.127  1.00  0.00     0.077 A 
HETATM   12 BR1  UNL     1      -2.159  21.997   5.332  1.00  0.00    -0.045 Br
HETATM   13  C15 UNL     1      -0.361  21.698   3.063  1.00  0.00     0.093 A 
HETATM   14  C16 UNL     1       0.654  22.100   2.189  1.00  0.00    -0.013 A 
HETATM   15  C17 UNL     1       0.844  21.028   1.205  1.00  0.00     0.028 C 
HETATM   16  C22 UNL     1       2.117  20.898   0.485  1.00  0.00    -0.002 C 
HETATM   17  C23 UNL     1       2.687  19.488   0.515  1.00  0.00     0.006 C 
HETATM   18  C24 UNL     1       4.179  19.470   0.390  1.00  0.00     0.011 C 
HETATM   19  C25 UNL     1       4.925  20.193   1.474  1.00  0.00    -0.027 C 
HETATM   20  C26 UNL     1       6.232  20.657   0.866  1.00  0.00     0.016 C 
ENDROOT
BRANCH   1  21
HETATM   21  C3  UNL     1       6.511  18.768   2.750  1.00  0.00     0.263 C 
HETATM   22  O2  UNL     1       7.332  19.259   3.597  1.00  0.00    -0.265 OA
BRANCH  21  23
HETATM   23  O1  UNL     1       6.962  17.720   1.990  1.00  0.00    -0.322 OA
BRANCH  23  24
HETATM   24  C2  UNL     1       8.340  17.471   1.887  1.00  0.00     0.174 C 
HETATM   25  C1  UNL     1       8.831  18.049   0.579  1.00  0.00     0.034 C 
ENDBRANCH  23  24
ENDBRANCH  21  23
ENDBRANCH   1  21
BRANCH  15  26
HETATM   26  C18 UNL     1      -0.328  21.167   0.247  1.00  0.00     0.040 C 
BRANCH  26  27
HETATM   27  C19 UNL     1       0.019  21.663  -1.111  1.00  0.00     0.272 C 
BRANCH  27  28
HETATM   28  N1  UNL     1      -1.248  21.636  -1.875  1.00  0.00     0.080 N 
HETATM   29  C20 UNL     1      -0.939  22.016  -3.231  1.00  0.00     0.309 C 
HETATM   30  C21 UNL     1      -1.884  20.345  -1.784  1.00  0.00     0.309 C 
ENDBRANCH  27  28
ENDBRANCH  26  27
ENDBRANCH  15  26
BRANCH  13  31
HETATM   31  O4  UNL     1      -1.045  20.510   2.999  1.00  0.00    -0.359 OA
ATOM     32  H4  UNL     1      -1.739  20.437   3.643  1.00  0.00     0.217 HD
ENDBRANCH  13  31
BRANCH  10  33
HETATM   33  O3  UNL     1      -0.586  24.578   5.374  1.00  0.00    -0.359 OA
ATOM     34  H3  UNL     1       0.054  25.124   5.815  1.00  0.00     0.217 HD
ENDBRANCH  10  33
TORSDOF 8
ENDMDL
MODEL 3
REMARK VINA RESULT: -6.137718695      2.798      4.651
REMARK  8 active torsions:
REMARK  status: ('A' for Active; 'I' for Inactive)
REMARK    1  A    between atoms: C2_2  and  O1_3 
REMARK    2  A    between atoms: O1_3  and  C3_4 
REMARK    3  A    between atoms: C3_4  and  C4_6 
REMARK    4  A    between atoms: C13_15  and  O3_16 
REMARK    5  A    between atoms: C15_20  and  O4_21 
REMARK    6  A    between atoms: C17_24  and  C18_25 
REMARK    7  A    between atoms: C18_25  and  C19_26 
REMARK    8  A    between atoms: C19_26  and  N1_27 
ROOT
HETATM    1  C4  UNL     1       5.994  18.763   1.896  1.00  0.00     0.094 C 
HETATM    2  C5  UNL     1       5.051  17.872   1.100  1.00  0.00     0.016 C 
HETATM    3  C6  UNL     1       3.794  18.783   1.143  1.00  0.00     0.007 C 
HETATM    4  C7  UNL     1       3.659  18.985   2.575  1.00  0.00    -0.001 C 
HETATM    5  C8  UNL     1       2.847  20.048   3.170  1.00  0.00    -0.005 C 
HETATM    6  C9  UNL     1       1.440  19.742   3.560  1.00  0.00     0.010 C 
HETATM    7  C10 UNL     1       0.513  19.259   2.558  1.00  0.00     0.040 C 
HETATM    8  C11 UNL     1       0.544  19.910   1.249  1.00  0.00    -0.046 A 
HETATM    9  C12 UNL     1      -0.344  19.243   0.377  1.00  0.00     0.045 A 
HETATM   10  C13 UNL     1      -0.502  19.636  -0.901  1.00  0.00     0.086 A 
HETATM   11  C14 UNL     1       0.222  20.704  -1.344  1.00  0.00     0.077 A 
HETATM   12 BR1  UNL     1      -0.017  21.245  -3.161  1.00  0.00    -0.045 Br
HETATM   13  C15 UNL     1       1.115  21.380  -0.483  1.00  0.00     0.093 A 
HETATM   14  C16 UNL     1       1.279  20.974   0.844  1.00  0.00    -0.013 A 
HETATM   15  C17 UNL     1       2.261  21.870   1.465  1.00  0.00     0.028 C 
HETATM   16  C22 UNL     1       3.020  21.438   2.646  1.00  0.00    -0.002 C 
HETATM   17  C23 UNL     1       4.519  21.659   2.516  1.00  0.00     0.006 C 
HETATM   18  C24 UNL     1       5.314  20.692   3.339  1.00  0.00     0.011 C 
HETATM   19  C25 UNL     1       5.123  19.243   2.995  1.00  0.00    -0.027 C 
HETATM   20  C26 UNL     1       5.396  18.457   4.260  1.00  0.00     0.016 C 
ENDROOT
BRANCH   1  21
HETATM   21  C3  UNL     1       7.204  18.069   2.318  1.00  0.00     0.263 C 
HETATM   22  O2  UNL     1       7.222  16.797   2.192  1.00  0.00    -0.265 OA
BRANCH  21  23
HETATM   23  O1  UNL     1       8.330  18.654   2.839  1.00  0.00    -0.322 OA
BRANCH  23  24
HETATM   24  C2  UNL     1       8.856  19.813   2.246  1.00  0.00     0.174 C 
HETATM   25  C1  UNL     1       9.073  20.844   3.330  1.00  0.00     0.034 C 
ENDBRANCH  23  24
ENDBRANCH  21  23
ENDBRANCH   1  21
BRANCH  15  26
HETATM   26  C18 UNL     1       1.501  23.159   1.731  1.00  0.00     0.040 C 
BRANCH  26  27
HETATM   27  C19 UNL     1       1.140  23.400   3.153  1.00  0.00     0.272 C 
BRANCH  27  28
HETATM   28  N1  UNL     1       0.627  24.787   3.199  1.00  0.00     0.080 N 
HETATM   29  C20 UNL     1       0.354  25.098   4.580  1.00  0.00     0.309 C 
HETATM   30  C21 UNL     1       1.555  25.706   2.587  1.00  0.00     0.309 C 
ENDBRANCH  27  28
ENDBRANCH  26  27
ENDBRANCH  15  26
BRANCH  13  31
HETATM   31  O4  UNL     1       1.764  22.430  -1.083  1.00  0.00    -0.359 OA
ATOM     32  H4  UNL     1       2.271  22.176  -1.845  1.00  0.00     0.217 HD
ENDBRANCH  13  31
BRANCH  10  33
HETATM   33  O3  UNL     1      -1.386  18.958  -1.735  1.00  0.00    -0.359 OA
ATOM     34  H3  UNL     1      -2.252  18.726  -1.423  1.00  0.00     0.217 HD
ENDBRANCH  10  33
TORSDOF 8
ENDMDL
MODEL 4
REMARK VINA RESULT: -6.049987823      2.930      4.663
REMARK  8 active torsions:
REMARK  status: ('A' for Active; 'I' for Inactive)
REMARK    1  A    between atoms: C2_2  and  O1_3 
REMARK    2  A    between atoms: O1_3  and  C3_4 
REMARK    3  A    between atoms: C3_4  and  C4_6 
REMARK    4  A    between atoms: C13_15  and  O3_16 
REMARK    5  A    between atoms: C15_20  and  O4_21 
REMARK    6  A    between atoms: C17_24  and  C18_25 
REMARK    7  A    between atoms: C18_25  and  C19_26 
REMARK    8  A    between atoms: C19_26  and  N1_27 
ROOT
HETATM    1  C4  UNL     1       6.238  19.038   0.422  1.00  0.00     0.094 C 
HETATM    2  C5  UNL     1       5.235  18.113  -0.251  1.00  0.00     0.016 C 
HETATM    3  C6  UNL     1       3.949  18.937   0.028  1.00  0.00     0.007 C 
HETATM    4  C7  UNL     1       4.033  19.083   1.470  1.00  0.00    -0.001 C 
HETATM    5  C8  UNL     1       3.264  20.071   2.231  1.00  0.00    -0.005 C 
HETATM    6  C9  UNL     1       1.959  19.660   2.825  1.00  0.00     0.010 C 
HETATM    7  C10 UNL     1       0.914  19.150   1.962  1.00  0.00     0.040 C 
HETATM    8  C11 UNL     1       0.696  19.842   0.693  1.00  0.00    -0.046 A 
HETATM    9  C12 UNL     1      -0.278  19.146  -0.055  1.00  0.00     0.045 A 
HETATM   10  C13 UNL     1      -0.663  19.569  -1.275  1.00  0.00     0.086 A 
HETATM   11  C14 UNL     1      -0.085  20.696  -1.780  1.00  0.00     0.077 A 
HETATM   12 BR1  UNL     1      -0.644  21.278  -3.513  1.00  0.00    -0.045 Br
HETATM   13  C15 UNL     1       0.892  21.402  -1.043  1.00  0.00     0.093 A 
HETATM   14  C16 UNL     1       1.292  20.965   0.223  1.00  0.00    -0.013 A 
HETATM   15  C17 UNL     1       2.305  21.904   0.718  1.00  0.00     0.028 C 
HETATM   16  C22 UNL     1       3.267  21.485   1.745  1.00  0.00    -0.002 C 
HETATM   17  C23 UNL     1       4.711  21.809   1.389  1.00  0.00     0.006 C 
HETATM   18  C24 UNL     1       5.684  20.871   2.035  1.00  0.00     0.011 C 
HETATM   19  C25 UNL     1       5.527  19.424   1.665  1.00  0.00    -0.027 C 
HETATM   20  C26 UNL     1       6.047  18.618   2.836  1.00  0.00     0.016 C 
ENDROOT
BRANCH   1  21
HETATM   21  C3  UNL     1       7.540  18.413   0.618  1.00  0.00     0.263 C 
HETATM   22  O2  UNL     1       7.572  17.137   0.679  1.00  0.00    -0.265 OA
BRANCH  21  23
HETATM   23  O1  UNL     1       8.739  19.066   0.744  1.00  0.00    -0.322 OA
BRANCH  23  24
HETATM   24  C2  UNL     1       9.447  19.005   1.956  1.00  0.00     0.174 C 
HETATM   25  C1  UNL     1       9.216  20.296   2.707  1.00  0.00     0.034 C 
ENDBRANCH  23  24
ENDBRANCH  21  23
ENDBRANCH   1  21
BRANCH  15  26
HETATM   26  C18 UNL     1       1.520  23.130   1.155  1.00  0.00     0.040 C 
BRANCH  26  27
HETATM   27  C19 UNL     1       2.324  24.369   1.327  1.00  0.00     0.272 C 
BRANCH  27  28
HETATM   28  N1  UNL     1       1.828  24.990   2.575  1.00  0.00     0.080 N 
HETATM   29  C20 UNL     1       1.267  26.271   2.223  1.00  0.00     0.309 C 
HETATM   30  C21 UNL     1       0.887  24.129   3.247  1.00  0.00     0.309 C 
ENDBRANCH  27  28
ENDBRANCH  26  27
ENDBRANCH  15  26
BRANCH  13  31
HETATM   31  O4  UNL     1       1.373  22.511  -1.694  1.00  0.00    -0.359 OA
ATOM     32  H4  UNL     1       1.283  23.313  -1.193  1.00  0.00     0.217 HD
ENDBRANCH  13  31
BRANCH  10  33
HETATM   33  O3  UNL     1      -1.626  18.861  -1.986  1.00  0.00    -0.359 OA
ATOM     34  H3  UNL     1      -2.291  18.367  -1.524  1.00  0.00     0.217 HD
ENDBRANCH  10  33
TORSDOF 8
ENDMDL
MODEL 5
REMARK VINA RESULT: -5.954618236      2.645      4.238
REMARK  8 active torsions:
REMARK  status: ('A' for Active; 'I' for Inactive)
REMARK    1  A    between atoms: C2_2  and  O1_3 
REMARK    2  A    between atoms: O1_3  and  C3_4 
REMARK    3  A    between atoms: C3_4  and  C4_6 
REMARK    4  A    between atoms: C13_15  and  O3_16 
REMARK    5  A    between atoms: C15_20  and  O4_21 
REMARK    6  A    between atoms: C17_24  and  C18_25 
REMARK    7  A    between atoms: C18_25  and  C19_26 
REMARK    8  A    between atoms: C19_26  and  N1_27 
ROOT
HETATM    1  C4  UNL     1       5.211  18.327   1.970  1.00  0.00     0.094 C 
HETATM    2  C5  UNL     1       3.852  17.675   1.760  1.00  0.00     0.016 C 
HETATM    3  C6  UNL     1       2.997  18.968   1.658  1.00  0.00     0.007 C 
HETATM    4  C7  UNL     1       3.365  19.629   2.898  1.00  0.00    -0.001 C 
HETATM    5  C8  UNL     1       3.125  21.049   3.160  1.00  0.00    -0.005 C 
HETATM    6  C9  UNL     1       1.876  21.445   3.874  1.00  0.00     0.010 C 
HETATM    7  C10 UNL     1       0.591  21.080   3.315  1.00  0.00     0.040 C 
HETATM    8  C11 UNL     1       0.420  21.238   1.872  1.00  0.00    -0.046 A 
HETATM    9  C12 UNL     1      -0.845  20.737   1.496  1.00  0.00     0.045 A 
HETATM   10  C13 UNL     1      -1.255  20.753   0.213  1.00  0.00     0.086 A 
HETATM   11  C14 UNL     1      -0.414  21.270  -0.728  1.00  0.00     0.077 A 
HETATM   12 BR1  UNL     1      -1.016  21.282  -2.542  1.00  0.00    -0.045 Br
HETATM   13  C15 UNL     1       0.855  21.774  -0.367  1.00  0.00     0.093 A 
HETATM   14  C16 UNL     1       1.282  21.758   0.964  1.00  0.00    -0.013 A 
HETATM   15  C17 UNL     1       2.625  22.347   1.007  1.00  0.00     0.028 C 
HETATM   16  C22 UNL     1       3.538  22.035   2.114  1.00  0.00    -0.002 C 
HETATM   17  C23 UNL     1       4.924  21.608   1.653  1.00  0.00     0.006 C 
HETATM   18  C24 UNL     1       5.603  20.707   2.638  1.00  0.00     0.011 C 
HETATM   19  C25 UNL     1       4.895  19.415   2.926  1.00  0.00    -0.027 C 
HETATM   20  C26 UNL     1       5.288  19.008   4.330  1.00  0.00     0.016 C 
ENDROOT
BRANCH   1  21
HETATM   21  C3  UNL     1       6.228  17.382   2.415  1.00  0.00     0.263 C 
HETATM   22  O2  UNL     1       5.828  16.229   2.793  1.00  0.00    -0.265 OA
BRANCH  21  23
HETATM   23  O1  UNL     1       7.578  17.614   2.466  1.00  0.00    -0.322 OA
BRANCH  23  24
HETATM   24  C2  UNL     1       8.201  18.353   1.447  1.00  0.00     0.174 C 
HETATM   25  C1  UNL     1       9.089  19.394   2.091  1.00  0.00     0.034 C 
ENDBRANCH  23  24
ENDBRANCH  21  23
ENDBRANCH   1  21
BRANCH  15  26
HETATM   26  C18 UNL     1       2.400  23.844   0.875  1.00  0.00     0.040 C 
BRANCH  26  27
HETATM   27  C19 UNL     1       2.529  24.619   2.137  1.00  0.00     0.272 C 
BRANCH  27  28
HETATM   28  N1  UNL     1       1.192  25.207   2.376  1.00  0.00     0.080 N 
HETATM   29  C20 UNL     1       0.831  24.911   3.740  1.00  0.00     0.309 C 
HETATM   30  C21 UNL     1       1.186  26.619   2.086  1.00  0.00     0.309 C 
ENDBRANCH  27  28
ENDBRANCH  26  27
ENDBRANCH  15  26
BRANCH  13  31
HETATM   31  O4  UNL     1       1.576  22.255  -1.431  1.00  0.00    -0.359 OA
ATOM     32  H4  UNL     1       1.295  21.905  -2.268  1.00  0.00     0.217 HD
ENDBRANCH  13  31
BRANCH  10  33
HETATM   33  O3  UNL     1      -2.509  20.252  -0.125  1.00  0.00    -0.359 OA
ATOM     34  H3  UNL     1      -2.593  19.366  -0.456  1.00  0.00     0.217 HD
ENDBRANCH  10  33
TORSDOF 8
ENDMDL
