MODEL 1
REMARK VINA RESULT: -6.574358951      0.000      0.000
REMARK  7 active torsions:
REMARK  status: ('A' for Active; 'I' for Inactive)
REMARK    1  A    between atoms: C4_4  and  C5_6 
REMARK    2  A    between atoms: C5_6  and  C6_7 
REMARK    3  A    between atoms: C16_20  and  C17_21 
REMARK    4  A    between atoms: C17_21  and  C19_23 
REMARK    5  A    between atoms: C19_23  and  C20_24 
REMARK    6  A    between atoms: C20_24  and  O5_26 
REMARK    7  A    between atoms: C29_35  and  O6_36 
ROOT
HETATM    1  C1  UNL     1       9.283  16.999  -4.090  1.00  0.00     0.017 C 
HETATM    2  C2  UNL     1       9.013  17.034  -2.794  1.00  0.00    -0.054 C 
HETATM    3  C3  UNL     1       8.152  18.192  -2.417  1.00  0.00     0.081 C 
HETATM    4  C4  UNL     1       8.805  18.992  -1.369  1.00  0.00     0.128 C 
HETATM    5  F1  UNL     1       8.360  20.331  -1.304  1.00  0.00    -0.241 F 
HETATM    6  C7  UNL     1       8.578  18.459   0.037  1.00  0.00     0.024 C 
HETATM    7  C8  UNL     1       9.668  19.233   0.828  1.00  0.00     0.024 C 
HETATM    8  C9  UNL     1       8.950  17.028   0.191  1.00  0.00    -0.045 C 
HETATM    9  C10 UNL     1       8.592  16.467   1.347  1.00  0.00    -0.018 C 
HETATM   10  C11 UNL     1       7.859  17.185   2.446  1.00  0.00     0.033 C 
HETATM   11  C12 UNL     1       6.814  17.952   1.745  1.00  0.00    -0.001 C 
HETATM   12  C13 UNL     1       5.882  18.612   2.688  1.00  0.00     0.006 C 
HETATM   13  C14 UNL     1       6.476  19.718   3.509  1.00  0.00     0.084 C 
HETATM   14  C15 UNL     1       5.532  20.854   3.331  1.00  0.00     0.132 C 
HETATM   15  O3  UNL     1       5.831  22.019   3.448  1.00  0.00    -0.298 OA
HETATM   16  C16 UNL     1       4.236  20.211   2.998  1.00  0.00     0.068 C 
HETATM   17  C22 UNL     1       4.680  19.235   1.943  1.00  0.00    -0.029 C 
HETATM   18  C23 UNL     1       3.743  18.103   1.695  1.00  0.00     0.016 C 
HETATM   19  C24 UNL     1       5.094  19.883   0.675  1.00  0.00     0.011 C 
HETATM   20  C25 UNL     1       6.069  19.070  -0.160  1.00  0.00     0.007 C 
HETATM   21  C26 UNL     1       7.299  18.868   0.640  1.00  0.00     0.006 C 
HETATM   22  C27 UNL     1       9.626  15.973  -0.583  1.00  0.00    -0.044 C 
HETATM   23  C28 UNL     1      11.052  15.699  -0.054  1.00  0.00     0.047 C 
HETATM   24  C29 UNL     1       9.617  15.941  -2.031  1.00  0.00     0.176 C 
ENDROOT
BRANCH  16  25
HETATM   25  C17 UNL     1       3.261  21.233   2.578  1.00  0.00     0.003 C 
HETATM   26  C18 UNL     1       2.203  21.328   3.680  1.00  0.00     0.011 C 
BRANCH  25  27
HETATM   27  C19 UNL     1       2.555  21.015   1.289  1.00  0.00     0.116 C 
BRANCH  27  28
HETATM   28  C20 UNL     1       2.353  22.318   0.610  1.00  0.00     0.258 C 
HETATM   29  O4  UNL     1       1.595  22.522  -0.366  1.00  0.00    -0.265 OA
BRANCH  28  30
HETATM   30  O5  UNL     1       3.053  23.453   1.068  1.00  0.00    -0.326 OA
HETATM   31  C21 UNL     1       2.376  24.645   1.427  1.00  0.00     0.213 C 
ENDBRANCH  28  30
ENDBRANCH  27  28
ENDBRANCH  25  27
ENDBRANCH  16  25
BRANCH   4  32
HETATM   32  C5  UNL     1      10.262  19.170  -1.717  1.00  0.00     0.158 C 
BRANCH  32  33
HETATM   33  C6  UNL     1      10.541  20.436  -2.452  1.00  0.00     0.175 C 
HETATM   34  O1  UNL     1      10.395  20.522  -3.697  1.00  0.00    -0.648 OA
HETATM   35  O2  UNL     1      10.973  21.557  -1.773  1.00  0.00    -0.648 OA
ENDBRANCH  32  33
ENDBRANCH   4  32
BRANCH  24  36
HETATM   36  O6  UNL     1       9.036  14.761  -2.578  1.00  0.00    -0.387 OA
ATOM     37  H6  UNL     1       9.578  14.555  -3.330  1.00  0.00     0.210 HD
ENDBRANCH  24  36
TORSDOF 7
ENDMDL
MODEL 2
REMARK VINA RESULT: -6.527552688      2.284      7.979
REMARK  7 active torsions:
REMARK  status: ('A' for Active; 'I' for Inactive)
REMARK    1  A    between atoms: C4_4  and  C5_6 
REMARK    2  A    between atoms: C5_6  and  C6_7 
REMARK    3  A    between atoms: C16_20  and  C17_21 
REMARK    4  A    between atoms: C17_21  and  C19_23 
REMARK    5  A    between atoms: C19_23  and  C20_24 
REMARK    6  A    between atoms: C20_24  and  O5_26 
REMARK    7  A    between atoms: C29_35  and  O6_36 
ROOT
HETATM    1  C1  UNL     1       0.619  23.474   2.591  1.00  0.00     0.017 C 
HETATM    2  C2  UNL     1       1.405  22.450   2.886  1.00  0.00    -0.054 C 
HETATM    3  C3  UNL     1       2.386  22.148   1.804  1.00  0.00     0.081 C 
HETATM    4  C4  UNL     1       2.257  20.745   1.379  1.00  0.00     0.128 C 
HETATM    5  F1  UNL     1       2.736  20.491   0.074  1.00  0.00    -0.241 F 
HETATM    6  C7  UNL     1       3.031  19.769   2.251  1.00  0.00     0.024 C 
HETATM    7  C8  UNL     1       2.398  18.418   1.819  1.00  0.00     0.024 C 
HETATM    8  C9  UNL     1       2.706  19.889   3.698  1.00  0.00    -0.045 C 
HETATM    9  C10 UNL     1       3.493  19.191   4.518  1.00  0.00    -0.018 C 
HETATM   10  C11 UNL     1       4.642  18.334   4.064  1.00  0.00     0.033 C 
HETATM   11  C12 UNL     1       5.327  19.152   3.047  1.00  0.00    -0.001 C 
HETATM   12  C13 UNL     1       6.589  18.529   2.589  1.00  0.00     0.006 C 
HETATM   13  C14 UNL     1       6.431  17.260   1.805  1.00  0.00     0.084 C 
HETATM   14  C15 UNL     1       7.254  17.479   0.585  1.00  0.00     0.132 C 
HETATM   15  O3  UNL     1       7.073  16.925  -0.474  1.00  0.00    -0.298 OA
HETATM   16  C16 UNL     1       8.270  18.480   0.997  1.00  0.00     0.068 C 
HETATM   17  C22 UNL     1       7.393  19.489   1.685  1.00  0.00    -0.029 C 
HETATM   18  C23 UNL     1       8.101  20.408   2.621  1.00  0.00     0.016 C 
HETATM   19  C24 UNL     1       6.512  20.237   0.756  1.00  0.00     0.011 C 
HETATM   20  C25 UNL     1       5.249  20.792   1.393  1.00  0.00     0.007 C 
HETATM   21  C26 UNL     1       4.458  19.653   1.912  1.00  0.00     0.006 C 
HETATM   22  C27 UNL     1       1.732  20.582   4.557  1.00  0.00    -0.044 C 
HETATM   23  C28 UNL     1       0.647  19.618   5.088  1.00  0.00     0.047 C 
HETATM   24  C29 UNL     1       1.136  21.852   4.193  1.00  0.00     0.176 C 
ENDROOT
BRANCH  16  25
HETATM   25  C17 UNL     1       9.017  18.953  -0.181  1.00  0.00     0.003 C 
HETATM   26  C18 UNL     1      10.252  18.060  -0.323  1.00  0.00     0.011 C 
BRANCH  25  27
HETATM   27  C19 UNL     1       9.478  20.366  -0.175  1.00  0.00     0.116 C 
BRANCH  27  28
HETATM   28  C20 UNL     1       9.362  20.928  -1.543  1.00  0.00     0.258 C 
HETATM   29  O4  UNL     1       8.698  20.432  -2.481  1.00  0.00    -0.265 OA
BRANCH  28  30
HETATM   30  O5  UNL     1      10.040  22.123  -1.859  1.00  0.00    -0.326 OA
HETATM   31  C21 UNL     1      11.189  22.535  -1.139  1.00  0.00     0.213 C 
ENDBRANCH  28  30
ENDBRANCH  27  28
ENDBRANCH  25  27
ENDBRANCH  16  25
BRANCH   4  32
HETATM   32  C5  UNL     1       0.795  20.401   1.240  1.00  0.00     0.158 C 
BRANCH  32  33
HETATM   33  C6  UNL     1       0.274  20.592  -0.142  1.00  0.00     0.175 C 
HETATM   34  O1  UNL     1      -0.020  21.730  -0.586  1.00  0.00    -0.648 OA
HETATM   35  O2  UNL     1       0.098  19.508  -0.978  1.00  0.00    -0.648 OA
ENDBRANCH  32  33
ENDBRANCH   4  32
BRANCH  24  36
HETATM   36  O6  UNL     1       1.395  22.897   5.125  1.00  0.00    -0.387 OA
ATOM     37  H6  UNL     1       1.452  22.458   5.966  1.00  0.00     0.210 HD
ENDBRANCH  24  36
TORSDOF 7
ENDMDL
MODEL 3
REMARK VINA RESULT: -6.303166618      2.770      8.331
REMARK  7 active torsions:
REMARK  status: ('A' for Active; 'I' for Inactive)
REMARK    1  A    between atoms: C4_4  and  C5_6 
REMARK    2  A    between atoms: C5_6  and  C6_7 
REMARK    3  A    between atoms: C16_20  and  C17_21 
REMARK    4  A    between atoms: C17_21  and  C19_23 
REMARK    5  A    between atoms: C19_23  and  C20_24 
REMARK    6  A    between atoms: C20_24  and  O5_26 
REMARK    7  A    between atoms: C29_35  and  O6_36 
ROOT
HETATM    1  C1  UNL     1       1.552  25.330   1.410  1.00  0.00     0.017 C 
HETATM    2  C2  UNL     1       1.715  24.225   2.121  1.00  0.00    -0.054 C 
HETATM    3  C3  UNL     1       2.756  23.322   1.551  1.00  0.00     0.081 C 
HETATM    4  C4  UNL     1       2.191  21.985   1.304  1.00  0.00     0.128 C 
HETATM    5  F1  UNL     1       2.887  21.235   0.332  1.00  0.00    -0.241 F 
HETATM    6  C7  UNL     1       2.190  21.088   2.531  1.00  0.00     0.024 C 
HETATM    7  C8  UNL     1       1.215  19.967   2.078  1.00  0.00     0.024 C 
HETATM    8  C9  UNL     1       1.528  21.705   3.712  1.00  0.00    -0.045 C 
HETATM    9  C10 UNL     1       1.670  21.038   4.858  1.00  0.00    -0.018 C 
HETATM   10  C11 UNL     1       2.438  19.753   5.002  1.00  0.00     0.033 C 
HETATM   11  C12 UNL     1       3.669  19.977   4.224  1.00  0.00    -0.001 C 
HETATM   12  C13 UNL     1       4.632  18.863   4.375  1.00  0.00     0.006 C 
HETATM   13  C14 UNL     1       4.205  17.558   3.771  1.00  0.00     0.084 C 
HETATM   14  C15 UNL     1       5.368  17.139   2.943  1.00  0.00     0.132 C 
HETATM   15  O3  UNL     1       5.299  16.409   1.982  1.00  0.00    -0.298 OA
HETATM   16  C16 UNL     1       6.533  17.810   3.573  1.00  0.00     0.068 C 
HETATM   17  C22 UNL     1       5.992  19.205   3.726  1.00  0.00    -0.029 C 
HETATM   18  C23 UNL     1       6.702  20.052   4.727  1.00  0.00     0.016 C 
HETATM   19  C24 UNL     1       5.823  19.919   2.437  1.00  0.00     0.011 C 
HETATM   20  C25 UNL     1       4.777  21.021   2.459  1.00  0.00     0.007 C 
HETATM   21  C26 UNL     1       3.470  20.407   2.785  1.00  0.00     0.006 C 
HETATM   22  C27 UNL     1       0.722  22.896   4.028  1.00  0.00    -0.044 C 
HETATM   23  C28 UNL     1      -0.769  22.542   4.228  1.00  0.00     0.047 C 
HETATM   24  C29 UNL     1       0.844  24.139   3.294  1.00  0.00     0.176 C 
ENDROOT
BRANCH  16  25
HETATM   25  C17 UNL     1       7.723  17.658   2.719  1.00  0.00     0.003 C 
HETATM   26  C18 UNL     1       8.451  16.393   3.179  1.00  0.00     0.011 C 
BRANCH  25  27
HETATM   27  C19 UNL     1       8.708  18.771   2.715  1.00  0.00     0.116 C 
BRANCH  27  28
HETATM   28  C20 UNL     1       9.254  18.942   1.345  1.00  0.00     0.258 C 
HETATM   29  O4  UNL     1      10.053  18.163   0.777  1.00  0.00    -0.265 OA
BRANCH  28  30
HETATM   30  O5  UNL     1       8.867  20.061   0.581  1.00  0.00    -0.326 OA
HETATM   31  C21 UNL     1       8.057  19.924  -0.575  1.00  0.00     0.213 C 
ENDBRANCH  28  30
ENDBRANCH  27  28
ENDBRANCH  25  27
ENDBRANCH  16  25
BRANCH   4  32
HETATM   32  C5  UNL     1       0.833  22.132   0.664  1.00  0.00     0.158 C 
BRANCH  32  33
HETATM   33  C6  UNL     1       0.818  21.753  -0.776  1.00  0.00     0.175 C 
HETATM   34  O1  UNL     1       1.166  22.560  -1.675  1.00  0.00    -0.648 OA
HETATM   35  O2  UNL     1       0.412  20.492  -1.163  1.00  0.00    -0.648 OA
ENDBRANCH  32  33
ENDBRANCH   4  32
BRANCH  24  36
HETATM   36  O6  UNL     1       1.222  25.250   4.101  1.00  0.00    -0.387 OA
ATOM     37  H6  UNL     1       0.884  25.042   4.964  1.00  0.00     0.210 HD
ENDBRANCH  24  36
TORSDOF 7
ENDMDL
MODEL 4
REMARK VINA RESULT: -6.261057568      3.059      5.048
REMARK  7 active torsions:
REMARK  status: ('A' for Active; 'I' for Inactive)
REMARK    1  A    between atoms: C4_4  and  C5_6 
REMARK    2  A    between atoms: C5_6  and  C6_7 
REMARK    3  A    between atoms: C16_20  and  C17_21 
REMARK    4  A    between atoms: C17_21  and  C19_23 
REMARK    5  A    between atoms: C19_23  and  C20_24 
REMARK    6  A    between atoms: C20_24  and  O5_26 
REMARK    7  A    between atoms: C29_35  and  O6_36 
ROOT
HETATM    1  C1  UNL     1       7.986  20.180  -0.244  1.00  0.00     0.017 C 
HETATM    2  C2  UNL     1       6.907  19.702   0.355  1.00  0.00    -0.054 C 
HETATM    3  C3  UNL     1       6.279  20.688   1.282  1.00  0.00     0.081 C 
HETATM    4  C4  UNL     1       6.162  20.113   2.632  1.00  0.00     0.128 C 
HETATM    5  F1  UNL     1       6.076  21.075   3.663  1.00  0.00    -0.241 F 
HETATM    6  C7  UNL     1       4.922  19.255   2.825  1.00  0.00     0.024 C 
HETATM    7  C8  UNL     1       5.280  18.507   4.138  1.00  0.00     0.024 C 
HETATM    8  C9  UNL     1       4.788  18.179   1.806  1.00  0.00    -0.045 C 
HETATM    9  C10 UNL     1       3.625  17.525   1.819  1.00  0.00    -0.018 C 
HETATM   10  C11 UNL     1       2.498  17.818   2.770  1.00  0.00     0.033 C 
HETATM   11  C12 UNL     1       2.415  19.289   2.793  1.00  0.00    -0.001 C 
HETATM   12  C13 UNL     1       1.248  19.768   3.567  1.00  0.00     0.006 C 
HETATM   13  C14 UNL     1       1.307  19.512   5.044  1.00  0.00     0.084 C 
HETATM   14  C15 UNL     1       1.005  20.832   5.658  1.00  0.00     0.132 C 
HETATM   15  O3  UNL     1       1.363  21.174   6.762  1.00  0.00    -0.298 OA
HETATM   16  C16 UNL     1       0.213  21.548   4.627  1.00  0.00     0.068 C 
HETATM   17  C22 UNL     1       1.059  21.294   3.410  1.00  0.00    -0.029 C 
HETATM   18  C23 UNL     1       0.357  21.469   2.106  1.00  0.00     0.016 C 
HETATM   19  C24 UNL     1       2.354  22.014   3.428  1.00  0.00     0.011 C 
HETATM   20  C25 UNL     1       3.447  21.370   2.592  1.00  0.00     0.007 C 
HETATM   21  C26 UNL     1       3.701  20.015   3.134  1.00  0.00     0.006 C 
HETATM   22  C27 UNL     1       5.583  17.580   0.721  1.00  0.00    -0.044 C 
HETATM   23  C28 UNL     1       6.147  16.197   1.121  1.00  0.00     0.047 C 
HETATM   24  C29 UNL     1       6.577  18.327  -0.022  1.00  0.00     0.176 C 
ENDROOT
BRANCH  16  25
HETATM   25  C17 UNL     1       0.034  22.957   5.019  1.00  0.00     0.003 C 
HETATM   26  C18 UNL     1      -1.022  22.988   6.126  1.00  0.00     0.011 C 
BRANCH  25  27
HETATM   27  C19 UNL     1      -0.390  23.912   3.962  1.00  0.00     0.116 C 
BRANCH  27  28
HETATM   28  C20 UNL     1       0.409  25.157   4.072  1.00  0.00     0.258 C 
HETATM   29  O4  UNL     1       0.797  25.682   5.141  1.00  0.00    -0.265 OA
BRANCH  28  30
HETATM   30  O5  UNL     1       0.788  25.842   2.899  1.00  0.00    -0.326 OA
HETATM   31  C21 UNL     1       1.824  25.359   2.062  1.00  0.00     0.213 C 
ENDBRANCH  28  30
ENDBRANCH  27  28
ENDBRANCH  25  27
ENDBRANCH  16  25
BRANCH   4  32
HETATM   32  C5  UNL     1       7.446  19.404   2.982  1.00  0.00     0.158 C 
BRANCH  32  33
HETATM   33  C6  UNL     1       8.409  20.263   3.726  1.00  0.00     0.175 C 
HETATM   34  O1  UNL     1       9.192  21.046   3.131  1.00  0.00    -0.648 OA
HETATM   35  O2  UNL     1       8.467  20.218   5.104  1.00  0.00    -0.648 OA
ENDBRANCH  32  33
ENDBRANCH   4  32
BRANCH  24  36
HETATM   36  O6  UNL     1       6.320  18.393  -1.421  1.00  0.00    -0.387 OA
ATOM     37  H6  UNL     1       7.172  18.280  -1.825  1.00  0.00     0.210 HD
ENDBRANCH  24  36
TORSDOF 7
ENDMDL
MODEL 5
REMARK VINA RESULT: -6.200090438      3.429      6.167
REMARK  7 active torsions:
REMARK  status: ('A' for Active; 'I' for Inactive)
REMARK    1  A    between atoms: C4_4  and  C5_6 
REMARK    2  A    between atoms: C5_6  and  C6_7 
REMARK    3  A    between atoms: C16_20  and  C17_21 
REMARK    4  A    between atoms: C17_21  and  C19_23 
REMARK    5  A    between atoms: C19_23  and  C20_24 
REMARK    6  A    between atoms: C20_24  and  O5_26 
REMARK    7  A    between atoms: C29_35  and  O6_36 
ROOT
HETATM    1  C1  UNL     1       6.483  16.145   2.628  1.00  0.00     0.017 C 
HETATM    2  C2  UNL     1       5.765  17.258   2.647  1.00  0.00    -0.054 C 
HETATM    3  C3  UNL     1       4.939  17.430   1.417  1.00  0.00     0.081 C 
HETATM    4  C4  UNL     1       5.240  18.722   0.779  1.00  0.00     0.128 C 
HETATM    5  F1  UNL     1       4.931  18.772  -0.598  1.00  0.00    -0.241 F 
HETATM    6  C7  UNL     1       4.468  19.890   1.372  1.00  0.00     0.024 C 
HETATM    7  C8  UNL     1       5.265  21.094   0.799  1.00  0.00     0.024 C 
HETATM    8  C9  UNL     1       4.622  20.009   2.847  1.00  0.00    -0.045 C 
HETATM    9  C10 UNL     1       3.817  20.896   3.434  1.00  0.00    -0.018 C 
HETATM   10  C11 UNL     1       2.807  21.737   2.704  1.00  0.00     0.033 C 
HETATM   11  C12 UNL     1       2.165  20.800   1.764  1.00  0.00    -0.001 C 
HETATM   12  C13 UNL     1       1.022  21.419   1.056  1.00  0.00     0.006 C 
HETATM   13  C14 UNL     1       1.379  22.512   0.093  1.00  0.00     0.084 C 
HETATM   14  C15 UNL     1       0.677  22.137  -1.163  1.00  0.00     0.132 C 
HETATM   15  O3  UNL     1       1.022  22.479  -2.271  1.00  0.00    -0.298 OA
HETATM   16  C16 UNL     1      -0.464  21.301  -0.716  1.00  0.00     0.068 C 
HETATM   17  C22 UNL     1       0.237  20.371   0.235  1.00  0.00    -0.029 C 
HETATM   18  C23 UNL     1      -0.649  19.686   1.219  1.00  0.00     0.016 C 
HETATM   19  C24 UNL     1       1.143  19.409  -0.438  1.00  0.00     0.011 C 
HETATM   20  C25 UNL     1       2.273  18.889   0.434  1.00  0.00     0.007 C 
HETATM   21  C26 UNL     1       3.103  20.044   0.845  1.00  0.00     0.006 C 
HETATM   22  C27 UNL     1       5.430  19.413   3.924  1.00  0.00    -0.044 C 
HETATM   23  C28 UNL     1       6.534  20.378   4.413  1.00  0.00     0.047 C 
HETATM   24  C29 UNL     1       5.945  18.060   3.857  1.00  0.00     0.176 C 
ENDROOT
BRANCH  16  25
HETATM   25  C17 UNL     1      -1.119  20.678  -1.880  1.00  0.00     0.003 C 
HETATM   26  C18 UNL     1      -1.936  21.769  -2.576  1.00  0.00     0.011 C 
BRANCH  25  27
HETATM   27  C19 UNL     1      -2.026  19.530  -1.620  1.00  0.00     0.116 C 
BRANCH  27  28
HETATM   28  C20 UNL     1      -2.970  19.380  -2.754  1.00  0.00     0.258 C 
HETATM   29  O4  UNL     1      -2.651  19.138  -3.941  1.00  0.00    -0.265 OA
BRANCH  28  30
HETATM   30  O5  UNL     1      -4.354  19.512  -2.524  1.00  0.00    -0.326 OA
HETATM   31  C21 UNL     1      -4.866  19.804  -1.234  1.00  0.00     0.213 C 
ENDBRANCH  28  30
ENDBRANCH  27  28
ENDBRANCH  25  27
ENDBRANCH  16  25
BRANCH   4  32
HETATM   32  C5  UNL     1       6.734  18.932   0.766  1.00  0.00     0.158 C 
BRANCH  32  33
HETATM   33  C6  UNL     1       7.375  18.514  -0.513  1.00  0.00     0.175 C 
HETATM   34  O1  UNL     1       7.601  17.306  -0.774  1.00  0.00    -0.648 OA
HETATM   35  O2  UNL     1       7.743  19.457  -1.451  1.00  0.00    -0.648 OA
ENDBRANCH  32  33
ENDBRANCH   4  32
BRANCH  24  36
HETATM   36  O6  UNL     1       5.492  17.219   4.913  1.00  0.00    -0.387 OA
ATOM     37  H6  UNL     1       5.197  17.821   5.587  1.00  0.00     0.210 HD
ENDBRANCH  24  36
TORSDOF 7
ENDMDL
