MODEL 1
REMARK VINA RESULT: -7.135500853      0.000      0.000
REMARK  7 active torsions:
REMARK  status: ('A' for Active; 'I' for Inactive)
REMARK    1  A    between atoms: O1_2  and  C2_3 
REMARK    2  A    between atoms: C6_9  and  C7_10 
REMARK    3  A    between atoms: C10_13  and  C11_14 
REMARK    4  A    between atoms: C16_24  and  C17_25 
REMARK    5  A    between atoms: C20_28  and  N3_29 
REMARK    6  A    between atoms: C23_32  and  O3_33 
REMARK    7  A    between atoms: O3_33  and  C24_34 
ROOT
HETATM    1  C2  UNL     1       5.685  18.520   4.944  1.00  0.00     0.082 A 
HETATM    2  C3  UNL     1       4.505  18.494   5.688  1.00  0.00     0.082 A 
HETATM    3  C4  UNL     1       3.338  18.848   5.108  1.00  0.00     0.153 A 
HETATM    4  F1  UNL     1       2.180  18.835   5.809  1.00  0.00    -0.203 F 
HETATM    5  C5  UNL     1       3.341  19.223   3.799  1.00  0.00     0.126 A 
HETATM    6  O2  UNL     1       2.342  19.598   3.018  1.00  0.00    -0.306 OA
HETATM    7  C6  UNL     1       2.748  19.868   1.822  1.00  0.00     0.087 A 
HETATM    8  C14 UNL     1       4.128  19.650   1.821  1.00  0.00     0.053 A 
HETATM    9  C15 UNL     1       4.504  19.244   3.074  1.00  0.00     0.017 A 
HETATM   10  C16 UNL     1       5.748  18.890   3.622  1.00  0.00     0.013 A 
ENDROOT
BRANCH  10  11
HETATM   11  C17 UNL     1       6.994  18.845   2.870  1.00  0.00    -0.066 C 
HETATM   12  C18 UNL     1       7.186  17.803   1.837  1.00  0.00     0.037 C 
HETATM   13  C19 UNL     1       7.896  18.135   0.567  1.00  0.00     0.030 C 
HETATM   14  C20 UNL     1       8.603  19.450   0.504  1.00  0.00     0.088 C 
HETATM   15  C27 UNL     1       9.018  19.882   1.895  1.00  0.00     0.030 C 
HETATM   16  C28 UNL     1       7.679  20.150   2.647  1.00  0.00     0.037 C 
BRANCH  14  17
HETATM   17  N3  UNL     1       9.622  19.541  -0.463  1.00  0.00    -0.369 N 
HETATM   18  C21 UNL     1      10.320  18.372  -0.792  1.00  0.00     0.066 C 
HETATM   19  C22 UNL     1      10.308  17.929  -2.213  1.00  0.00     0.077 C 
HETATM   20  C23 UNL     1      10.515  19.040  -3.202  1.00  0.00     0.140 C 
HETATM   21  C25 UNL     1      10.448  20.404  -2.606  1.00  0.00     0.077 C 
HETATM   22  C26 UNL     1       9.500  20.540  -1.449  1.00  0.00     0.066 C 
BRANCH  20  23
HETATM   23  O3  UNL     1       9.537  18.958  -4.228  1.00  0.00    -0.323 OA
BRANCH  23  24
HETATM   24  C24 UNL     1       8.420  18.159  -4.073  1.00  0.00     0.223 C 
HETATM   25  N4  UNL     1       7.236  18.574  -3.445  1.00  0.00    -0.063 NA
HETATM   26  S1  UNL     1       8.504  16.625  -4.670  1.00  0.00    -0.037 SA
ENDBRANCH  23  24
ENDBRANCH  20  23
ENDBRANCH  14  17
ENDBRANCH  10  11
BRANCH   1  27
HETATM   27  O1  UNL     1       6.804  18.148   5.617  1.00  0.00    -0.355 OA
HETATM   28  C1  UNL     1       7.015  16.963   6.314  1.00  0.00     0.210 C 
ENDBRANCH   1  27
BRANCH   7  29
HETATM   29  C7  UNL     1       1.949  20.314   0.673  1.00  0.00     0.001 A 
HETATM   30  C8  UNL     1       1.963  21.617   0.250  1.00  0.00     0.015 A 
HETATM   31  C9  UNL     1       1.228  22.066  -0.822  1.00  0.00     0.019 A 
HETATM   32  C10 UNL     1       0.412  21.192  -1.549  1.00  0.00     0.043 A 
HETATM   33  C12 UNL     1       0.396  19.893  -1.128  1.00  0.00     0.130 A 
HETATM   34  F2  UNL     1      -0.371  18.977  -1.777  1.00  0.00    -0.205 F 
HETATM   35  C13 UNL     1       1.155  19.446  -0.027  1.00  0.00     0.057 A 
BRANCH  32  36
HETATM   36  C11 UNL     1      -0.351  21.704  -2.675  1.00  0.00     0.123 C 
HETATM   37  N1  UNL     1      -1.602  21.806  -2.809  1.00  0.00    -0.387 N 
ATOM     38  H12 UNL     1      -2.134  21.480  -2.002  1.00  0.00     0.157 HD
ATOM     39  H11 UNL     1      -2.138  22.165  -3.599  1.00  0.00     0.157 HD
HETATM   40  N2  UNL     1       0.413  22.172  -3.837  1.00  0.00    -0.082 NA
ENDBRANCH  32  36
ENDBRANCH   7  29
TORSDOF 7
ENDMDL
MODEL 2
REMARK VINA RESULT: -6.976543022      2.869      3.695
REMARK  7 active torsions:
REMARK  status: ('A' for Active; 'I' for Inactive)
REMARK    1  A    between atoms: O1_2  and  C2_3 
REMARK    2  A    between atoms: C6_9  and  C7_10 
REMARK    3  A    between atoms: C10_13  and  C11_14 
REMARK    4  A    between atoms: C16_24  and  C17_25 
REMARK    5  A    between atoms: C20_28  and  N3_29 
REMARK    6  A    between atoms: C23_32  and  O3_33 
REMARK    7  A    between atoms: O3_33  and  C24_34 
ROOT
HETATM    1  C2  UNL     1       8.222  16.101   5.171  1.00  0.00     0.082 A 
HETATM    2  C3  UNL     1       7.437  16.179   6.323  1.00  0.00     0.082 A 
HETATM    3  C4  UNL     1       6.390  17.031   6.365  1.00  0.00     0.153 A 
HETATM    4  F1  UNL     1       5.616  17.128   7.471  1.00  0.00    -0.203 F 
HETATM    5  C5  UNL     1       6.122  17.798   5.273  1.00  0.00     0.126 A 
HETATM    6  O2  UNL     1       5.163  18.687   5.070  1.00  0.00    -0.306 OA
HETATM    7  C6  UNL     1       5.234  19.204   3.889  1.00  0.00     0.087 A 
HETATM    8  C14 UNL     1       6.332  18.603   3.267  1.00  0.00     0.053 A 
HETATM    9  C15 UNL     1       6.896  17.715   4.145  1.00  0.00     0.017 A 
HETATM   10  C16 UNL     1       7.998  16.851   4.042  1.00  0.00     0.013 A 
ENDROOT
BRANCH  10  11
HETATM   11  C17 UNL     1       8.808  16.692   2.842  1.00  0.00    -0.066 C 
HETATM   12  C18 UNL     1       8.260  15.953   1.683  1.00  0.00     0.037 C 
HETATM   13  C19 UNL     1       8.550  16.422   0.296  1.00  0.00     0.030 C 
HETATM   14  C20 UNL     1       9.594  17.478   0.137  1.00  0.00     0.088 C 
HETATM   15  C27 UNL     1      10.590  17.399   1.276  1.00  0.00     0.030 C 
HETATM   16  C28 UNL     1       9.774  17.788   2.547  1.00  0.00     0.037 C 
BRANCH  14  17
HETATM   17  N3  UNL     1      10.178  17.562  -1.142  1.00  0.00    -0.369 N 
HETATM   18  C21 UNL     1       9.343  17.411  -2.255  1.00  0.00     0.066 C 
HETATM   19  C22 UNL     1       9.287  18.525  -3.241  1.00  0.00     0.077 C 
HETATM   20  C23 UNL     1      10.628  19.108  -3.583  1.00  0.00     0.140 C 
HETATM   21  C25 UNL     1      11.735  18.642  -2.700  1.00  0.00     0.077 C 
HETATM   22  C26 UNL     1      11.332  18.358  -1.282  1.00  0.00     0.066 C 
BRANCH  20  23
HETATM   23  O3  UNL     1      10.569  20.525  -3.507  1.00  0.00    -0.323 OA
BRANCH  23  24
HETATM   24  C24 UNL     1      10.015  21.148  -2.405  1.00  0.00     0.223 C 
HETATM   25  N4  UNL     1       8.700  20.938  -1.960  1.00  0.00    -0.063 NA
HETATM   26  S1  UNL     1      10.974  22.198  -1.574  1.00  0.00    -0.037 SA
ENDBRANCH  23  24
ENDBRANCH  20  23
ENDBRANCH  14  17
ENDBRANCH  10  11
BRANCH   1  27
HETATM   27  O1  UNL     1       9.250  15.216   5.228  1.00  0.00    -0.355 OA
HETATM   28  C1  UNL     1       9.188  13.872   5.579  1.00  0.00     0.210 C 
ENDBRANCH   1  27
BRANCH   7  29
HETATM   29  C7  UNL     1       4.358  20.218   3.289  1.00  0.00     0.001 A 
HETATM   30  C8  UNL     1       4.762  20.980   2.226  1.00  0.00     0.015 A 
HETATM   31  C9  UNL     1       3.966  21.936   1.641  1.00  0.00     0.019 A 
HETATM   32  C10 UNL     1       2.673  22.182   2.116  1.00  0.00     0.043 A 
HETATM   33  C12 UNL     1       2.268  21.424   3.177  1.00  0.00     0.130 A 
HETATM   34  F2  UNL     1       1.026  21.597   3.703  1.00  0.00    -0.205 F 
HETATM   35  C13 UNL     1       3.095  20.446   3.767  1.00  0.00     0.057 A 
BRANCH  32  36
HETATM   36  C11 UNL     1       1.861  23.201   1.473  1.00  0.00     0.123 C 
HETATM   37  N1  UNL     1       1.489  23.282   0.269  1.00  0.00    -0.387 N 
ATOM     38  H12 UNL     1       1.812  22.511  -0.316  1.00  0.00     0.157 HD
ATOM     39  H11 UNL     1       0.919  23.997  -0.182  1.00  0.00     0.157 HD
HETATM   40  N2  UNL     1       1.396  24.310   2.316  1.00  0.00    -0.082 NA
ENDBRANCH  32  36
ENDBRANCH   7  29
TORSDOF 7
ENDMDL
MODEL 3
REMARK VINA RESULT: -6.853852774      3.200      7.744
REMARK  7 active torsions:
REMARK  status: ('A' for Active; 'I' for Inactive)
REMARK    1  A    between atoms: O1_2  and  C2_3 
REMARK    2  A    between atoms: C6_9  and  C7_10 
REMARK    3  A    between atoms: C10_13  and  C11_14 
REMARK    4  A    between atoms: C16_24  and  C17_25 
REMARK    5  A    between atoms: C20_28  and  N3_29 
REMARK    6  A    between atoms: C23_32  and  O3_33 
REMARK    7  A    between atoms: O3_33  and  C24_34 
ROOT
HETATM    1  C2  UNL     1       5.150  18.523   5.372  1.00  0.00     0.082 A 
HETATM    2  C3  UNL     1       6.343  18.086   5.949  1.00  0.00     0.082 A 
HETATM    3  C4  UNL     1       7.467  18.028   5.204  1.00  0.00     0.153 A 
HETATM    4  F1  UNL     1       8.637  17.604   5.741  1.00  0.00    -0.203 F 
HETATM    5  C5  UNL     1       7.411  18.403   3.897  1.00  0.00     0.126 A 
HETATM    6  O2  UNL     1       8.363  18.442   2.980  1.00  0.00    -0.306 OA
HETATM    7  C6  UNL     1       7.915  18.869   1.847  1.00  0.00     0.087 A 
HETATM    8  C14 UNL     1       6.556  19.131   2.038  1.00  0.00     0.053 A 
HETATM    9  C15 UNL     1       6.236  18.833   3.336  1.00  0.00     0.017 A 
HETATM   10  C16 UNL     1       5.034  18.912   4.059  1.00  0.00     0.013 A 
ENDROOT
BRANCH  10  11
HETATM   11  C17 UNL     1       3.781  19.417   3.515  1.00  0.00    -0.066 C 
HETATM   12  C18 UNL     1       3.647  20.858   3.208  1.00  0.00     0.037 C 
HETATM   13  C19 UNL     1       2.892  21.294   1.996  1.00  0.00     0.030 C 
HETATM   14  C20 UNL     1       2.090  20.256   1.282  1.00  0.00     0.088 C 
HETATM   15  C27 UNL     1       1.669  19.169   2.250  1.00  0.00     0.030 C 
HETATM   16  C28 UNL     1       2.999  18.471   2.670  1.00  0.00     0.037 C 
BRANCH  14  17
HETATM   17  N3  UNL     1       1.049  20.749   0.472  1.00  0.00    -0.369 N 
HETATM   18  C21 UNL     1       1.291  21.909  -0.273  1.00  0.00     0.066 C 
HETATM   19  C22 UNL     1       1.136  21.834  -1.751  1.00  0.00     0.077 C 
HETATM   20  C23 UNL     1      -0.086  21.087  -2.202  1.00  0.00     0.140 C 
HETATM   21  C25 UNL     1      -0.784  20.351  -1.110  1.00  0.00     0.077 C 
HETATM   22  C26 UNL     1       0.117  19.820  -0.032  1.00  0.00     0.066 C 
BRANCH  20  23
HETATM   23  O3  UNL     1       0.267  20.151  -3.210  1.00  0.00    -0.323 OA
BRANCH  23  24
HETATM   24  C24 UNL     1      -0.075  20.376  -4.529  1.00  0.00     0.223 C 
HETATM   25  N4  UNL     1      -1.082  19.674  -5.212  1.00  0.00    -0.063 NA
HETATM   26  S1  UNL     1       0.762  21.544  -5.335  1.00  0.00    -0.037 SA
ENDBRANCH  23  24
ENDBRANCH  20  23
ENDBRANCH  14  17
ENDBRANCH  10  11
BRANCH   1  27
HETATM   27  O1  UNL     1       4.076  18.544   6.202  1.00  0.00    -0.355 OA
HETATM   28  C1  UNL     1       3.346  17.456   6.665  1.00  0.00     0.210 C 
ENDBRANCH   1  27
BRANCH   7  29
HETATM   29  C7  UNL     1       8.655  19.054   0.591  1.00  0.00     0.001 A 
HETATM   30  C8  UNL     1       9.397  18.045   0.038  1.00  0.00     0.015 A 
HETATM   31  C9  UNL     1      10.100  18.186  -1.135  1.00  0.00     0.019 A 
HETATM   32  C10 UNL     1      10.089  19.397  -1.837  1.00  0.00     0.043 A 
HETATM   33  C12 UNL     1       9.351  20.405  -1.287  1.00  0.00     0.130 A 
HETATM   34  F2  UNL     1       9.286  21.616  -1.902  1.00  0.00    -0.205 F 
HETATM   35  C13 UNL     1       8.635  20.247  -0.082  1.00  0.00     0.057 A 
BRANCH  32  36
HETATM   36  C11 UNL     1      10.845  19.508  -3.073  1.00  0.00     0.123 C 
HETATM   37  N1  UNL     1      10.511  20.045  -4.166  1.00  0.00    -0.387 N 
ATOM     38  H12 UNL     1       9.577  20.454  -4.158  1.00  0.00     0.157 HD
ATOM     39  H11 UNL     1      11.041  20.124  -5.034  1.00  0.00     0.157 HD
HETATM   40  N2  UNL     1      12.190  18.919  -3.085  1.00  0.00    -0.082 NA
ENDBRANCH  32  36
ENDBRANCH   7  29
TORSDOF 7
ENDMDL
MODEL 4
REMARK VINA RESULT: -6.842810432      7.142     10.825
REMARK  7 active torsions:
REMARK  status: ('A' for Active; 'I' for Inactive)
REMARK    1  A    between atoms: O1_2  and  C2_3 
REMARK    2  A    between atoms: C6_9  and  C7_10 
REMARK    3  A    between atoms: C10_13  and  C11_14 
REMARK    4  A    between atoms: C16_24  and  C17_25 
REMARK    5  A    between atoms: C20_28  and  N3_29 
REMARK    6  A    between atoms: C23_32  and  O3_33 
REMARK    7  A    between atoms: O3_33  and  C24_34 
ROOT
HETATM    1  C2  UNL     1       1.196  20.787   6.875  1.00  0.00     0.082 A 
HETATM    2  C3  UNL     1       1.904  19.627   6.558  1.00  0.00     0.082 A 
HETATM    3  C4  UNL     1       2.078  19.278   5.265  1.00  0.00     0.153 A 
HETATM    4  F1  UNL     1       2.758  18.156   4.932  1.00  0.00    -0.203 F 
HETATM    5  C5  UNL     1       1.556  20.075   4.293  1.00  0.00     0.126 A 
HETATM    6  O2  UNL     1       1.599  19.954   2.976  1.00  0.00    -0.306 OA
HETATM    7  C6  UNL     1       0.989  20.927   2.388  1.00  0.00     0.087 A 
HETATM    8  C14 UNL     1       0.506  21.756   3.404  1.00  0.00     0.053 A 
HETATM    9  C15 UNL     1       0.862  21.214   4.611  1.00  0.00     0.017 A 
HETATM   10  C16 UNL     1       0.646  21.627   5.936  1.00  0.00     0.013 A 
ENDROOT
BRANCH  10  11
HETATM   11  C17 UNL     1      -0.034  22.859   6.312  1.00  0.00    -0.066 C 
HETATM   12  C18 UNL     1       0.297  24.119   5.611  1.00  0.00     0.037 C 
HETATM   13  C19 UNL     1      -0.782  25.101   5.296  1.00  0.00     0.030 C 
HETATM   14  C20 UNL     1      -2.115  24.876   5.930  1.00  0.00     0.088 C 
HETATM   15  C27 UNL     1      -1.950  24.125   7.234  1.00  0.00     0.030 C 
HETATM   16  C28 UNL     1      -1.428  22.715   6.820  1.00  0.00     0.037 C 
BRANCH  14  17
HETATM   17  N3  UNL     1      -2.943  26.013   6.014  1.00  0.00    -0.369 N 
HETATM   18  C21 UNL     1      -3.389  26.407   7.281  1.00  0.00     0.066 C 
HETATM   19  C22 UNL     1      -3.051  27.781   7.743  1.00  0.00     0.077 C 
HETATM   20  C23 UNL     1      -3.235  28.841   6.695  1.00  0.00     0.140 C 
HETATM   21  C25 UNL     1      -3.479  28.306   5.326  1.00  0.00     0.077 C 
HETATM   22  C26 UNL     1      -2.790  27.006   5.026  1.00  0.00     0.066 C 
BRANCH  20  23
HETATM   23  O3  UNL     1      -2.083  29.672   6.646  1.00  0.00    -0.323 OA
BRANCH  23  24
HETATM   24  C24 UNL     1      -2.128  30.899   6.013  1.00  0.00     0.223 C 
HETATM   25  N4  UNL     1      -1.257  31.284   4.981  1.00  0.00    -0.063 NA
HETATM   26  S1  UNL     1      -3.281  31.963   6.515  1.00  0.00    -0.037 SA
ENDBRANCH  23  24
ENDBRANCH  20  23
ENDBRANCH  14  17
ENDBRANCH  10  11
BRANCH   1  27
HETATM   27  O1  UNL     1       1.075  21.050   8.201  1.00  0.00    -0.355 OA
HETATM   28  C1  UNL     1       0.336  20.336   9.138  1.00  0.00     0.210 C 
ENDBRANCH   1  27
BRANCH   7  29
HETATM   29  C7  UNL     1       0.819  21.151   0.946  1.00  0.00     0.001 A 
HETATM   30  C8  UNL     1       1.585  22.057   0.263  1.00  0.00     0.015 A 
HETATM   31  C9  UNL     1       1.451  22.289  -1.085  1.00  0.00     0.019 A 
HETATM   32  C10 UNL     1       0.502  21.592  -1.842  1.00  0.00     0.043 A 
HETATM   33  C12 UNL     1      -0.263  20.688  -1.163  1.00  0.00     0.130 A 
HETATM   34  F2  UNL     1      -1.210  19.968  -1.821  1.00  0.00    -0.205 F 
HETATM   35  C13 UNL     1      -0.115  20.460   0.220  1.00  0.00     0.057 A 
BRANCH  32  36
HETATM   36  C11 UNL     1       0.389  21.865  -3.266  1.00  0.00     0.123 C 
HETATM   37  N1  UNL     1       1.241  21.689  -4.181  1.00  0.00    -0.387 N 
ATOM     38  H12 UNL     1       2.125  21.298  -3.854  1.00  0.00     0.157 HD
ATOM     39  H11 UNL     1       1.162  21.881  -5.179  1.00  0.00     0.157 HD
HETATM   40  N2  UNL     1      -0.882  22.429  -3.735  1.00  0.00    -0.082 NA
ENDBRANCH  32  36
ENDBRANCH   7  29
TORSDOF 7
ENDMDL
MODEL 5
REMARK VINA RESULT: -6.752006277      1.953      2.472
REMARK  7 active torsions:
REMARK  status: ('A' for Active; 'I' for Inactive)
REMARK    1  A    between atoms: O1_2  and  C2_3 
REMARK    2  A    between atoms: C6_9  and  C7_10 
REMARK    3  A    between atoms: C10_13  and  C11_14 
REMARK    4  A    between atoms: C16_24  and  C17_25 
REMARK    5  A    between atoms: C20_28  and  N3_29 
REMARK    6  A    between atoms: C23_32  and  O3_33 
REMARK    7  A    between atoms: O3_33  and  C24_34 
ROOT
HETATM    1  C2  UNL     1       6.369  17.568   5.716  1.00  0.00     0.082 A 
HETATM    2  C3  UNL     1       5.301  17.912   6.547  1.00  0.00     0.082 A 
HETATM    3  C4  UNL     1       4.223  18.539   6.029  1.00  0.00     0.153 A 
HETATM    4  F1  UNL     1       3.176  18.886   6.815  1.00  0.00    -0.203 F 
HETATM    5  C5  UNL     1       4.201  18.819   4.697  1.00  0.00     0.126 A 
HETATM    6  O2  UNL     1       3.270  19.408   3.965  1.00  0.00    -0.306 OA
HETATM    7  C6  UNL     1       3.617  19.483   2.724  1.00  0.00     0.087 A 
HETATM    8  C14 UNL     1       4.881  18.894   2.636  1.00  0.00     0.053 A 
HETATM    9  C15 UNL     1       5.252  18.477   3.887  1.00  0.00     0.017 A 
HETATM   10  C16 UNL     1       6.401  17.828   4.367  1.00  0.00     0.013 A 
ENDROOT
BRANCH  10  11
HETATM   11  C17 UNL     1       7.512  17.396   3.529  1.00  0.00    -0.066 C 
HETATM   12  C18 UNL     1       7.403  16.133   2.766  1.00  0.00     0.037 C 
HETATM   13  C19 UNL     1       7.973  16.044   1.389  1.00  0.00     0.030 C 
HETATM   14  C20 UNL     1       8.851  17.165   0.940  1.00  0.00     0.088 C 
HETATM   15  C27 UNL     1       9.514  17.816   2.137  1.00  0.00     0.030 C 
HETATM   16  C28 UNL     1       8.345  18.477   2.930  1.00  0.00     0.037 C 
BRANCH  14  17
HETATM   17  N3  UNL     1       9.731  16.856  -0.116  1.00  0.00    -0.369 N 
HETATM   18  C21 UNL     1       9.201  16.784  -1.410  1.00  0.00     0.066 C 
HETATM   19  C22 UNL     1       9.772  17.684  -2.449  1.00  0.00     0.077 C 
HETATM   20  C23 UNL     1      11.271  17.770  -2.428  1.00  0.00     0.140 C 
HETATM   21  C25 UNL     1      11.898  17.144  -1.230  1.00  0.00     0.077 C 
HETATM   22  C26 UNL     1      11.081  17.233   0.028  1.00  0.00     0.066 C 
BRANCH  20  23
HETATM   23  O3  UNL     1      11.675  19.131  -2.477  1.00  0.00    -0.323 OA
BRANCH  23  24
HETATM   24  C24 UNL     1      10.853  20.089  -3.039  1.00  0.00     0.223 C 
HETATM   25  N4  UNL     1      10.654  20.243  -4.420  1.00  0.00    -0.063 NA
HETATM   26  S1  UNL     1      10.065  21.103  -2.007  1.00  0.00    -0.037 SA
ENDBRANCH  23  24
ENDBRANCH  20  23
ENDBRANCH  14  17
ENDBRANCH  10  11
BRANCH   1  27
HETATM   27  O1  UNL     1       7.405  16.943   6.331  1.00  0.00    -0.355 OA
HETATM   28  C1  UNL     1       7.368  16.214   7.514  1.00  0.00     0.210 C 
ENDBRANCH   1  27
BRANCH   7  29
HETATM   29  C7  UNL     1       2.861  20.063   1.605  1.00  0.00     0.001 A 
HETATM   30  C8  UNL     1       2.304  19.279   0.631  1.00  0.00     0.015 A 
HETATM   31  C9  UNL     1       1.592  19.789  -0.428  1.00  0.00     0.019 A 
HETATM   32  C10 UNL     1       1.396  21.169  -0.563  1.00  0.00     0.043 A 
HETATM   33  C12 UNL     1       1.951  21.953   0.408  1.00  0.00     0.130 A 
HETATM   34  F2  UNL     1       1.811  23.304   0.354  1.00  0.00    -0.205 F 
HETATM   35  C13 UNL     1       2.680  21.415   1.489  1.00  0.00     0.057 A 
BRANCH  32  36
HETATM   36  C11 UNL     1       0.638  21.672  -1.696  1.00  0.00     0.123 C 
HETATM   37  N1  UNL     1       1.034  22.361  -2.677  1.00  0.00    -0.387 N 
ATOM     38  H12 UNL     1       2.029  22.582  -2.653  1.00  0.00     0.157 HD
ATOM     39  H11 UNL     1       0.502  22.714  -3.473  1.00  0.00     0.157 HD
HETATM   40  N2  UNL     1      -0.794  21.353  -1.731  1.00  0.00    -0.082 NA
ENDBRANCH  32  36
ENDBRANCH   7  29
TORSDOF 7
ENDMDL
