MODEL 1
REMARK VINA RESULT: -8.641528117      0.000      0.000
REMARK  6 active torsions:
REMARK  status: ('A' for Active; 'I' for Inactive)
REMARK       I    between atoms: N1_5  and  C5_6 
REMARK    1  A    between atoms: C5_6  and  C6_8 
REMARK    2  A    between atoms: C8_14  and  S1_15 
REMARK    3  A    between atoms: S1_15  and  S2_16 
REMARK    4  A    between atoms: S2_16  and  C9_17 
REMARK    5  A    between atoms: C10_20  and  C11_21 
REMARK    6  A    between atoms: C17_30  and  C18_31 
ROOT
HETATM    1  C9  UNL     1       1.638  20.558   2.478  1.00  0.00     0.110 A 
HETATM    2  N4  UNL     1       2.583  19.573   2.686  1.00  0.00    -0.338 N 
ATOM      3  H4  UNL     1       2.407  18.571   2.612  1.00  0.00     0.168 HD
HETATM    4  C10 UNL     1       3.752  20.119   2.995  1.00  0.00     0.086 A 
HETATM    5  N6  UNL     1       3.612  21.445   3.000  1.00  0.00    -0.343 N 
ATOM      6  H6  UNL     1       4.340  22.130   3.203  1.00  0.00     0.167 HD
HETATM    7  C17 UNL     1       2.288  21.720   2.677  1.00  0.00     0.081 A 
ENDROOT
BRANCH   1   8
HETATM    8  S2  UNL     1      -0.039  20.234   2.061  1.00  0.00    -0.030 SA
BRANCH   8   9
HETATM    9  S1  UNL     1      -0.338  19.578   0.106  1.00  0.00    -0.030 SA
BRANCH   9  10
HETATM   10  C8  UNL     1       0.223  20.795  -1.046  1.00  0.00     0.112 A 
HETATM   11  C6  UNL     1      -0.491  21.210  -2.148  1.00  0.00     0.084 A 
HETATM   12  C7  UNL     1       0.291  22.153  -2.783  1.00  0.00     0.127 A 
HETATM   13  N2  UNL     1       1.431  22.302  -2.091  1.00  0.00    -0.310 N 
HETATM   14  N3  UNL     1       1.378  21.472  -1.039  1.00  0.00    -0.293 N 
ATOM     15  H2  UNL     1       2.200  22.932  -2.324  1.00  0.00     0.186 HD
ATOM     16  H3  UNL     1       2.111  21.372  -0.335  1.00  0.00     0.187 HD
BRANCH  11  17
HETATM   17  C5  UNL     1      -1.821  20.776  -2.609  1.00  0.00     0.258 C 
HETATM   18  N1  UNL     1      -1.942  19.685  -3.507  1.00  0.00    -0.348 N 
HETATM   19  C4  UNL     1      -0.784  18.974  -3.994  1.00  0.00     0.126 C 
HETATM   20  C24 UNL     1      -3.248  19.272  -3.939  1.00  0.00     0.126 C 
HETATM   21  C3  UNL     1      -0.880  18.616  -5.435  1.00  0.00     0.024 C 
HETATM   22  C2  UNL     1      -2.207  18.082  -5.879  1.00  0.00    -0.015 C 
HETATM   23  C1  UNL     1      -2.447  16.652  -5.430  1.00  0.00     0.010 C 
HETATM   24  C25 UNL     1      -3.360  18.929  -5.388  1.00  0.00     0.024 C 
HETATM   25  O1  UNL     1      -2.860  21.358  -2.217  1.00  0.00    -0.267 OA
ENDBRANCH  11  17
ENDBRANCH   9  10
ENDBRANCH   8   9
ENDBRANCH   1   8
BRANCH   7  26
HETATM   26  C18 UNL     1       1.795  23.087   2.623  1.00  0.00     0.035 A 
HETATM   27  C19 UNL     1       0.912  23.557   3.563  1.00  0.00     0.059 A 
HETATM   28  C20 UNL     1       0.490  24.893   3.545  1.00  0.00     0.117 A 
HETATM   29  F1  UNL     1      -0.381  25.361   4.472  1.00  0.00    -0.206 F 
HETATM   30  C21 UNL     1       0.942  25.775   2.588  1.00  0.00     0.045 A 
HETATM   31  C22 UNL     1       1.827  25.297   1.645  1.00  0.00     0.046 A 
HETATM   32  C23 UNL     1       2.232  23.988   1.676  1.00  0.00     0.129 A 
HETATM   33  F2  UNL     1       3.110  23.553   0.724  1.00  0.00    -0.205 F 
ENDBRANCH   7  26
BRANCH   4  34
HETATM   34  C11 UNL     1       5.028  19.370   3.296  1.00  0.00     0.056 C 
HETATM   35  C12 UNL     1       6.174  20.300   3.492  1.00  0.00     0.032 C 
HETATM   36  C13 UNL     1       7.157  19.741   4.452  1.00  0.00     0.117 C 
HETATM   37  N5  UNL     1       7.284  18.333   4.518  1.00  0.00    -0.417 N 
HETATM   38  C14 UNL     1       8.235  17.728   3.655  1.00  0.00     0.143 C 
HETATM   39  C15 UNL     1       6.041  17.624   4.679  1.00  0.00     0.117 C 
HETATM   40  C16 UNL     1       4.845  18.538   4.519  1.00  0.00     0.032 C 
ENDBRANCH   4  34
TORSDOF 6
ENDMDL
MODEL 2
REMARK VINA RESULT: -8.422680073      1.488      1.811
REMARK  6 active torsions:
REMARK  status: ('A' for Active; 'I' for Inactive)
REMARK       I    between atoms: N1_5  and  C5_6 
REMARK    1  A    between atoms: C5_6  and  C6_8 
REMARK    2  A    between atoms: C8_14  and  S1_15 
REMARK    3  A    between atoms: S1_15  and  S2_16 
REMARK    4  A    between atoms: S2_16  and  C9_17 
REMARK    5  A    between atoms: C10_20  and  C11_21 
REMARK    6  A    between atoms: C17_30  and  C18_31 
ROOT
HETATM    1  C9  UNL     1       1.855  21.194   1.683  1.00  0.00     0.110 A 
HETATM    2  N4  UNL     1       2.967  20.403   1.471  1.00  0.00    -0.338 N 
ATOM      3  H4  UNL     1       2.946  19.455   1.096  1.00  0.00     0.168 HD
HETATM    4  C10 UNL     1       4.067  21.056   1.826  1.00  0.00     0.086 A 
HETATM    5  N6  UNL     1       3.717  22.264   2.272  1.00  0.00    -0.343 N 
ATOM      6  H6  UNL     1       4.348  22.989   2.614  1.00  0.00     0.167 HD
HETATM    7  C17 UNL     1       2.333  22.350   2.183  1.00  0.00     0.081 A 
ENDROOT
BRANCH   1   8
HETATM    8  S2  UNL     1       0.209  20.678   1.347  1.00  0.00    -0.030 SA
BRANCH   8   9
HETATM    9  S1  UNL     1      -0.066  19.812  -0.528  1.00  0.00    -0.030 SA
BRANCH   9  10
HETATM   10  C8  UNL     1       0.200  21.005  -1.804  1.00  0.00     0.112 A 
HETATM   11  C6  UNL     1      -0.672  21.238  -2.844  1.00  0.00     0.084 A 
HETATM   12  C7  UNL     1      -0.099  22.228  -3.615  1.00  0.00     0.127 A 
HETATM   13  N2  UNL     1       1.072  22.579  -3.062  1.00  0.00    -0.310 N 
HETATM   14  N3  UNL     1       1.243  21.830  -1.963  1.00  0.00    -0.293 N 
ATOM     15  H2  UNL     1       1.717  23.288  -3.414  1.00  0.00     0.186 HD
ATOM     16  H3  UNL     1       2.049  21.880  -1.340  1.00  0.00     0.187 HD
BRANCH  11  17
HETATM   17  C5  UNL     1      -1.967  20.597  -3.130  1.00  0.00     0.258 C 
HETATM   18  N1  UNL     1      -2.011  19.355  -3.812  1.00  0.00    -0.348 N 
HETATM   19  C4  UNL     1      -0.807  18.686  -4.245  1.00  0.00     0.126 C 
HETATM   20  C24 UNL     1      -3.283  18.742  -4.076  1.00  0.00     0.126 C 
HETATM   21  C3  UNL     1      -0.933  18.064  -5.591  1.00  0.00     0.024 C 
HETATM   22  C2  UNL     1      -2.213  17.328  -5.842  1.00  0.00    -0.015 C 
HETATM   23  C1  UNL     1      -2.271  15.987  -5.134  1.00  0.00     0.010 C 
HETATM   24  C25 UNL     1      -3.427  18.132  -5.430  1.00  0.00     0.024 C 
HETATM   25  O1  UNL     1      -3.044  21.134  -2.777  1.00  0.00    -0.267 OA
ENDBRANCH  11  17
ENDBRANCH   9  10
ENDBRANCH   8   9
ENDBRANCH   1   8
BRANCH   7  26
HETATM   26  C18 UNL     1       1.623  23.542   2.620  1.00  0.00     0.035 A 
HETATM   27  C19 UNL     1       1.730  24.721   1.925  1.00  0.00     0.059 A 
HETATM   28  C20 UNL     1       0.993  25.849   2.310  1.00  0.00     0.117 A 
HETATM   29  F1  UNL     1       1.096  27.014   1.626  1.00  0.00    -0.206 F 
HETATM   30  C21 UNL     1       0.144  25.814   3.394  1.00  0.00     0.045 A 
HETATM   31  C22 UNL     1       0.042  24.628   4.089  1.00  0.00     0.046 A 
HETATM   32  C23 UNL     1       0.767  23.533   3.699  1.00  0.00     0.129 A 
HETATM   33  F2  UNL     1       0.638  22.376   4.415  1.00  0.00    -0.205 F 
ENDBRANCH   7  26
BRANCH   4  34
HETATM   34  C11 UNL     1       5.477  20.525   1.747  1.00  0.00     0.056 C 
HETATM   35  C12 UNL     1       6.290  20.952   2.920  1.00  0.00     0.032 C 
HETATM   36  C13 UNL     1       7.316  19.935   3.256  1.00  0.00     0.117 C 
HETATM   37  N5  UNL     1       7.837  19.152   2.199  1.00  0.00    -0.417 N 
HETATM   38  C14 UNL     1       8.985  19.652   1.528  1.00  0.00     0.143 C 
HETATM   39  C15 UNL     1       6.843  18.530   1.364  1.00  0.00     0.117 C 
HETATM   40  C16 UNL     1       5.450  19.036   1.674  1.00  0.00     0.032 C 
ENDBRANCH   4  34
TORSDOF 6
ENDMDL
MODEL 3
REMARK VINA RESULT: -8.110978879      3.870      8.484
REMARK  6 active torsions:
REMARK  status: ('A' for Active; 'I' for Inactive)
REMARK       I    between atoms: N1_5  and  C5_6 
REMARK    1  A    between atoms: C5_6  and  C6_8 
REMARK    2  A    between atoms: C8_14  and  S1_15 
REMARK    3  A    between atoms: S1_15  and  S2_16 
REMARK    4  A    between atoms: S2_16  and  C9_17 
REMARK    5  A    between atoms: C10_20  and  C11_21 
REMARK    6  A    between atoms: C17_30  and  C18_31 
ROOT
HETATM    1  C9  UNL     1       2.491  21.224   1.158  1.00  0.00     0.110 A 
HETATM    2  N4  UNL     1       2.296  20.599  -0.058  1.00  0.00    -0.338 N 
ATOM      3  H4  UNL     1       2.880  19.848  -0.427  1.00  0.00     0.168 HD
HETATM    4  C10 UNL     1       1.242  21.115  -0.675  1.00  0.00     0.086 A 
HETATM    5  N6  UNL     1       0.725  22.072   0.098  1.00  0.00    -0.343 N 
ATOM      6  H6  UNL     1      -0.091  22.646  -0.113  1.00  0.00     0.167 HD
HETATM    7  C17 UNL     1       1.508  22.141   1.245  1.00  0.00     0.081 A 
ENDROOT
BRANCH   1   8
HETATM    8  S2  UNL     1       3.797  20.828   2.266  1.00  0.00    -0.030 SA
BRANCH   8   9
HETATM    9  S1  UNL     1       5.320  19.674   1.437  1.00  0.00    -0.030 SA
BRANCH   9  10
HETATM   10  C8  UNL     1       6.884  20.133   2.120  1.00  0.00     0.112 A 
HETATM   11  C6  UNL     1       8.082  19.538   1.791  1.00  0.00     0.084 A 
HETATM   12  C7  UNL     1       9.050  20.174   2.540  1.00  0.00     0.127 A 
HETATM   13  N2  UNL     1       8.459  21.116   3.292  1.00  0.00    -0.310 N 
HETATM   14  N3  UNL     1       7.145  21.082   3.028  1.00  0.00    -0.293 N 
ATOM     15  H2  UNL     1       8.926  21.745   3.946  1.00  0.00     0.186 HD
ATOM     16  H3  UNL     1       6.446  21.690   3.456  1.00  0.00     0.187 HD
BRANCH  11  17
HETATM   17  C5  UNL     1       8.343  18.443   0.840  1.00  0.00     0.258 C 
HETATM   18  N1  UNL     1       9.049  18.700  -0.363  1.00  0.00    -0.348 N 
HETATM   19  C4  UNL     1       9.528  20.021  -0.693  1.00  0.00     0.126 C 
HETATM   20  C24 UNL     1       9.300  17.618  -1.275  1.00  0.00     0.126 C 
HETATM   21  C3  UNL     1       9.357  20.364  -2.131  1.00  0.00     0.024 C 
HETATM   22  C2  UNL     1       9.718  19.280  -3.099  1.00  0.00    -0.015 C 
HETATM   23  C1  UNL     1      11.217  19.095  -3.244  1.00  0.00     0.010 C 
HETATM   24  C25 UNL     1       9.112  17.947  -2.718  1.00  0.00     0.024 C 
HETATM   25  O1  UNL     1       7.950  17.276   1.077  1.00  0.00    -0.267 OA
ENDBRANCH  11  17
ENDBRANCH   9  10
ENDBRANCH   8   9
ENDBRANCH   1   8
BRANCH   7  26
HETATM   26  C18 UNL     1       1.227  23.112   2.291  1.00  0.00     0.035 A 
HETATM   27  C19 UNL     1       0.685  22.721   3.490  1.00  0.00     0.059 A 
HETATM   28  C20 UNL     1       0.476  23.649   4.519  1.00  0.00     0.117 A 
HETATM   29  F1  UNL     1      -0.058  23.266   5.704  1.00  0.00    -0.206 F 
HETATM   30  C21 UNL     1       0.805  24.977   4.363  1.00  0.00     0.045 A 
HETATM   31  C22 UNL     1       1.347  25.365   3.156  1.00  0.00     0.046 A 
HETATM   32  C23 UNL     1       1.546  24.446   2.160  1.00  0.00     0.129 A 
HETATM   33  F2  UNL     1       2.086  24.870   0.978  1.00  0.00    -0.205 F 
ENDBRANCH   7  26
BRANCH   4  34
HETATM   34  C11 UNL     1       0.712  20.698  -2.025  1.00  0.00     0.056 C 
HETATM   35  C12 UNL     1      -0.488  19.825  -1.896  1.00  0.00     0.032 C 
HETATM   36  C13 UNL     1      -1.408  20.010  -3.045  1.00  0.00     0.117 C 
HETATM   37  N5  UNL     1      -0.840  20.365  -4.292  1.00  0.00    -0.417 N 
HETATM   38  C14 UNL     1      -0.460  19.303  -5.155  1.00  0.00     0.143 C 
HETATM   39  C15 UNL     1       0.058  21.490  -4.247  1.00  0.00     0.117 C 
HETATM   40  C16 UNL     1       0.367  21.907  -2.825  1.00  0.00     0.032 C 
ENDBRANCH   4  34
TORSDOF 6
ENDMDL
MODEL 4
REMARK VINA RESULT: -8.076039322      1.546      2.083
REMARK  6 active torsions:
REMARK  status: ('A' for Active; 'I' for Inactive)
REMARK       I    between atoms: N1_5  and  C5_6 
REMARK    1  A    between atoms: C5_6  and  C6_8 
REMARK    2  A    between atoms: C8_14  and  S1_15 
REMARK    3  A    between atoms: S1_15  and  S2_16 
REMARK    4  A    between atoms: S2_16  and  C9_17 
REMARK    5  A    between atoms: C10_20  and  C11_21 
REMARK    6  A    between atoms: C17_30  and  C18_31 
ROOT
HETATM    1  C9  UNL     1       2.255  19.614   1.911  1.00  0.00     0.110 A 
HETATM    2  N4  UNL     1       2.583  18.553   2.732  1.00  0.00    -0.338 N 
ATOM      3  H4  UNL     1       2.515  17.570   2.470  1.00  0.00     0.168 HD
HETATM    4  C10 UNL     1       2.998  18.998   3.911  1.00  0.00     0.086 A 
HETATM    5  N6  UNL     1       2.956  20.332   3.899  1.00  0.00    -0.343 N 
ATOM      6  H6  UNL     1       3.217  20.953   4.665  1.00  0.00     0.167 HD
HETATM    7  C17 UNL     1       2.490  20.717   2.648  1.00  0.00     0.081 A 
ENDROOT
BRANCH   1   8
HETATM    8  S2  UNL     1       1.651  19.432   0.271  1.00  0.00    -0.030 SA
BRANCH   8   9
HETATM    9  S1  UNL     1       0.020  20.642  -0.195  1.00  0.00    -0.030 SA
BRANCH   9  10
HETATM   10  C8  UNL     1       0.276  21.452  -1.745  1.00  0.00     0.112 A 
HETATM   11  C6  UNL     1      -0.602  21.398  -2.805  1.00  0.00     0.084 A 
HETATM   12  C7  UNL     1      -0.036  22.147  -3.815  1.00  0.00     0.127 A 
HETATM   13  N2  UNL     1       1.137  22.635  -3.382  1.00  0.00    -0.310 N 
HETATM   14  N3  UNL     1       1.315  22.207  -2.124  1.00  0.00    -0.293 N 
ATOM     15  H2  UNL     1       1.777  23.226  -3.914  1.00  0.00     0.186 HD
ATOM     16  H3  UNL     1       2.124  22.424  -1.541  1.00  0.00     0.187 HD
BRANCH  11  17
HETATM   17  C5  UNL     1      -1.896  20.701  -2.902  1.00  0.00     0.258 C 
HETATM   18  N1  UNL     1      -1.984  19.454  -3.572  1.00  0.00    -0.348 N 
HETATM   19  C4  UNL     1      -0.827  18.834  -4.173  1.00  0.00     0.126 C 
HETATM   20  C24 UNL     1      -3.254  18.786  -3.650  1.00  0.00     0.126 C 
HETATM   21  C3  UNL     1      -1.118  18.200  -5.487  1.00  0.00     0.024 C 
HETATM   22  C2  UNL     1      -2.388  17.410  -5.553  1.00  0.00    -0.015 C 
HETATM   23  C1  UNL     1      -2.288  16.071  -4.845  1.00  0.00     0.010 C 
HETATM   24  C25 UNL     1      -3.564  18.163  -4.971  1.00  0.00     0.024 C 
HETATM   25  O1  UNL     1      -2.933  21.194  -2.398  1.00  0.00    -0.267 OA
ENDBRANCH  11  17
ENDBRANCH   9  10
ENDBRANCH   8   9
ENDBRANCH   1   8
BRANCH   7  26
HETATM   26  C18 UNL     1       2.300  22.120   2.314  1.00  0.00     0.035 A 
HETATM   27  C19 UNL     1       1.369  22.883   2.974  1.00  0.00     0.059 A 
HETATM   28  C20 UNL     1       1.234  24.250   2.695  1.00  0.00     0.117 A 
HETATM   29  F1  UNL     1       0.317  25.006   3.346  1.00  0.00    -0.206 F 
HETATM   30  C21 UNL     1       2.025  24.869   1.753  1.00  0.00     0.045 A 
HETATM   31  C22 UNL     1       2.957  24.098   1.092  1.00  0.00     0.046 A 
HETATM   32  C23 UNL     1       3.078  22.763   1.377  1.00  0.00     0.129 A 
HETATM   33  F2  UNL     1       4.014  22.033   0.699  1.00  0.00    -0.205 F 
ENDBRANCH   7  26
BRANCH   4  34
HETATM   34  C11 UNL     1       3.441  18.145   5.075  1.00  0.00     0.056 C 
HETATM   35  C12 UNL     1       3.251  16.695   4.794  1.00  0.00     0.032 C 
HETATM   36  C13 UNL     1       4.274  15.877   5.490  1.00  0.00     0.117 C 
HETATM   37  N5  UNL     1       4.784  16.367   6.716  1.00  0.00    -0.417 N 
HETATM   38  C14 UNL     1       4.103  15.980   7.901  1.00  0.00     0.143 C 
HETATM   39  C15 UNL     1       5.247  17.730   6.674  1.00  0.00     0.117 C 
HETATM   40  C16 UNL     1       4.878  18.411   5.374  1.00  0.00     0.032 C 
ENDBRANCH   4  34
TORSDOF 6
ENDMDL
MODEL 5
REMARK VINA RESULT: -8.008774214      2.821      9.088
REMARK  6 active torsions:
REMARK  status: ('A' for Active; 'I' for Inactive)
REMARK       I    between atoms: N1_5  and  C5_6 
REMARK    1  A    between atoms: C5_6  and  C6_8 
REMARK    2  A    between atoms: C8_14  and  S1_15 
REMARK    3  A    between atoms: S1_15  and  S2_16 
REMARK    4  A    between atoms: S2_16  and  C9_17 
REMARK    5  A    between atoms: C10_20  and  C11_21 
REMARK    6  A    between atoms: C17_30  and  C18_31 
ROOT
HETATM    1  C9  UNL     1       2.495  20.974   0.681  1.00  0.00     0.110 A 
HETATM    2  N4  UNL     1       2.207  20.292  -0.485  1.00  0.00    -0.338 N 
ATOM      3  H4  UNL     1       2.721  19.481  -0.829  1.00  0.00     0.168 HD
HETATM    4  C10 UNL     1       1.166  20.845  -1.094  1.00  0.00     0.086 A 
HETATM    5  N6  UNL     1       0.751  21.882  -0.363  1.00  0.00    -0.343 N 
ATOM      6  H6  UNL     1      -0.032  22.499  -0.579  1.00  0.00     0.167 HD
HETATM    7  C17 UNL     1       1.584  21.963   0.747  1.00  0.00     0.081 A 
ENDROOT
BRANCH   1   8
HETATM    8  S2  UNL     1       3.816  20.551   1.761  1.00  0.00    -0.030 SA
BRANCH   8   9
HETATM    9  S1  UNL     1       3.745  18.606   2.503  1.00  0.00    -0.030 SA
BRANCH   9  10
HETATM   10  C8  UNL     1       3.412  18.619   4.239  1.00  0.00     0.112 A 
HETATM   11  C6  UNL     1       4.280  18.152   5.201  1.00  0.00     0.084 A 
HETATM   12  C7  UNL     1       3.648  18.333   6.413  1.00  0.00     0.127 A 
HETATM   13  N2  UNL     1       2.446  18.888   6.192  1.00  0.00    -0.310 N 
HETATM   14  N3  UNL     1       2.314  19.057   4.868  1.00  0.00    -0.293 N 
ATOM     15  H2  UNL     1       1.756  19.136   6.902  1.00  0.00     0.186 HD
ATOM     16  H3  UNL     1       1.497  19.460   4.408  1.00  0.00     0.187 HD
BRANCH  11  17
HETATM   17  C5  UNL     1       5.622  17.569   5.034  1.00  0.00     0.258 C 
HETATM   18  N1  UNL     1       6.745  18.413   4.837  1.00  0.00    -0.348 N 
HETATM   19  C4  UNL     1       6.613  19.850   4.792  1.00  0.00     0.126 C 
HETATM   20  C24 UNL     1       8.047  17.826   4.683  1.00  0.00     0.126 C 
HETATM   21  C3  UNL     1       7.464  20.484   3.749  1.00  0.00     0.024 C 
HETATM   22  C2  UNL     1       8.861  19.955   3.649  1.00  0.00    -0.015 C 
HETATM   23  C1  UNL     1       9.756  20.435   4.778  1.00  0.00     0.010 C 
HETATM   24  C25 UNL     1       8.902  18.443   3.626  1.00  0.00     0.024 C 
HETATM   25  O1  UNL     1       5.794  16.327   5.065  1.00  0.00    -0.267 OA
ENDBRANCH  11  17
ENDBRANCH   9  10
ENDBRANCH   8   9
ENDBRANCH   1   8
BRANCH   7  26
HETATM   26  C18 UNL     1       1.415  23.012   1.740  1.00  0.00     0.035 A 
HETATM   27  C19 UNL     1       1.765  24.310   1.462  1.00  0.00     0.059 A 
HETATM   28  C20 UNL     1       1.540  25.329   2.398  1.00  0.00     0.117 A 
HETATM   29  F1  UNL     1       1.884  26.611   2.126  1.00  0.00    -0.206 F 
HETATM   30  C21 UNL     1       0.966  25.064   3.621  1.00  0.00     0.045 A 
HETATM   31  C22 UNL     1       0.618  23.758   3.896  1.00  0.00     0.046 A 
HETATM   32  C23 UNL     1       0.842  22.773   2.970  1.00  0.00     0.129 A 
HETATM   33  F2  UNL     1       0.484  21.491   3.280  1.00  0.00    -0.205 F 
ENDBRANCH   7  26
BRANCH   4  34
HETATM   34  C11 UNL     1       0.553  20.388  -2.394  1.00  0.00     0.056 C 
HETATM   35  C12 UNL     1      -0.780  19.759  -2.180  1.00  0.00     0.032 C 
HETATM   36  C13 UNL     1      -1.669  19.981  -3.346  1.00  0.00     0.117 C 
HETATM   37  N5  UNL     1      -1.064  20.096  -4.621  1.00  0.00    -0.417 N 
HETATM   38  C14 UNL     1      -0.889  18.898  -5.363  1.00  0.00     0.143 C 
HETATM   39  C15 UNL     1       0.018  21.043  -4.691  1.00  0.00     0.117 C 
HETATM   40  C16 UNL     1       0.415  21.548  -3.320  1.00  0.00     0.032 C 
ENDBRANCH   4  34
TORSDOF 6
ENDMDL
