MODEL 1
REMARK VINA RESULT: -8.042385449      0.000      0.000
REMARK  6 active torsions:
REMARK  status: ('A' for Active; 'I' for Inactive)
REMARK    1  A    between atoms: N1_2  and  C3_4 
REMARK    2  A    between atoms: C5_6  and  O1_7 
REMARK    3  A    between atoms: O1_7  and  C6_8 
REMARK    4  A    between atoms: C12_15  and  C13_16 
REMARK    5  A    between atoms: C16_22  and  C17_23 
REMARK    6  A    between atoms: C18_24  and  C19_25 
ROOT
HETATM    1  C13 UNL     1       3.295  18.908   4.292  1.00  0.00     0.059 A 
HETATM    2  C14 UNL     1       2.428  17.953   3.825  1.00  0.00     0.121 A 
HETATM    3  N2  UNL     1       1.118  18.260   3.574  1.00  0.00    -0.330 N 
ATOM      4  H2  UNL     1       0.495  17.530   3.228  1.00  0.00     0.168 HD
HETATM    5  C15 UNL     1       0.634  19.495   3.773  1.00  0.00     0.273 A 
HETATM    6  O3  UNL     1      -0.582  19.744   3.531  1.00  0.00    -0.266 OA
HETATM    7  C16 UNL     1       1.505  20.452   4.242  1.00  0.00     0.115 A 
HETATM    8  N5  UNL     1       2.791  20.144   4.486  1.00  0.00    -0.349 N 
ATOM      9  H5  UNL     1       3.411  20.877   4.833  1.00  0.00     0.166 HD
ENDROOT
BRANCH   7  10
HETATM   10  C17 UNL     1       1.021  21.805   4.471  1.00  0.00     0.038 A 
HETATM   11  C18 UNL     1       0.276  22.193   5.584  1.00  0.00     0.073 A 
HETATM   12  N4  UNL     1       0.040  23.504   5.405  1.00  0.00    -0.353 N 
HETATM   13  C24 UNL     1       0.590  23.942   4.259  1.00  0.00     0.047 A 
ATOM     14  H4  UNL     1      -0.487  24.089   6.053  1.00  0.00     0.166 HD
HETATM   15  C25 UNL     1       0.619  25.200   3.648  1.00  0.00     0.075 A 
HETATM   16  C29 UNL     1       1.226  22.888   3.634  1.00  0.00     0.009 A 
HETATM   17  C26 UNL     1       1.267  25.380   2.447  1.00  0.00     0.157 A 
HETATM   18  F1  UNL     1       1.264  26.615   1.901  1.00  0.00    -0.203 F 
HETATM   19  C27 UNL     1       1.902  24.328   1.825  1.00  0.00     0.155 A 
HETATM   20  F2  UNL     1       2.536  24.514   0.646  1.00  0.00    -0.203 F 
HETATM   21  C28 UNL     1       1.881  23.072   2.422  1.00  0.00     0.060 A 
BRANCH  11  22
HETATM   22  C19 UNL     1      -0.139  21.331   6.688  1.00  0.00     0.059 A 
HETATM   23  C20 UNL     1       0.647  21.276   7.838  1.00  0.00     0.032 A 
HETATM   24  C21 UNL     1       0.334  20.500   8.910  1.00  0.00     0.004 A 
HETATM   25  C22 UNL     1      -0.812  19.735   8.855  1.00  0.00     0.017 A 
HETATM   26  C23 UNL     1      -1.585  19.803   7.698  1.00  0.00     0.088 A 
HETATM   27  N3  UNL     1      -1.249  20.581   6.651  1.00  0.00    -0.364 N 
ATOM     28  H3  UNL     1      -1.844  20.599   5.823  1.00  0.00     0.165 HD
ENDBRANCH  11  22
ENDBRANCH   7  10
BRANCH   1  29
HETATM   29  C12 UNL     1       4.713  18.666   4.588  1.00  0.00    -0.003 A 
HETATM   30  C11 UNL     1       5.083  17.821   5.612  1.00  0.00     0.050 A 
HETATM   31  C5  UNL     1       6.426  17.567   5.924  1.00  0.00     0.072 A 
HETATM   32  C4  UNL     1       7.425  18.171   5.197  1.00  0.00     0.066 A 
HETATM   33  C3  UNL     1       7.070  19.016   4.170  1.00  0.00     0.033 A 
HETATM   34  C30 UNL     1       5.722  19.260   3.871  1.00  0.00     0.043 A 
BRANCH  31  35
HETATM   35  O1  UNL     1       6.729  16.719   6.953  1.00  0.00    -0.346 OA
BRANCH  35  36
HETATM   36  C6  UNL     1       6.693  15.336   6.991  1.00  0.00     0.133 C 
HETATM   37  C7  UNL     1       6.296  14.879   8.394  1.00  0.00     0.058 C 
HETATM   38  C8  UNL     1       7.483  14.425   9.197  1.00  0.00     0.170 C 
HETATM   39  O2  UNL     1       8.008  13.252   8.662  1.00  0.00    -0.391 OA
HETATM   40  C9  UNL     1       8.064  13.311   7.280  1.00  0.00     0.170 C 
HETATM   41  C10 UNL     1       8.083  14.726   6.762  1.00  0.00     0.058 C 
ENDBRANCH  35  36
ENDBRANCH  31  35
BRANCH  33  42
HETATM   42  N1  UNL     1       8.098  19.643   3.414  1.00  0.00    -0.389 N 
HETATM   43  C1  UNL     1       8.035  19.800   1.981  1.00  0.00     0.149 C 
HETATM   44  C2  UNL     1       9.265  20.150   4.096  1.00  0.00     0.149 C 
ENDBRANCH  33  42
ENDBRANCH   1  29
TORSDOF 6
ENDMDL
MODEL 2
REMARK VINA RESULT: -8.014932766      0.487      1.013
REMARK  6 active torsions:
REMARK  status: ('A' for Active; 'I' for Inactive)
REMARK    1  A    between atoms: N1_2  and  C3_4 
REMARK    2  A    between atoms: C5_6  and  O1_7 
REMARK    3  A    between atoms: O1_7  and  C6_8 
REMARK    4  A    between atoms: C12_15  and  C13_16 
REMARK    5  A    between atoms: C16_22  and  C17_23 
REMARK    6  A    between atoms: C18_24  and  C19_25 
ROOT
HETATM    1  C13 UNL     1       3.143  18.821   4.237  1.00  0.00     0.059 A 
HETATM    2  C14 UNL     1       2.242  17.905   3.760  1.00  0.00     0.121 A 
HETATM    3  N2  UNL     1       0.943  18.262   3.515  1.00  0.00    -0.330 N 
ATOM      4  H2  UNL     1       0.293  17.560   3.160  1.00  0.00     0.168 HD
HETATM    5  C15 UNL     1       0.505  19.512   3.729  1.00  0.00     0.273 A 
HETATM    6  O3  UNL     1      -0.701  19.809   3.490  1.00  0.00    -0.266 OA
HETATM    7  C16 UNL     1       1.412  20.431   4.207  1.00  0.00     0.115 A 
HETATM    8  N5  UNL     1       2.685  20.073   4.447  1.00  0.00    -0.349 N 
ATOM      9  H5  UNL     1       3.332  20.778   4.801  1.00  0.00     0.166 HD
ENDROOT
BRANCH   7  10
HETATM   10  C17 UNL     1       0.978  21.798   4.453  1.00  0.00     0.038 A 
HETATM   11  C18 UNL     1       0.267  22.205   5.581  1.00  0.00     0.073 A 
HETATM   12  N4  UNL     1       0.072  23.524   5.414  1.00  0.00    -0.353 N 
HETATM   13  C24 UNL     1       0.616  23.949   4.260  1.00  0.00     0.047 A 
ATOM     14  H4  UNL     1      -0.423  24.122   6.075  1.00  0.00     0.166 HD
HETATM   15  C25 UNL     1       0.676  25.209   3.655  1.00  0.00     0.075 A 
HETATM   16  C29 UNL     1       1.204  22.878   3.618  1.00  0.00     0.009 A 
HETATM   17  C26 UNL     1       1.308  25.374   2.444  1.00  0.00     0.157 A 
HETATM   18  F1  UNL     1       1.337  26.612   1.904  1.00  0.00    -0.203 F 
HETATM   19  C27 UNL     1       1.895  24.305   1.804  1.00  0.00     0.155 A 
HETATM   20  F2  UNL     1       2.514  24.477   0.615  1.00  0.00    -0.203 F 
HETATM   21  C28 UNL     1       1.842  23.048   2.395  1.00  0.00     0.060 A 
BRANCH  11  22
HETATM   22  C19 UNL     1      -0.157  21.350   6.687  1.00  0.00     0.059 A 
HETATM   23  C20 UNL     1       0.647  21.263   7.823  1.00  0.00     0.032 A 
HETATM   24  C21 UNL     1       0.327  20.492   8.896  1.00  0.00     0.004 A 
HETATM   25  C22 UNL     1      -0.844  19.765   8.858  1.00  0.00     0.017 A 
HETATM   26  C23 UNL     1      -1.635  19.865   7.715  1.00  0.00     0.088 A 
HETATM   27  N3  UNL     1      -1.292  20.637   6.667  1.00  0.00    -0.364 N 
ATOM     28  H3  UNL     1      -1.901  20.680   5.850  1.00  0.00     0.165 HD
ENDBRANCH  11  22
ENDBRANCH   7  10
BRANCH   1  29
HETATM   29  C12 UNL     1       4.552  18.524   4.529  1.00  0.00    -0.003 A 
HETATM   30  C11 UNL     1       4.911  17.327   5.111  1.00  0.00     0.050 A 
HETATM   31  C5  UNL     1       6.244  17.010   5.404  1.00  0.00     0.072 A 
HETATM   32  C4  UNL     1       7.244  17.907   5.111  1.00  0.00     0.066 A 
HETATM   33  C3  UNL     1       6.900  19.106   4.529  1.00  0.00     0.033 A 
HETATM   34  C30 UNL     1       5.561  19.409   4.242  1.00  0.00     0.043 A 
BRANCH  31  35
HETATM   35  O1  UNL     1       6.538  15.805   5.982  1.00  0.00    -0.346 OA
BRANCH  35  36
HETATM   36  C6  UNL     1       7.366  15.524   7.054  1.00  0.00     0.133 C 
HETATM   37  C7  UNL     1       8.242  14.319   6.715  1.00  0.00     0.058 C 
HETATM   38  C8  UNL     1       7.734  13.054   7.349  1.00  0.00     0.170 C 
HETATM   39  O2  UNL     1       7.875  13.118   8.733  1.00  0.00    -0.391 OA
HETATM   40  C9  UNL     1       7.502  14.359   9.219  1.00  0.00     0.170 C 
HETATM   41  C10 UNL     1       6.566  15.087   8.290  1.00  0.00     0.058 C 
ENDBRANCH  35  36
ENDBRANCH  31  35
BRANCH  33  42
HETATM   42  N1  UNL     1       7.928  20.038   4.223  1.00  0.00    -0.389 N 
HETATM   43  C1  UNL     1       9.227  20.011   4.851  1.00  0.00     0.149 C 
HETATM   44  C2  UNL     1       7.677  21.068   3.243  1.00  0.00     0.149 C 
ENDBRANCH  33  42
ENDBRANCH   1  29
TORSDOF 6
ENDMDL
MODEL 3
REMARK VINA RESULT: -7.984519581      0.876      1.185
REMARK  6 active torsions:
REMARK  status: ('A' for Active; 'I' for Inactive)
REMARK    1  A    between atoms: N1_2  and  C3_4 
REMARK    2  A    between atoms: C5_6  and  O1_7 
REMARK    3  A    between atoms: O1_7  and  C6_8 
REMARK    4  A    between atoms: C12_15  and  C13_16 
REMARK    5  A    between atoms: C16_22  and  C17_23 
REMARK    6  A    between atoms: C18_24  and  C19_25 
ROOT
HETATM    1  C13 UNL     1       3.540  18.726   4.199  1.00  0.00     0.059 A 
HETATM    2  C14 UNL     1       2.772  17.836   3.493  1.00  0.00     0.121 A 
HETATM    3  N2  UNL     1       1.506  18.168   3.094  1.00  0.00    -0.330 N 
ATOM      4  H2  UNL     1       0.955  17.487   2.571  1.00  0.00     0.168 HD
HETATM    5  C15 UNL     1       0.970  19.366   3.375  1.00  0.00     0.273 A 
HETATM    6  O3  UNL     1      -0.203  19.640   2.991  1.00  0.00    -0.266 OA
HETATM    7  C16 UNL     1       1.744  20.258   4.083  1.00  0.00     0.115 A 
HETATM    8  N5  UNL     1       2.987  19.926   4.472  1.00  0.00    -0.349 N 
ATOM      9  H5  UNL     1       3.534  20.609   4.996  1.00  0.00     0.166 HD
ENDROOT
BRANCH   7  10
HETATM   10  C17 UNL     1       1.201  21.568   4.408  1.00  0.00     0.038 A 
HETATM   11  C18 UNL     1       0.476  21.852   5.565  1.00  0.00     0.073 A 
HETATM   12  N4  UNL     1       0.170  23.157   5.473  1.00  0.00    -0.353 N 
HETATM   13  C24 UNL     1       0.660  23.689   4.339  1.00  0.00     0.047 A 
ATOM     14  H4  UNL     1      -0.363  23.676   6.171  1.00  0.00     0.166 HD
HETATM   15  C25 UNL     1       0.606  24.981   3.805  1.00  0.00     0.075 A 
HETATM   16  C29 UNL     1       1.325  22.708   3.632  1.00  0.00     0.009 A 
HETATM   17  C26 UNL     1       1.205  25.264   2.598  1.00  0.00     0.157 A 
HETATM   18  F1  UNL     1       1.123  26.527   2.127  1.00  0.00    -0.203 F 
HETATM   19  C27 UNL     1       1.869  24.284   1.894  1.00  0.00     0.155 A 
HETATM   20  F2  UNL     1       2.454  24.572   0.710  1.00  0.00    -0.203 F 
HETATM   21  C28 UNL     1       1.929  22.996   2.415  1.00  0.00     0.060 A 
BRANCH  11  22
HETATM   22  C19 UNL     1       0.141  20.906   6.626  1.00  0.00     0.059 A 
HETATM   23  C20 UNL     1       1.004  20.772   7.713  1.00  0.00     0.032 A 
HETATM   24  C21 UNL     1       0.768  19.915   8.742  1.00  0.00     0.004 A 
HETATM   25  C22 UNL     1      -0.377  19.147   8.709  1.00  0.00     0.017 A 
HETATM   26  C23 UNL     1      -1.228  19.296   7.616  1.00  0.00     0.088 A 
HETATM   27  N3  UNL     1      -0.968  20.152   6.609  1.00  0.00    -0.364 N 
ATOM     28  H3  UNL     1      -1.619  20.228   5.828  1.00  0.00     0.165 HD
ENDBRANCH  11  22
ENDBRANCH   7  10
BRANCH   1  29
HETATM   29  C12 UNL     1       4.906  18.453   4.666  1.00  0.00    -0.003 A 
HETATM   30  C11 UNL     1       5.161  17.395   5.512  1.00  0.00     0.050 A 
HETATM   31  C5  UNL     1       6.450  17.105   5.979  1.00  0.00     0.072 A 
HETATM   32  C4  UNL     1       7.512  17.888   5.594  1.00  0.00     0.066 A 
HETATM   33  C3  UNL     1       7.273  18.948   4.748  1.00  0.00     0.033 A 
HETATM   34  C30 UNL     1       5.977  19.226   4.290  1.00  0.00     0.043 A 
BRANCH  31  35
HETATM   35  O1  UNL     1       6.639  16.040   6.817  1.00  0.00    -0.346 OA
BRANCH  35  36
HETATM   36  C6  UNL     1       6.632  16.000   8.200  1.00  0.00     0.133 C 
HETATM   37  C7  UNL     1       7.426  14.784   8.675  1.00  0.00     0.058 C 
HETATM   38  C8  UNL     1       6.530  13.647   9.081  1.00  0.00     0.170 C 
HETATM   39  O2  UNL     1       5.820  13.980  10.232  1.00  0.00    -0.391 OA
HETATM   40  C9  UNL     1       5.342  15.277  10.169  1.00  0.00     0.170 C 
HETATM   41  C10 UNL     1       5.217  15.780   8.755  1.00  0.00     0.058 C 
ENDBRANCH  35  36
ENDBRANCH  31  35
BRANCH  33  42
HETATM   42  N1  UNL     1       8.366  19.763   4.345  1.00  0.00    -0.389 N 
HETATM   43  C1  UNL     1       8.486  20.318   3.018  1.00  0.00     0.149 C 
HETATM   44  C2  UNL     1       9.413  20.057   5.294  1.00  0.00     0.149 C 
ENDBRANCH  33  42
ENDBRANCH   1  29
TORSDOF 6
ENDMDL
MODEL 4
REMARK VINA RESULT: -7.658951601      4.155      8.601
REMARK  6 active torsions:
REMARK  status: ('A' for Active; 'I' for Inactive)
REMARK    1  A    between atoms: N1_2  and  C3_4 
REMARK    2  A    between atoms: C5_6  and  O1_7 
REMARK    3  A    between atoms: O1_7  and  C6_8 
REMARK    4  A    between atoms: C12_15  and  C13_16 
REMARK    5  A    between atoms: C16_22  and  C17_23 
REMARK    6  A    between atoms: C18_24  and  C19_25 
ROOT
HETATM    1  C13 UNL     1       1.087  23.905   3.192  1.00  0.00     0.059 A 
HETATM    2  C14 UNL     1       1.607  24.973   2.509  1.00  0.00     0.121 A 
HETATM    3  N2  UNL     1       2.555  24.790   1.539  1.00  0.00    -0.330 N 
ATOM      4  H2  UNL     1       2.926  25.603   1.046  1.00  0.00     0.168 HD
HETATM    5  C15 UNL     1       3.009  23.568   1.220  1.00  0.00     0.273 A 
HETATM    6  O3  UNL     1       3.885  23.434   0.318  1.00  0.00    -0.266 OA
HETATM    7  C16 UNL     1       2.485  22.496   1.907  1.00  0.00     0.115 A 
HETATM    8  N5  UNL     1       1.555  22.683   2.859  1.00  0.00    -0.349 N 
ATOM      9  H5  UNL     1       1.187  21.868   3.350  1.00  0.00     0.166 HD
ENDROOT
BRANCH   7  10
HETATM   10  C17 UNL     1       2.950  21.154   1.593  1.00  0.00     0.038 A 
HETATM   11  C18 UNL     1       2.430  20.364   0.568  1.00  0.00     0.073 A 
HETATM   12  N4  UNL     1       3.131  19.219   0.620  1.00  0.00    -0.353 N 
HETATM   13  C24 UNL     1       4.043  19.256   1.608  1.00  0.00     0.047 A 
ATOM     14  H4  UNL     1       2.989  18.426  -0.006  1.00  0.00     0.166 HD
HETATM   15  C25 UNL     1       4.990  18.327   2.050  1.00  0.00     0.075 A 
HETATM   16  C29 UNL     1       3.960  20.474   2.251  1.00  0.00     0.009 A 
HETATM   17  C26 UNL     1       5.821  18.624   3.107  1.00  0.00     0.157 A 
HETATM   18  F1  UNL     1       6.718  17.692   3.494  1.00  0.00    -0.203 F 
HETATM   19  C27 UNL     1       5.737  19.840   3.748  1.00  0.00     0.155 A 
HETATM   20  F2  UNL     1       6.557  20.123   4.785  1.00  0.00    -0.203 F 
HETATM   21  C28 UNL     1       4.799  20.772   3.318  1.00  0.00     0.060 A 
BRANCH  11  22
HETATM   22  C19 UNL     1       1.354  20.737  -0.347  1.00  0.00     0.059 A 
HETATM   23  C20 UNL     1       0.092  20.169  -0.178  1.00  0.00     0.032 A 
HETATM   24  C21 UNL     1      -0.963  20.461  -0.985  1.00  0.00     0.004 A 
HETATM   25  C22 UNL     1      -0.775  21.360  -2.014  1.00  0.00     0.017 A 
HETATM   26  C23 UNL     1       0.492  21.917  -2.166  1.00  0.00     0.088 A 
HETATM   27  N3  UNL     1       1.520  21.609  -1.352  1.00  0.00    -0.364 N 
ATOM     28  H3  UNL     1       2.431  22.041  -1.502  1.00  0.00     0.165 HD
ENDBRANCH  11  22
ENDBRANCH   7  10
BRANCH   1  29
HETATM   29  C12 UNL     1       0.070  24.010   4.247  1.00  0.00    -0.003 A 
HETATM   30  C11 UNL     1      -0.270  22.912   5.008  1.00  0.00     0.050 A 
HETATM   31  C5  UNL     1      -1.235  22.975   6.022  1.00  0.00     0.072 A 
HETATM   32  C4  UNL     1      -1.878  24.162   6.285  1.00  0.00     0.066 A 
HETATM   33  C3  UNL     1      -1.548  25.267   5.534  1.00  0.00     0.033 A 
HETATM   34  C30 UNL     1      -0.580  25.188   4.522  1.00  0.00     0.043 A 
BRANCH  31  35
HETATM   35  O1  UNL     1      -1.529  21.850   6.742  1.00  0.00    -0.346 OA
BRANCH  35  36
HETATM   36  C6  UNL     1      -1.099  21.477   8.003  1.00  0.00     0.133 C 
HETATM   37  C7  UNL     1       0.368  21.868   8.173  1.00  0.00     0.058 C 
HETATM   38  C8  UNL     1       1.290  20.693   7.999  1.00  0.00     0.170 C 
HETATM   39  O2  UNL     1       1.121  19.789   9.045  1.00  0.00    -0.391 OA
HETATM   40  C9  UNL     1      -0.219  19.607   9.340  1.00  0.00     0.170 C 
HETATM   41  C10 UNL     1      -1.119  19.952   8.183  1.00  0.00     0.058 C 
ENDBRANCH  35  36
ENDBRANCH  31  35
BRANCH  33  42
HETATM   42  N1  UNL     1      -2.208  26.497   5.800  1.00  0.00    -0.389 N 
HETATM   43  C1  UNL     1      -3.210  27.058   4.924  1.00  0.00     0.149 C 
HETATM   44  C2  UNL     1      -1.872  27.234   6.995  1.00  0.00     0.149 C 
ENDBRANCH  33  42
ENDBRANCH   1  29
TORSDOF 6
ENDMDL
MODEL 5
REMARK VINA RESULT: -7.625861678      1.837      3.807
REMARK  6 active torsions:
REMARK  status: ('A' for Active; 'I' for Inactive)
REMARK    1  A    between atoms: N1_2  and  C3_4 
REMARK    2  A    between atoms: C5_6  and  O1_7 
REMARK    3  A    between atoms: O1_7  and  C6_8 
REMARK    4  A    between atoms: C12_15  and  C13_16 
REMARK    5  A    between atoms: C16_22  and  C17_23 
REMARK    6  A    between atoms: C18_24  and  C19_25 
ROOT
HETATM    1  C13 UNL     1       2.826  18.724   4.630  1.00  0.00     0.059 A 
HETATM    2  C14 UNL     1       1.906  17.864   4.089  1.00  0.00     0.121 A 
HETATM    3  N2  UNL     1       0.657  18.302   3.741  1.00  0.00    -0.330 N 
ATOM      4  H2  UNL     1      -0.008  17.640   3.342  1.00  0.00     0.168 HD
HETATM    5  C15 UNL     1       0.287  19.580   3.913  1.00  0.00     0.273 A 
HETATM    6  O3  UNL     1      -0.875  19.952   3.581  1.00  0.00    -0.266 OA
HETATM    7  C16 UNL     1       1.213  20.443   4.456  1.00  0.00     0.115 A 
HETATM    8  N5  UNL     1       2.437  20.006   4.796  1.00  0.00    -0.349 N 
ATOM      9  H5  UNL     1       3.100  20.670   5.195  1.00  0.00     0.166 HD
ENDROOT
BRANCH   7  10
HETATM   10  C17 UNL     1       0.852  21.838   4.659  1.00  0.00     0.038 A 
HETATM   11  C18 UNL     1       0.193  22.321   5.788  1.00  0.00     0.073 A 
HETATM   12  N4  UNL     1       0.057  23.641   5.575  1.00  0.00    -0.353 N 
HETATM   13  C24 UNL     1       0.590  23.996   4.392  1.00  0.00     0.047 A 
ATOM     14  H4  UNL     1      -0.390  24.288   6.224  1.00  0.00     0.166 HD
HETATM   15  C25 UNL     1       0.694  25.228   3.738  1.00  0.00     0.075 A 
HETATM   16  C29 UNL     1       1.107  22.874   3.777  1.00  0.00     0.009 A 
HETATM   17  C26 UNL     1       1.300  25.316   2.505  1.00  0.00     0.157 A 
HETATM   18  F1  UNL     1       1.374  26.529   1.917  1.00  0.00    -0.203 F 
HETATM   19  C27 UNL     1       1.817  24.196   1.892  1.00  0.00     0.155 A 
HETATM   20  F2  UNL     1       2.411  24.292   0.682  1.00  0.00    -0.203 F 
HETATM   21  C28 UNL     1       1.720  22.965   2.533  1.00  0.00     0.060 A 
BRANCH  11  22
HETATM   22  C19 UNL     1      -0.241  21.531   6.938  1.00  0.00     0.059 A 
HETATM   23  C20 UNL     1       0.695  21.173   7.907  1.00  0.00     0.032 A 
HETATM   24  C21 UNL     1       0.375  20.439   9.006  1.00  0.00     0.004 A 
HETATM   25  C22 UNL     1      -0.933  20.032   9.168  1.00  0.00     0.017 A 
HETATM   26  C23 UNL     1      -1.853  20.400   8.189  1.00  0.00     0.088 A 
HETATM   27  N3  UNL     1      -1.508  21.127   7.110  1.00  0.00    -0.364 N 
ATOM     28  H3  UNL     1      -2.215  21.373   6.418  1.00  0.00     0.165 HD
ENDBRANCH  11  22
ENDBRANCH   7  10
BRANCH   1  29
HETATM   29  C12 UNL     1       4.186  18.339   5.032  1.00  0.00    -0.003 A 
HETATM   30  C11 UNL     1       5.279  18.757   4.304  1.00  0.00     0.050 A 
HETATM   31  C5  UNL     1       6.590  18.409   4.657  1.00  0.00     0.072 A 
HETATM   32  C4  UNL     1       6.818  17.625   5.763  1.00  0.00     0.066 A 
HETATM   33  C3  UNL     1       5.735  17.201   6.501  1.00  0.00     0.033 A 
HETATM   34  C30 UNL     1       4.430  17.557   6.134  1.00  0.00     0.043 A 
BRANCH  31  35
HETATM   35  O1  UNL     1       7.634  18.855   3.893  1.00  0.00    -0.346 OA
BRANCH  35  36
HETATM   36  C6  UNL     1       7.704  19.037   2.524  1.00  0.00     0.133 C 
HETATM   37  C7  UNL     1       7.955  17.690   1.846  1.00  0.00     0.058 C 
HETATM   38  C8  UNL     1       9.395  17.517   1.449  1.00  0.00     0.170 C 
HETATM   39  O2  UNL     1       9.724  18.405   0.429  1.00  0.00    -0.391 OA
HETATM   40  C9  UNL     1       9.197  19.663   0.668  1.00  0.00     0.170 C 
HETATM   41  C10 UNL     1       8.910  19.902   2.127  1.00  0.00     0.058 C 
ENDBRANCH  35  36
ENDBRANCH  31  35
BRANCH  33  42
HETATM   42  N1  UNL     1       5.962  16.390   7.645  1.00  0.00    -0.389 N 
HETATM   43  C1  UNL     1       7.282  16.006   8.088  1.00  0.00     0.149 C 
HETATM   44  C2  UNL     1       4.833  15.918   8.411  1.00  0.00     0.149 C 
ENDBRANCH  33  42
ENDBRANCH   1  29
TORSDOF 6
ENDMDL
