MODEL 1
REMARK VINA RESULT: -6.747763991      0.000      0.000
REMARK  8 active torsions:
REMARK  status: ('A' for Active; 'I' for Inactive)
REMARK    1  A    between atoms: O1_2  and  C2_3 
REMARK    2  A    between atoms: C6_11  and  N3_12 
REMARK    3  A    between atoms: N3_12  and  C7_14 
REMARK    4  A    between atoms: C9_16  and  N4_17 
REMARK    5  A    between atoms: C14_27  and  O2_28 
REMARK    6  A    between atoms: O2_28  and  C15_29 
REMARK    7  A    between atoms: C15_29  and  C16_30 
REMARK    8  A    between atoms: C16_30  and  C17_31 
ROOT
HETATM    1  C2  UNL     1       4.630  18.943   4.668  1.00  0.00     0.103 A 
HETATM    2  C3  UNL     1       5.840  18.920   5.275  1.00  0.00     0.070 A 
HETATM    3  C4  UNL     1       6.967  19.289   4.583  1.00  0.00     0.050 A 
HETATM    4  N1  UNL     1       8.171  19.270   5.165  1.00  0.00    -0.351 N 
ATOM      5  H1  UNL     1       8.267  18.978   6.138  1.00  0.00     0.166 HD
HETATM    6  C5  UNL     1       9.262  19.639   4.454  1.00  0.00     0.182 A 
HETATM    7  N2  UNL     1       9.119  20.020   3.169  1.00  0.00    -0.338 N 
ATOM      8  H2  UNL     1       9.948  20.294   2.642  1.00  0.00     0.168 HD
HETATM    9  C6  UNL     1       7.911  20.050   2.552  1.00  0.00     0.120 A 
HETATM   10  C12 UNL     1       6.811  19.680   3.261  1.00  0.00     0.038 A 
HETATM   11  C13 UNL     1       5.565  19.707   2.631  1.00  0.00     0.057 A 
HETATM   12  C14 UNL     1       4.450  19.337   3.327  1.00  0.00     0.103 A 
ENDROOT
BRANCH   9  13
HETATM   13  N3  UNL     1       7.782  20.419   1.324  1.00  0.00    -0.328 N 
ATOM     14  H3  UNL     1       7.310  21.289   1.075  1.00  0.00     0.169 HD
BRANCH  13  15
HETATM   15  C7  UNL     1       8.333  19.553   0.326  1.00  0.00     0.108 A 
HETATM   16  C8  UNL     1       9.389  19.966  -0.459  1.00  0.00     0.080 A 
HETATM   17  C9  UNL     1       9.948  19.154  -1.431  1.00  0.00     0.065 A 
HETATM   18  C10 UNL     1       9.415  17.885  -1.606  1.00  0.00     0.053 A 
HETATM   19 BR1  UNL     1      10.137  16.707  -2.926  1.00  0.00    -0.047 Br
HETATM   20  C11 UNL     1       8.365  17.490  -0.815  1.00  0.00     0.111 A 
HETATM   21  N5  UNL     1       7.869  18.312   0.101  1.00  0.00    -0.351 N 
ATOM     22  H5  UNL     1       7.088  17.983   0.668  1.00  0.00     0.166 HD
BRANCH  17  23
HETATM   23  N4  UNL     1      11.029  19.621  -2.212  1.00  0.00    -0.297 N 
HETATM   24 CL1  UNL     1      10.715  20.152  -3.835  1.00  0.00     0.011 Cl
ATOM     25  H4  UNL     1      11.974  19.645  -1.830  1.00  0.00     0.180 HD
ENDBRANCH  17  23
ENDBRANCH  13  15
ENDBRANCH   9  13
BRANCH  12  26
HETATM   26  O2  UNL     1       3.196  19.325   2.798  1.00  0.00    -0.348 OA
BRANCH  26  27
HETATM   27  C15 UNL     1       2.461  20.426   2.407  1.00  0.00     0.178 C 
BRANCH  27  28
HETATM   28  C16 UNL     1       1.852  21.119   3.559  1.00  0.00     0.062 C 
BRANCH  28  29
HETATM   29  C17 UNL     1       1.577  22.585   3.354  1.00  0.00     0.224 C 
HETATM   30  C18 UNL     1       1.418  22.940   1.880  1.00  0.00     0.036 C 
HETATM   31  C19 UNL     1       2.189  24.165   1.512  1.00  0.00     0.002 C 
HETATM   32  C20 UNL     1       1.761  25.430   2.167  1.00  0.00     0.002 C 
HETATM   33  C21 UNL     1       1.191  25.295   3.538  1.00  0.00     0.030 C 
HETATM   34  C22 UNL     1       0.012  24.370   3.625  1.00  0.00     0.272 C 
HETATM   35  N6  UNL     1       0.500  23.110   4.146  1.00  0.00     0.088 N 
HETATM   36  C23 UNL     1       0.761  23.200   5.540  1.00  0.00     0.310 C 
ENDBRANCH  28  29
ENDBRANCH  27  28
ENDBRANCH  26  27
ENDBRANCH  12  26
BRANCH   1  37
HETATM   37  O1  UNL     1       3.447  18.574   5.338  1.00  0.00    -0.353 OA
HETATM   38  C1  UNL     1       3.549  17.631   6.380  1.00  0.00     0.210 C 
ENDBRANCH   1  37
TORSDOF 8
ENDMDL
MODEL 2
REMARK VINA RESULT: -6.715543252      1.724      1.880
REMARK  8 active torsions:
REMARK  status: ('A' for Active; 'I' for Inactive)
REMARK    1  A    between atoms: O1_2  and  C2_3 
REMARK    2  A    between atoms: C6_11  and  N3_12 
REMARK    3  A    between atoms: N3_12  and  C7_14 
REMARK    4  A    between atoms: C9_16  and  N4_17 
REMARK    5  A    between atoms: C14_27  and  O2_28 
REMARK    6  A    between atoms: O2_28  and  C15_29 
REMARK    7  A    between atoms: C15_29  and  C16_30 
REMARK    8  A    between atoms: C16_30  and  C17_31 
ROOT
HETATM    1  C2  UNL     1       4.856  18.805   4.319  1.00  0.00     0.103 A 
HETATM    2  C3  UNL     1       5.441  17.636   4.674  1.00  0.00     0.070 A 
HETATM    3  C4  UNL     1       6.752  17.391   4.345  1.00  0.00     0.050 A 
HETATM    4  N1  UNL     1       7.345  16.242   4.685  1.00  0.00    -0.351 N 
ATOM      5  H1  UNL     1       6.827  15.529   5.198  1.00  0.00     0.166 HD
HETATM    6  C5  UNL     1       8.637  16.032   4.344  1.00  0.00     0.182 A 
HETATM    7  N2  UNL     1       9.308  16.984   3.665  1.00  0.00    -0.338 N 
ATOM      8  H2  UNL     1      10.281  16.815   3.412  1.00  0.00     0.168 HD
HETATM    9  C6  UNL     1       8.733  18.159   3.306  1.00  0.00     0.120 A 
HETATM   10  C12 UNL     1       7.434  18.377   3.646  1.00  0.00     0.038 A 
HETATM   11  C13 UNL     1       6.836  19.584   3.278  1.00  0.00     0.057 A 
HETATM   12  C14 UNL     1       5.532  19.818   3.609  1.00  0.00     0.103 A 
ENDROOT
BRANCH   9  13
HETATM   13  N3  UNL     1       9.382  19.067   2.661  1.00  0.00    -0.328 N 
ATOM     14  H3  UNL     1       9.870  19.820   3.145  1.00  0.00     0.169 HD
BRANCH  13  15
HETATM   15  C7  UNL     1       9.386  18.967   1.233  1.00  0.00     0.108 A 
HETATM   16  C8  UNL     1       9.386  20.102   0.449  1.00  0.00     0.080 A 
HETATM   17  C9  UNL     1       9.394  20.044  -0.935  1.00  0.00     0.065 A 
HETATM   18  C10 UNL     1       9.402  18.793  -1.534  1.00  0.00     0.053 A 
HETATM   19 BR1  UNL     1       9.415  18.634  -3.438  1.00  0.00    -0.047 Br
HETATM   20  C11 UNL     1       9.402  17.674  -0.739  1.00  0.00     0.111 A 
HETATM   21  N5  UNL     1       9.394  17.791   0.583  1.00  0.00    -0.351 N 
ATOM     22  H5  UNL     1       9.394  16.937   1.140  1.00  0.00     0.166 HD
BRANCH  17  23
HETATM   23  N4  UNL     1       9.393  21.234  -1.696  1.00  0.00    -0.297 N 
HETATM   24 CL1  UNL     1      10.764  22.294  -1.585  1.00  0.00     0.011 Cl
ATOM     25  H4  UNL     1       8.604  21.465  -2.299  1.00  0.00     0.180 HD
ENDBRANCH  17  23
ENDBRANCH  13  15
ENDBRANCH   9  13
BRANCH  12  26
HETATM   26  O2  UNL     1       4.863  20.959   3.290  1.00  0.00    -0.348 OA
BRANCH  26  27
HETATM   27  C15 UNL     1       4.450  21.342   2.030  1.00  0.00     0.178 C 
BRANCH  27  28
HETATM   28  C16 UNL     1       2.979  21.323   1.902  1.00  0.00     0.062 C 
BRANCH  28  29
HETATM   29  C17 UNL     1       2.280  22.580   2.346  1.00  0.00     0.224 C 
HETATM   30  C18 UNL     1       1.901  23.474   1.170  1.00  0.00     0.036 C 
HETATM   31  C19 UNL     1       2.255  24.904   1.415  1.00  0.00     0.002 C 
HETATM   32  C20 UNL     1       1.540  25.572   2.534  1.00  0.00     0.002 C 
HETATM   33  C21 UNL     1       1.151  24.696   3.677  1.00  0.00     0.030 C 
HETATM   34  C22 UNL     1       0.298  23.523   3.290  1.00  0.00     0.272 C 
HETATM   35  N6  UNL     1       1.169  22.368   3.232  1.00  0.00     0.088 N 
HETATM   36  C23 UNL     1       1.511  21.920   4.536  1.00  0.00     0.310 C 
ENDBRANCH  28  29
ENDBRANCH  27  28
ENDBRANCH  26  27
ENDBRANCH  12  26
BRANCH   1  37
HETATM   37  O1  UNL     1       3.516  19.100   4.635  1.00  0.00    -0.353 OA
HETATM   38  C1  UNL     1       2.513  18.286   4.072  1.00  0.00     0.210 C 
ENDBRANCH   1  37
TORSDOF 8
ENDMDL
MODEL 3
REMARK VINA RESULT: -6.683230566      4.299      7.749
REMARK  8 active torsions:
REMARK  status: ('A' for Active; 'I' for Inactive)
REMARK    1  A    between atoms: O1_2  and  C2_3 
REMARK    2  A    between atoms: C6_11  and  N3_12 
REMARK    3  A    between atoms: N3_12  and  C7_14 
REMARK    4  A    between atoms: C9_16  and  N4_17 
REMARK    5  A    between atoms: C14_27  and  O2_28 
REMARK    6  A    between atoms: O2_28  and  C15_29 
REMARK    7  A    between atoms: C15_29  and  C16_30 
REMARK    8  A    between atoms: C16_30  and  C17_31 
ROOT
HETATM    1  C2  UNL     1       0.947  22.249   5.161  1.00  0.00     0.103 A 
HETATM    2  C3  UNL     1       0.862  23.551   4.797  1.00  0.00     0.070 A 
HETATM    3  C4  UNL     1       1.206  23.937   3.525  1.00  0.00     0.050 A 
HETATM    4  N1  UNL     1       1.130  25.217   3.148  1.00  0.00    -0.351 N 
ATOM      5  H1  UNL     1       0.813  25.929   3.807  1.00  0.00     0.166 HD
HETATM    6  C5  UNL     1       1.478  25.564   1.887  1.00  0.00     0.182 A 
HETATM    7  N2  UNL     1       1.897  24.613   1.029  1.00  0.00    -0.338 N 
ATOM      8  H2  UNL     1       2.158  24.885   0.082  1.00  0.00     0.168 HD
HETATM    9  C6  UNL     1       1.983  23.306   1.382  1.00  0.00     0.120 A 
HETATM   10  C12 UNL     1       1.635  22.951   2.648  1.00  0.00     0.038 A 
HETATM   11  C13 UNL     1       1.724  21.607   3.018  1.00  0.00     0.057 A 
HETATM   12  C14 UNL     1       1.381  21.233   4.286  1.00  0.00     0.103 A 
ENDROOT
BRANCH   9  13
HETATM   13  N3  UNL     1       2.380  22.401   0.554  1.00  0.00    -0.328 N 
ATOM     14  H3  UNL     1       3.329  22.028   0.584  1.00  0.00     0.169 HD
BRANCH  13  15
HETATM   15  C7  UNL     1       1.426  21.944  -0.412  1.00  0.00     0.108 A 
HETATM   16  C8  UNL     1       0.438  21.051  -0.054  1.00  0.00     0.080 A 
HETATM   17  C9  UNL     1      -0.503  20.590  -0.960  1.00  0.00     0.065 A 
HETATM   18  C10 UNL     1      -0.433  21.055  -2.266  1.00  0.00     0.053 A 
HETATM   19 BR1  UNL     1      -1.698  20.466  -3.570  1.00  0.00    -0.047 Br
HETATM   20  C11 UNL     1       0.557  21.944  -2.603  1.00  0.00     0.111 A 
HETATM   21  N5  UNL     1       1.433  22.350  -1.692  1.00  0.00    -0.351 N 
ATOM     22  H5  UNL     1       2.155  23.010  -1.982  1.00  0.00     0.166 HD
BRANCH  17  23
HETATM   23  N4  UNL     1      -1.497  19.676  -0.549  1.00  0.00    -0.297 N 
HETATM   24 CL1  UNL     1      -1.866  19.551   1.144  1.00  0.00     0.011 Cl
ATOM     25  H4  UNL     1      -1.989  19.100  -1.232  1.00  0.00     0.180 HD
ENDBRANCH  17  23
ENDBRANCH  13  15
ENDBRANCH   9  13
BRANCH  12  26
HETATM   26  O2  UNL     1       1.440  19.952   4.739  1.00  0.00    -0.348 OA
BRANCH  26  27
HETATM   27  C15 UNL     1       2.566  19.292   5.189  1.00  0.00     0.178 C 
BRANCH  27  28
HETATM   28  C16 UNL     1       3.199  18.492   4.121  1.00  0.00     0.062 C 
BRANCH  28  29
HETATM   29  C17 UNL     1       4.389  19.133   3.459  1.00  0.00     0.224 C 
HETATM   30  C18 UNL     1       5.642  19.054   4.325  1.00  0.00     0.036 C 
HETATM   31  C19 UNL     1       6.365  20.359   4.383  1.00  0.00     0.002 C 
HETATM   32  C20 UNL     1       6.927  20.854   3.099  1.00  0.00     0.002 C 
HETATM   33  C21 UNL     1       6.174  20.477   1.868  1.00  0.00     0.030 C 
HETATM   34  C22 UNL     1       5.989  18.998   1.689  1.00  0.00     0.272 C 
HETATM   35  N6  UNL     1       4.642  18.686   2.117  1.00  0.00     0.088 N 
HETATM   36  C23 UNL     1       3.688  19.104   1.150  1.00  0.00     0.310 C 
ENDBRANCH  28  29
ENDBRANCH  27  28
ENDBRANCH  26  27
ENDBRANCH  12  26
BRANCH   1  37
HETATM   37  O1  UNL     1       0.605  21.807   6.454  1.00  0.00    -0.353 OA
HETATM   38  C1  UNL     1      -0.500  22.413   7.084  1.00  0.00     0.210 C 
ENDBRANCH   1  37
TORSDOF 8
ENDMDL
MODEL 4
REMARK VINA RESULT: -6.580087352      4.229      7.791
REMARK  8 active torsions:
REMARK  status: ('A' for Active; 'I' for Inactive)
REMARK    1  A    between atoms: O1_2  and  C2_3 
REMARK    2  A    between atoms: C6_11  and  N3_12 
REMARK    3  A    between atoms: N3_12  and  C7_14 
REMARK    4  A    between atoms: C9_16  and  N4_17 
REMARK    5  A    between atoms: C14_27  and  O2_28 
REMARK    6  A    between atoms: O2_28  and  C15_29 
REMARK    7  A    between atoms: C15_29  and  C16_30 
REMARK    8  A    between atoms: C16_30  and  C17_31 
ROOT
HETATM    1  C2  UNL     1       1.188  21.617   4.827  1.00  0.00     0.103 A 
HETATM    2  C3  UNL     1       1.071  22.951   4.628  1.00  0.00     0.070 A 
HETATM    3  C4  UNL     1       1.346  23.493   3.396  1.00  0.00     0.050 A 
HETATM    4  N1  UNL     1       1.238  24.808   3.182  1.00  0.00    -0.351 N 
ATOM      5  H1  UNL     1       0.947  25.430   3.937  1.00  0.00     0.166 HD
HETATM    6  C5  UNL     1       1.518  25.310   1.957  1.00  0.00     0.182 A 
HETATM    7  N2  UNL     1       1.903  24.476   0.971  1.00  0.00    -0.338 N 
ATOM      8  H2  UNL     1       2.113  24.865   0.051  1.00  0.00     0.168 HD
HETATM    9  C6  UNL     1       2.021  23.138   1.158  1.00  0.00     0.120 A 
HETATM   10  C12 UNL     1       1.741  22.627   2.387  1.00  0.00     0.038 A 
HETATM   11  C13 UNL     1       1.863  21.250   2.586  1.00  0.00     0.057 A 
HETATM   12  C14 UNL     1       1.588  20.720   3.815  1.00  0.00     0.103 A 
ENDROOT
BRANCH   9  13
HETATM   13  N3  UNL     1       2.385  22.346   0.208  1.00  0.00    -0.328 N 
ATOM     14  H3  UNL     1       3.352  22.036   0.112  1.00  0.00     0.169 HD
BRANCH  13  15
HETATM   15  C7  UNL     1       1.368  21.922  -0.707  1.00  0.00     0.108 A 
HETATM   16  C8  UNL     1       0.375  21.055  -0.301  1.00  0.00     0.080 A 
HETATM   17  C9  UNL     1      -0.626  20.627  -1.156  1.00  0.00     0.065 A 
HETATM   18  C10 UNL     1      -0.612  21.096  -2.462  1.00  0.00     0.053 A 
HETATM   19 BR1  UNL     1      -1.962  20.551  -3.699  1.00  0.00    -0.047 Br
HETATM   20  C11 UNL     1       0.384  21.958  -2.849  1.00  0.00     0.111 A 
HETATM   21  N5  UNL     1       1.318  22.334  -1.984  1.00  0.00    -0.351 N 
ATOM     22  H5  UNL     1       2.042  22.974  -2.310  1.00  0.00     0.166 HD
BRANCH  17  23
HETATM   23  N4  UNL     1      -1.623  19.739  -0.696  1.00  0.00    -0.297 N 
HETATM   24 CL1  UNL     1      -1.868  19.577   1.016  1.00  0.00     0.011 Cl
ATOM     25  H4  UNL     1      -2.188  19.204  -1.355  1.00  0.00     0.180 HD
ENDBRANCH  17  23
ENDBRANCH  13  15
ENDBRANCH   9  13
BRANCH  12  26
HETATM   26  O2  UNL     1       1.683  19.395   4.107  1.00  0.00    -0.348 OA
BRANCH  26  27
HETATM   27  C15 UNL     1       2.772  18.580   3.872  1.00  0.00     0.178 C 
BRANCH  27  28
HETATM   28  C16 UNL     1       3.879  18.856   4.810  1.00  0.00     0.062 C 
BRANCH  28  29
HETATM   29  C17 UNL     1       5.209  19.144   4.165  1.00  0.00     0.224 C 
HETATM   30  C18 UNL     1       5.210  20.469   3.411  1.00  0.00     0.036 C 
HETATM   31  C19 UNL     1       5.829  20.344   2.058  1.00  0.00     0.002 C 
HETATM   32  C20 UNL     1       7.272  19.989   2.029  1.00  0.00     0.002 C 
HETATM   33  C21 UNL     1       7.757  19.133   3.150  1.00  0.00     0.030 C 
HETATM   34  C22 UNL     1       7.505  19.707   4.514  1.00  0.00     0.272 C 
HETATM   35  N6  UNL     1       6.339  19.033   5.046  1.00  0.00     0.088 N 
HETATM   36  C23 UNL     1       6.656  17.712   5.462  1.00  0.00     0.310 C 
ENDBRANCH  28  29
ENDBRANCH  27  28
ENDBRANCH  26  27
ENDBRANCH  12  26
BRANCH   1  37
HETATM   37  O1  UNL     1       0.916  21.017   6.072  1.00  0.00    -0.353 OA
HETATM   38  C1  UNL     1       0.624  21.864   7.160  1.00  0.00     0.210 C 
ENDBRANCH   1  37
TORSDOF 8
ENDMDL
MODEL 5
REMARK VINA RESULT: -6.542348355      4.704      8.588
REMARK  8 active torsions:
REMARK  status: ('A' for Active; 'I' for Inactive)
REMARK    1  A    between atoms: O1_2  and  C2_3 
REMARK    2  A    between atoms: C6_11  and  N3_12 
REMARK    3  A    between atoms: N3_12  and  C7_14 
REMARK    4  A    between atoms: C9_16  and  N4_17 
REMARK    5  A    between atoms: C14_27  and  O2_28 
REMARK    6  A    between atoms: O2_28  and  C15_29 
REMARK    7  A    between atoms: C15_29  and  C16_30 
REMARK    8  A    between atoms: C16_30  and  C17_31 
ROOT
HETATM    1  C2  UNL     1       3.316  17.938   0.645  1.00  0.00     0.103 A 
HETATM    2  C3  UNL     1       2.484  18.348  -0.342  1.00  0.00     0.070 A 
HETATM    3  C4  UNL     1       2.176  19.680  -0.477  1.00  0.00     0.050 A 
HETATM    4  N1  UNL     1       1.355  20.103  -1.444  1.00  0.00    -0.351 N 
ATOM      5  H1  UNL     1       0.945  19.436  -2.099  1.00  0.00     0.166 HD
HETATM    6  C5  UNL     1       1.070  21.421  -1.549  1.00  0.00     0.182 A 
HETATM    7  N2  UNL     1       1.618  22.289  -0.675  1.00  0.00    -0.338 N 
ATOM      8  H2  UNL     1       1.395  23.281  -0.761  1.00  0.00     0.168 HD
HETATM    9  C6  UNL     1       2.454  21.890   0.316  1.00  0.00     0.120 A 
HETATM   10  C12 UNL     1       2.744  20.566   0.426  1.00  0.00     0.038 A 
HETATM   11  C13 UNL     1       3.602  20.149   1.445  1.00  0.00     0.057 A 
HETATM   12  C14 UNL     1       3.903  18.823   1.572  1.00  0.00     0.103 A 
ENDROOT
BRANCH   9  13
HETATM   13  N3  UNL     1       2.977  22.728   1.145  1.00  0.00    -0.328 N 
ATOM     14  H3  UNL     1       3.983  22.894   1.172  1.00  0.00     0.169 HD
BRANCH  13  15
HETATM   15  C7  UNL     1       2.080  23.414   2.025  1.00  0.00     0.108 A 
HETATM   16  C8  UNL     1       1.414  22.731   3.022  1.00  0.00     0.080 A 
HETATM   17  C9  UNL     1       0.542  23.362   3.893  1.00  0.00     0.065 A 
HETATM   18  C10 UNL     1       0.345  24.727   3.742  1.00  0.00     0.053 A 
HETATM   19 BR1  UNL     1      -0.842  25.666   4.909  1.00  0.00    -0.047 Br
HETATM   20  C11 UNL     1       1.015  25.390   2.745  1.00  0.00     0.111 A 
HETATM   21  N5  UNL     1       1.839  24.732   1.939  1.00  0.00    -0.351 N 
ATOM     22  H5  UNL     1       2.318  25.260   1.209  1.00  0.00     0.166 HD
BRANCH  17  23
HETATM   23  N4  UNL     1      -0.117  22.622   4.899  1.00  0.00    -0.297 N 
HETATM   24 CL1  UNL     1       0.772  22.177   6.323  1.00  0.00     0.011 Cl
ATOM     25  H4  UNL     1      -1.095  22.353   4.791  1.00  0.00     0.180 HD
ENDBRANCH  17  23
ENDBRANCH  13  15
ENDBRANCH   9  13
BRANCH  12  26
HETATM   26  O2  UNL     1       4.723  18.320   2.535  1.00  0.00    -0.348 OA
BRANCH  26  27
HETATM   27  C15 UNL     1       4.343  17.872   3.783  1.00  0.00     0.178 C 
BRANCH  27  28
HETATM   28  C16 UNL     1       5.114  18.524   4.861  1.00  0.00     0.062 C 
BRANCH  28  29
HETATM   29  C17 UNL     1       6.478  19.021   4.463  1.00  0.00     0.224 C 
HETATM   30  C18 UNL     1       6.558  20.543   4.458  1.00  0.00     0.036 C 
HETATM   31  C19 UNL     1       7.226  21.065   3.229  1.00  0.00     0.002 C 
HETATM   32  C20 UNL     1       8.655  20.696   3.053  1.00  0.00     0.002 C 
HETATM   33  C21 UNL     1       9.063  19.376   3.617  1.00  0.00     0.030 C 
HETATM   34  C22 UNL     1       8.778  19.220   5.082  1.00  0.00     0.272 C 
HETATM   35  N6  UNL     1       7.567  18.434   5.195  1.00  0.00     0.088 N 
HETATM   36  C23 UNL     1       7.817  17.064   4.913  1.00  0.00     0.310 C 
ENDBRANCH  28  29
ENDBRANCH  27  28
ENDBRANCH  26  27
ENDBRANCH  12  26
BRANCH   1  37
HETATM   37  O1  UNL     1       3.661  16.584   0.821  1.00  0.00    -0.353 OA
HETATM   38  C1  UNL     1       4.421  15.963  -0.190  1.00  0.00     0.210 C 
ENDBRANCH   1  37
TORSDOF 8
ENDMDL
