MODEL 1
REMARK VINA RESULT: -7.492236906      0.000      0.000
REMARK  7 active torsions:
REMARK  status: ('A' for Active; 'I' for Inactive)
REMARK    1  A    between atoms: O1_2  and  C2_3 
REMARK    2  A    between atoms: C5_6  and  O2_7 
REMARK    3  A    between atoms: O2_7  and  C6_8 
REMARK    4  A    between atoms: C6_8  and  C7_9 
REMARK    5  A    between atoms: C7_9  and  N1_10 
REMARK    6  A    between atoms: C10_13  and  N2_14 
REMARK    7  A    between atoms: C15_20  and  N3_21 
ROOT
HETATM    1  N1  UNL     1       6.991  20.669   3.279  1.00  0.00     0.095 N 
HETATM    2  C8  UNL     1       8.331  21.093   3.194  1.00  0.00     0.275 C 
HETATM    3  C9  UNL     1       9.341  20.213   2.607  1.00  0.00     0.056 C 
HETATM    4  C10 UNL     1       8.900  19.036   1.817  1.00  0.00     0.100 C 
HETATM    5  C18 UNL     1       7.410  18.864   1.675  1.00  0.00     0.042 C 
HETATM    6  C19 UNL     1       7.108  17.362   1.546  1.00  0.00     0.009 C 
HETATM    7  C20 UNL     1       5.800  17.012   2.227  1.00  0.00     0.001 C 
HETATM    8  C21 UNL     1       5.942  17.168   3.730  1.00  0.00     0.002 C 
HETATM    9  C22 UNL     1       6.833  18.346   4.073  1.00  0.00     0.036 C 
HETATM   10  C23 UNL     1       6.694  19.337   2.905  1.00  0.00     0.229 C 
ENDROOT
BRANCH   4  11
HETATM   11  N2  UNL     1       9.579  18.873   0.541  1.00  0.00    -0.321 N 
HETATM   12  C11 UNL     1      10.314  17.835   0.165  1.00  0.00     0.090 A 
HETATM   13 BR1  UNL     1      10.682  16.274   1.199  1.00  0.00    -0.030 Br
HETATM   14  C12 UNL     1      10.816  18.010  -1.121  1.00  0.00    -0.010 A 
HETATM   15  C13 UNL     1      11.676  17.045  -1.851  1.00  0.00     0.052 C 
HETATM   16  C14 UNL     1      10.347  19.237  -1.537  1.00  0.00     0.060 A 
HETATM   17  C15 UNL     1      10.531  19.925  -2.729  1.00  0.00     0.114 A 
HETATM   18  C17 UNL     1       9.605  19.726  -0.507  1.00  0.00     0.124 A 
HETATM   19  N4  UNL     1       9.930  21.138  -2.840  1.00  0.00    -0.338 N 
HETATM   20  C16 UNL     1       9.209  21.601  -1.826  1.00  0.00     0.183 A 
ATOM     21  H4  UNL     1      10.031  21.687  -3.693  1.00  0.00     0.168 HD
HETATM   22  N5  UNL     1       9.026  20.939  -0.665  1.00  0.00    -0.338 N 
ATOM     23  H5  UNL     1       8.460  21.345   0.080  1.00  0.00     0.168 HD
BRANCH  17  24
HETATM   24  N3  UNL     1      11.212  19.504  -3.705  1.00  0.00    -0.385 N 
ATOM     25  H32 UNL     1      11.694  18.610  -3.608  1.00  0.00     0.157 HD
ATOM     26  H31 UNL     1      11.318  19.992  -4.594  1.00  0.00     0.157 HD
ENDBRANCH  17  24
ENDBRANCH   4  11
BRANCH   1  27
HETATM   27  C7  UNL     1       6.027  21.586   2.701  1.00  0.00     0.299 C 
BRANCH  27  28
HETATM   28  C6  UNL     1       4.672  20.919   2.528  1.00  0.00     0.206 C 
BRANCH  28  29
HETATM   29  O2  UNL     1       3.920  21.529   1.499  1.00  0.00    -0.349 OA
BRANCH  29  30
HETATM   30  C5  UNL     1       3.095  22.586   1.851  1.00  0.00     0.069 A 
HETATM   31  C4  UNL     1       3.110  23.818   1.234  1.00  0.00     0.039 A 
HETATM   32  C3  UNL     1       2.262  24.846   1.625  1.00  0.00     0.039 A 
HETATM   33  C2  UNL     1       1.374  24.660   2.650  1.00  0.00     0.068 A 
HETATM   34  C25 UNL     1       1.341  23.418   3.293  1.00  0.00     0.039 A 
HETATM   35  C24 UNL     1       2.196  22.412   2.885  1.00  0.00     0.039 A 
BRANCH  33  36
HETATM   36  O1  UNL     1       0.501  25.609   3.106  1.00  0.00    -0.356 OA
HETATM   37  C1  UNL     1      -0.329  25.329   4.212  1.00  0.00     0.210 C 
ENDBRANCH  33  36
ENDBRANCH  29  30
ENDBRANCH  28  29
ENDBRANCH  27  28
ENDBRANCH   1  27
TORSDOF 7
ENDMDL
MODEL 2
REMARK VINA RESULT: -7.377546702      2.237      2.939
REMARK  7 active torsions:
REMARK  status: ('A' for Active; 'I' for Inactive)
REMARK    1  A    between atoms: O1_2  and  C2_3 
REMARK    2  A    between atoms: C5_6  and  O2_7 
REMARK    3  A    between atoms: O2_7  and  C6_8 
REMARK    4  A    between atoms: C6_8  and  C7_9 
REMARK    5  A    between atoms: C7_9  and  N1_10 
REMARK    6  A    between atoms: C10_13  and  N2_14 
REMARK    7  A    between atoms: C15_20  and  N3_21 
ROOT
HETATM    1  N1  UNL     1       4.595  20.358   2.850  1.00  0.00     0.095 N 
HETATM    2  C8  UNL     1       4.433  21.124   1.679  1.00  0.00     0.275 C 
HETATM    3  C9  UNL     1       5.564  21.324   0.774  1.00  0.00     0.056 C 
HETATM    4  C10 UNL     1       6.764  20.461   0.916  1.00  0.00     0.100 C 
HETATM    5  C18 UNL     1       6.695  19.419   2.002  1.00  0.00     0.042 C 
HETATM    6  C19 UNL     1       8.120  19.165   2.519  1.00  0.00     0.009 C 
HETATM    7  C20 UNL     1       8.114  18.882   4.008  1.00  0.00     0.001 C 
HETATM    8  C21 UNL     1       7.729  20.135   4.772  1.00  0.00     0.002 C 
HETATM    9  C22 UNL     1       6.684  20.932   4.016  1.00  0.00     0.036 C 
HETATM   10  C23 UNL     1       5.900  19.913   3.174  1.00  0.00     0.229 C 
ENDROOT
BRANCH   4  11
HETATM   11  N2  UNL     1       7.259  19.900  -0.331  1.00  0.00    -0.321 N 
HETATM   12  C11 UNL     1       6.651  18.995  -1.086  1.00  0.00     0.090 A 
HETATM   13 BR1  UNL     1       4.960  18.182  -0.739  1.00  0.00    -0.030 Br
HETATM   14  C12 UNL     1       7.410  18.681  -2.210  1.00  0.00    -0.010 A 
HETATM   15  C13 UNL     1       7.030  17.709  -3.265  1.00  0.00     0.052 C 
HETATM   16  C14 UNL     1       8.548  19.453  -2.115  1.00  0.00     0.060 A 
HETATM   17  C15 UNL     1       9.652  19.553  -2.950  1.00  0.00     0.114 A 
HETATM   18  C17 UNL     1       8.419  20.175  -0.968  1.00  0.00     0.124 A 
HETATM   19  N4  UNL     1      10.630  20.418  -2.577  1.00  0.00    -0.338 N 
HETATM   20  C16 UNL     1      10.490  21.115  -1.456  1.00  0.00     0.183 A 
ATOM     21  H4  UNL     1      11.464  20.533  -3.153  1.00  0.00     0.168 HD
HETATM   22  N5  UNL     1       9.421  21.023  -0.640  1.00  0.00    -0.338 N 
ATOM     23  H5  UNL     1       9.367  21.585   0.210  1.00  0.00     0.168 HD
BRANCH  17  24
HETATM   24  N3  UNL     1       9.806  18.901  -4.020  1.00  0.00    -0.385 N 
ATOM     25  H32 UNL     1      10.032  17.909  -3.953  1.00  0.00     0.157 HD
ATOM     26  H31 UNL     1       9.720  19.293  -4.957  1.00  0.00     0.157 HD
ENDBRANCH  17  24
ENDBRANCH   4  11
BRANCH   1  27
HETATM   27  C7  UNL     1       3.637  19.281   3.007  1.00  0.00     0.299 C 
BRANCH  27  28
HETATM   28  C6  UNL     1       2.241  19.824   3.267  1.00  0.00     0.206 C 
BRANCH  28  29
HETATM   29  O2  UNL     1       2.215  20.670   4.399  1.00  0.00    -0.349 OA
BRANCH  29  30
HETATM   30  C5  UNL     1       1.439  21.816   4.322  1.00  0.00     0.069 A 
HETATM   31  C4  UNL     1       1.338  22.608   3.199  1.00  0.00     0.039 A 
HETATM   32  C3  UNL     1       0.545  23.748   3.172  1.00  0.00     0.039 A 
HETATM   33  C2  UNL     1      -0.169  24.122   4.279  1.00  0.00     0.068 A 
HETATM   34  C25 UNL     1      -0.081  23.334   5.432  1.00  0.00     0.039 A 
HETATM   35  C24 UNL     1       0.716  22.205   5.432  1.00  0.00     0.039 A 
BRANCH  33  36
HETATM   36  O1  UNL     1      -0.974  25.225   4.350  1.00  0.00    -0.356 OA
HETATM   37  C1  UNL     1      -1.636  25.537   5.556  1.00  0.00     0.210 C 
ENDBRANCH  33  36
ENDBRANCH  29  30
ENDBRANCH  28  29
ENDBRANCH  27  28
ENDBRANCH   1  27
TORSDOF 7
ENDMDL
MODEL 3
REMARK VINA RESULT: -7.372609873      2.987      6.499
REMARK  7 active torsions:
REMARK  status: ('A' for Active; 'I' for Inactive)
REMARK    1  A    between atoms: O1_2  and  C2_3 
REMARK    2  A    between atoms: C5_6  and  O2_7 
REMARK    3  A    between atoms: O2_7  and  C6_8 
REMARK    4  A    between atoms: C6_8  and  C7_9 
REMARK    5  A    between atoms: C7_9  and  N1_10 
REMARK    6  A    between atoms: C10_13  and  N2_14 
REMARK    7  A    between atoms: C15_20  and  N3_21 
ROOT
HETATM    1  N1  UNL     1       6.133  20.139   1.113  1.00  0.00     0.095 N 
HETATM    2  C8  UNL     1       5.288  19.011   1.113  1.00  0.00     0.275 C 
HETATM    3  C9  UNL     1       5.306  18.085   2.244  1.00  0.00     0.056 C 
HETATM    4  C10 UNL     1       5.957  18.504   3.510  1.00  0.00     0.100 C 
HETATM    5  C18 UNL     1       6.541  19.893   3.517  1.00  0.00     0.042 C 
HETATM    6  C19 UNL     1       7.743  19.907   4.476  1.00  0.00     0.009 C 
HETATM    7  C20 UNL     1       8.833  20.828   3.965  1.00  0.00     0.001 C 
HETATM    8  C21 UNL     1       9.452  20.250   2.706  1.00  0.00     0.002 C 
HETATM    9  C22 UNL     1       8.405  19.557   1.855  1.00  0.00     0.036 C 
HETATM   10  C23 UNL     1       7.074  20.260   2.163  1.00  0.00     0.229 C 
ENDROOT
BRANCH   4  11
HETATM   11  N2  UNL     1       5.174  18.250   4.709  1.00  0.00    -0.321 N 
HETATM   12  C11 UNL     1       5.517  17.468   5.725  1.00  0.00     0.090 A 
HETATM   13 BR1  UNL     1       7.131  16.464   5.886  1.00  0.00    -0.030 Br
HETATM   14  C12 UNL     1       4.530  17.453   6.706  1.00  0.00    -0.010 A 
HETATM   15  C13 UNL     1       4.587  16.686   7.976  1.00  0.00     0.052 C 
HETATM   16  C14 UNL     1       3.533  18.282   6.241  1.00  0.00     0.060 A 
HETATM   17  C15 UNL     1       2.314  18.640   6.800  1.00  0.00     0.114 A 
HETATM   18  C17 UNL     1       3.958  18.743   5.034  1.00  0.00     0.124 A 
HETATM   19  N4  UNL     1       1.534  19.491   6.083  1.00  0.00    -0.338 N 
HETATM   20  C16 UNL     1       1.963  19.932   4.907  1.00  0.00     0.183 A 
ATOM     21  H4  UNL     1       0.628  19.788   6.445  1.00  0.00     0.168 HD
HETATM   22  N5  UNL     1       3.146  19.589   4.358  1.00  0.00    -0.338 N 
ATOM     23  H5  UNL     1       3.424  19.961   3.450  1.00  0.00     0.168 HD
BRANCH  17  24
HETATM   24  N3  UNL     1       1.886  18.233   7.915  1.00  0.00    -0.385 N 
ATOM     25  H32 UNL     1       1.079  17.610   7.925  1.00  0.00     0.157 HD
ATOM     26  H31 UNL     1       2.289  18.481   8.818  1.00  0.00     0.157 HD
ENDBRANCH  17  24
ENDBRANCH   4  11
BRANCH   1  27
HETATM   27  C7  UNL     1       5.459  21.402   0.884  1.00  0.00     0.299 C 
BRANCH  27  28
HETATM   28  C6  UNL     1       3.969  21.286   1.166  1.00  0.00     0.206 C 
BRANCH  28  29
HETATM   29  O2  UNL     1       3.238  22.313   0.526  1.00  0.00    -0.349 OA
BRANCH  29  30
HETATM   30  C5  UNL     1       2.558  23.211   1.334  1.00  0.00     0.069 A 
HETATM   31  C4  UNL     1       2.587  24.578   1.165  1.00  0.00     0.039 A 
HETATM   32  C3  UNL     1       1.886  25.437   2.002  1.00  0.00     0.039 A 
HETATM   33  C2  UNL     1       1.136  24.940   3.034  1.00  0.00     0.068 A 
HETATM   34  C25 UNL     1       1.093  23.554   3.226  1.00  0.00     0.039 A 
HETATM   35  C24 UNL     1       1.799  22.723   2.379  1.00  0.00     0.039 A 
BRANCH  33  36
HETATM   36  O1  UNL     1       0.414  25.703   3.910  1.00  0.00    -0.356 OA
HETATM   37  C1  UNL     1      -0.433  25.082   4.852  1.00  0.00     0.210 C 
ENDBRANCH  33  36
ENDBRANCH  29  30
ENDBRANCH  28  29
ENDBRANCH  27  28
ENDBRANCH   1  27
TORSDOF 7
ENDMDL
MODEL 4
REMARK VINA RESULT: -7.317489346      3.331      6.212
REMARK  7 active torsions:
REMARK  status: ('A' for Active; 'I' for Inactive)
REMARK    1  A    between atoms: O1_2  and  C2_3 
REMARK    2  A    between atoms: C5_6  and  O2_7 
REMARK    3  A    between atoms: O2_7  and  C6_8 
REMARK    4  A    between atoms: C6_8  and  C7_9 
REMARK    5  A    between atoms: C7_9  and  N1_10 
REMARK    6  A    between atoms: C10_13  and  N2_14 
REMARK    7  A    between atoms: C15_20  and  N3_21 
ROOT
HETATM    1  N1  UNL     1       6.250  20.558   2.212  1.00  0.00     0.095 N 
HETATM    2  C8  UNL     1       5.696  19.294   1.928  1.00  0.00     0.275 C 
HETATM    3  C9  UNL     1       6.248  18.096   2.558  1.00  0.00     0.056 C 
HETATM    4  C10 UNL     1       7.154  18.246   3.725  1.00  0.00     0.100 C 
HETATM    5  C18 UNL     1       7.413  19.661   4.174  1.00  0.00     0.042 C 
HETATM    6  C19 UNL     1       8.821  19.721   4.790  1.00  0.00     0.009 C 
HETATM    7  C20 UNL     1       9.489  21.047   4.486  1.00  0.00     0.001 C 
HETATM    8  C21 UNL     1       9.799  21.142   3.004  1.00  0.00     0.002 C 
HETATM    9  C22 UNL     1       8.709  20.488   2.177  1.00  0.00     0.036 C 
HETATM   10  C23 UNL     1       7.420  20.604   3.007  1.00  0.00     0.229 C 
ENDROOT
BRANCH   4  11
HETATM   11  N2  UNL     1       6.844  17.379   4.850  1.00  0.00    -0.321 N 
HETATM   12  C11 UNL     1       5.830  17.514   5.696  1.00  0.00     0.090 A 
HETATM   13 BR1  UNL     1       4.507  18.888   5.666  1.00  0.00    -0.030 Br
HETATM   14  C12 UNL     1       5.834  16.506   6.655  1.00  0.00    -0.010 A 
HETATM   15  C13 UNL     1       4.845  16.354   7.752  1.00  0.00     0.052 C 
HETATM   16  C14 UNL     1       6.925  15.718   6.359  1.00  0.00     0.060 A 
HETATM   17  C15 UNL     1       7.416  14.576   6.977  1.00  0.00     0.114 A 
HETATM   18  C17 UNL     1       7.507  16.276   5.264  1.00  0.00     0.124 A 
HETATM   19  N4  UNL     1       8.532  14.017   6.440  1.00  0.00    -0.338 N 
HETATM   20  C16 UNL     1       9.089  14.574   5.372  1.00  0.00     0.183 A 
ATOM     21  H4  UNL     1       8.937  13.178   6.853  1.00  0.00     0.168 HD
HETATM   22  N5  UNL     1       8.617  15.682   4.766  1.00  0.00    -0.338 N 
ATOM     23  H5  UNL     1       9.087  16.065   3.946  1.00  0.00     0.168 HD
BRANCH  17  24
HETATM   24  N3  UNL     1       6.904  14.030   7.993  1.00  0.00    -0.385 N 
ATOM     25  H32 UNL     1       6.175  14.535   8.497  1.00  0.00     0.157 HD
ATOM     26  H31 UNL     1       7.163  13.112   8.353  1.00  0.00     0.157 HD
ENDBRANCH  17  24
ENDBRANCH   4  11
BRANCH   1  27
HETATM   27  C7  UNL     1       5.294  21.554   2.656  1.00  0.00     0.299 C 
BRANCH  27  28
HETATM   28  C6  UNL     1       4.066  21.571   1.760  1.00  0.00     0.206 C 
BRANCH  28  29
HETATM   29  O2  UNL     1       3.851  22.851   1.199  1.00  0.00    -0.349 OA
BRANCH  29  30
HETATM   30  C5  UNL     1       2.870  23.644   1.776  1.00  0.00     0.069 A 
HETATM   31  C4  UNL     1       2.698  24.983   1.501  1.00  0.00     0.039 A 
HETATM   32  C3  UNL     1       1.699  25.734   2.105  1.00  0.00     0.039 A 
HETATM   33  C2  UNL     1       0.844  25.156   3.005  1.00  0.00     0.068 A 
HETATM   34  C25 UNL     1       1.001  23.797   3.301  1.00  0.00     0.039 A 
HETATM   35  C24 UNL     1       2.003  23.072   2.685  1.00  0.00     0.039 A 
BRANCH  33  36
HETATM   36  O1  UNL     1      -0.167  25.812   3.650  1.00  0.00    -0.356 OA
HETATM   37  C1  UNL     1      -0.735  25.256   4.816  1.00  0.00     0.210 C 
ENDBRANCH  33  36
ENDBRANCH  29  30
ENDBRANCH  28  29
ENDBRANCH  27  28
ENDBRANCH   1  27
TORSDOF 7
ENDMDL
MODEL 5
REMARK VINA RESULT: -7.312749483      1.991      2.322
REMARK  7 active torsions:
REMARK  status: ('A' for Active; 'I' for Inactive)
REMARK    1  A    between atoms: O1_2  and  C2_3 
REMARK    2  A    between atoms: C5_6  and  O2_7 
REMARK    3  A    between atoms: O2_7  and  C6_8 
REMARK    4  A    between atoms: C6_8  and  C7_9 
REMARK    5  A    between atoms: C7_9  and  N1_10 
REMARK    6  A    between atoms: C10_13  and  N2_14 
REMARK    7  A    between atoms: C15_20  and  N3_21 
ROOT
HETATM    1  N1  UNL     1       5.389  20.124   1.762  1.00  0.00     0.095 N 
HETATM    2  C8  UNL     1       6.732  19.850   2.088  1.00  0.00     0.275 C 
HETATM    3  C9  UNL     1       7.504  18.910   1.277  1.00  0.00     0.056 C 
HETATM    4  C10 UNL     1       6.984  18.509  -0.055  1.00  0.00     0.100 C 
HETATM    5  C18 UNL     1       5.678  19.140  -0.464  1.00  0.00     0.042 C 
HETATM    6  C19 UNL     1       4.932  18.156  -1.380  1.00  0.00     0.009 C 
HETATM    7  C20 UNL     1       3.436  18.235  -1.156  1.00  0.00     0.001 C 
HETATM    8  C21 UNL     1       3.089  17.697   0.219  1.00  0.00     0.002 C 
HETATM    9  C22 UNL     1       4.157  18.061   1.231  1.00  0.00     0.036 C 
HETATM   10  C23 UNL     1       4.793  19.366   0.726  1.00  0.00     0.229 C 
ENDROOT
BRANCH   4  11
HETATM   11  N2  UNL     1       7.961  18.562  -1.130  1.00  0.00    -0.321 N 
HETATM   12  C11 UNL     1       8.378  17.541  -1.868  1.00  0.00     0.090 A 
HETATM   13 BR1  UNL     1       7.809  15.727  -1.717  1.00  0.00    -0.030 Br
HETATM   14  C12 UNL     1       9.321  17.949  -2.808  1.00  0.00    -0.010 A 
HETATM   15  C13 UNL     1       9.993  17.067  -3.794  1.00  0.00     0.052 C 
HETATM   16  C14 UNL     1       9.474  19.305  -2.613  1.00  0.00     0.060 A 
HETATM   17  C15 UNL     1      10.281  20.230  -3.260  1.00  0.00     0.114 A 
HETATM   18  C17 UNL     1       8.638  19.636  -1.593  1.00  0.00     0.124 A 
HETATM   19  N4  UNL     1      10.209  21.517  -2.831  1.00  0.00    -0.338 N 
HETATM   20  C16 UNL     1       9.388  21.825  -1.834  1.00  0.00     0.183 A 
ATOM     21  H4  UNL     1      10.779  22.239  -3.269  1.00  0.00     0.168 HD
HETATM   22  N5  UNL     1       8.601  20.931  -1.201  1.00  0.00    -0.338 N 
ATOM     23  H5  UNL     1       7.988  21.226  -0.441  1.00  0.00     0.168 HD
BRANCH  17  24
HETATM   24  N3  UNL     1      11.069  19.960  -4.209  1.00  0.00    -0.385 N 
ATOM     25  H32 UNL     1      10.841  19.174  -4.817  1.00  0.00     0.157 HD
ATOM     26  H31 UNL     1      11.926  20.472  -4.417  1.00  0.00     0.157 HD
ENDBRANCH  17  24
ENDBRANCH   4  11
BRANCH   1  27
HETATM   27  C7  UNL     1       5.076  21.531   1.609  1.00  0.00     0.299 C 
BRANCH  27  28
HETATM   28  C6  UNL     1       3.639  21.726   1.154  1.00  0.00     0.206 C 
BRANCH  28  29
HETATM   29  O2  UNL     1       3.379  23.074   0.817  1.00  0.00    -0.349 OA
BRANCH  29  30
HETATM   30  C5  UNL     1       2.499  23.777   1.625  1.00  0.00     0.069 A 
HETATM   31  C4  UNL     1       2.342  25.145   1.590  1.00  0.00     0.039 A 
HETATM   32  C3  UNL     1       1.445  25.803   2.422  1.00  0.00     0.039 A 
HETATM   33  C2  UNL     1       0.681  25.099   3.313  1.00  0.00     0.068 A 
HETATM   34  C25 UNL     1       0.824  23.708   3.367  1.00  0.00     0.039 A 
HETATM   35  C24 UNL     1       1.724  23.078   2.529  1.00  0.00     0.039 A 
BRANCH  33  36
HETATM   36  O1  UNL     1      -0.226  25.656   4.171  1.00  0.00    -0.356 OA
HETATM   37  C1  UNL     1      -0.932  24.837   5.078  1.00  0.00     0.210 C 
ENDBRANCH  33  36
ENDBRANCH  29  30
ENDBRANCH  28  29
ENDBRANCH  27  28
ENDBRANCH   1  27
TORSDOF 7
ENDMDL
