MODEL 1
REMARK VINA RESULT: -8.263073105      0.000      0.000
REMARK  9 active torsions:
REMARK  status: ('A' for Active; 'I' for Inactive)
REMARK    1  A    between atoms: C12_14  and  O1_15 
REMARK    2  A    between atoms: O1_15  and  C13_16 
REMARK    3  A    between atoms: C13_16  and  C14_17 
REMARK    4  A    between atoms: C14_17  and  O2_18 
REMARK    5  A    between atoms: C14_17  and  C15_20 
REMARK    6  A    between atoms: C15_20  and  N1_21 
REMARK    7  A    between atoms: C18_24  and  N2_25 
REMARK       I    between atoms: N2_25  and  C19_27 
REMARK    8  A    between atoms: C19_27  and  O4_29 
REMARK    9  A    between atoms: O4_29  and  C20_30 
ROOT
HETATM    1  C14 UNL     1      -1.927  26.539   5.801  1.00  0.00     0.170 C 
ENDROOT
BRANCH   1   2
HETATM    2  C13 UNL     1      -1.202  25.286   5.343  1.00  0.00     0.209 C 
BRANCH   2   3
HETATM    3  O1  UNL     1      -0.436  25.328   4.258  1.00  0.00    -0.345 OA
BRANCH   3   4
HETATM    4  C12 UNL     1       0.495  24.661   3.565  1.00  0.00     0.107 A 
HETATM    5  C11 UNL     1       1.177  25.368   2.545  1.00  0.00     0.150 A 
HETATM    6  C10 UNL     1       2.146  24.804   1.763  1.00  0.00     0.053 A 
HETATM    7  F1  UNL     1       0.816  26.678   2.372  1.00  0.00    -0.203 F 
HETATM    8  C9  UNL     1       2.493  23.486   1.953  1.00  0.00    -0.047 A 
HETATM    9  C8  UNL     1       3.523  22.631   1.255  1.00  0.00     0.041 C 
HETATM   10  C27 UNL     1       1.867  22.746   2.923  1.00  0.00    -0.030 A 
HETATM   11  C7  UNL     1       3.824  21.605   2.360  1.00  0.00     0.030 C 
HETATM   12  C6  UNL     1       2.406  21.398   2.876  1.00  0.00     0.039 C 
HETATM   13  C2  UNL     1       2.361  20.596   4.126  1.00  0.00     0.005 C 
HETATM   14  S1  UNL     1       1.586  20.363   1.598  1.00  0.00    -0.154 SA
HETATM   15  C1  UNL     1       0.945  20.152   4.389  1.00  0.00     0.012 C 
HETATM   16  C3  UNL     1       3.298  19.428   3.966  1.00  0.00     0.007 C 
HETATM   17  C4  UNL     1       2.833  18.360   3.040  1.00  0.00     0.010 C 
HETATM   18  C5  UNL     1       2.510  18.790   1.649  1.00  0.00     0.075 C 
HETATM   19  C26 UNL     1       0.886  23.349   3.703  1.00  0.00     0.049 A 
ENDBRANCH   3   4
ENDBRANCH   2   3
ENDBRANCH   1   2
BRANCH   1  20
HETATM   20  O2  UNL     1      -1.269  27.144   6.824  1.00  0.00    -0.392 OA
ATOM     21  H2  UNL     1      -1.314  26.626   7.619  1.00  0.00     0.210 HD
ENDBRANCH   1  20
BRANCH   1  22
HETATM   22  C15 UNL     1      -2.211  27.465   4.673  1.00  0.00     0.306 C 
BRANCH  22  23
HETATM   23  N1  UNL     1      -3.121  28.520   5.091  1.00  0.00     0.091 N 
HETATM   24  C16 UNL     1      -4.439  28.304   4.491  1.00  0.00     0.274 C 
HETATM   25  C17 UNL     1      -4.577  28.887   3.129  1.00  0.00     0.055 C 
HETATM   26  C18 UNL     1      -4.411  30.395   3.125  1.00  0.00     0.090 C 
HETATM   27  C24 UNL     1      -3.654  30.822   4.322  1.00  0.00     0.055 C 
HETATM   28  C25 UNL     1      -2.616  29.830   4.705  1.00  0.00     0.274 C 
BRANCH  26  29
HETATM   29  N2  UNL     1      -5.730  30.994   3.041  1.00  0.00    -0.332 N 
HETATM   30  C19 UNL     1      -6.429  31.214   1.822  1.00  0.00     0.361 C 
HETATM   31  O3  UNL     1      -5.900  30.870   0.742  1.00  0.00    -0.238 OA
ATOM     32  H2  UNL     1      -6.184  31.276   3.910  1.00  0.00     0.165 HD
BRANCH  30  33
HETATM   33  O4  UNL     1      -7.684  31.799   1.791  1.00  0.00    -0.294 OA
BRANCH  33  34
HETATM   34  C20 UNL     1      -8.864  31.213   2.278  1.00  0.00     0.061 C 
HETATM   35  C21 UNL     1      -9.963  31.612   1.288  1.00  0.00     0.046 C 
HETATM   36  C22 UNL     1      -9.287  31.818   3.611  1.00  0.00     0.046 C 
HETATM   37  C23 UNL     1      -8.817  29.722   2.382  1.00  0.00     0.046 C 
ENDBRANCH  33  34
ENDBRANCH  30  33
ENDBRANCH  26  29
ENDBRANCH  22  23
ENDBRANCH   1  22
TORSDOF 9
ENDMDL
MODEL 2
REMARK VINA RESULT: -7.934715411      4.324     11.968
REMARK  9 active torsions:
REMARK  status: ('A' for Active; 'I' for Inactive)
REMARK    1  A    between atoms: C12_14  and  O1_15 
REMARK    2  A    between atoms: O1_15  and  C13_16 
REMARK    3  A    between atoms: C13_16  and  C14_17 
REMARK    4  A    between atoms: C14_17  and  O2_18 
REMARK    5  A    between atoms: C14_17  and  C15_20 
REMARK    6  A    between atoms: C15_20  and  N1_21 
REMARK    7  A    between atoms: C18_24  and  N2_25 
REMARK       I    between atoms: N2_25  and  C19_27 
REMARK    8  A    between atoms: C19_27  and  O4_29 
REMARK    9  A    between atoms: O4_29  and  C20_30 
ROOT
HETATM    1  C14 UNL     1      -0.290  25.001   4.673  1.00  0.00     0.170 C 
ENDROOT
BRANCH   1   2
HETATM    2  C13 UNL     1      -1.652  25.138   5.331  1.00  0.00     0.209 C 
BRANCH   2   3
HETATM    3  O1  UNL     1      -1.827  26.024   6.304  1.00  0.00    -0.345 OA
BRANCH   3   4
HETATM    4  C12 UNL     1      -2.155  27.297   6.563  1.00  0.00     0.107 A 
HETATM    5  C11 UNL     1      -1.922  27.774   7.876  1.00  0.00     0.150 A 
HETATM    6  C10 UNL     1      -2.215  29.050   8.271  1.00  0.00     0.053 A 
HETATM    7  F1  UNL     1      -1.375  26.879   8.757  1.00  0.00    -0.203 F 
HETATM    8  C9  UNL     1      -2.764  29.932   7.369  1.00  0.00    -0.047 A 
HETATM    9  C8  UNL     1      -3.163  31.379   7.530  1.00  0.00     0.041 C 
HETATM   10  C27 UNL     1      -3.017  29.530   6.083  1.00  0.00    -0.030 A 
HETATM   11  C7  UNL     1      -3.035  31.864   6.077  1.00  0.00     0.030 C 
HETATM   12  C6  UNL     1      -3.619  30.645   5.374  1.00  0.00     0.039 C 
HETATM   13  C2  UNL     1      -3.448  30.696   3.899  1.00  0.00     0.005 C 
HETATM   14  S1  UNL     1      -5.430  30.759   5.663  1.00  0.00    -0.154 SA
HETATM   15  C1  UNL     1      -4.325  29.654   3.254  1.00  0.00     0.012 C 
HETATM   16  C3  UNL     1      -3.790  32.087   3.436  1.00  0.00     0.007 C 
HETATM   17  C4  UNL     1      -5.238  32.432   3.470  1.00  0.00     0.010 C 
HETATM   18  C5  UNL     1      -5.918  32.285   4.788  1.00  0.00     0.075 C 
HETATM   19  C26 UNL     1      -2.707  28.226   5.712  1.00  0.00     0.049 A 
ENDBRANCH   3   4
ENDBRANCH   2   3
ENDBRANCH   1   2
BRANCH   1  20
HETATM   20  O2  UNL     1       0.654  25.716   5.339  1.00  0.00    -0.392 OA
ATOM     21  H2  UNL     1       1.502  25.647   4.916  1.00  0.00     0.210 HD
ENDBRANCH   1  20
BRANCH   1  22
HETATM   22  C15 UNL     1       0.098  23.579   4.479  1.00  0.00     0.306 C 
BRANCH  22  23
HETATM   23  N1  UNL     1       0.389  23.312   3.079  1.00  0.00     0.091 N 
HETATM   24  C16 UNL     1       0.983  21.981   2.942  1.00  0.00     0.274 C 
HETATM   25  C17 UNL     1       2.459  21.963   3.131  1.00  0.00     0.055 C 
HETATM   26  C18 UNL     1       3.185  22.801   2.094  1.00  0.00     0.090 C 
HETATM   27  C24 UNL     1       2.263  23.807   1.523  1.00  0.00     0.055 C 
HETATM   28  C25 UNL     1       1.297  24.312   2.534  1.00  0.00     0.274 C 
BRANCH  26  29
HETATM   29  N2  UNL     1       3.739  21.904   1.097  1.00  0.00    -0.332 N 
HETATM   30  C19 UNL     1       5.063  21.386   1.139  1.00  0.00     0.361 C 
HETATM   31  O3  UNL     1       5.814  21.700   2.088  1.00  0.00    -0.238 OA
ATOM     32  H2  UNL     1       3.142  21.628   0.317  1.00  0.00     0.165 HD
BRANCH  30  33
HETATM   33  O4  UNL     1       5.552  20.540   0.158  1.00  0.00    -0.294 OA
BRANCH  33  34
HETATM   34  C20 UNL     1       5.775  19.161   0.314  1.00  0.00     0.061 C 
HETATM   35  C21 UNL     1       5.461  18.536  -1.048  1.00  0.00     0.046 C 
HETATM   36  C22 UNL     1       4.780  18.533   1.282  1.00  0.00     0.046 C 
HETATM   37  C23 UNL     1       7.172  18.802   0.707  1.00  0.00     0.046 C 
ENDBRANCH  33  34
ENDBRANCH  30  33
ENDBRANCH  26  29
ENDBRANCH  22  23
ENDBRANCH   1  22
TORSDOF 9
ENDMDL
MODEL 3
REMARK VINA RESULT: -7.801194400      5.012     11.729
REMARK  9 active torsions:
REMARK  status: ('A' for Active; 'I' for Inactive)
REMARK    1  A    between atoms: C12_14  and  O1_15 
REMARK    2  A    between atoms: O1_15  and  C13_16 
REMARK    3  A    between atoms: C13_16  and  C14_17 
REMARK    4  A    between atoms: C14_17  and  O2_18 
REMARK    5  A    between atoms: C14_17  and  C15_20 
REMARK    6  A    between atoms: C15_20  and  N1_21 
REMARK    7  A    between atoms: C18_24  and  N2_25 
REMARK       I    between atoms: N2_25  and  C19_27 
REMARK    8  A    between atoms: C19_27  and  O4_29 
REMARK    9  A    between atoms: O4_29  and  C20_30 
ROOT
HETATM    1  C14 UNL     1      -0.768  24.369   4.896  1.00  0.00     0.170 C 
ENDROOT
BRANCH   1   2
HETATM    2  C13 UNL     1      -0.778  25.753   4.271  1.00  0.00     0.209 C 
BRANCH   2   3
HETATM    3  O1  UNL     1      -1.928  26.400   4.124  1.00  0.00    -0.345 OA
BRANCH   3   4
HETATM    4  C12 UNL     1      -2.607  27.497   4.486  1.00  0.00     0.107 A 
HETATM    5  C11 UNL     1      -3.399  28.127   3.497  1.00  0.00     0.150 A 
HETATM    6  C10 UNL     1      -4.136  29.254   3.735  1.00  0.00     0.053 A 
HETATM    7  F1  UNL     1      -3.396  27.544   2.257  1.00  0.00    -0.203 F 
HETATM    8  C9  UNL     1      -4.124  29.823   4.988  1.00  0.00    -0.047 A 
HETATM    9  C8  UNL     1      -4.847  31.037   5.522  1.00  0.00     0.041 C 
HETATM   10  C27 UNL     1      -3.374  29.262   5.989  1.00  0.00    -0.030 A 
HETATM   11  C7  UNL     1      -4.917  30.681   7.015  1.00  0.00     0.030 C 
HETATM   12  C6  UNL     1      -3.526  30.083   7.177  1.00  0.00     0.039 C 
HETATM   13  C2  UNL     1      -3.332  29.426   8.495  1.00  0.00     0.005 C 
HETATM   14  S1  UNL     1      -2.390  31.527   7.176  1.00  0.00    -0.154 SA
HETATM   15  C1  UNL     1      -1.865  29.162   8.716  1.00  0.00     0.012 C 
HETATM   16  C3  UNL     1      -3.909  30.327   9.555  1.00  0.00     0.007 C 
HETATM   17  C4  UNL     1      -3.125  31.559   9.842  1.00  0.00     0.010 C 
HETATM   18  C5  UNL     1      -2.857  32.453   8.679  1.00  0.00     0.075 C 
HETATM   19  C26 UNL     1      -2.635  28.116   5.715  1.00  0.00     0.049 A 
ENDBRANCH   3   4
ENDBRANCH   2   3
ENDBRANCH   1   2
BRANCH   1  20
HETATM   20  O2  UNL     1      -2.010  24.002   5.305  1.00  0.00    -0.392 OA
ATOM     21  H2  UNL     1      -2.130  24.164   6.233  1.00  0.00     0.210 HD
ENDBRANCH   1  20
BRANCH   1  22
HETATM   22  C15 UNL     1      -0.134  23.358   4.007  1.00  0.00     0.306 C 
BRANCH  22  23
HETATM   23  N1  UNL     1       0.695  22.445   4.777  1.00  0.00     0.091 N 
HETATM   24  C16 UNL     1       0.202  21.076   4.620  1.00  0.00     0.274 C 
HETATM   25  C17 UNL     1      -0.878  20.716   5.579  1.00  0.00     0.055 C 
HETATM   26  C18 UNL     1      -0.414  20.779   7.023  1.00  0.00     0.090 C 
HETATM   27  C24 UNL     1       0.769  21.661   7.134  1.00  0.00     0.055 C 
HETATM   28  C25 UNL     1       0.700  22.805   6.188  1.00  0.00     0.274 C 
BRANCH  26  29
HETATM   29  N2  UNL     1      -0.160  19.424   7.474  1.00  0.00    -0.332 N 
HETATM   30  C19 UNL     1      -1.103  18.630   8.183  1.00  0.00     0.361 C 
HETATM   31  O3  UNL     1      -2.233  19.102   8.438  1.00  0.00    -0.238 OA
ATOM     32  H2  UNL     1       0.753  19.014   7.271  1.00  0.00     0.165 HD
BRANCH  30  33
HETATM   33  O4  UNL     1      -0.812  17.343   8.603  1.00  0.00    -0.294 OA
BRANCH  33  34
HETATM   34  C20 UNL     1      -0.502  16.971   9.922  1.00  0.00     0.061 C 
HETATM   35  C21 UNL     1       0.428  15.760   9.802  1.00  0.00     0.046 C 
HETATM   36  C22 UNL     1      -1.729  16.461  10.669  1.00  0.00     0.046 C 
HETATM   37  C23 UNL     1       0.181  18.035  10.720  1.00  0.00     0.046 C 
ENDBRANCH  33  34
ENDBRANCH  30  33
ENDBRANCH  26  29
ENDBRANCH  22  23
ENDBRANCH   1  22
TORSDOF 9
ENDMDL
MODEL 4
REMARK VINA RESULT: -7.728497269      3.860     11.586
REMARK  9 active torsions:
REMARK  status: ('A' for Active; 'I' for Inactive)
REMARK    1  A    between atoms: C12_14  and  O1_15 
REMARK    2  A    between atoms: O1_15  and  C13_16 
REMARK    3  A    between atoms: C13_16  and  C14_17 
REMARK    4  A    between atoms: C14_17  and  O2_18 
REMARK    5  A    between atoms: C14_17  and  C15_20 
REMARK    6  A    between atoms: C15_20  and  N1_21 
REMARK    7  A    between atoms: C18_24  and  N2_25 
REMARK       I    between atoms: N2_25  and  C19_27 
REMARK    8  A    between atoms: C19_27  and  O4_29 
REMARK    9  A    between atoms: O4_29  and  C20_30 
ROOT
HETATM    1  C14 UNL     1      -2.169  25.915   5.412  1.00  0.00     0.170 C 
ENDROOT
BRANCH   1   2
HETATM    2  C13 UNL     1      -1.795  26.650   6.687  1.00  0.00     0.209 C 
BRANCH   2   3
HETATM    3  O1  UNL     1      -1.985  27.962   6.771  1.00  0.00    -0.345 OA
BRANCH   3   4
HETATM    4  C12 UNL     1      -2.896  28.934   6.642  1.00  0.00     0.107 A 
HETATM    5  C11 UNL     1      -3.340  29.570   7.827  1.00  0.00     0.150 A 
HETATM    6  C10 UNL     1      -4.269  30.574   7.835  1.00  0.00     0.053 A 
HETATM    7  F1  UNL     1      -2.783  29.126   8.997  1.00  0.00    -0.203 F 
HETATM    8  C9  UNL     1      -4.816  31.004   6.648  1.00  0.00    -0.047 A 
HETATM    9  C8  UNL     1      -5.830  32.087   6.369  1.00  0.00     0.041 C 
HETATM   10  C27 UNL     1      -4.430  30.426   5.466  1.00  0.00    -0.030 A 
HETATM   11  C7  UNL     1      -5.455  32.452   4.924  1.00  0.00     0.030 C 
HETATM   12  C6  UNL     1      -5.185  31.050   4.394  1.00  0.00     0.039 C 
HETATM   13  C2  UNL     1      -4.578  31.055   3.038  1.00  0.00     0.005 C 
HETATM   14  S1  UNL     1      -6.849  30.298   4.184  1.00  0.00    -0.154 SA
HETATM   15  C1  UNL     1      -4.650  29.671   2.448  1.00  0.00     0.012 C 
HETATM   16  C3  UNL     1      -5.316  32.065   2.199  1.00  0.00     0.007 C 
HETATM   17  C4  UNL     1      -6.691  31.670   1.788  1.00  0.00     0.010 C 
HETATM   18  C5  UNL     1      -7.632  31.322   2.891  1.00  0.00     0.075 C 
HETATM   19  C26 UNL     1      -3.483  29.408   5.491  1.00  0.00     0.049 A 
ENDBRANCH   3   4
ENDBRANCH   2   3
ENDBRANCH   1   2
BRANCH   1  20
HETATM   20  O2  UNL     1      -3.397  26.291   4.967  1.00  0.00    -0.392 OA
ATOM     21  H2  UNL     1      -3.387  26.466   4.033  1.00  0.00     0.210 HD
ENDBRANCH   1  20
BRANCH   1  22
HETATM   22  C15 UNL     1      -1.118  26.037   4.367  1.00  0.00     0.306 C 
BRANCH  22  23
HETATM   23  N1  UNL     1       0.056  25.257   4.725  1.00  0.00     0.091 N 
HETATM   24  C16 UNL     1       1.163  25.585   3.826  1.00  0.00     0.274 C 
HETATM   25  C17 UNL     1       1.165  24.791   2.567  1.00  0.00     0.055 C 
HETATM   26  C18 UNL     1       1.323  23.303   2.822  1.00  0.00     0.090 C 
HETATM   27  C24 UNL     1       0.910  22.982   4.205  1.00  0.00     0.055 C 
HETATM   28  C25 UNL     1      -0.224  23.829   4.657  1.00  0.00     0.274 C 
BRANCH  26  29
HETATM   29  N2  UNL     1       2.700  22.942   2.539  1.00  0.00    -0.332 N 
HETATM   30  C19 UNL     1       3.181  22.584   1.249  1.00  0.00     0.361 C 
HETATM   31  O3  UNL     1       2.391  22.581   0.280  1.00  0.00    -0.238 OA
ATOM     32  H2  UNL     1       3.364  22.944   3.313  1.00  0.00     0.165 HD
BRANCH  30  33
HETATM   33  O4  UNL     1       4.503  22.236   1.029  1.00  0.00    -0.294 OA
BRANCH  33  34
HETATM   34  C20 UNL     1       5.102  21.030   1.433  1.00  0.00     0.061 C 
HETATM   35  C21 UNL     1       5.807  21.343   2.757  1.00  0.00     0.046 C 
HETATM   36  C22 UNL     1       6.213  20.604   0.480  1.00  0.00     0.046 C 
HETATM   37  C23 UNL     1       4.144  19.903   1.643  1.00  0.00     0.046 C 
ENDBRANCH  33  34
ENDBRANCH  30  33
ENDBRANCH  26  29
ENDBRANCH  22  23
ENDBRANCH   1  22
TORSDOF 9
ENDMDL
MODEL 5
REMARK VINA RESULT: -7.656172641      4.399     11.877
REMARK  9 active torsions:
REMARK  status: ('A' for Active; 'I' for Inactive)
REMARK    1  A    between atoms: C12_14  and  O1_15 
REMARK    2  A    between atoms: O1_15  and  C13_16 
REMARK    3  A    between atoms: C13_16  and  C14_17 
REMARK    4  A    between atoms: C14_17  and  O2_18 
REMARK    5  A    between atoms: C14_17  and  C15_20 
REMARK    6  A    between atoms: C15_20  and  N1_21 
REMARK    7  A    between atoms: C18_24  and  N2_25 
REMARK       I    between atoms: N2_25  and  C19_27 
REMARK    8  A    between atoms: C19_27  and  O4_29 
REMARK    9  A    between atoms: O4_29  and  C20_30 
ROOT
HETATM    1  C14 UNL     1      -0.679  24.030   5.192  1.00  0.00     0.170 C 
ENDROOT
BRANCH   1   2
HETATM    2  C13 UNL     1      -1.849  24.933   5.541  1.00  0.00     0.209 C 
BRANCH   2   3
HETATM    3  O1  UNL     1      -1.644  26.021   6.276  1.00  0.00    -0.345 OA
BRANCH   3   4
HETATM    4  C12 UNL     1      -2.095  27.256   6.529  1.00  0.00     0.107 A 
HETATM    5  C11 UNL     1      -1.983  27.729   7.859  1.00  0.00     0.150 A 
HETATM    6  C10 UNL     1      -2.407  28.968   8.251  1.00  0.00     0.053 A 
HETATM    7  F1  UNL     1      -1.414  26.869   8.761  1.00  0.00    -0.203 F 
HETATM    8  C9  UNL     1      -2.976  29.816   7.328  1.00  0.00    -0.047 A 
HETATM    9  C8  UNL     1      -3.507  31.221   7.481  1.00  0.00     0.041 C 
HETATM   10  C27 UNL     1      -3.117  29.416   6.024  1.00  0.00    -0.030 A 
HETATM   11  C7  UNL     1      -3.335  31.739   6.044  1.00  0.00     0.030 C 
HETATM   12  C6  UNL     1      -3.769  30.487   5.294  1.00  0.00     0.039 C 
HETATM   13  C2  UNL     1      -3.516  30.577   3.832  1.00  0.00     0.005 C 
HETATM   14  S1  UNL     1      -5.597  30.441   5.473  1.00  0.00    -0.154 SA
HETATM   15  C1  UNL     1      -4.261  29.475   3.123  1.00  0.00     0.012 C 
HETATM   16  C3  UNL     1      -3.949  31.941   3.365  1.00  0.00     0.007 C 
HETATM   17  C4  UNL     1      -5.420  32.161   3.316  1.00  0.00     0.010 C 
HETATM   18  C5  UNL     1      -6.163  31.935   4.588  1.00  0.00     0.075 C 
HETATM   19  C26 UNL     1      -2.674  28.149   5.657  1.00  0.00     0.049 A 
ENDBRANCH   3   4
ENDBRANCH   2   3
ENDBRANCH   1   2
BRANCH   1  20
HETATM   20  O2  UNL     1       0.355  24.204   6.057  1.00  0.00    -0.392 OA
ATOM     21  H2  UNL     1       0.555  25.125   6.174  1.00  0.00     0.210 HD
ENDBRANCH   1  20
BRANCH   1  22
HETATM   22  C15 UNL     1      -1.089  22.607   5.065  1.00  0.00     0.306 C 
BRANCH  22  23
HETATM   23  N1  UNL     1      -0.527  22.014   3.862  1.00  0.00     0.091 N 
HETATM   24  C16 UNL     1       0.431  20.969   4.225  1.00  0.00     0.274 C 
HETATM   25  C17 UNL     1       1.807  21.479   4.474  1.00  0.00     0.055 C 
HETATM   26  C18 UNL     1       2.414  22.127   3.243  1.00  0.00     0.090 C 
HETATM   27  C24 UNL     1       1.343  22.553   2.316  1.00  0.00     0.055 C 
HETATM   28  C25 UNL     1       0.134  23.021   3.043  1.00  0.00     0.274 C 
BRANCH  26  29
HETATM   29  N2  UNL     1       3.342  21.182   2.648  1.00  0.00    -0.332 N 
HETATM   30  C19 UNL     1       4.396  21.549   1.767  1.00  0.00     0.361 C 
HETATM   31  O3  UNL     1       4.563  22.754   1.478  1.00  0.00    -0.238 OA
ATOM     32  H2  UNL     1       3.230  20.194   2.875  1.00  0.00     0.165 HD
BRANCH  30  33
HETATM   33  O4  UNL     1       5.252  20.610   1.215  1.00  0.00    -0.294 OA
BRANCH  33  34
HETATM   34  C20 UNL     1       6.456  20.171   1.792  1.00  0.00     0.061 C 
HETATM   35  C21 UNL     1       6.141  18.809   2.418  1.00  0.00     0.046 C 
HETATM   36  C22 UNL     1       6.880  21.058   2.956  1.00  0.00     0.046 C 
HETATM   37  C23 UNL     1       7.585  20.016   0.825  1.00  0.00     0.046 C 
ENDBRANCH  33  34
ENDBRANCH  30  33
ENDBRANCH  26  29
ENDBRANCH  22  23
ENDBRANCH   1  22
TORSDOF 9
ENDMDL
