MODEL 1
REMARK VINA RESULT: -8.004494871      0.000      0.000
REMARK  7 active torsions:
REMARK  status: ('A' for Active; 'I' for Inactive)
REMARK    1  A    between atoms: C2_2  and  N1_4 
REMARK    2  A    between atoms: N1_4  and  C4_6 
REMARK    3  A    between atoms: C5_9  and  C6_10 
REMARK       I    between atoms: C6_10  and  N3_12 
REMARK    4  A    between atoms: N3_12  and  C7_14 
REMARK    5  A    between atoms: C7_14  and  C8_15 
REMARK    6  A    between atoms: N4_23  and  C16_24 
REMARK    7  A    between atoms: C17_29  and  C18_30 
ROOT
HETATM    1  C8  UNL     1       4.030  19.746   3.145  1.00  0.00     0.003 C 
HETATM    2  C9  UNL     1       4.821  18.691   3.878  1.00  0.00     0.007 C 
HETATM    3  C10 UNL     1       6.251  19.164   4.115  1.00  0.00     0.010 C 
HETATM    4  C11 UNL     1       6.913  19.554   2.797  1.00  0.00    -0.037 C 
HETATM    5  C12 UNL     1       6.120  20.691   2.173  1.00  0.00     0.010 C 
HETATM    6  C13 UNL     1       4.831  20.983   2.919  1.00  0.00     0.007 C 
HETATM    7  C14 UNL     1       8.263  20.138   3.150  1.00  0.00     0.030 C 
HETATM    8  C15 UNL     1       9.149  20.341   1.935  1.00  0.00     0.142 C 
HETATM    9  N4  UNL     1       8.960  19.288   0.932  1.00  0.00    -0.212 N 
HETATM   10  C20 UNL     1       8.422  18.045   1.440  1.00  0.00     0.098 C 
HETATM   11  C21 UNL     1       9.243  17.446   2.566  1.00  0.00     0.033 C 
HETATM   12  C22 UNL     1       6.989  18.352   1.919  1.00  0.00     0.035 C 
ENDROOT
BRANCH   1  13
HETATM   13  C7  UNL     1       2.641  19.937   3.635  1.00  0.00     0.127 C 
BRANCH  13  14
HETATM   14  N3  UNL     1       2.290  21.304   3.840  1.00  0.00    -0.355 N 
HETATM   15  C6  UNL     1       1.274  21.844   3.038  1.00  0.00     0.270 C 
HETATM   16  O1  UNL     1       0.709  21.169   2.147  1.00  0.00    -0.266 OA
ATOM     17  H3  UNL     1       2.762  21.870   4.546  1.00  0.00     0.162 HD
BRANCH  15  18
HETATM   18  C5  UNL     1       0.830  23.280   3.214  1.00  0.00     0.131 A 
HETATM   19  N2  UNL     1      -0.036  23.593   4.114  1.00  0.00    -0.330 N 
HETATM   20  C4  UNL     1      -0.376  24.889   4.291  1.00  0.00     0.146 A 
ATOM     21  H2  UNL     1      -0.463  22.867   4.689  1.00  0.00     0.168 HD
HETATM   22  S1  UNL     1       0.598  25.672   3.102  1.00  0.00    -0.040 SA
HETATM   23  C23 UNL     1       1.378  24.270   2.461  1.00  0.00     0.110 A 
HETATM   24 CL1  UNL     1       2.598  24.240   1.168  1.00  0.00    -0.073 Cl
BRANCH  20  25
HETATM   25  N1  UNL     1      -1.186  25.348   5.115  1.00  0.00    -0.366 N 
ATOM     26  H1  UNL     1      -0.738  25.088   5.995  1.00  0.00     0.162 HD
BRANCH  25  27
HETATM   27  C2  UNL     1      -2.260  25.958   5.550  1.00  0.00     0.075 C 
HETATM   28  C1  UNL     1      -2.017  26.536   6.978  1.00  0.00     0.032 C 
HETATM   29  C3  UNL     1      -2.775  27.169   4.766  1.00  0.00     0.032 C 
ENDBRANCH  25  27
ENDBRANCH  20  25
ENDBRANCH  15  18
ENDBRANCH  13  14
ENDBRANCH   1  13
BRANCH   9  30
HETATM   30  C16 UNL     1       9.234  19.576  -0.412  1.00  0.00     0.698 A 
HETATM   31  N5  UNL     1       8.807  20.702  -1.080  1.00  0.00    -0.130 N 
HETATM   32  N6  UNL     1       9.211  20.717  -2.310  1.00  0.00    -0.267 N 
ATOM     33  H5  UNL     1       8.241  21.436  -0.657  1.00  0.00     0.205 HD
HETATM   34  C17 UNL     1       9.935  19.588  -2.504  1.00  0.00     0.222 A 
ATOM     35  H6  UNL     1       9.020  21.441  -3.003  1.00  0.00     0.189 HD
HETATM   36  N7  UNL     1       9.931  18.910  -1.322  1.00  0.00    -0.165 N 
HETATM   37  C19 UNL     1      10.615  17.635  -1.160  1.00  0.00     0.177 C 
BRANCH  34  38
HETATM   38  C18 UNL     1      10.573  19.176  -3.783  1.00  0.00     0.451 C 
HETATM   39  F1  UNL     1       9.754  18.237  -4.451  1.00  0.00    -0.163 F 
HETATM   40  F2  UNL     1      11.836  18.719  -3.635  1.00  0.00    -0.163 F 
HETATM   41  F3  UNL     1      10.637  20.288  -4.659  1.00  0.00    -0.163 F 
ENDBRANCH  34  38
ENDBRANCH   9  30
TORSDOF 7
ENDMDL
MODEL 2
REMARK VINA RESULT: -7.987376511      6.235      7.855
REMARK  7 active torsions:
REMARK  status: ('A' for Active; 'I' for Inactive)
REMARK    1  A    between atoms: C2_2  and  N1_4 
REMARK    2  A    between atoms: N1_4  and  C4_6 
REMARK    3  A    between atoms: C5_9  and  C6_10 
REMARK       I    between atoms: C6_10  and  N3_12 
REMARK    4  A    between atoms: N3_12  and  C7_14 
REMARK    5  A    between atoms: C7_14  and  C8_15 
REMARK    6  A    between atoms: N4_23  and  C16_24 
REMARK    7  A    between atoms: C17_29  and  C18_30 
ROOT
HETATM    1  C8  UNL     1      -0.316  24.385   4.202  1.00  0.00     0.003 C 
HETATM    2  C9  UNL     1      -0.232  22.986   4.760  1.00  0.00     0.007 C 
HETATM    3  C10 UNL     1       1.031  22.289   4.268  1.00  0.00     0.010 C 
HETATM    4  C11 UNL     1       1.089  22.295   2.743  1.00  0.00    -0.037 C 
HETATM    5  C12 UNL     1       1.109  23.737   2.263  1.00  0.00     0.010 C 
HETATM    6  C13 UNL     1       0.886  24.731   3.389  1.00  0.00     0.007 C 
HETATM    7  C14 UNL     1       2.433  21.715   2.362  1.00  0.00     0.030 C 
HETATM    8  C15 UNL     1       2.542  21.418   0.878  1.00  0.00     0.142 C 
HETATM    9  N4  UNL     1       1.271  20.955   0.313  1.00  0.00    -0.212 N 
HETATM   10  C20 UNL     1       0.347  20.382   1.266  1.00  0.00     0.098 C 
HETATM   11  C21 UNL     1       0.932  19.225   2.054  1.00  0.00     0.033 C 
HETATM   12  C22 UNL     1      -0.071  21.525   2.212  1.00  0.00     0.035 C 
ENDROOT
BRANCH   1  13
HETATM   13  C7  UNL     1      -0.781  25.414   5.166  1.00  0.00     0.127 C 
BRANCH  13  14
HETATM   14  N3  UNL     1      -1.802  26.264   4.646  1.00  0.00    -0.355 N 
HETATM   15  C6  UNL     1      -2.823  26.668   5.520  1.00  0.00     0.270 C 
HETATM   16  O1  UNL     1      -2.866  26.276   6.708  1.00  0.00    -0.266 OA
ATOM     17  H3  UNL     1      -1.790  26.569   3.673  1.00  0.00     0.162 HD
BRANCH  15  18
HETATM   18  C5  UNL     1      -3.927  27.588   5.047  1.00  0.00     0.131 A 
HETATM   19  N2  UNL     1      -5.032  27.107   4.593  1.00  0.00    -0.330 N 
HETATM   20  C4  UNL     1      -6.026  27.947   4.230  1.00  0.00     0.146 A 
ATOM     21  H2  UNL     1      -5.155  26.098   4.508  1.00  0.00     0.168 HD
HETATM   22  S1  UNL     1      -5.321  29.487   4.558  1.00  0.00    -0.040 SA
HETATM   23  C23 UNL     1      -3.792  28.937   5.145  1.00  0.00     0.110 A 
HETATM   24 CL1  UNL     1      -2.460  29.956   5.735  1.00  0.00    -0.073 Cl
BRANCH  20  25
HETATM   25  N1  UNL     1      -7.144  27.640   3.781  1.00  0.00    -0.366 N 
ATOM     26  H1  UNL     1      -6.942  27.566   2.784  1.00  0.00     0.162 HD
BRANCH  25  27
HETATM   27  C2  UNL     1      -8.421  27.352   3.800  1.00  0.00     0.075 C 
HETATM   28  C1  UNL     1      -9.193  28.231   2.769  1.00  0.00     0.032 C 
HETATM   29  C3  UNL     1      -8.852  25.928   3.438  1.00  0.00     0.032 C 
ENDBRANCH  25  27
ENDBRANCH  20  25
ENDBRANCH  15  18
ENDBRANCH  13  14
ENDBRANCH   1  13
BRANCH   9  30
HETATM   30  C16 UNL     1       1.021  21.163  -1.051  1.00  0.00     0.698 A 
HETATM   31  N5  UNL     1       1.038  22.389  -1.678  1.00  0.00    -0.130 N 
HETATM   32  N6  UNL     1       0.781  22.288  -2.944  1.00  0.00    -0.267 N 
ATOM     33  H5  UNL     1       1.230  23.270  -1.203  1.00  0.00     0.205 HD
HETATM   34  C17 UNL     1       0.586  20.973  -3.206  1.00  0.00     0.222 A 
ATOM     35  H6  UNL     1       0.734  23.054  -3.615  1.00  0.00     0.189 HD
HETATM   36  N7  UNL     1       0.740  20.309  -2.025  1.00  0.00    -0.165 N 
HETATM   37  C19 UNL     1       0.596  18.864  -1.927  1.00  0.00     0.177 C 
BRANCH  34  38
HETATM   38  C18 UNL     1       0.238  20.396  -4.532  1.00  0.00     0.451 C 
HETATM   39  F1  UNL     1      -1.111  19.972  -4.535  1.00  0.00    -0.163 F 
HETATM   40  F2  UNL     1       1.071  19.408  -4.927  1.00  0.00    -0.163 F 
HETATM   41  F3  UNL     1       0.300  21.410  -5.520  1.00  0.00    -0.163 F 
ENDBRANCH  34  38
ENDBRANCH   9  30
TORSDOF 7
ENDMDL
MODEL 3
REMARK VINA RESULT: -7.839333283      6.281      7.849
REMARK  7 active torsions:
REMARK  status: ('A' for Active; 'I' for Inactive)
REMARK    1  A    between atoms: C2_2  and  N1_4 
REMARK    2  A    between atoms: N1_4  and  C4_6 
REMARK    3  A    between atoms: C5_9  and  C6_10 
REMARK       I    between atoms: C6_10  and  N3_12 
REMARK    4  A    between atoms: N3_12  and  C7_14 
REMARK    5  A    between atoms: C7_14  and  C8_15 
REMARK    6  A    between atoms: N4_23  and  C16_24 
REMARK    7  A    between atoms: C17_29  and  C18_30 
ROOT
HETATM    1  C8  UNL     1      -0.260  24.482   4.229  1.00  0.00     0.003 C 
HETATM    2  C9  UNL     1      -0.192  23.091   4.810  1.00  0.00     0.007 C 
HETATM    3  C10 UNL     1       1.059  22.370   4.322  1.00  0.00     0.010 C 
HETATM    4  C11 UNL     1       1.108  22.350   2.797  1.00  0.00    -0.037 C 
HETATM    5  C12 UNL     1       1.145  23.783   2.294  1.00  0.00     0.010 C 
HETATM    6  C13 UNL     1       0.942  24.798   3.404  1.00  0.00     0.007 C 
HETATM    7  C14 UNL     1       2.442  21.745   2.418  1.00  0.00     0.030 C 
HETATM    8  C15 UNL     1       2.539  21.423   0.938  1.00  0.00     0.142 C 
HETATM    9  N4  UNL     1       1.257  20.968   0.388  1.00  0.00    -0.212 N 
HETATM   10  C20 UNL     1       0.332  20.423   1.356  1.00  0.00     0.098 C 
HETATM   11  C21 UNL     1       0.906  19.271   2.159  1.00  0.00     0.033 C 
HETATM   12  C22 UNL     1      -0.065  21.587   2.285  1.00  0.00     0.035 C 
ENDROOT
BRANCH   1  13
HETATM   13  C7  UNL     1      -0.705  25.533   5.179  1.00  0.00     0.127 C 
BRANCH  13  14
HETATM   14  N3  UNL     1      -1.871  26.235   4.750  1.00  0.00    -0.355 N 
HETATM   15  C6  UNL     1      -2.939  26.339   5.652  1.00  0.00     0.270 C 
HETATM   16  O1  UNL     1      -2.898  25.811   6.787  1.00  0.00    -0.266 OA
ATOM     17  H3  UNL     1      -1.925  26.647   3.818  1.00  0.00     0.162 HD
BRANCH  15  18
HETATM   18  C5  UNL     1      -4.199  27.089   5.277  1.00  0.00     0.131 A 
HETATM   19  N2  UNL     1      -4.138  28.309   4.869  1.00  0.00    -0.330 N 
HETATM   20  C4  UNL     1      -5.270  28.941   4.485  1.00  0.00     0.146 A 
ATOM     21  H2  UNL     1      -3.243  28.795   4.836  1.00  0.00     0.168 HD
HETATM   22  S1  UNL     1      -6.457  27.715   4.733  1.00  0.00    -0.040 SA
HETATM   23  C23 UNL     1      -5.408  26.470   5.312  1.00  0.00     0.110 A 
HETATM   24 CL1  UNL     1      -5.884  24.822   5.778  1.00  0.00    -0.073 Cl
BRANCH  20  25
HETATM   25  N1  UNL     1      -5.374  30.107   4.067  1.00  0.00    -0.366 N 
ATOM     26  H1  UNL     1      -5.044  30.636   4.875  1.00  0.00     0.162 HD
BRANCH  25  27
HETATM   27  C2  UNL     1      -5.647  31.075   3.227  1.00  0.00     0.075 C 
HETATM   28  C1  UNL     1      -4.422  32.030   3.081  1.00  0.00     0.032 C 
HETATM   29  C3  UNL     1      -5.980  30.709   1.778  1.00  0.00     0.032 C 
ENDBRANCH  25  27
ENDBRANCH  20  25
ENDBRANCH  15  18
ENDBRANCH  13  14
ENDBRANCH   1  13
BRANCH   9  30
HETATM   30  C16 UNL     1       1.003  21.157  -0.978  1.00  0.00     0.698 A 
HETATM   31  N5  UNL     1       1.030  22.372  -1.625  1.00  0.00    -0.130 N 
HETATM   32  N6  UNL     1       0.765  22.255  -2.887  1.00  0.00    -0.267 N 
ATOM     33  H5  UNL     1       1.234  23.259  -1.165  1.00  0.00     0.205 HD
HETATM   34  C17 UNL     1       0.554  20.938  -3.127  1.00  0.00     0.222 A 
ATOM     35  H6  UNL     1       0.722  23.010  -3.570  1.00  0.00     0.189 HD
HETATM   36  N7  UNL     1       0.707  20.291  -1.937  1.00  0.00    -0.165 N 
HETATM   37  C19 UNL     1       0.548  18.849  -1.815  1.00  0.00     0.177 C 
BRANCH  34  38
HETATM   38  C18 UNL     1       0.192  20.344  -4.442  1.00  0.00     0.451 C 
HETATM   39  F1  UNL     1      -1.160  19.934  -4.431  1.00  0.00    -0.163 F 
HETATM   40  F2  UNL     1       1.014  19.341  -4.826  1.00  0.00    -0.163 F 
HETATM   41  F3  UNL     1       0.260  21.341  -5.446  1.00  0.00    -0.163 F 
ENDBRANCH  34  38
ENDBRANCH   9  30
TORSDOF 7
ENDMDL
MODEL 4
REMARK VINA RESULT: -7.744534565      5.674     10.623
REMARK  7 active torsions:
REMARK  status: ('A' for Active; 'I' for Inactive)
REMARK    1  A    between atoms: C2_2  and  N1_4 
REMARK    2  A    between atoms: N1_4  and  C4_6 
REMARK    3  A    between atoms: C5_9  and  C6_10 
REMARK       I    between atoms: C6_10  and  N3_12 
REMARK    4  A    between atoms: N3_12  and  C7_14 
REMARK    5  A    between atoms: C7_14  and  C8_15 
REMARK    6  A    between atoms: N4_23  and  C16_24 
REMARK    7  A    between atoms: C17_29  and  C18_30 
ROOT
HETATM    1  C8  UNL     1       6.894  20.360   2.405  1.00  0.00     0.003 C 
HETATM    2  C9  UNL     1       6.190  20.820   3.657  1.00  0.00     0.007 C 
HETATM    3  C10 UNL     1       4.854  20.101   3.813  1.00  0.00     0.010 C 
HETATM    4  C11 UNL     1       3.990  20.298   2.572  1.00  0.00    -0.037 C 
HETATM    5  C12 UNL     1       4.720  19.715   1.373  1.00  0.00     0.010 C 
HETATM    6  C13 UNL     1       6.136  19.282   1.706  1.00  0.00     0.007 C 
HETATM    7  C14 UNL     1       2.760  19.438   2.764  1.00  0.00     0.030 C 
HETATM    8  C15 UNL     1       1.683  19.718   1.732  1.00  0.00     0.142 C 
HETATM    9  N4  UNL     1       1.630  21.137   1.362  1.00  0.00    -0.212 N 
HETATM   10  C20 UNL     1       2.180  22.048   2.340  1.00  0.00     0.098 C 
HETATM   11  C21 UNL     1       1.542  21.921   3.711  1.00  0.00     0.033 C 
HETATM   12  C22 UNL     1       3.690  21.749   2.416  1.00  0.00     0.035 C 
ENDROOT
BRANCH   1  13
HETATM   13  C7  UNL     1       8.357  20.150   2.553  1.00  0.00     0.127 C 
BRANCH  13  14
HETATM   14  N3  UNL     1       8.978  19.608   1.389  1.00  0.00    -0.355 N 
HETATM   15  C6  UNL     1       9.392  18.269   1.434  1.00  0.00     0.270 C 
HETATM   16  O1  UNL     1       9.257  17.571   2.465  1.00  0.00    -0.266 OA
ATOM     17  H3  UNL     1       9.117  20.176   0.553  1.00  0.00     0.162 HD
BRANCH  15  18
HETATM   18  C5  UNL     1      10.037  17.617   0.229  1.00  0.00     0.131 A 
HETATM   19  N2  UNL     1       9.590  17.846  -0.957  1.00  0.00    -0.330 N 
HETATM   20  C4  UNL     1      10.216  17.299  -2.022  1.00  0.00     0.146 A 
ATOM     21  H2  UNL     1       8.770  18.437  -1.091  1.00  0.00     0.168 HD
HETATM   22  S1  UNL     1      11.492  16.420  -1.265  1.00  0.00    -0.040 SA
HETATM   23  C23 UNL     1      11.130  16.824   0.375  1.00  0.00     0.110 A 
HETATM   24 CL1  UNL     1      12.037  16.307   1.814  1.00  0.00    -0.073 Cl
BRANCH  20  25
HETATM   25  N1  UNL     1       9.912  17.429  -3.221  1.00  0.00    -0.366 N 
ATOM     26  H1  UNL     1       9.555  16.497  -3.434  1.00  0.00     0.162 HD
BRANCH  25  27
HETATM   27  C2  UNL     1       9.768  18.024  -4.378  1.00  0.00     0.075 C 
HETATM   28  C1  UNL     1      10.787  19.196  -4.518  1.00  0.00     0.032 C 
HETATM   29  C3  UNL     1       9.999  17.206  -5.651  1.00  0.00     0.032 C 
ENDBRANCH  25  27
ENDBRANCH  20  25
ENDBRANCH  15  18
ENDBRANCH  13  14
ENDBRANCH   1  13
BRANCH   9  30
HETATM   30  C16 UNL     1       1.135  21.487   0.098  1.00  0.00     0.698 A 
HETATM   31  N5  UNL     1       1.783  22.299  -0.806  1.00  0.00    -0.130 N 
HETATM   32  N6  UNL     1       1.102  22.450  -1.897  1.00  0.00    -0.267 N 
ATOM     33  H5  UNL     1       2.692  22.730  -0.636  1.00  0.00     0.205 HD
HETATM   34  C17 UNL     1      -0.037  21.730  -1.756  1.00  0.00     0.222 A 
ATOM     35  H6  UNL     1       1.372  23.006  -2.708  1.00  0.00     0.189 HD
HETATM   36  N7  UNL     1       0.013  21.151  -0.523  1.00  0.00    -0.165 N 
HETATM   37  C19 UNL     1      -1.058  20.299  -0.025  1.00  0.00     0.177 C 
BRANCH  34  38
HETATM   38  C18 UNL     1      -1.131  21.634  -2.759  1.00  0.00     0.451 C 
HETATM   39  F1  UNL     1      -2.333  22.137  -2.211  1.00  0.00    -0.163 F 
HETATM   40  F2  UNL     1      -1.296  20.390  -3.262  1.00  0.00    -0.163 F 
HETATM   41  F3  UNL     1      -0.847  22.488  -3.853  1.00  0.00    -0.163 F 
ENDBRANCH  34  38
ENDBRANCH   9  30
TORSDOF 7
ENDMDL
MODEL 5
REMARK VINA RESULT: -7.623280849      5.471     10.733
REMARK  7 active torsions:
REMARK  status: ('A' for Active; 'I' for Inactive)
REMARK    1  A    between atoms: C2_2  and  N1_4 
REMARK    2  A    between atoms: N1_4  and  C4_6 
REMARK    3  A    between atoms: C5_9  and  C6_10 
REMARK       I    between atoms: C6_10  and  N3_12 
REMARK    4  A    between atoms: N3_12  and  C7_14 
REMARK    5  A    between atoms: C7_14  and  C8_15 
REMARK    6  A    between atoms: N4_23  and  C16_24 
REMARK    7  A    between atoms: C17_29  and  C18_30 
ROOT
HETATM    1  C8  UNL     1       6.747  20.243   1.771  1.00  0.00     0.003 C 
HETATM    2  C9  UNL     1       6.211  20.869   3.035  1.00  0.00     0.007 C 
HETATM    3  C10 UNL     1       4.855  20.272   3.394  1.00  0.00     0.010 C 
HETATM    4  C11 UNL     1       3.878  20.419   2.231  1.00  0.00    -0.037 C 
HETATM    5  C12 UNL     1       4.437  19.673   1.030  1.00  0.00     0.010 C 
HETATM    6  C13 UNL     1       5.849  19.166   1.262  1.00  0.00     0.007 C 
HETATM    7  C14 UNL     1       2.622  19.676   2.630  1.00  0.00     0.030 C 
HETATM    8  C15 UNL     1       1.462  19.941   1.687  1.00  0.00     0.142 C 
HETATM    9  N4  UNL     1       1.464  21.319   1.184  1.00  0.00    -0.212 N 
HETATM   10  C20 UNL     1       2.174  22.273   2.007  1.00  0.00     0.098 C 
HETATM   11  C21 UNL     1       1.678  22.322   3.440  1.00  0.00     0.033 C 
HETATM   12  C22 UNL     1       3.660  21.868   1.962  1.00  0.00     0.035 C 
ENDROOT
BRANCH   1  13
HETATM   13  C7  UNL     1       8.200  19.938   1.794  1.00  0.00     0.127 C 
BRANCH  13  14
HETATM   14  N3  UNL     1       8.841  20.113   0.531  1.00  0.00    -0.355 N 
HETATM   15  C6  UNL     1       9.031  18.976  -0.267  1.00  0.00     0.270 C 
HETATM   16  O1  UNL     1       8.685  17.836   0.117  1.00  0.00    -0.266 OA
ATOM     17  H3  UNL     1       9.149  21.034   0.220  1.00  0.00     0.162 HD
BRANCH  15  18
HETATM   18  C5  UNL     1       9.682  19.087  -1.629  1.00  0.00     0.131 A 
HETATM   19  N2  UNL     1       9.615  18.112  -2.469  1.00  0.00    -0.330 N 
HETATM   20  C4  UNL     1      10.153  18.254  -3.700  1.00  0.00     0.146 A 
ATOM     21  H2  UNL     1       9.158  17.239  -2.206  1.00  0.00     0.168 HD
HETATM   22  S1  UNL     1      10.781  19.859  -3.625  1.00  0.00    -0.040 SA
HETATM   23  C23 UNL     1      10.300  20.236  -2.008  1.00  0.00     0.110 A 
HETATM   24 CL1  UNL     1      10.565  21.775  -1.160  1.00  0.00    -0.073 Cl
BRANCH  20  25
HETATM   25  N1  UNL     1      10.165  17.414  -4.616  1.00  0.00    -0.366 N 
ATOM     26  H1  UNL     1      11.168  17.319  -4.781  1.00  0.00     0.162 HD
BRANCH  25  27
HETATM   27  C2  UNL     1       9.684  16.577  -5.501  1.00  0.00     0.075 C 
HETATM   28  C1  UNL     1       8.125  16.616  -5.495  1.00  0.00     0.032 C 
HETATM   29  C3  UNL     1      10.034  16.795  -6.975  1.00  0.00     0.032 C 
ENDBRANCH  25  27
ENDBRANCH  20  25
ENDBRANCH  15  18
ENDBRANCH  13  14
ENDBRANCH   1  13
BRANCH   9  30
HETATM   30  C16 UNL     1       0.862  21.588  -0.053  1.00  0.00     0.698 A 
HETATM   31  N5  UNL     1       1.430  22.335  -1.061  1.00  0.00    -0.130 N 
HETATM   32  N6  UNL     1       0.657  22.417  -2.097  1.00  0.00    -0.267 N 
ATOM     33  H5  UNL     1       2.349  22.771  -0.999  1.00  0.00     0.205 HD
HETATM   34  C17 UNL     1      -0.465  21.713  -1.811  1.00  0.00     0.222 A 
ATOM     35  H6  UNL     1       0.855  22.916  -2.963  1.00  0.00     0.189 HD
HETATM   36  N7  UNL     1      -0.309  21.217  -0.551  1.00  0.00    -0.165 N 
HETATM   37  C19 UNL     1      -1.332  20.405   0.092  1.00  0.00     0.177 C 
BRANCH  34  38
HETATM   38  C18 UNL     1      -1.642  21.556  -2.708  1.00  0.00     0.451 C 
HETATM   39  F1  UNL     1      -2.813  21.996  -2.049  1.00  0.00    -0.163 F 
HETATM   40  F2  UNL     1      -1.786  20.305  -3.198  1.00  0.00    -0.163 F 
HETATM   41  F3  UNL     1      -1.507  22.423  -3.821  1.00  0.00    -0.163 F 
ENDBRANCH  34  38
ENDBRANCH   9  30
TORSDOF 7
ENDMDL
