MODEL 1
REMARK VINA RESULT: -6.208440826      0.000      0.000
REMARK  10 active torsions:
REMARK  status: ('A' for Active; 'I' for Inactive)
REMARK    1  A    between atoms: C2_2  and  O2_4 
REMARK    2  A    between atoms: O2_4  and  C3_5 
REMARK    3  A    between atoms: C3_5  and  C4_6 
REMARK    4  A    between atoms: C3_5  and  C23_32 
REMARK    5  A    between atoms: C4_6  and  C5_7 
REMARK    6  A    between atoms: C6_8  and  O3_9 
REMARK    7  A    between atoms: C6_8  and  C7_11 
REMARK    8  A    between atoms: C7_11  and  O4_12 
REMARK    9  A    between atoms: C7_11  and  C8_14 
REMARK   10  A    between atoms: C15_23  and  C17_25 
ROOT
HETATM    1  C5  UNL     1       7.424  19.706   2.005  1.00  0.00    -0.035 C 
HETATM    2  C6  UNL     1       6.307  20.649   2.405  1.00  0.00     0.111 C 
HETATM    3  C10 UNL     1       5.758  20.379   3.796  1.00  0.00     0.046 C 
HETATM    4  C11 UNL     1       6.965  20.377   4.666  1.00  0.00     0.013 C 
HETATM    5  C12 UNL     1       7.625  19.004   4.454  1.00  0.00    -0.032 C 
HETATM    6  C13 UNL     1       8.871  19.189   5.290  1.00  0.00     0.016 C 
HETATM    7  C14 UNL     1       6.728  18.106   5.262  1.00  0.00     0.023 C 
HETATM    8  C15 UNL     1       6.962  16.640   5.196  1.00  0.00    -0.025 C 
HETATM    9  C16 UNL     1       7.795  16.092   6.303  1.00  0.00     0.019 C 
HETATM   10  C19 UNL     1       7.550  16.313   3.868  1.00  0.00     0.014 C 
HETATM   11  C20 UNL     1       7.076  17.345   2.871  1.00  0.00     0.015 C 
HETATM   12  C21 UNL     1       7.810  18.673   3.015  1.00  0.00    -0.010 C 
HETATM   13  C22 UNL     1       9.282  18.340   2.850  1.00  0.00     0.021 C 
ENDROOT
BRANCH   1  14
HETATM   14  C4  UNL     1       7.468  19.469   0.565  1.00  0.00     0.021 C 
BRANCH  14  15
HETATM   15  C3  UNL     1       8.387  19.878  -0.476  1.00  0.00     0.262 C 
BRANCH  15  16
HETATM   16  O2  UNL     1       9.423  20.777  -0.350  1.00  0.00    -0.303 OA
BRANCH  16  17
HETATM   17  C2  UNL     1       9.817  21.723  -1.281  1.00  0.00     0.255 C 
HETATM   18  C1  UNL     1      10.991  22.576  -1.074  1.00  0.00     0.126 C 
HETATM   19  O1  UNL     1       9.131  21.836  -2.328  1.00  0.00    -0.266 OA
ENDBRANCH  16  17
ENDBRANCH  15  16
BRANCH  15  20
HETATM   20  C23 UNL     1       9.246  18.573  -0.872  1.00  0.00     0.417 C 
HETATM   21  F1  UNL     1      10.452  18.623  -0.273  1.00  0.00    -0.168 F 
HETATM   22  F2  UNL     1       9.349  18.535  -2.238  1.00  0.00    -0.168 F 
HETATM   23  F3  UNL     1       8.510  17.538  -0.352  1.00  0.00    -0.168 F 
ENDBRANCH  15  20
ENDBRANCH  14  15
ENDBRANCH   1  14
BRANCH   2  24
HETATM   24  O3  UNL     1       6.844  21.967   2.596  1.00  0.00    -0.383 OA
ATOM     25  H3  UNL     1       7.245  22.263   1.786  1.00  0.00     0.211 HD
ENDBRANCH   2  24
BRANCH   2  26
HETATM   26  C7  UNL     1       5.162  20.815   1.520  1.00  0.00     0.195 C 
BRANCH  26  27
HETATM   27  O4  UNL     1       4.996  22.167   1.141  1.00  0.00    -0.389 OA
ATOM     28  H4  UNL     1       5.743  22.481   0.645  1.00  0.00     0.210 HD
ENDBRANCH  26  27
BRANCH  26  29
HETATM   29  C8  UNL     1       3.809  20.388   1.915  1.00  0.00     0.138 C 
HETATM   30  C9  UNL     1       2.963  20.374   0.594  1.00  0.00     0.053 C 
HETATM   31 CL1  UNL     1       2.910  21.414   2.988  1.00  0.00    -0.099 Cl
HETATM   32 CL2  UNL     1       3.661  18.633   2.325  1.00  0.00    -0.099 Cl
ENDBRANCH  26  29
ENDBRANCH   2  26
BRANCH   8  33
HETATM   33  C17 UNL     1       5.617  15.952   5.321  1.00  0.00    -0.006 C 
HETATM   34  C18 UNL     1       4.839  16.040   6.370  1.00  0.00     0.081 C 
HETATM   35 CL3  UNL     1       5.178  16.947   7.811  1.00  0.00    -0.097 Cl
ENDBRANCH   8  33
TORSDOF 10
ENDMDL
MODEL 2
REMARK VINA RESULT: -5.888175111      4.103      6.676
REMARK  10 active torsions:
REMARK  status: ('A' for Active; 'I' for Inactive)
REMARK    1  A    between atoms: C2_2  and  O2_4 
REMARK    2  A    between atoms: O2_4  and  C3_5 
REMARK    3  A    between atoms: C3_5  and  C4_6 
REMARK    4  A    between atoms: C3_5  and  C23_32 
REMARK    5  A    between atoms: C4_6  and  C5_7 
REMARK    6  A    between atoms: C6_8  and  O3_9 
REMARK    7  A    between atoms: C6_8  and  C7_11 
REMARK    8  A    between atoms: C7_11  and  O4_12 
REMARK    9  A    between atoms: C7_11  and  C8_14 
REMARK   10  A    between atoms: C15_23  and  C17_25 
ROOT
HETATM    1  C5  UNL     1       2.948  20.017   0.905  1.00  0.00    -0.035 C 
HETATM    2  C6  UNL     1       1.859  19.573  -0.050  1.00  0.00     0.111 C 
HETATM    3  C10 UNL     1       0.634  20.473  -0.032  1.00  0.00     0.046 C 
HETATM    4  C11 UNL     1       1.187  21.838  -0.248  1.00  0.00     0.013 C 
HETATM    5  C12 UNL     1       1.761  22.271   1.111  1.00  0.00    -0.032 C 
HETATM    6  C13 UNL     1       2.378  23.594   0.717  1.00  0.00     0.016 C 
HETATM    7  C14 UNL     1       0.512  22.622   1.873  1.00  0.00     0.023 C 
HETATM    8  C15 UNL     1       0.642  22.964   3.313  1.00  0.00    -0.025 C 
HETATM    9  C16 UNL     1       0.715  24.423   3.601  1.00  0.00     0.019 C 
HETATM   10  C19 UNL     1       1.823  22.246   3.866  1.00  0.00     0.014 C 
HETATM   11  C20 UNL     1       2.028  20.980   3.067  1.00  0.00     0.015 C 
HETATM   12  C21 UNL     1       2.662  21.247   1.707  1.00  0.00    -0.010 C 
HETATM   13  C22 UNL     1       3.968  21.962   2.004  1.00  0.00     0.021 C 
ENDROOT
BRANCH   1  14
HETATM   14  C4  UNL     1       3.737  18.899   1.414  1.00  0.00     0.021 C 
BRANCH  14  15
HETATM   15  C3  UNL     1       4.896  18.196   0.907  1.00  0.00     0.262 C 
BRANCH  15  16
HETATM   16  O2  UNL     1       5.276  18.084  -0.412  1.00  0.00    -0.303 OA
BRANCH  16  17
HETATM   17  C2  UNL     1       4.734  17.233  -1.360  1.00  0.00     0.255 C 
HETATM   18  C1  UNL     1       4.863  15.775  -1.261  1.00  0.00     0.126 C 
HETATM   19  O1  UNL     1       4.118  17.748  -2.327  1.00  0.00    -0.266 OA
ENDBRANCH  16  17
ENDBRANCH  15  16
BRANCH  15  20
HETATM   20  C23 UNL     1       6.190  18.979   1.465  1.00  0.00     0.417 C 
HETATM   21  F1  UNL     1       6.384  20.105   0.751  1.00  0.00    -0.168 F 
HETATM   22  F2  UNL     1       7.262  18.128   1.390  1.00  0.00    -0.168 F 
HETATM   23  F3  UNL     1       5.837  19.299   2.752  1.00  0.00    -0.168 F 
ENDBRANCH  15  20
ENDBRANCH  14  15
ENDBRANCH   1  14
BRANCH   2  24
HETATM   24  O3  UNL     1       2.301  19.774  -1.402  1.00  0.00    -0.383 OA
ATOM     25  H3  UNL     1       1.735  19.291  -1.993  1.00  0.00     0.211 HD
ENDBRANCH   2  24
BRANCH   2  26
HETATM   26  C7  UNL     1       1.377  18.199   0.006  1.00  0.00     0.195 C 
BRANCH  26  27
HETATM   27  O4  UNL     1       1.281  17.634  -1.287  1.00  0.00    -0.389 OA
ATOM     28  H4  UNL     1       1.007  16.726  -1.248  1.00  0.00     0.210 HD
ENDBRANCH  26  27
BRANCH  26  29
HETATM   29  C8  UNL     1       0.094  17.852   0.641  1.00  0.00     0.138 C 
HETATM   30  C9  UNL     1       0.185  16.324   0.980  1.00  0.00     0.053 C 
HETATM   31 CL1  UNL     1      -1.352  17.995  -0.309  1.00  0.00    -0.099 Cl
HETATM   32 CL2  UNL     1      -0.104  18.472   2.328  1.00  0.00    -0.099 Cl
ENDBRANCH  26  29
ENDBRANCH   2  26
BRANCH   8  33
HETATM   33  C17 UNL     1      -0.606  22.473   4.019  1.00  0.00    -0.006 C 
HETATM   34  C18 UNL     1      -0.721  22.358   5.317  1.00  0.00     0.081 C 
HETATM   35 CL3  UNL     1       0.509  22.738   6.482  1.00  0.00    -0.097 Cl
ENDBRANCH   8  33
TORSDOF 10
ENDMDL
MODEL 3
REMARK VINA RESULT: -5.824239761      3.456      5.558
REMARK  10 active torsions:
REMARK  status: ('A' for Active; 'I' for Inactive)
REMARK    1  A    between atoms: C2_2  and  O2_4 
REMARK    2  A    between atoms: O2_4  and  C3_5 
REMARK    3  A    between atoms: C3_5  and  C4_6 
REMARK    4  A    between atoms: C3_5  and  C23_32 
REMARK    5  A    between atoms: C4_6  and  C5_7 
REMARK    6  A    between atoms: C6_8  and  O3_9 
REMARK    7  A    between atoms: C6_8  and  C7_11 
REMARK    8  A    between atoms: C7_11  and  O4_12 
REMARK    9  A    between atoms: C7_11  and  C8_14 
REMARK   10  A    between atoms: C15_23  and  C17_25 
ROOT
HETATM    1  C5  UNL     1       9.340  18.684  -0.391  1.00  0.00    -0.035 C 
HETATM    2  C6  UNL     1       9.720  17.252  -0.712  1.00  0.00     0.111 C 
HETATM    3  C10 UNL     1       9.087  16.235   0.223  1.00  0.00     0.046 C 
HETATM    4  C11 UNL     1       7.635  16.560   0.179  1.00  0.00     0.013 C 
HETATM    5  C12 UNL     1       7.459  17.787   1.087  1.00  0.00    -0.032 C 
HETATM    6  C13 UNL     1       5.991  18.067   0.856  1.00  0.00     0.016 C 
HETATM    7  C14 UNL     1       7.538  17.168   2.457  1.00  0.00     0.023 C 
HETATM    8  C15 UNL     1       7.548  18.073   3.635  1.00  0.00    -0.025 C 
HETATM    9  C16 UNL     1       6.218  18.279   4.273  1.00  0.00     0.019 C 
HETATM   10  C19 UNL     1       8.158  19.370   3.232  1.00  0.00     0.014 C 
HETATM   11  C20 UNL     1       9.127  19.110   2.103  1.00  0.00     0.015 C 
HETATM   12  C21 UNL     1       8.421  18.879   0.772  1.00  0.00    -0.010 C 
HETATM   13  C22 UNL     1       7.580  20.121   0.540  1.00  0.00     0.021 C 
ENDROOT
BRANCH   1  14
HETATM   14  C4  UNL     1      10.390  19.635  -0.746  1.00  0.00     0.021 C 
BRANCH  14  15
HETATM   15  C3  UNL     1      10.594  20.500  -1.888  1.00  0.00     0.262 C 
BRANCH  15  16
HETATM   16  O2  UNL     1       9.904  20.464  -3.079  1.00  0.00    -0.303 OA
BRANCH  16  17
HETATM   17  C2  UNL     1      10.013  19.503  -4.070  1.00  0.00     0.255 C 
HETATM   18  C1  UNL     1      11.172  19.437  -4.965  1.00  0.00     0.126 C 
HETATM   19  O1  UNL     1       9.076  18.673  -4.187  1.00  0.00    -0.266 OA
ENDBRANCH  16  17
ENDBRANCH  15  16
BRANCH  15  20
HETATM   20  C23 UNL     1      10.187  21.987  -1.417  1.00  0.00     0.417 C 
HETATM   21  F1  UNL     1      10.129  22.039  -0.073  1.00  0.00    -0.168 F 
HETATM   22  F2  UNL     1       8.985  22.298  -1.999  1.00  0.00    -0.168 F 
HETATM   23  F3  UNL     1      11.227  22.760  -1.870  1.00  0.00    -0.168 F 
ENDBRANCH  15  20
ENDBRANCH  14  15
ENDBRANCH   1  14
BRANCH   2  24
HETATM   24  O3  UNL     1       9.112  16.867  -1.955  1.00  0.00    -0.383 OA
ATOM     25  H3  UNL     1       8.735  16.000  -1.865  1.00  0.00     0.211 HD
ENDBRANCH   2  24
BRANCH   2  26
HETATM   26  C7  UNL     1      11.128  16.898  -0.836  1.00  0.00     0.195 C 
BRANCH  26  27
HETATM   27  O4  UNL     1      11.351  16.061  -1.953  1.00  0.00    -0.389 OA
ATOM     28  H4  UNL     1      12.273  15.851  -2.049  1.00  0.00     0.210 HD
ENDBRANCH  26  27
BRANCH  26  29
HETATM   29  C8  UNL     1      11.859  16.235   0.258  1.00  0.00     0.138 C 
HETATM   30  C9  UNL     1      13.375  16.558   0.014  1.00  0.00     0.053 C 
HETATM   31 CL1  UNL     1      11.799  14.503   0.348  1.00  0.00    -0.099 Cl
HETATM   32 CL2  UNL     1      11.689  17.034   1.871  1.00  0.00    -0.099 Cl
ENDBRANCH  26  29
ENDBRANCH   2  26
BRANCH   8  33
HETATM   33  C17 UNL     1       8.415  17.433   4.701  1.00  0.00    -0.006 C 
HETATM   34  C18 UNL     1       8.245  16.219   5.158  1.00  0.00     0.081 C 
HETATM   35 CL3  UNL     1       7.015  15.106   4.646  1.00  0.00    -0.097 Cl
ENDBRANCH   8  33
TORSDOF 10
ENDMDL
MODEL 4
REMARK VINA RESULT: -5.766120736      3.051      5.066
REMARK  10 active torsions:
REMARK  status: ('A' for Active; 'I' for Inactive)
REMARK    1  A    between atoms: C2_2  and  O2_4 
REMARK    2  A    between atoms: O2_4  and  C3_5 
REMARK    3  A    between atoms: C3_5  and  C4_6 
REMARK    4  A    between atoms: C3_5  and  C23_32 
REMARK    5  A    between atoms: C4_6  and  C5_7 
REMARK    6  A    between atoms: C6_8  and  O3_9 
REMARK    7  A    between atoms: C6_8  and  C7_11 
REMARK    8  A    between atoms: C7_11  and  O4_12 
REMARK    9  A    between atoms: C7_11  and  C8_14 
REMARK   10  A    between atoms: C15_23  and  C17_25 
ROOT
HETATM    1  C5  UNL     1       8.822  18.214  -0.189  1.00  0.00    -0.035 C 
HETATM    2  C6  UNL     1       8.782  16.702  -0.090  1.00  0.00     0.111 C 
HETATM    3  C10 UNL     1       8.076  16.196   1.157  1.00  0.00     0.046 C 
HETATM    4  C11 UNL     1       6.761  16.893   1.134  1.00  0.00     0.013 C 
HETATM    5  C12 UNL     1       7.039  18.318   1.639  1.00  0.00    -0.032 C 
HETATM    6  C13 UNL     1       5.668  18.926   1.452  1.00  0.00     0.016 C 
HETATM    7  C14 UNL     1       7.182  18.096   3.120  1.00  0.00     0.023 C 
HETATM    8  C15 UNL     1       7.602  19.245   3.964  1.00  0.00    -0.025 C 
HETATM    9  C16 UNL     1       6.483  19.981   4.615  1.00  0.00     0.019 C 
HETATM   10  C19 UNL     1       8.440  20.158   3.139  1.00  0.00     0.014 C 
HETATM   11  C20 UNL     1       9.122  19.340   2.067  1.00  0.00     0.015 C 
HETATM   12  C21 UNL     1       8.177  18.966   0.930  1.00  0.00    -0.010 C 
HETATM   13  C22 UNL     1       7.642  20.284   0.401  1.00  0.00     0.021 C 
ENDROOT
BRANCH   1  14
HETATM   14  C4  UNL     1      10.004  18.697  -0.898  1.00  0.00     0.021 C 
BRANCH  14  15
HETATM   15  C3  UNL     1      10.229  19.129  -2.262  1.00  0.00     0.262 C 
BRANCH  15  16
HETATM   16  O2  UNL     1      10.535  20.405  -2.678  1.00  0.00    -0.303 OA
BRANCH  16  17
HETATM   17  C2  UNL     1      10.058  21.589  -2.141  1.00  0.00     0.255 C 
HETATM   18  C1  UNL     1      10.841  22.382  -1.188  1.00  0.00     0.126 C 
HETATM   19  O1  UNL     1       8.915  21.975  -2.494  1.00  0.00    -0.266 OA
ENDBRANCH  16  17
ENDBRANCH  15  16
BRANCH  15  20
HETATM   20  C23 UNL     1      11.565  18.383  -2.766  1.00  0.00     0.417 C 
HETATM   21  F1  UNL     1      12.005  18.956  -3.904  1.00  0.00    -0.168 F 
HETATM   22  F2  UNL     1      11.267  17.056  -2.938  1.00  0.00    -0.168 F 
HETATM   23  F3  UNL     1      12.461  18.613  -1.752  1.00  0.00    -0.168 F 
ENDBRANCH  15  20
ENDBRANCH  14  15
ENDBRANCH   1  14
BRANCH   2  24
HETATM   24  O3  UNL     1       7.908  16.183  -1.104  1.00  0.00    -0.383 OA
ATOM     25  H3  UNL     1       7.309  15.558  -0.713  1.00  0.00     0.211 HD
ENDBRANCH   2  24
BRANCH   2  26
HETATM   26  C7  UNL     1      10.021  15.946  -0.213  1.00  0.00     0.195 C 
BRANCH  26  27
HETATM   27  O4  UNL     1       9.808  14.713  -0.872  1.00  0.00    -0.389 OA
ATOM     28  H4  UNL     1      10.363  14.630  -1.639  1.00  0.00     0.210 HD
ENDBRANCH  26  27
BRANCH  26  29
HETATM   29  C8  UNL     1      10.829  15.584   0.965  1.00  0.00     0.138 C 
HETATM   30  C9  UNL     1      12.225  15.138   0.403  1.00  0.00     0.053 C 
HETATM   31 CL1  UNL     1      10.307  14.241   1.932  1.00  0.00    -0.099 Cl
HETATM   32 CL2  UNL     1      11.394  16.990   1.952  1.00  0.00    -0.099 Cl
ENDBRANCH  26  29
ENDBRANCH   2  26
BRANCH   8  33
HETATM   33  C17 UNL     1       8.444  18.699   5.100  1.00  0.00    -0.006 C 
HETATM   34  C18 UNL     1       8.067  17.732   5.898  1.00  0.00     0.081 C 
HETATM   35 CL3  UNL     1       6.553  16.887   5.823  1.00  0.00    -0.097 Cl
ENDBRANCH   8  33
TORSDOF 10
ENDMDL
MODEL 5
REMARK VINA RESULT: -5.751528663      4.297      6.599
REMARK  10 active torsions:
REMARK  status: ('A' for Active; 'I' for Inactive)
REMARK    1  A    between atoms: C2_2  and  O2_4 
REMARK    2  A    between atoms: O2_4  and  C3_5 
REMARK    3  A    between atoms: C3_5  and  C4_6 
REMARK    4  A    between atoms: C3_5  and  C23_32 
REMARK    5  A    between atoms: C4_6  and  C5_7 
REMARK    6  A    between atoms: C6_8  and  O3_9 
REMARK    7  A    between atoms: C6_8  and  C7_11 
REMARK    8  A    between atoms: C7_11  and  O4_12 
REMARK    9  A    between atoms: C7_11  and  C8_14 
REMARK   10  A    between atoms: C15_23  and  C17_25 
ROOT
HETATM    1  C5  UNL     1       9.000  18.382   0.526  1.00  0.00    -0.035 C 
HETATM    2  C6  UNL     1       8.674  18.426  -0.953  1.00  0.00     0.111 C 
HETATM    3  C10 UNL     1       9.272  17.270  -1.738  1.00  0.00     0.046 C 
HETATM    4  C11 UNL     1       8.822  16.060  -0.997  1.00  0.00     0.013 C 
HETATM    5  C12 UNL     1       9.748  15.957   0.227  1.00  0.00    -0.032 C 
HETATM    6  C13 UNL     1       9.110  14.780   0.929  1.00  0.00     0.016 C 
HETATM    7  C14 UNL     1      11.011  15.421  -0.390  1.00  0.00     0.023 C 
HETATM    8  C15 UNL     1      12.218  15.310   0.470  1.00  0.00    -0.025 C 
HETATM    9  C16 UNL     1      12.440  13.960   1.060  1.00  0.00     0.019 C 
HETATM   10  C19 UNL     1      12.144  16.355   1.528  1.00  0.00     0.014 C 
HETATM   11  C20 UNL     1      11.342  17.518   0.993  1.00  0.00     0.015 C 
HETATM   12  C21 UNL     1       9.843  17.235   0.984  1.00  0.00    -0.010 C 
HETATM   13  C22 UNL     1       9.488  16.897   2.420  1.00  0.00     0.021 C 
ENDROOT
BRANCH   1  14
HETATM   14  C4  UNL     1       9.073  19.713   1.123  1.00  0.00     0.021 C 
BRANCH  14  15
HETATM   15  C3  UNL     1       8.092  20.562   1.766  1.00  0.00     0.262 C 
BRANCH  15  16
HETATM   16  O2  UNL     1       6.823  20.199   2.156  1.00  0.00    -0.303 OA
BRANCH  16  17
HETATM   17  C2  UNL     1       5.662  20.314   1.409  1.00  0.00     0.255 C 
HETATM   18  C1  UNL     1       4.801  21.499   1.488  1.00  0.00     0.126 C 
HETATM   19  O1  UNL     1       5.358  19.362   0.647  1.00  0.00    -0.266 OA
ENDBRANCH  16  17
ENDBRANCH  15  16
BRANCH  15  20
HETATM   20  C23 UNL     1       8.691  20.941   3.214  1.00  0.00     0.417 C 
HETATM   21  F1  UNL     1       9.482  19.944   3.655  1.00  0.00    -0.168 F 
HETATM   22  F2  UNL     1       7.636  21.174   4.058  1.00  0.00    -0.168 F 
HETATM   23  F3  UNL     1       9.445  22.059   2.964  1.00  0.00    -0.168 F 
ENDBRANCH  15  20
ENDBRANCH  14  15
ENDBRANCH   1  14
BRANCH   2  24
HETATM   24  O3  UNL     1       7.275  18.162  -1.139  1.00  0.00    -0.383 OA
ATOM     25  H3  UNL     1       7.170  17.378  -1.666  1.00  0.00     0.211 HD
ENDBRANCH   2  24
BRANCH   2  26
HETATM   26  C7  UNL     1       8.949  19.641  -1.709  1.00  0.00     0.195 C 
BRANCH  26  27
HETATM   27  O4  UNL     1       8.301  19.623  -2.965  1.00  0.00    -0.389 OA
ATOM     28  H4  UNL     1       8.921  19.735  -3.676  1.00  0.00     0.210 HD
ENDBRANCH  26  27
BRANCH  26  29
HETATM   29  C8  UNL     1      10.326  20.061  -2.026  1.00  0.00     0.138 C 
HETATM   30  C9  UNL     1      10.333  20.372  -3.563  1.00  0.00     0.053 C 
HETATM   31 CL1  UNL     1      11.602  18.904  -1.816  1.00  0.00    -0.099 Cl
HETATM   32 CL2  UNL     1      10.764  21.713  -1.435  1.00  0.00    -0.099 Cl
ENDBRANCH  26  29
ENDBRANCH   2  26
BRANCH   8  33
HETATM   33  C17 UNL     1      13.430  15.577  -0.400  1.00  0.00    -0.006 C 
HETATM   34  C18 UNL     1      14.615  15.886   0.062  1.00  0.00     0.081 C 
HETATM   35 CL3  UNL     1      15.039  16.050   1.738  1.00  0.00    -0.097 Cl
ENDBRANCH   8  33
TORSDOF 10
ENDMDL
