MODEL 1
REMARK VINA RESULT: -8.325649308      0.000      0.000
REMARK  7 active torsions:
REMARK  status: ('A' for Active; 'I' for Inactive)
REMARK    1  A    between atoms: C5_6  and  N2_7 
REMARK    2  A    between atoms: N2_7  and  C6_9 
REMARK    3  A    between atoms: C7_12  and  O1_13 
REMARK    4  A    between atoms: O1_13  and  C8_14 
REMARK    5  A    between atoms: C8_14  and  C9_15 
REMARK    6  A    between atoms: C17_28  and  O2_29 
REMARK    7  A    between atoms: O2_29  and  C18_30 
ROOT
HETATM    1  N1  UNL     1      -0.657  22.704  -3.215  1.00  0.00    -0.191 NA
HETATM    2  C1  UNL     1      -0.042  22.203  -2.380  1.00  0.00     0.099 C 
HETATM    3  C2  UNL     1       0.708  21.579  -1.320  1.00  0.00     0.047 A 
HETATM    4  C3  UNL     1       0.915  20.204  -1.328  1.00  0.00     0.025 A 
HETATM    5  C4  UNL     1       1.627  19.563  -0.334  1.00  0.00     0.034 A 
HETATM    6  C5  UNL     1       2.149  20.337   0.708  1.00  0.00     0.068 A 
HETATM    7  C17 UNL     1       1.938  21.699   0.708  1.00  0.00     0.104 A 
HETATM    8  C24 UNL     1       1.227  22.331  -0.287  1.00  0.00     0.062 A 
ENDROOT
BRANCH   7   9
HETATM    9  O2  UNL     1       2.467  22.450   1.755  1.00  0.00    -0.302 OA
BRANCH   9  10
HETATM   10  C18 UNL     1       1.737  23.488   2.347  1.00  0.00     0.159 A 
HETATM   11  C19 UNL     1       1.843  24.792   1.906  1.00  0.00     0.191 A 
HETATM   12  F1  UNL     1       2.680  25.055   0.874  1.00  0.00    -0.200 F 
HETATM   13  C20 UNL     1       1.127  25.822   2.483  1.00  0.00     0.160 A 
HETATM   14  F2  UNL     1       1.241  27.111   2.037  1.00  0.00    -0.203 F 
HETATM   15  C21 UNL     1       0.268  25.574   3.536  1.00  0.00     0.091 A 
HETATM   16  C22 UNL     1       0.161  24.273   3.977  1.00  0.00     0.160 A 
HETATM   17  F3  UNL     1      -0.691  24.016   5.024  1.00  0.00    -0.203 F 
HETATM   18  C23 UNL     1       0.880  23.239   3.398  1.00  0.00     0.191 A 
HETATM   19  F4  UNL     1       0.773  21.964   3.833  1.00  0.00    -0.200 F 
ENDBRANCH   9  10
ENDBRANCH   7   9
BRANCH   6  20
HETATM   20  N2  UNL     1       2.878  19.731   1.740  1.00  0.00    -0.339 N 
ATOM     21  H2  UNL     1       2.380  19.072   2.338  1.00  0.00     0.167 HD
BRANCH  20  22
HETATM   22  C6  UNL     1       4.129  19.939   1.999  1.00  0.00     0.130 A 
HETATM   23  N3  UNL     1       5.052  20.030   1.031  1.00  0.00    -0.320 N 
HETATM   24  C7  UNL     1       6.329  20.245   1.353  1.00  0.00     0.166 A 
ATOM     25  H3  UNL     1       4.780  19.935   0.053  1.00  0.00     0.169 HD
HETATM   26  C14 UNL     1       6.692  20.373   2.669  1.00  0.00     0.086 A 
HETATM   27 CL1  UNL     1       8.354  20.657   3.153  1.00  0.00    -0.080 Cl
HETATM   28  C15 UNL     1       5.751  20.283   3.695  1.00  0.00     0.056 A 
HETATM   29  C16 UNL     1       4.462  20.062   3.319  1.00  0.00     0.080 A 
HETATM   30 CL2  UNL     1       3.259  19.947   4.606  1.00  0.00    -0.080 Cl
BRANCH  24  31
HETATM   31  O1  UNL     1       7.318  20.346   0.390  1.00  0.00    -0.334 OA
BRANCH  31  32
HETATM   32  C8  UNL     1       7.879  19.154  -0.127  1.00  0.00     0.182 C 
BRANCH  32  33
HETATM   33  C9  UNL     1       9.002  19.492  -1.092  1.00  0.00     0.013 C 
HETATM   34  C10 UNL     1       9.066  20.965  -1.375  1.00  0.00     0.034 C 
HETATM   35  C11 UNL     1      10.270  21.180  -2.296  1.00  0.00     0.232 C 
HETATM   36  N4  UNL     1      10.026  20.468  -3.524  1.00  0.00    -0.075 N 
HETATM   37  C12 UNL     1      10.045  19.049  -3.245  1.00  0.00     0.232 C 
ATOM     38  H42 UNL     1       9.165  20.765  -3.984  1.00  0.00     0.277 HD
ATOM     39  H41 UNL     1      10.678  20.730  -4.264  1.00  0.00     0.277 HD
HETATM   40  C13 UNL     1       8.803  18.762  -2.402  1.00  0.00     0.034 C 
ENDBRANCH  32  33
ENDBRANCH  31  32
ENDBRANCH  24  31
ENDBRANCH  20  22
ENDBRANCH   6  20
TORSDOF 7
ENDMDL
MODEL 2
REMARK VINA RESULT: -8.284091662      0.104      1.755
REMARK  7 active torsions:
REMARK  status: ('A' for Active; 'I' for Inactive)
REMARK    1  A    between atoms: C5_6  and  N2_7 
REMARK    2  A    between atoms: N2_7  and  C6_9 
REMARK    3  A    between atoms: C7_12  and  O1_13 
REMARK    4  A    between atoms: O1_13  and  C8_14 
REMARK    5  A    between atoms: C8_14  and  C9_15 
REMARK    6  A    between atoms: C17_28  and  O2_29 
REMARK    7  A    between atoms: O2_29  and  C18_30 
ROOT
HETATM    1  N1  UNL     1      -0.711  22.742  -3.250  1.00  0.00    -0.191 NA
HETATM    2  C1  UNL     1      -0.090  22.239  -2.421  1.00  0.00     0.099 C 
HETATM    3  C2  UNL     1       0.667  21.612  -1.368  1.00  0.00     0.047 A 
HETATM    4  C3  UNL     1       0.888  20.238  -1.390  1.00  0.00     0.025 A 
HETATM    5  C4  UNL     1       1.607  19.595  -0.403  1.00  0.00     0.034 A 
HETATM    6  C5  UNL     1       2.123  20.364   0.646  1.00  0.00     0.068 A 
HETATM    7  C17 UNL     1       1.898  21.724   0.660  1.00  0.00     0.104 A 
HETATM    8  C24 UNL     1       1.180  22.358  -0.328  1.00  0.00     0.062 A 
ENDROOT
BRANCH   7   9
HETATM    9  O2  UNL     1       2.420  22.469   1.715  1.00  0.00    -0.302 OA
BRANCH   9  10
HETATM   10  C18 UNL     1       1.687  23.506   2.305  1.00  0.00     0.159 A 
HETATM   11  C19 UNL     1       0.794  23.268   3.331  1.00  0.00     0.191 A 
HETATM   12  F1  UNL     1       0.636  21.995   3.763  1.00  0.00    -0.200 F 
HETATM   13  C20 UNL     1       0.067  24.284   3.920  1.00  0.00     0.160 A 
HETATM   14  F2  UNL     1      -0.816  24.036   4.937  1.00  0.00    -0.203 F 
HETATM   15  C21 UNL     1       0.215  25.590   3.493  1.00  0.00     0.091 A 
HETATM   16  C22 UNL     1       1.106  25.827   2.470  1.00  0.00     0.160 A 
HETATM   17  F3  UNL     1       1.260  27.123   2.038  1.00  0.00    -0.203 F 
HETATM   18  C23 UNL     1       1.836  24.808   1.879  1.00  0.00     0.191 A 
HETATM   19  F4  UNL     1       2.709  25.044   0.875  1.00  0.00    -0.200 F 
ENDBRANCH   9  10
ENDBRANCH   7   9
BRANCH   6  20
HETATM   20  N2  UNL     1       2.859  19.755   1.671  1.00  0.00    -0.339 N 
ATOM     21  H2  UNL     1       2.375  19.065   2.247  1.00  0.00     0.167 HD
BRANCH  20  22
HETATM   22  C6  UNL     1       4.099  19.994   1.949  1.00  0.00     0.130 A 
HETATM   23  N3  UNL     1       5.043  20.063   1.000  1.00  0.00    -0.320 N 
HETATM   24  C7  UNL     1       6.309  20.313   1.342  1.00  0.00     0.166 A 
ATOM     25  H3  UNL     1       4.795  19.926   0.020  1.00  0.00     0.169 HD
HETATM   26  C14 UNL     1       6.639  20.498   2.659  1.00  0.00     0.086 A 
HETATM   27 CL1  UNL     1       8.285  20.829   3.169  1.00  0.00    -0.080 Cl
HETATM   28  C15 UNL     1       5.677  20.431   3.667  1.00  0.00     0.056 A 
HETATM   29  C16 UNL     1       4.400  20.173   3.271  1.00  0.00     0.080 A 
HETATM   30 CL2  UNL     1       3.170  20.087   4.535  1.00  0.00    -0.080 Cl
BRANCH  24  31
HETATM   31  O1  UNL     1       7.318  20.394   0.397  1.00  0.00    -0.334 OA
BRANCH  31  32
HETATM   32  C8  UNL     1       7.910  19.193  -0.061  1.00  0.00     0.182 C 
BRANCH  32  33
HETATM   33  C9  UNL     1       9.029  19.512  -1.035  1.00  0.00     0.013 C 
HETATM   34  C10 UNL     1       9.019  20.958  -1.439  1.00  0.00     0.034 C 
HETATM   35  C11 UNL     1      10.225  21.163  -2.358  1.00  0.00     0.232 C 
HETATM   36  N4  UNL     1      10.042  20.341  -3.527  1.00  0.00    -0.075 N 
HETATM   37  C12 UNL     1      10.132  18.952  -3.130  1.00  0.00     0.232 C 
ATOM     38  H42 UNL     1       9.174  20.550  -4.021  1.00  0.00     0.277 HD
ATOM     39  H41 UNL     1      10.691  20.577  -4.278  1.00  0.00     0.277 HD
HETATM   40  C13 UNL     1       8.893  18.668  -2.283  1.00  0.00     0.034 C 
ENDBRANCH  32  33
ENDBRANCH  31  32
ENDBRANCH  24  31
ENDBRANCH  20  22
ENDBRANCH   6  20
TORSDOF 7
ENDMDL
MODEL 3
REMARK VINA RESULT: -8.064432869      1.250      2.170
REMARK  7 active torsions:
REMARK  status: ('A' for Active; 'I' for Inactive)
REMARK    1  A    between atoms: C5_6  and  N2_7 
REMARK    2  A    between atoms: N2_7  and  C6_9 
REMARK    3  A    between atoms: C7_12  and  O1_13 
REMARK    4  A    between atoms: O1_13  and  C8_14 
REMARK    5  A    between atoms: C8_14  and  C9_15 
REMARK    6  A    between atoms: C17_28  and  O2_29 
REMARK    7  A    between atoms: O2_29  and  C18_30 
ROOT
HETATM    1  N1  UNL     1      -0.489  20.867  -2.186  1.00  0.00    -0.191 NA
HETATM    2  C1  UNL     1       0.366  20.998  -1.427  1.00  0.00     0.099 C 
HETATM    3  C2  UNL     1       1.419  21.160  -0.457  1.00  0.00     0.047 A 
HETATM    4  C3  UNL     1       2.294  20.111  -0.195  1.00  0.00     0.025 A 
HETATM    5  C4  UNL     1       3.317  20.222   0.725  1.00  0.00     0.034 A 
HETATM    6  C5  UNL     1       3.464  21.434   1.408  1.00  0.00     0.068 A 
HETATM    7  C17 UNL     1       2.591  22.468   1.142  1.00  0.00     0.104 A 
HETATM    8  C24 UNL     1       1.574  22.350   0.223  1.00  0.00     0.062 A 
ENDROOT
BRANCH   7   9
HETATM    9  O2  UNL     1       2.756  23.666   1.834  1.00  0.00    -0.302 OA
BRANCH   9  10
HETATM   10  C18 UNL     1       1.713  24.220   2.586  1.00  0.00     0.159 A 
HETATM   11  C19 UNL     1       1.209  23.586   3.704  1.00  0.00     0.191 A 
HETATM   12  F1  UNL     1       1.750  22.399   4.067  1.00  0.00    -0.200 F 
HETATM   13  C20 UNL     1       0.182  24.126   4.452  1.00  0.00     0.160 A 
HETATM   14  F2  UNL     1      -0.309  23.487   5.559  1.00  0.00    -0.203 F 
HETATM   15  C21 UNL     1      -0.382  25.336   4.098  1.00  0.00     0.091 A 
HETATM   16  C22 UNL     1       0.120  25.969   2.983  1.00  0.00     0.160 A 
HETATM   17  F3  UNL     1      -0.435  27.174   2.622  1.00  0.00    -0.203 F 
HETATM   18  C23 UNL     1       1.151  25.428   2.231  1.00  0.00     0.191 A 
HETATM   19  F4  UNL     1       1.641  26.052   1.138  1.00  0.00    -0.200 F 
ENDBRANCH   9  10
ENDBRANCH   7   9
BRANCH   6  20
HETATM   20  N2  UNL     1       4.487  21.593   2.352  1.00  0.00    -0.339 N 
ATOM     21  H2  UNL     1       4.460  22.431   2.933  1.00  0.00     0.167 HD
BRANCH  20  22
HETATM   22  C6  UNL     1       5.464  20.768   2.547  1.00  0.00     0.130 A 
HETATM   23  N3  UNL     1       6.592  20.813   1.825  1.00  0.00    -0.320 N 
HETATM   24  C7  UNL     1       7.569  19.937   2.068  1.00  0.00     0.166 A 
ATOM     25  H3  UNL     1       6.704  21.514   1.092  1.00  0.00     0.169 HD
HETATM   26  C14 UNL     1       7.417  18.997   3.054  1.00  0.00     0.086 A 
HETATM   27 CL1  UNL     1       8.666  17.820   3.419  1.00  0.00    -0.080 Cl
HETATM   28  C15 UNL     1       6.253  18.928   3.820  1.00  0.00     0.056 A 
HETATM   29  C16 UNL     1       5.284  19.841   3.536  1.00  0.00     0.080 A 
HETATM   30 CL2  UNL     1       3.806  19.768   4.498  1.00  0.00    -0.080 Cl
BRANCH  24  31
HETATM   31  O1  UNL     1       8.752  19.944   1.349  1.00  0.00    -0.334 OA
BRANCH  31  32
HETATM   32  C8  UNL     1       8.895  19.030   0.278  1.00  0.00     0.182 C 
BRANCH  32  33
HETATM   33  C9  UNL     1       9.711  19.664  -0.833  1.00  0.00     0.013 C 
HETATM   34  C10 UNL     1       9.078  20.931  -1.333  1.00  0.00     0.034 C 
HETATM   35  C11 UNL     1      10.022  21.503  -2.392  1.00  0.00     0.232 C 
HETATM   36  N4  UNL     1      10.109  20.555  -3.473  1.00  0.00    -0.075 N 
HETATM   37  C12 UNL     1      10.792  19.372  -2.994  1.00  0.00     0.232 C 
ATOM     38  H42 UNL     1       9.199  20.342  -3.881  1.00  0.00     0.277 HD
ATOM     39  H41 UNL     1      10.548  20.949  -4.306  1.00  0.00     0.277 HD
HETATM   40  C13 UNL     1       9.844  18.706  -1.997  1.00  0.00     0.034 C 
ENDBRANCH  32  33
ENDBRANCH  31  32
ENDBRANCH  24  31
ENDBRANCH  20  22
ENDBRANCH   6  20
TORSDOF 7
ENDMDL
MODEL 4
REMARK VINA RESULT: -8.024420593      1.253      1.404
REMARK  7 active torsions:
REMARK  status: ('A' for Active; 'I' for Inactive)
REMARK    1  A    between atoms: C5_6  and  N2_7 
REMARK    2  A    between atoms: N2_7  and  C6_9 
REMARK    3  A    between atoms: C7_12  and  O1_13 
REMARK    4  A    between atoms: O1_13  and  C8_14 
REMARK    5  A    between atoms: C8_14  and  C9_15 
REMARK    6  A    between atoms: C17_28  and  O2_29 
REMARK    7  A    between atoms: O2_29  and  C18_30 
ROOT
HETATM    1  N1  UNL     1      -0.494  20.872  -2.163  1.00  0.00    -0.191 NA
HETATM    2  C1  UNL     1       0.364  21.002  -1.407  1.00  0.00     0.099 C 
HETATM    3  C2  UNL     1       1.421  21.164  -0.441  1.00  0.00     0.047 A 
HETATM    4  C3  UNL     1       2.302  20.117  -0.189  1.00  0.00     0.025 A 
HETATM    5  C4  UNL     1       3.329  20.227   0.727  1.00  0.00     0.034 A 
HETATM    6  C5  UNL     1       3.474  21.437   1.415  1.00  0.00     0.068 A 
HETATM    7  C17 UNL     1       2.596  22.468   1.159  1.00  0.00     0.104 A 
HETATM    8  C24 UNL     1       1.574  22.351   0.244  1.00  0.00     0.062 A 
ENDROOT
BRANCH   7   9
HETATM    9  O2  UNL     1       2.759  23.663   1.856  1.00  0.00    -0.302 OA
BRANCH   9  10
HETATM   10  C18 UNL     1       1.711  24.221   2.597  1.00  0.00     0.159 A 
HETATM   11  C19 UNL     1       1.139  25.429   2.249  1.00  0.00     0.191 A 
HETATM   12  F1  UNL     1       1.618  26.076   1.160  1.00  0.00    -0.200 F 
HETATM   13  C20 UNL     1       0.105  25.987   2.974  1.00  0.00     0.160 A 
HETATM   14  F2  UNL     1      -0.453  27.185   2.618  1.00  0.00    -0.203 F 
HETATM   15  C21 UNL     1      -0.397  25.343   4.088  1.00  0.00     0.091 A 
HETATM   16  C22 UNL     1       0.172  24.137   4.436  1.00  0.00     0.160 A 
HETATM   17  F3  UNL     1      -0.320  23.489   5.543  1.00  0.00    -0.203 F 
HETATM   18  C23 UNL     1       1.211  23.577   3.709  1.00  0.00     0.191 A 
HETATM   19  F4  UNL     1       1.767  22.395   4.053  1.00  0.00    -0.200 F 
ENDBRANCH   9  10
ENDBRANCH   7   9
BRANCH   6  20
HETATM   20  N2  UNL     1       4.502  21.595   2.354  1.00  0.00    -0.339 N 
ATOM     21  H2  UNL     1       4.480  22.435   2.933  1.00  0.00     0.167 HD
BRANCH  20  22
HETATM   22  C6  UNL     1       5.475  20.766   2.550  1.00  0.00     0.130 A 
HETATM   23  N3  UNL     1       6.604  20.808   1.828  1.00  0.00    -0.320 N 
HETATM   24  C7  UNL     1       7.578  19.928   2.072  1.00  0.00     0.166 A 
ATOM     25  H3  UNL     1       6.719  21.509   1.097  1.00  0.00     0.169 HD
HETATM   26  C14 UNL     1       7.422  18.988   3.057  1.00  0.00     0.086 A 
HETATM   27 CL1  UNL     1       8.666  17.807   3.422  1.00  0.00    -0.080 Cl
HETATM   28  C15 UNL     1       6.258  18.923   3.822  1.00  0.00     0.056 A 
HETATM   29  C16 UNL     1       5.292  19.839   3.538  1.00  0.00     0.080 A 
HETATM   30 CL2  UNL     1       3.812  19.770   4.499  1.00  0.00    -0.080 Cl
BRANCH  24  31
HETATM   31  O1  UNL     1       8.762  19.932   1.353  1.00  0.00    -0.334 OA
BRANCH  31  32
HETATM   32  C8  UNL     1       8.901  19.019   0.280  1.00  0.00     0.182 C 
BRANCH  32  33
HETATM   33  C9  UNL     1       9.716  19.655  -0.831  1.00  0.00     0.013 C 
HETATM   34  C10 UNL     1       9.086  20.926  -1.324  1.00  0.00     0.034 C 
HETATM   35  C11 UNL     1      10.030  21.498  -2.384  1.00  0.00     0.232 C 
HETATM   36  N4  UNL     1      10.109  20.554  -3.469  1.00  0.00    -0.075 N 
HETATM   37  C12 UNL     1      10.788  19.367  -2.996  1.00  0.00     0.232 C 
ATOM     38  H42 UNL     1       9.197  20.347  -3.875  1.00  0.00     0.277 HD
ATOM     39  H41 UNL     1      10.547  20.950  -4.301  1.00  0.00     0.277 HD
HETATM   40  C13 UNL     1       9.841  18.701  -2.000  1.00  0.00     0.034 C 
ENDBRANCH  32  33
ENDBRANCH  31  32
ENDBRANCH  24  31
ENDBRANCH  20  22
ENDBRANCH   6  20
TORSDOF 7
ENDMDL
MODEL 5
REMARK VINA RESULT: -7.906696177      1.360      1.665
REMARK  7 active torsions:
REMARK  status: ('A' for Active; 'I' for Inactive)
REMARK    1  A    between atoms: C5_6  and  N2_7 
REMARK    2  A    between atoms: N2_7  and  C6_9 
REMARK    3  A    between atoms: C7_12  and  O1_13 
REMARK    4  A    between atoms: O1_13  and  C8_14 
REMARK    5  A    between atoms: C8_14  and  C9_15 
REMARK    6  A    between atoms: C17_28  and  O2_29 
REMARK    7  A    between atoms: O2_29  and  C18_30 
ROOT
HETATM    1  N1  UNL     1      -0.761  20.809  -2.054  1.00  0.00    -0.191 NA
HETATM    2  C1  UNL     1       0.160  20.930  -1.375  1.00  0.00     0.099 C 
HETATM    3  C2  UNL     1       1.297  21.079  -0.504  1.00  0.00     0.047 A 
HETATM    4  C3  UNL     1       2.205  20.035  -0.357  1.00  0.00     0.025 A 
HETATM    5  C4  UNL     1       3.310  20.133   0.466  1.00  0.00     0.034 A 
HETATM    6  C5  UNL     1       3.506  21.328   1.168  1.00  0.00     0.068 A 
HETATM    7  C17 UNL     1       2.601  22.356   1.017  1.00  0.00     0.104 A 
HETATM    8  C24 UNL     1       1.502  22.251   0.194  1.00  0.00     0.062 A 
ENDROOT
BRANCH   7   9
HETATM    9  O2  UNL     1       2.815  23.536   1.726  1.00  0.00    -0.302 OA
BRANCH   9  10
HETATM   10  C18 UNL     1       1.807  24.107   2.511  1.00  0.00     0.159 A 
HETATM   11  C19 UNL     1       1.240  25.324   2.190  1.00  0.00     0.191 A 
HETATM   12  F1  UNL     1       1.685  25.968   1.085  1.00  0.00    -0.200 F 
HETATM   13  C20 UNL     1       0.245  25.894   2.958  1.00  0.00     0.160 A 
HETATM   14  F2  UNL     1      -0.309  27.103   2.629  1.00  0.00    -0.203 F 
HETATM   15  C21 UNL     1      -0.222  25.253   4.090  1.00  0.00     0.091 A 
HETATM   16  C22 UNL     1       0.343  24.038   4.410  1.00  0.00     0.160 A 
HETATM   17  F3  UNL     1      -0.115  23.393   5.533  1.00  0.00    -0.203 F 
HETATM   18  C23 UNL     1       1.342  23.465   3.639  1.00  0.00     0.191 A 
HETATM   19  F4  UNL     1       1.894  22.274   3.957  1.00  0.00    -0.200 F 
ENDBRANCH   9  10
ENDBRANCH   7   9
BRANCH   6  20
HETATM   20  N2  UNL     1       4.612  21.474   2.016  1.00  0.00    -0.339 N 
ATOM     21  H2  UNL     1       4.607  22.267   2.657  1.00  0.00     0.167 HD
BRANCH  20  22
HETATM   22  C6  UNL     1       5.639  20.688   2.053  1.00  0.00     0.130 A 
HETATM   23  N3  UNL     1       6.662  20.810   1.196  1.00  0.00    -0.320 N 
HETATM   24  C7  UNL     1       7.698  19.972   1.279  1.00  0.00     0.166 A 
ATOM     25  H3  UNL     1       6.650  21.539   0.484  1.00  0.00     0.169 HD
HETATM   26  C14 UNL     1       7.713  18.993   2.239  1.00  0.00     0.086 A 
HETATM   27 CL1  UNL     1       9.046  17.864   2.396  1.00  0.00    -0.080 Cl
HETATM   28  C15 UNL     1       6.661  18.845   3.143  1.00  0.00     0.056 A 
HETATM   29  C16 UNL     1       5.626  19.722   3.019  1.00  0.00     0.080 A 
HETATM   30 CL2  UNL     1       4.288  19.548   4.158  1.00  0.00    -0.080 Cl
BRANCH  24  31
HETATM   31  O1  UNL     1       8.778  20.058   0.417  1.00  0.00    -0.334 OA
BRANCH  31  32
HETATM   32  C8  UNL     1       8.555  20.537  -0.896  1.00  0.00     0.182 C 
BRANCH  32  33
HETATM   33  C9  UNL     1       9.307  19.673  -1.892  1.00  0.00     0.013 C 
HETATM   34  C10 UNL     1      10.200  18.681  -1.204  1.00  0.00     0.034 C 
HETATM   35  C11 UNL     1      10.842  17.835  -2.305  1.00  0.00     0.232 C 
HETATM   36  N4  UNL     1      11.641  18.704  -3.130  1.00  0.00    -0.075 N 
HETATM   37  C12 UNL     1      10.758  19.600  -3.844  1.00  0.00     0.232 C 
ATOM     38  H42 UNL     1      12.355  19.201  -2.598  1.00  0.00     0.277 HD
ATOM     39  H41 UNL     1      12.264  18.189  -3.753  1.00  0.00     0.277 HD
HETATM   40  C13 UNL     1      10.160  20.537  -2.795  1.00  0.00     0.034 C 
ENDBRANCH  32  33
ENDBRANCH  31  32
ENDBRANCH  24  31
ENDBRANCH  20  22
ENDBRANCH   6  20
TORSDOF 7
ENDMDL
