MODEL 1
REMARK VINA RESULT: -6.073241385      0.000      0.000
REMARK  8 active torsions:
REMARK  status: ('A' for Active; 'I' for Inactive)
REMARK    1  A    between atoms: C2_2  and  C5_5 
REMARK    2  A    between atoms: C5_5  and  O1_6 
REMARK    3  A    between atoms: O1_6  and  C6_7 
REMARK       I    between atoms: C6_7  and  N1_9 
REMARK    4  A    between atoms: N1_9  and  C7_10 
REMARK    5  A    between atoms: N1_9  and  C13_19 
REMARK    6  A    between atoms: C13_19  and  C14_20 
REMARK    7  A    between atoms: C13_19  and  C15_23 
REMARK    8  A    between atoms: C16_24  and  C17_25 
ROOT
HETATM    1  C6  UNL     1       9.904  17.661   1.312  1.00  0.00     0.368 C 
HETATM    2  O2  UNL     1      10.738  17.311   2.238  1.00  0.00    -0.238 OA
HETATM    3  N1  UNL     1      10.193  17.317  -0.002  1.00  0.00    -0.276 N 
ENDROOT
BRANCH   3   4
HETATM    4  C7  UNL     1      11.386  16.468  -0.140  1.00  0.00     0.044 A 
HETATM    5  C8  UNL     1      12.595  17.101  -0.137  1.00  0.00     0.055 A 
HETATM    6  C9  UNL     1      13.751  16.342  -0.280  1.00  0.00     0.062 A 
HETATM    7 CL1  UNL     1      15.280  17.198  -0.272  1.00  0.00    -0.082 Cl
HETATM    8  C10 UNL     1      13.653  14.980  -0.421  1.00  0.00     0.089 A 
HETATM    9  N2  UNL     1      14.849  14.237  -0.570  1.00  0.00    -0.099 NA
HETATM   10  C11 UNL     1      12.419  14.335  -0.424  1.00  0.00     0.062 A 
HETATM   11 CL2  UNL     1      12.363  12.599  -0.609  1.00  0.00    -0.082 Cl
HETATM   12  C12 UNL     1      11.273  15.112  -0.279  1.00  0.00     0.055 A 
ENDBRANCH   3   4
BRANCH   3  13
HETATM   13  C13 UNL     1       9.532  17.694  -1.225  1.00  0.00     0.214 C 
BRANCH  13  14
HETATM   14  C14 UNL     1       8.072  17.607  -1.049  1.00  0.00     0.258 C 
HETATM   15  N3  UNL     1       7.322  16.494  -0.668  1.00  0.00    -0.060 NA
HETATM   16  O3  UNL     1       7.407  18.673  -1.274  1.00  0.00    -0.274 OA
ENDBRANCH  13  14
BRANCH  13  17
HETATM   17  C15 UNL     1      10.011  19.039  -1.654  1.00  0.00    -0.038 C 
HETATM   18  C16 UNL     1      10.365  19.390  -2.890  1.00  0.00    -0.003 C 
HETATM   19  C19 UNL     1      10.860  20.824  -2.863  1.00  0.00     0.066 C 
HETATM   20  C20 UNL     1      10.178  21.414  -1.698  1.00  0.00     0.041 C 
HETATM   21  C21 UNL     1       8.786  21.845  -2.038  1.00  0.00     0.033 C 
HETATM   22 CL3  UNL     1      11.114  22.726  -0.935  1.00  0.00    -0.119 Cl
HETATM   23  C22 UNL     1      10.123  20.209  -0.745  1.00  0.00     0.062 C 
BRANCH  18  24
HETATM   24  C17 UNL     1      10.408  18.663  -4.159  1.00  0.00     0.264 C 
HETATM   25  C18 UNL     1      11.038  19.559  -5.211  1.00  0.00     0.095 C 
HETATM   26  F1  UNL     1       9.044  18.593  -4.576  1.00  0.00    -0.202 F 
HETATM   27  F2  UNL     1      10.825  17.390  -4.178  1.00  0.00    -0.202 F 
ENDBRANCH  18  24
ENDBRANCH  13  17
ENDBRANCH   3  13
BRANCH   1  28
HETATM   28  O1  UNL     1       8.815  18.340   1.791  1.00  0.00    -0.303 OA
BRANCH  28  29
HETATM   29  C5  UNL     1       8.792  18.921   3.090  1.00  0.00     0.189 C 
BRANCH  29  30
HETATM   30  C2  UNL     1       8.126  20.246   3.029  1.00  0.00    -0.029 C 
HETATM   31  C1  UNL     1       7.220  20.332   1.797  1.00  0.00     0.016 C 
HETATM   32  C3  UNL     1       9.092  21.378   2.999  1.00  0.00     0.016 C 
HETATM   33  C4  UNL     1       7.199  20.471   4.221  1.00  0.00     0.016 C 
ENDBRANCH  29  30
ENDBRANCH  28  29
ENDBRANCH   1  28
TORSDOF 8
ENDMDL
MODEL 2
REMARK VINA RESULT: -6.052095263      0.153      1.750
REMARK  8 active torsions:
REMARK  status: ('A' for Active; 'I' for Inactive)
REMARK    1  A    between atoms: C2_2  and  C5_5 
REMARK    2  A    between atoms: C5_5  and  O1_6 
REMARK    3  A    between atoms: O1_6  and  C6_7 
REMARK       I    between atoms: C6_7  and  N1_9 
REMARK    4  A    between atoms: N1_9  and  C7_10 
REMARK    5  A    between atoms: N1_9  and  C13_19 
REMARK    6  A    between atoms: C13_19  and  C14_20 
REMARK    7  A    between atoms: C13_19  and  C15_23 
REMARK    8  A    between atoms: C16_24  and  C17_25 
ROOT
HETATM    1  C6  UNL     1       9.803  17.643   1.332  1.00  0.00     0.368 C 
HETATM    2  O2  UNL     1      10.612  17.332   2.293  1.00  0.00    -0.238 OA
HETATM    3  N1  UNL     1      10.166  17.320   0.031  1.00  0.00    -0.276 N 
ENDROOT
BRANCH   3   4
HETATM    4  C7  UNL     1      11.405  16.534  -0.056  1.00  0.00     0.044 A 
HETATM    5  C8  UNL     1      11.272  15.177  -0.094  1.00  0.00     0.055 A 
HETATM    6  C9  UNL     1      12.417  14.390  -0.161  1.00  0.00     0.062 A 
HETATM    7 CL1  UNL     1      12.196  12.653  -0.208  1.00  0.00    -0.082 Cl
HETATM    8  C10 UNL     1      13.651  14.992  -0.185  1.00  0.00     0.089 A 
HETATM    9  N2  UNL     1      14.796  14.163  -0.248  1.00  0.00    -0.099 NA
HETATM   10  C11 UNL     1      13.786  16.377  -0.146  1.00  0.00     0.062 A 
HETATM   11 CL2  UNL     1      15.385  17.080  -0.179  1.00  0.00    -0.082 Cl
HETATM   12  C12 UNL     1      12.628  17.147  -0.080  1.00  0.00     0.055 A 
ENDBRANCH   3   4
BRANCH   3  13
HETATM   13  C13 UNL     1       9.540  17.668  -1.219  1.00  0.00     0.214 C 
BRANCH  13  14
HETATM   14  C14 UNL     1       8.077  17.558  -1.091  1.00  0.00     0.258 C 
HETATM   15  N3  UNL     1       7.330  16.425  -0.769  1.00  0.00    -0.060 NA
HETATM   16  O3  UNL     1       7.406  18.623  -1.303  1.00  0.00    -0.274 OA
ENDBRANCH  13  14
BRANCH  13  17
HETATM   17  C15 UNL     1      10.011  19.015  -1.652  1.00  0.00    -0.038 C 
HETATM   18  C16 UNL     1      10.354  19.368  -2.890  1.00  0.00    -0.003 C 
HETATM   19  C19 UNL     1      10.844  20.803  -2.867  1.00  0.00     0.066 C 
HETATM   20  C20 UNL     1      10.170  21.391  -1.696  1.00  0.00     0.041 C 
HETATM   21  C21 UNL     1       8.773  21.816  -2.024  1.00  0.00     0.033 C 
HETATM   22 CL3  UNL     1      11.107  22.705  -0.940  1.00  0.00    -0.119 Cl
HETATM   23  C22 UNL     1      10.127  20.185  -0.744  1.00  0.00     0.062 C 
BRANCH  18  24
HETATM   24  C17 UNL     1      10.389  18.641  -4.159  1.00  0.00     0.264 C 
HETATM   25  C18 UNL     1      11.021  19.534  -5.213  1.00  0.00     0.095 C 
HETATM   26  F1  UNL     1       9.023  18.578  -4.572  1.00  0.00    -0.202 F 
HETATM   27  F2  UNL     1      10.799  17.365  -4.181  1.00  0.00    -0.202 F 
ENDBRANCH  18  24
ENDBRANCH  13  17
ENDBRANCH   3  13
BRANCH   1  28
HETATM   28  O1  UNL     1       8.661  18.264   1.765  1.00  0.00    -0.303 OA
BRANCH  28  29
HETATM   29  C5  UNL     1       8.548  18.826   3.066  1.00  0.00     0.189 C 
BRANCH  29  30
HETATM   30  C2  UNL     1       7.967  20.190   2.969  1.00  0.00    -0.029 C 
HETATM   31  C1  UNL     1       7.119  20.499   4.206  1.00  0.00     0.016 C 
HETATM   32  C3  UNL     1       7.133  20.377   1.751  1.00  0.00     0.016 C 
HETATM   33  C4  UNL     1       9.049  21.267   2.949  1.00  0.00     0.016 C 
ENDBRANCH  29  30
ENDBRANCH  28  29
ENDBRANCH   1  28
TORSDOF 8
ENDMDL
MODEL 3
REMARK VINA RESULT: -5.908404259      3.798      6.657
REMARK  8 active torsions:
REMARK  status: ('A' for Active; 'I' for Inactive)
REMARK    1  A    between atoms: C2_2  and  C5_5 
REMARK    2  A    between atoms: C5_5  and  O1_6 
REMARK    3  A    between atoms: O1_6  and  C6_7 
REMARK       I    between atoms: C6_7  and  N1_9 
REMARK    4  A    between atoms: N1_9  and  C7_10 
REMARK    5  A    between atoms: N1_9  and  C13_19 
REMARK    6  A    between atoms: C13_19  and  C14_20 
REMARK    7  A    between atoms: C13_19  and  C15_23 
REMARK    8  A    between atoms: C16_24  and  C17_25 
ROOT
HETATM    1  C6  UNL     1       8.958  17.198   1.328  1.00  0.00     0.368 C 
HETATM    2  O2  UNL     1      10.072  16.975   0.709  1.00  0.00    -0.238 OA
HETATM    3  N1  UNL     1       8.201  18.300   0.951  1.00  0.00    -0.276 N 
ENDROOT
BRANCH   3   4
HETATM    4  C7  UNL     1       8.736  19.008  -0.221  1.00  0.00     0.044 A 
HETATM    5  C8  UNL     1       8.572  18.403  -1.433  1.00  0.00     0.055 A 
HETATM    6  C9  UNL     1       9.074  19.027  -2.569  1.00  0.00     0.062 A 
HETATM    7 CL1  UNL     1       8.840  18.213  -4.103  1.00  0.00    -0.082 Cl
HETATM    8  C10 UNL     1       9.723  20.232  -2.448  1.00  0.00     0.089 A 
HETATM    9  N2  UNL     1      10.227  20.837  -3.624  1.00  0.00    -0.099 NA
HETATM   10  C11 UNL     1       9.891  20.848  -1.212  1.00  0.00     0.062 A 
HETATM   11 CL2  UNL     1      10.726  22.379  -1.127  1.00  0.00    -0.082 Cl
HETATM   12  C12 UNL     1       9.379  20.207  -0.086  1.00  0.00     0.055 A 
ENDBRANCH   3   4
BRANCH   3  13
HETATM   13  C13 UNL     1       7.017  18.860   1.552  1.00  0.00     0.214 C 
BRANCH  13  14
HETATM   14  C14 UNL     1       5.825  18.418   0.809  1.00  0.00     0.258 C 
HETATM   15  N3  UNL     1       5.591  17.167   0.236  1.00  0.00    -0.060 NA
HETATM   16  O3  UNL     1       4.892  19.277   0.666  1.00  0.00    -0.274 OA
ENDBRANCH  13  14
BRANCH  13  17
HETATM   17  C15 UNL     1       6.988  18.518   3.003  1.00  0.00    -0.038 C 
HETATM   18  C16 UNL     1       7.766  19.040   3.950  1.00  0.00    -0.003 C 
HETATM   19  C19 UNL     1       7.454  18.355   5.266  1.00  0.00     0.066 C 
HETATM   20  C20 UNL     1       6.063  17.894   5.107  1.00  0.00     0.041 C 
HETATM   21  C21 UNL     1       5.087  18.994   5.386  1.00  0.00     0.033 C 
HETATM   22 CL3  UNL     1       5.703  16.427   6.054  1.00  0.00    -0.119 Cl
HETATM   23  C22 UNL     1       6.035  17.552   3.610  1.00  0.00     0.062 C 
BRANCH  18  24
HETATM   24  C17 UNL     1       8.830  20.045   3.923  1.00  0.00     0.264 C 
HETATM   25  C18 UNL     1       9.218  20.379   5.353  1.00  0.00     0.095 C 
HETATM   26  F1  UNL     1       8.181  21.239   3.482  1.00  0.00    -0.202 F 
HETATM   27  F2  UNL     1       9.859  19.897   3.078  1.00  0.00    -0.202 F 
ENDBRANCH  18  24
ENDBRANCH  13  17
ENDBRANCH   3  13
BRANCH   1  28
HETATM   28  O1  UNL     1       8.681  16.270   2.298  1.00  0.00    -0.303 OA
BRANCH  28  29
HETATM   29  C5  UNL     1       9.623  15.918   3.304  1.00  0.00     0.189 C 
BRANCH  29  30
HETATM   30  C2  UNL     1       9.096  14.779   4.099  1.00  0.00    -0.029 C 
HETATM   31  C1  UNL     1      10.015  13.562   3.962  1.00  0.00     0.016 C 
HETATM   32  C3  UNL     1       7.714  14.390   3.706  1.00  0.00     0.016 C 
HETATM   33  C4  UNL     1       9.072  15.093   5.593  1.00  0.00     0.016 C 
ENDBRANCH  29  30
ENDBRANCH  28  29
ENDBRANCH   1  28
TORSDOF 8
ENDMDL
MODEL 4
REMARK VINA RESULT: -5.880911075      4.444      7.833
REMARK  8 active torsions:
REMARK  status: ('A' for Active; 'I' for Inactive)
REMARK    1  A    between atoms: C2_2  and  C5_5 
REMARK    2  A    between atoms: C5_5  and  O1_6 
REMARK    3  A    between atoms: O1_6  and  C6_7 
REMARK       I    between atoms: C6_7  and  N1_9 
REMARK    4  A    between atoms: N1_9  and  C7_10 
REMARK    5  A    between atoms: N1_9  and  C13_19 
REMARK    6  A    between atoms: C13_19  and  C14_20 
REMARK    7  A    between atoms: C13_19  and  C15_23 
REMARK    8  A    between atoms: C16_24  and  C17_25 
ROOT
HETATM    1  C6  UNL     1       5.216  19.546   3.725  1.00  0.00     0.368 C 
HETATM    2  O2  UNL     1       3.958  19.321   3.926  1.00  0.00    -0.238 OA
HETATM    3  N1  UNL     1       5.593  20.196   2.558  1.00  0.00    -0.276 N 
ENDROOT
BRANCH   3   4
HETATM    4  C7  UNL     1       4.457  20.659   1.749  1.00  0.00     0.044 A 
HETATM    5  C8  UNL     1       4.133  21.981   1.842  1.00  0.00     0.055 A 
HETATM    6  C9  UNL     1       3.056  22.464   1.107  1.00  0.00     0.062 A 
HETATM    7 CL1  UNL     1       2.678  24.168   1.259  1.00  0.00    -0.082 Cl
HETATM    8  C10 UNL     1       2.344  21.604   0.308  1.00  0.00     0.089 A 
HETATM    9  N2  UNL     1       1.250  22.126  -0.423  1.00  0.00    -0.099 NA
HETATM   10  C11 UNL     1       2.674  20.255   0.213  1.00  0.00     0.062 A 
HETATM   11 CL2  UNL     1       1.726  19.214  -0.821  1.00  0.00    -0.082 Cl
HETATM   12  C12 UNL     1       3.756  19.792   0.956  1.00  0.00     0.055 A 
ENDBRANCH   3   4
BRANCH   3  13
HETATM   13  C13 UNL     1       6.906  20.443   2.018  1.00  0.00     0.214 C 
BRANCH  13  14
HETATM   14  C14 UNL     1       7.769  21.032   3.055  1.00  0.00     0.258 C 
HETATM   15  N3  UNL     1       8.988  20.547   3.530  1.00  0.00    -0.060 NA
HETATM   16  O3  UNL     1       7.357  22.115   3.591  1.00  0.00    -0.274 OA
ENDBRANCH  13  14
BRANCH  13  17
HETATM   17  C15 UNL     1       7.444  19.184   1.426  1.00  0.00    -0.038 C 
HETATM   18  C16 UNL     1       8.273  19.095   0.387  1.00  0.00    -0.003 C 
HETATM   19  C19 UNL     1       8.502  17.629   0.074  1.00  0.00     0.066 C 
HETATM   20  C20 UNL     1       8.261  16.948   1.358  1.00  0.00     0.041 C 
HETATM   21  C21 UNL     1       9.467  17.002   2.242  1.00  0.00     0.033 C 
HETATM   22 CL3  UNL     1       7.653  15.283   1.161  1.00  0.00    -0.119 Cl
HETATM   23  C22 UNL     1       7.150  17.826   1.954  1.00  0.00     0.062 C 
BRANCH  18  24
HETATM   24  C17 UNL     1       8.905  20.097  -0.471  1.00  0.00     0.264 C 
HETATM   25  C18 UNL     1       9.937  19.405  -1.347  1.00  0.00     0.095 C 
HETATM   26  F1  UNL     1       9.712  20.871   0.418  1.00  0.00    -0.202 F 
HETATM   27  F2  UNL     1       8.146  21.002  -1.102  1.00  0.00    -0.202 F 
ENDBRANCH  18  24
ENDBRANCH  13  17
ENDBRANCH   3  13
BRANCH   1  28
HETATM   28  O1  UNL     1       6.016  19.094   4.742  1.00  0.00    -0.303 OA
BRANCH  28  29
HETATM   29  C5  UNL     1       5.612  18.051   5.621  1.00  0.00     0.189 C 
BRANCH  29  30
HETATM   30  C2  UNL     1       6.755  17.134   5.861  1.00  0.00    -0.029 C 
HETATM   31  C1  UNL     1       6.729  16.613   7.301  1.00  0.00     0.016 C 
HETATM   32  C3  UNL     1       8.074  17.774   5.602  1.00  0.00     0.016 C 
HETATM   33  C4  UNL     1       6.675  15.886   4.985  1.00  0.00     0.016 C 
ENDBRANCH  29  30
ENDBRANCH  28  29
ENDBRANCH   1  28
TORSDOF 8
ENDMDL
MODEL 5
REMARK VINA RESULT: -5.857414934      3.784      6.453
REMARK  8 active torsions:
REMARK  status: ('A' for Active; 'I' for Inactive)
REMARK    1  A    between atoms: C2_2  and  C5_5 
REMARK    2  A    between atoms: C5_5  and  O1_6 
REMARK    3  A    between atoms: O1_6  and  C6_7 
REMARK       I    between atoms: C6_7  and  N1_9 
REMARK    4  A    between atoms: N1_9  and  C7_10 
REMARK    5  A    between atoms: N1_9  and  C13_19 
REMARK    6  A    between atoms: C13_19  and  C14_20 
REMARK    7  A    between atoms: C13_19  and  C15_23 
REMARK    8  A    between atoms: C16_24  and  C17_25 
ROOT
HETATM    1  C6  UNL     1       8.997  17.168   1.316  1.00  0.00     0.368 C 
HETATM    2  O2  UNL     1      10.099  16.891   0.696  1.00  0.00    -0.238 OA
HETATM    3  N1  UNL     1       8.252  18.258   0.886  1.00  0.00    -0.276 N 
ENDROOT
BRANCH   3   4
HETATM    4  C7  UNL     1       8.780  18.888  -0.333  1.00  0.00     0.044 A 
HETATM    5  C8  UNL     1       9.367  20.111  -0.188  1.00  0.00     0.055 A 
HETATM    6  C9  UNL     1       9.869  20.754  -1.315  1.00  0.00     0.062 A 
HETATM    7 CL1  UNL     1      10.614  22.322  -1.080  1.00  0.00    -0.082 Cl
HETATM    8  C10 UNL     1       9.761  20.149  -2.542  1.00  0.00     0.089 A 
HETATM    9  N2  UNL     1      10.277  20.833  -3.669  1.00  0.00    -0.099 NA
HETATM   10  C11 UNL     1       9.161  18.902  -2.690  1.00  0.00     0.062 A 
HETATM   11 CL2  UNL     1       9.055  18.187  -4.280  1.00  0.00    -0.082 Cl
HETATM   12  C12 UNL     1       8.667  18.274  -1.550  1.00  0.00     0.055 A 
ENDBRANCH   3   4
BRANCH   3  13
HETATM   13  C13 UNL     1       7.085  18.870   1.469  1.00  0.00     0.214 C 
BRANCH  13  14
HETATM   14  C14 UNL     1       5.884  18.467   0.719  1.00  0.00     0.258 C 
HETATM   15  N3  UNL     1       5.632  17.241   0.103  1.00  0.00    -0.060 NA
HETATM   16  O3  UNL     1       4.959  19.341   0.612  1.00  0.00    -0.274 OA
ENDBRANCH  13  14
BRANCH  13  17
HETATM   17  C15 UNL     1       7.028  18.546   2.923  1.00  0.00    -0.038 C 
HETATM   18  C16 UNL     1       7.759  19.109   3.884  1.00  0.00    -0.003 C 
HETATM   19  C19 UNL     1       7.437  18.429   5.200  1.00  0.00     0.066 C 
HETATM   20  C20 UNL     1       6.071  17.913   5.009  1.00  0.00     0.041 C 
HETATM   21  C21 UNL     1       5.045  18.977   5.247  1.00  0.00     0.033 C 
HETATM   22 CL3  UNL     1       5.741  16.444   5.965  1.00  0.00    -0.119 Cl
HETATM   23  C22 UNL     1       6.097  17.551   3.516  1.00  0.00     0.062 C 
BRANCH  18  24
HETATM   24  C17 UNL     1       8.784  20.154   3.872  1.00  0.00     0.264 C 
HETATM   25  C18 UNL     1       9.227  20.415   5.302  1.00  0.00     0.095 C 
HETATM   26  F1  UNL     1       8.073  21.347   3.537  1.00  0.00    -0.202 F 
HETATM   27  F2  UNL     1       9.777  20.098   2.975  1.00  0.00    -0.202 F 
ENDBRANCH  18  24
ENDBRANCH  13  17
ENDBRANCH   3  13
BRANCH   1  28
HETATM   28  O1  UNL     1       8.720  16.302   2.341  1.00  0.00    -0.303 OA
BRANCH  28  29
HETATM   29  C5  UNL     1       9.696  15.931   3.307  1.00  0.00     0.189 C 
BRANCH  29  30
HETATM   30  C2  UNL     1       9.181  14.801   4.123  1.00  0.00    -0.029 C 
HETATM   31  C1  UNL     1      10.126  13.599   4.025  1.00  0.00     0.016 C 
HETATM   32  C3  UNL     1       7.813  14.375   3.722  1.00  0.00     0.016 C 
HETATM   33  C4  UNL     1       9.132  15.149   5.608  1.00  0.00     0.016 C 
ENDBRANCH  29  30
ENDBRANCH  28  29
ENDBRANCH   1  28
TORSDOF 8
ENDMDL
