MODEL 1
REMARK VINA RESULT: -6.878434487      0.000      0.000
REMARK  6 active torsions:
REMARK  status: ('A' for Active; 'I' for Inactive)
REMARK    1  A    between atoms: C3_5  and  C4_6 
REMARK    2  A    between atoms: C4_6  and  O1_7 
REMARK    3  A    between atoms: O1_7  and  N2_8 
REMARK    4  A    between atoms: C5_10  and  C6_11 
REMARK    5  A    between atoms: C7_12  and  O2_13 
REMARK    6  A    between atoms: C11_21  and  N4_22 
ROOT
HETATM    1  C6  UNL     1       8.186  19.294   0.392  1.00  0.00     0.046 A 
HETATM    2  C7  UNL     1       8.792  20.424   0.901  1.00  0.00     0.153 A 
HETATM    3  N3  UNL     1       9.657  20.883  -0.014  1.00  0.00    -0.336 N 
ATOM      4  H3  UNL     1      10.240  21.710   0.109  1.00  0.00     0.168 HD
HETATM    5  C8  UNL     1       9.654  20.118  -1.101  1.00  0.00     0.048 A 
HETATM    6  C9  UNL     1      10.337  20.156  -2.293  1.00  0.00     0.052 A 
HETATM    7  C10 UNL     1      10.120  19.199  -3.269  1.00  0.00     0.041 A 
HETATM    8 BR1  UNL     1      11.058  19.433  -4.914  1.00  0.00    -0.049 Br
HETATM    9  C11 UNL     1       9.234  18.171  -3.118  1.00  0.00     0.071 A 
HETATM   10  C19 UNL     1       8.553  18.162  -1.888  1.00  0.00     0.075 A 
HETATM   11 CL1  UNL     1       7.478  16.844  -1.603  1.00  0.00    -0.081 Cl
HETATM   12  C20 UNL     1       8.729  19.090  -0.885  1.00  0.00     0.031 A 
ENDROOT
BRANCH   1  13
HETATM   13  C5  UNL     1       7.181  18.456   1.011  1.00  0.00     0.130 C 
HETATM   14  N2  UNL     1       5.974  18.729   1.152  1.00  0.00    -0.277 N 
ATOM     15  H2  UNL     1       5.525  17.944   1.625  1.00  0.00     0.193 HD
BRANCH  14  16
HETATM   16  O1  UNL     1       5.073  19.635   0.925  1.00  0.00    -0.275 OA
BRANCH  16  17
HETATM   17  C4  UNL     1       5.096  20.953   1.454  1.00  0.00     0.258 C 
BRANCH  17  18
HETATM   18  C3  UNL     1       3.809  21.689   1.121  1.00  0.00     0.042 A 
HETATM   19  N1  UNL     1       3.626  22.938   1.406  1.00  0.00    -0.355 N 
HETATM   20  C2  UNL     1       2.486  23.532   1.094  1.00  0.00     0.047 A 
ATOM     21  H1  UNL     1       4.363  23.466   1.873  1.00  0.00     0.166 HD
HETATM   22  C1  UNL     1       2.076  24.965   1.337  1.00  0.00     0.076 C 
HETATM   23  S1  UNL     1       1.610  22.268   0.353  1.00  0.00    -0.087 SA
HETATM   24  C21 UNL     1       2.778  21.029   0.490  1.00  0.00     0.078 A 
ENDBRANCH  17  18
ENDBRANCH  16  17
ENDBRANCH  14  16
ENDBRANCH   1  13
BRANCH   2  25
HETATM   25  O2  UNL     1       8.551  20.995   2.153  1.00  0.00    -0.345 OA
ATOM     26  H2  UNL     1       9.143  20.986   2.897  1.00  0.00     0.219 HD
ENDBRANCH   2  25
BRANCH   9  27
HETATM   27  N4  UNL     1       9.055  17.124  -4.012  1.00  0.00    -0.374 N 
HETATM   28  C12 UNL     1       9.910  15.944  -3.989  1.00  0.00     0.142 C 
HETATM   29  C13 UNL     1       9.109  14.726  -4.516  1.00  0.00     0.137 C 
HETATM   30  N5  UNL     1       8.784  14.925  -5.889  1.00  0.00    -0.406 N 
HETATM   31  C14 UNL     1       9.455  14.046  -6.797  1.00  0.00     0.144 C 
HETATM   32  C15 UNL     1       8.696  16.270  -6.297  1.00  0.00     0.036 C 
HETATM   33  C16 UNL     1       9.876  16.907  -6.912  1.00  0.00     0.039 C 
HETATM   34  C17 UNL     1       7.573  16.331  -7.352  1.00  0.00     0.039 C 
HETATM   35  C18 UNL     1       8.102  17.086  -5.118  1.00  0.00     0.153 C 
ENDBRANCH   9  27
TORSDOF 6
ENDMDL
MODEL 2
REMARK VINA RESULT: -6.575583261      7.329     13.167
REMARK  6 active torsions:
REMARK  status: ('A' for Active; 'I' for Inactive)
REMARK    1  A    between atoms: C3_5  and  C4_6 
REMARK    2  A    between atoms: C4_6  and  O1_7 
REMARK    3  A    between atoms: O1_7  and  N2_8 
REMARK    4  A    between atoms: C5_10  and  C6_11 
REMARK    5  A    between atoms: C7_12  and  O2_13 
REMARK    6  A    between atoms: C11_21  and  N4_22 
ROOT
HETATM    1  C6  UNL     1       1.531  23.444   2.474  1.00  0.00     0.046 A 
HETATM    2  C7  UNL     1       1.924  24.586   1.809  1.00  0.00     0.153 A 
HETATM    3  N3  UNL     1       1.272  25.627   2.344  1.00  0.00    -0.336 N 
ATOM      4  H3  UNL     1       1.378  26.593   2.037  1.00  0.00     0.168 HD
HETATM    5  C8  UNL     1       0.470  25.235   3.329  1.00  0.00     0.048 A 
HETATM    6  C9  UNL     1      -0.388  25.892   4.176  1.00  0.00     0.052 A 
HETATM    7  C10 UNL     1      -1.113  25.202   5.133  1.00  0.00     0.041 A 
HETATM    8 BR1  UNL     1      -2.186  26.252   6.309  1.00  0.00    -0.049 Br
HETATM    9  C11 UNL     1      -1.029  23.848   5.295  1.00  0.00     0.071 A 
HETATM   10  C19 UNL     1      -0.143  23.207   4.412  1.00  0.00     0.075 A 
HETATM   11 CL1  UNL     1      -0.052  21.488   4.512  1.00  0.00    -0.081 Cl
HETATM   12  C20 UNL     1       0.603  23.846   3.445  1.00  0.00     0.031 A 
ENDROOT
BRANCH   1  13
HETATM   13  C5  UNL     1       1.964  22.080   2.252  1.00  0.00     0.130 C 
HETATM   14  N2  UNL     1       3.120  21.707   1.978  1.00  0.00    -0.277 N 
ATOM     15  H2  UNL     1       3.111  20.691   1.880  1.00  0.00     0.193 HD
BRANCH  14  16
HETATM   16  O1  UNL     1       4.333  22.122   1.770  1.00  0.00    -0.275 OA
BRANCH  16  17
HETATM   17  C4  UNL     1       5.406  21.304   1.328  1.00  0.00     0.258 C 
BRANCH  17  18
HETATM   18  C3  UNL     1       6.186  20.753   2.510  1.00  0.00     0.042 A 
HETATM   19  N1  UNL     1       7.426  21.052   2.727  1.00  0.00    -0.355 N 
HETATM   20  C2  UNL     1       8.060  20.545   3.771  1.00  0.00     0.047 A 
ATOM     21  H1  UNL     1       7.917  21.681   2.091  1.00  0.00     0.166 HD
HETATM   22  C1  UNL     1       9.492  20.764   4.199  1.00  0.00     0.076 C 
HETATM   23  S1  UNL     1       6.850  19.588   4.500  1.00  0.00    -0.087 SA
HETATM   24  C21 UNL     1       5.578  19.900   3.403  1.00  0.00     0.078 A 
ENDBRANCH  17  18
ENDBRANCH  16  17
ENDBRANCH  14  16
ENDBRANCH   1  13
BRANCH   2  25
HETATM   25  O2  UNL     1       2.842  24.654   0.758  1.00  0.00    -0.345 OA
ATOM     26  H2  UNL     1       3.410  25.388   0.556  1.00  0.00     0.219 HD
ENDBRANCH   2  25
BRANCH   9  27
HETATM   27  N4  UNL     1      -1.810  23.091   6.159  1.00  0.00    -0.374 N 
HETATM   28  C12 UNL     1      -3.170  22.695   5.812  1.00  0.00     0.142 C 
HETATM   29  C13 UNL     1      -3.507  21.361   6.526  1.00  0.00     0.137 C 
HETATM   30  N5  UNL     1      -3.524  21.563   7.936  1.00  0.00    -0.406 N 
HETATM   31  C14 UNL     1      -4.816  21.456   8.541  1.00  0.00     0.144 C 
HETATM   32  C15 UNL     1      -2.721  22.624   8.401  1.00  0.00     0.036 C 
HETATM   33  C16 UNL     1      -3.341  23.944   8.620  1.00  0.00     0.039 C 
HETATM   34  C17 UNL     1      -2.161  22.176   9.767  1.00  0.00     0.039 C 
HETATM   35  C18 UNL     1      -1.450  22.680   7.513  1.00  0.00     0.153 C 
ENDBRANCH   9  27
TORSDOF 6
ENDMDL
MODEL 3
REMARK VINA RESULT: -6.521057584      5.622      9.425
REMARK  6 active torsions:
REMARK  status: ('A' for Active; 'I' for Inactive)
REMARK    1  A    between atoms: C3_5  and  C4_6 
REMARK    2  A    between atoms: C4_6  and  O1_7 
REMARK    3  A    between atoms: O1_7  and  N2_8 
REMARK    4  A    between atoms: C5_10  and  C6_11 
REMARK    5  A    between atoms: C7_12  and  O2_13 
REMARK    6  A    between atoms: C11_21  and  N4_22 
ROOT
HETATM    1  C6  UNL     1       7.319  20.459   3.556  1.00  0.00     0.046 A 
HETATM    2  C7  UNL     1       8.672  20.697   3.684  1.00  0.00     0.153 A 
HETATM    3  N3  UNL     1       9.172  19.807   4.551  1.00  0.00    -0.336 N 
ATOM      4  H3  UNL     1      10.152  19.761   4.829  1.00  0.00     0.168 HD
HETATM    5  C8  UNL     1       8.223  18.993   5.003  1.00  0.00     0.048 A 
HETATM    6  C9  UNL     1       8.214  17.937   5.881  1.00  0.00     0.052 A 
HETATM    7  C10 UNL     1       7.043  17.255   6.165  1.00  0.00     0.041 A 
HETATM    8 BR1  UNL     1       7.195  15.746   7.321  1.00  0.00    -0.049 Br
HETATM    9  C11 UNL     1       5.841  17.580   5.605  1.00  0.00     0.071 A 
HETATM   10  C19 UNL     1       5.885  18.664   4.712  1.00  0.00     0.075 A 
HETATM   11 CL1  UNL     1       4.385  19.176   4.032  1.00  0.00    -0.081 Cl
HETATM   12  C20 UNL     1       7.022  19.374   4.393  1.00  0.00     0.031 A 
ENDROOT
BRANCH   1  13
HETATM   13  C5  UNL     1       6.357  21.160   2.731  1.00  0.00     0.130 C 
HETATM   14  N2  UNL     1       6.146  20.972   1.518  1.00  0.00    -0.277 N 
ATOM     15  H2  UNL     1       5.414  21.616   1.220  1.00  0.00     0.193 HD
BRANCH  14  16
HETATM   16  O1  UNL     1       6.506  20.264   0.491  1.00  0.00    -0.275 OA
BRANCH  16  17
HETATM   17  C4  UNL     1       7.622  19.387   0.461  1.00  0.00     0.258 C 
BRANCH  17  18
HETATM   18  C3  UNL     1       8.690  19.906  -0.487  1.00  0.00     0.042 A 
HETATM   19  N1  UNL     1       9.380  20.973  -0.243  1.00  0.00    -0.355 N 
HETATM   20  C2  UNL     1      10.298  21.383  -1.102  1.00  0.00     0.047 A 
ATOM     21  H1  UNL     1       9.215  21.500   0.615  1.00  0.00     0.166 HD
HETATM   22  C1  UNL     1      11.202  22.589  -1.007  1.00  0.00     0.076 C 
HETATM   23  S1  UNL     1      10.196  20.204  -2.331  1.00  0.00    -0.087 SA
HETATM   24  C21 UNL     1       8.958  19.237  -1.660  1.00  0.00     0.078 A 
ENDBRANCH  17  18
ENDBRANCH  16  17
ENDBRANCH  14  16
ENDBRANCH   1  13
BRANCH   2  25
HETATM   25  O2  UNL     1       9.400  21.692   3.028  1.00  0.00    -0.345 OA
ATOM     26  H2  UNL     1      10.248  22.031   3.289  1.00  0.00     0.219 HD
ENDBRANCH   2  25
BRANCH   9  27
HETATM   27  N4  UNL     1       4.618  17.007   5.933  1.00  0.00    -0.374 N 
HETATM   28  C12 UNL     1       3.841  17.466   7.077  1.00  0.00     0.142 C 
HETATM   29  C13 UNL     1       2.336  17.218   6.800  1.00  0.00     0.137 C 
HETATM   30  N5  UNL     1       2.089  15.818   6.718  1.00  0.00    -0.406 N 
HETATM   31  C14 UNL     1       1.307  15.283   7.791  1.00  0.00     0.144 C 
HETATM   32  C15 UNL     1       3.190  15.035   6.319  1.00  0.00     0.036 C 
HETATM   33  C16 UNL     1       4.031  14.407   7.356  1.00  0.00     0.039 C 
HETATM   34  C17 UNL     1       2.618  13.883   5.469  1.00  0.00     0.039 C 
HETATM   35  C18 UNL     1       4.002  15.855   5.281  1.00  0.00     0.153 C 
ENDBRANCH   9  27
TORSDOF 6
ENDMDL
MODEL 4
REMARK VINA RESULT: -6.472660565      5.342     10.036
REMARK  6 active torsions:
REMARK  status: ('A' for Active; 'I' for Inactive)
REMARK    1  A    between atoms: C3_5  and  C4_6 
REMARK    2  A    between atoms: C4_6  and  O1_7 
REMARK    3  A    between atoms: O1_7  and  N2_8 
REMARK    4  A    between atoms: C5_10  and  C6_11 
REMARK    5  A    between atoms: C7_12  and  O2_13 
REMARK    6  A    between atoms: C11_21  and  N4_22 
ROOT
HETATM    1  C6  UNL     1       7.213  19.846   3.792  1.00  0.00     0.046 A 
HETATM    2  C7  UNL     1       8.429  19.294   4.141  1.00  0.00     0.153 A 
HETATM    3  N3  UNL     1       8.209  18.351   5.066  1.00  0.00    -0.336 N 
ATOM      4  H3  UNL     1       8.940  17.786   5.498  1.00  0.00     0.168 HD
HETATM    5  C8  UNL     1       6.914  18.248   5.348  1.00  0.00     0.048 A 
HETATM    6  C9  UNL     1       6.186  17.455   6.201  1.00  0.00     0.052 A 
HETATM    7  C10 UNL     1       4.809  17.573   6.283  1.00  0.00     0.041 A 
HETATM    8 BR1  UNL     1       3.916  16.337   7.430  1.00  0.00    -0.049 Br
HETATM    9  C11 UNL     1       4.095  18.469   5.540  1.00  0.00     0.071 A 
HETATM   10  C19 UNL     1       4.870  19.264   4.679  1.00  0.00     0.075 A 
HETATM   11 CL1  UNL     1       4.036  20.471   3.772  1.00  0.00    -0.081 Cl
HETATM   12  C20 UNL     1       6.241  19.186   4.557  1.00  0.00     0.031 A 
ENDROOT
BRANCH   1  13
HETATM   13  C5  UNL     1       6.944  20.895   2.831  1.00  0.00     0.130 C 
HETATM   14  N2  UNL     1       6.807  20.754   1.602  1.00  0.00    -0.277 N 
ATOM     15  H2  UNL     1       6.629  21.673   1.195  1.00  0.00     0.193 HD
BRANCH  14  16
HETATM   16  O1  UNL     1       6.805  19.880   0.642  1.00  0.00    -0.275 OA
BRANCH  16  17
HETATM   17  C4  UNL     1       7.894  19.028   0.319  1.00  0.00     0.258 C 
BRANCH  17  18
HETATM   18  C3  UNL     1       8.841  19.709  -0.654  1.00  0.00     0.042 A 
HETATM   19  N1  UNL     1       9.488  20.790  -0.357  1.00  0.00    -0.355 N 
HETATM   20  C2  UNL     1      10.300  21.344  -1.242  1.00  0.00     0.047 A 
ATOM     21  H1  UNL     1       9.370  21.216   0.562  1.00  0.00     0.166 HD
HETATM   22  C1  UNL     1      11.138  22.592  -1.096  1.00  0.00     0.076 C 
HETATM   23  S1  UNL     1      10.156  20.290  -2.576  1.00  0.00    -0.087 SA
HETATM   24  C21 UNL     1       9.041  19.180  -1.910  1.00  0.00     0.078 A 
ENDBRANCH  17  18
ENDBRANCH  16  17
ENDBRANCH  14  16
ENDBRANCH   1  13
BRANCH   2  25
HETATM   25  O2  UNL     1       9.676  19.652   3.622  1.00  0.00    -0.345 OA
ATOM     26  H2  UNL     1       9.931  20.517   3.323  1.00  0.00     0.219 HD
ENDBRANCH   2  25
BRANCH   9  27
HETATM   27  N4  UNL     1       2.732  18.708   5.659  1.00  0.00    -0.374 N 
HETATM   28  C12 UNL     1       1.774  18.159   4.707  1.00  0.00     0.142 C 
HETATM   29  C13 UNL     1       0.413  17.954   5.420  1.00  0.00     0.137 C 
HETATM   30  N5  UNL     1      -0.123  19.218   5.804  1.00  0.00    -0.406 N 
HETATM   31  C14 UNL     1      -1.299  19.611   5.090  1.00  0.00     0.144 C 
HETATM   32  C15 UNL     1       0.829  20.234   6.016  1.00  0.00     0.036 C 
HETATM   33  C16 UNL     1       1.137  21.163   4.912  1.00  0.00     0.039 C 
HETATM   34  C17 UNL     1       0.288  21.099   7.172  1.00  0.00     0.039 C 
HETATM   35  C18 UNL     1       2.090  19.580   6.639  1.00  0.00     0.153 C 
ENDBRANCH   9  27
TORSDOF 6
ENDMDL
MODEL 5
REMARK VINA RESULT: -6.469264839      7.331     12.804
REMARK  6 active torsions:
REMARK  status: ('A' for Active; 'I' for Inactive)
REMARK    1  A    between atoms: C3_5  and  C4_6 
REMARK    2  A    between atoms: C4_6  and  O1_7 
REMARK    3  A    between atoms: O1_7  and  N2_8 
REMARK    4  A    between atoms: C5_10  and  C6_11 
REMARK    5  A    between atoms: C7_12  and  O2_13 
REMARK    6  A    between atoms: C11_21  and  N4_22 
ROOT
HETATM    1  C6  UNL     1       1.534  23.465   2.439  1.00  0.00     0.046 A 
HETATM    2  C7  UNL     1       1.937  24.612   1.787  1.00  0.00     0.153 A 
HETATM    3  N3  UNL     1       1.286  25.651   2.326  1.00  0.00    -0.336 N 
ATOM      4  H3  UNL     1       1.398  26.620   2.027  1.00  0.00     0.168 HD
HETATM    5  C8  UNL     1       0.473  25.254   3.299  1.00  0.00     0.048 A 
HETATM    6  C9  UNL     1      -0.390  25.907   4.145  1.00  0.00     0.052 A 
HETATM    7  C10 UNL     1      -1.126  25.213   5.089  1.00  0.00     0.041 A 
HETATM    8 BR1  UNL     1      -2.204  26.258   6.266  1.00  0.00    -0.049 Br
HETATM    9  C11 UNL     1      -1.049  23.858   5.240  1.00  0.00     0.071 A 
HETATM   10  C19 UNL     1      -0.158  23.220   4.360  1.00  0.00     0.075 A 
HETATM   11 CL1  UNL     1      -0.076  21.499   4.446  1.00  0.00    -0.081 Cl
HETATM   12  C20 UNL     1       0.599  23.864   3.405  1.00  0.00     0.031 A 
ENDROOT
BRANCH   1  13
HETATM   13  C5  UNL     1       1.963  22.102   2.209  1.00  0.00     0.130 C 
HETATM   14  N2  UNL     1       3.121  21.725   1.948  1.00  0.00    -0.277 N 
ATOM     15  H2  UNL     1       3.107  20.711   1.839  1.00  0.00     0.193 HD
BRANCH  14  16
HETATM   16  O1  UNL     1       4.338  22.136   1.761  1.00  0.00    -0.275 OA
BRANCH  16  17
HETATM   17  C4  UNL     1       5.414  21.315   1.332  1.00  0.00     0.258 C 
BRANCH  17  18
HETATM   18  C3  UNL     1       6.193  20.782   2.523  1.00  0.00     0.042 A 
HETATM   19  N1  UNL     1       7.439  21.068   2.727  1.00  0.00    -0.355 N 
HETATM   20  C2  UNL     1       8.070  20.576   3.780  1.00  0.00     0.047 A 
ATOM     21  H1  UNL     1       7.935  21.674   2.073  1.00  0.00     0.166 HD
HETATM   22  C1  UNL     1       9.508  20.785   4.195  1.00  0.00     0.076 C 
HETATM   23  S1  UNL     1       6.850  19.656   4.537  1.00  0.00    -0.087 SA
HETATM   24  C21 UNL     1       5.577  19.960   3.439  1.00  0.00     0.078 A 
ENDBRANCH  17  18
ENDBRANCH  16  17
ENDBRANCH  14  16
ENDBRANCH   1  13
BRANCH   2  25
HETATM   25  O2  UNL     1       2.865  24.684   0.744  1.00  0.00    -0.345 OA
ATOM     26  H2  UNL     1       3.173  25.478   0.322  1.00  0.00     0.219 HD
ENDBRANCH   2  25
BRANCH   9  27
HETATM   27  N4  UNL     1      -1.841  23.096   6.091  1.00  0.00    -0.374 N 
HETATM   28  C12 UNL     1      -1.349  22.633   7.383  1.00  0.00     0.142 C 
HETATM   29  C13 UNL     1      -2.546  22.481   8.356  1.00  0.00     0.137 C 
HETATM   30  N5  UNL     1      -3.411  21.448   7.893  1.00  0.00    -0.406 N 
HETATM   31  C14 UNL     1      -3.439  20.277   8.715  1.00  0.00     0.144 C 
HETATM   32  C15 UNL     1      -3.381  21.215   6.504  1.00  0.00     0.036 C 
HETATM   33  C16 UNL     1      -2.505  20.150   5.979  1.00  0.00     0.039 C 
HETATM   34  C17 UNL     1      -4.818  20.835   6.097  1.00  0.00     0.039 C 
HETATM   35  C18 UNL     1      -3.176  22.583   5.800  1.00  0.00     0.153 C 
ENDBRANCH   9  27
TORSDOF 6
ENDMDL
