MODEL 1
REMARK VINA RESULT: -8.035491401      0.000      0.000
REMARK  7 active torsions:
REMARK  status: ('A' for Active; 'I' for Inactive)
REMARK    1  A    between atoms: C2_2  and  C3_3 
REMARK    2  A    between atoms: C8_13  and  C9_14 
REMARK    3  A    between atoms: C10_15  and  C11_16 
REMARK    4  A    between atoms: C12_17  and  C13_18 
REMARK    5  A    between atoms: C13_18  and  N4_19 
REMARK    6  A    between atoms: N4_19  and  C14_21 
REMARK    7  A    between atoms: C27_40  and  O1_41 
ROOT
HETATM    1  C3  UNL     1       2.019  21.986   0.494  1.00  0.00     0.032 A 
HETATM    2  N1  UNL     1       1.550  22.431  -0.701  1.00  0.00    -0.336 N 
ATOM      3  H1  UNL     1       1.905  23.314  -1.069  1.00  0.00     0.168 HD
HETATM    4  C4  UNL     1       0.638  21.753  -1.418  1.00  0.00     0.189 A 
HETATM    5  C5  UNL     1       0.155  22.253  -2.691  1.00  0.00     0.137 C 
HETATM    6  N2  UNL     1      -0.245  22.642  -3.706  1.00  0.00    -0.188 NA
HETATM    7  N3  UNL     1       0.188  20.594  -0.913  1.00  0.00    -0.336 N 
ATOM      8  H3  UNL     1      -0.504  20.072  -1.449  1.00  0.00     0.168 HD
HETATM    9  C6  UNL     1       0.598  20.085   0.259  1.00  0.00     0.028 A 
HETATM   10  C7  UNL     1       0.107  18.813   0.816  1.00  0.00     0.070 C 
HETATM   11  C8  UNL     1       1.545  20.801   0.989  1.00  0.00     0.062 A 
ENDROOT
BRANCH   1  12
HETATM   12  C2  UNL     1       3.024  22.775   1.212  1.00  0.00     0.054 C 
HETATM   13  C1  UNL     1       2.751  24.248   1.084  1.00  0.00     0.011 C 
ENDBRANCH   1  12
BRANCH  11  14
HETATM   14  C9  UNL     1       1.982  20.290   2.231  1.00  0.00    -0.057 C 
HETATM   15  C10 UNL     1       2.348  19.825   3.307  1.00  0.00    -0.058 C 
BRANCH  15  16
HETATM   16  C11 UNL     1       2.748  19.275   4.555  1.00  0.00     0.056 A 
HETATM   17  C12 UNL     1       2.034  19.356   5.756  1.00  0.00     0.047 A 
HETATM   18  N5  UNL     1       2.763  18.710   6.682  1.00  0.00    -0.354 N 
HETATM   19  C21 UNL     1       3.891  18.235   6.119  1.00  0.00     0.075 A 
ATOM     20  H5  UNL     1       2.503  18.598   7.662  1.00  0.00     0.166 HD
HETATM   21  C22 UNL     1       3.910  18.573   4.783  1.00  0.00     0.029 A 
HETATM   22  C29 UNL     1       4.939  17.504   6.693  1.00  0.00     0.089 A 
HETATM   23  C23 UNL     1       4.991  18.173   4.025  1.00  0.00     0.103 A 
HETATM   24  N6  UNL     1       6.005  17.465   4.589  1.00  0.00    -0.363 N 
HETATM   25  C24 UNL     1       5.989  17.136   5.881  1.00  0.00     0.061 A 
ATOM     26  H6  UNL     1       6.796  17.179   4.012  1.00  0.00     0.165 HD
HETATM   27  C25 UNL     1       7.016  16.412   6.482  1.00  0.00     0.036 A 
HETATM   28  C26 UNL     1       6.933  16.107   7.823  1.00  0.00     0.058 A 
HETATM   29  C27 UNL     1       5.869  16.489   8.613  1.00  0.00     0.142 A 
HETATM   30  N7  UNL     1       4.892  17.187   8.009  1.00  0.00    -0.333 N 
ATOM     31  H7  UNL     1       4.088  17.487   8.561  1.00  0.00     0.168 HD
BRANCH  17  32
HETATM   32  C13 UNL     1       0.731  20.063   5.868  1.00  0.00     0.178 C 
BRANCH  32  33
HETATM   33  N4  UNL     1       0.824  21.393   6.368  1.00  0.00    -0.384 N 
ATOM     34  H4  UNL     1       1.300  21.533   7.259  1.00  0.00     0.160 HD
BRANCH  33  35
HETATM   35  C14 UNL     1       0.300  22.535   5.712  1.00  0.00     0.037 A 
HETATM   36  C15 UNL     1       0.820  22.856   4.455  1.00  0.00     0.033 A 
HETATM   37  C16 UNL     1       0.304  23.979   3.849  1.00  0.00     0.048 A 
HETATM   38  C17 UNL     1      -0.673  24.763   4.431  1.00  0.00     0.155 A 
HETATM   39  F1  UNL     1      -1.141  25.844   3.803  1.00  0.00    -0.203 F 
HETATM   40  C18 UNL     1      -1.155  24.405   5.677  1.00  0.00     0.163 A 
HETATM   41  F2  UNL     1      -2.123  25.152   6.287  1.00  0.00    -0.202 F 
HETATM   42  C19 UNL     1      -0.677  23.294   6.326  1.00  0.00     0.006 A 
HETATM   43  C20 UNL     1      -1.189  22.896   7.670  1.00  0.00     0.054 C 
ENDBRANCH  33  35
ENDBRANCH  32  33
ENDBRANCH  17  32
BRANCH  29  44
HETATM   44  O1  UNL     1       5.846  16.150   9.961  1.00  0.00    -0.341 OA
HETATM   45  C28 UNL     1       4.702  16.075  10.750  1.00  0.00     0.211 C 
ENDBRANCH  29  44
ENDBRANCH  15  16
ENDBRANCH  11  14
TORSDOF 7
ENDMDL
MODEL 2
REMARK VINA RESULT: -7.776289944      5.335      6.440
REMARK  7 active torsions:
REMARK  status: ('A' for Active; 'I' for Inactive)
REMARK    1  A    between atoms: C2_2  and  C3_3 
REMARK    2  A    between atoms: C8_13  and  C9_14 
REMARK    3  A    between atoms: C10_15  and  C11_16 
REMARK    4  A    between atoms: C12_17  and  C13_18 
REMARK    5  A    between atoms: C13_18  and  N4_19 
REMARK    6  A    between atoms: N4_19  and  C14_21 
REMARK    7  A    between atoms: C27_40  and  O1_41 
ROOT
HETATM    1  C3  UNL     1       9.778  20.463  -2.319  1.00  0.00     0.032 A 
HETATM    2  N1  UNL     1      10.370  20.508  -3.541  1.00  0.00    -0.336 N 
ATOM      3  H1  UNL     1      10.680  21.410  -3.903  1.00  0.00     0.168 HD
HETATM    4  C4  UNL     1      10.564  19.410  -4.291  1.00  0.00     0.189 A 
HETATM    5  C5  UNL     1      11.198  19.488  -5.594  1.00  0.00     0.137 C 
HETATM    6  N2  UNL     1      11.697  19.535  -6.637  1.00  0.00    -0.188 NA
HETATM    7  N3  UNL     1      10.148  18.236  -3.792  1.00  0.00    -0.336 N 
ATOM      8  H3  UNL     1      10.291  17.397  -4.353  1.00  0.00     0.168 HD
HETATM    9  C6  UNL     1       9.556  18.106  -2.595  1.00  0.00     0.028 A 
HETATM   10  C7  UNL     1       9.099  16.818  -2.044  1.00  0.00     0.070 C 
HETATM   11  C8  UNL     1       9.363  19.254  -1.831  1.00  0.00     0.062 A 
ENDROOT
BRANCH   1  12
HETATM   12  C2  UNL     1       9.613  21.702  -1.554  1.00  0.00     0.054 C 
HETATM   13  C1  UNL     1      10.944  22.317  -1.221  1.00  0.00     0.011 C 
ENDBRANCH   1  12
BRANCH  11  14
HETATM   14  C9  UNL     1       8.730  19.142  -0.572  1.00  0.00    -0.057 C 
HETATM   15  C10 UNL     1       8.186  19.020   0.521  1.00  0.00    -0.058 C 
BRANCH  15  16
HETATM   16  C11 UNL     1       7.553  18.853   1.783  1.00  0.00     0.056 A 
HETATM   17  C12 UNL     1       6.459  19.586   2.256  1.00  0.00     0.047 A 
HETATM   18  N5  UNL     1       6.181  19.114   3.484  1.00  0.00    -0.354 N 
HETATM   19  C21 UNL     1       7.045  18.128   3.796  1.00  0.00     0.075 A 
ATOM     20  H5  UNL     1       5.431  19.450   4.087  1.00  0.00     0.166 HD
HETATM   21  C22 UNL     1       7.920  17.941   2.747  1.00  0.00     0.029 A 
HETATM   22  C29 UNL     1       7.137  17.352   4.958  1.00  0.00     0.089 A 
HETATM   23  C23 UNL     1       8.889  16.968   2.872  1.00  0.00     0.103 A 
HETATM   24  N6  UNL     1       8.972  16.219   4.004  1.00  0.00    -0.363 N 
HETATM   25  C24 UNL     1       8.128  16.398   5.020  1.00  0.00     0.061 A 
ATOM     26  H6  UNL     1       9.696  15.504   4.077  1.00  0.00     0.165 HD
HETATM   27  C25 UNL     1       8.193  15.643   6.189  1.00  0.00     0.036 A 
HETATM   28  C26 UNL     1       7.287  15.882   7.199  1.00  0.00     0.058 A 
HETATM   29  C27 UNL     1       6.304  16.846   7.111  1.00  0.00     0.142 A 
HETATM   30  N7  UNL     1       6.263  17.559   5.973  1.00  0.00    -0.333 N 
ATOM     31  H7  UNL     1       5.550  18.282   5.869  1.00  0.00     0.168 HD
BRANCH  17  32
HETATM   32  C13 UNL     1       5.817  20.670   1.467  1.00  0.00     0.178 C 
BRANCH  32  33
HETATM   33  N4  UNL     1       4.401  20.562   1.361  1.00  0.00    -0.384 N 
ATOM     34  H4  UNL     1       4.015  19.676   1.035  1.00  0.00     0.160 HD
BRANCH  33  35
HETATM   35  C14 UNL     1       3.492  21.602   1.678  1.00  0.00     0.037 A 
HETATM   36  C15 UNL     1       3.434  22.699   0.812  1.00  0.00     0.033 A 
HETATM   37  C16 UNL     1       2.554  23.701   1.154  1.00  0.00     0.048 A 
HETATM   38  C17 UNL     1       1.762  23.649   2.285  1.00  0.00     0.155 A 
HETATM   39  F1  UNL     1       0.924  24.647   2.573  1.00  0.00    -0.203 F 
HETATM   40  C18 UNL     1       1.856  22.544   3.110  1.00  0.00     0.163 A 
HETATM   41  F2  UNL     1       1.089  22.453   4.238  1.00  0.00    -0.202 F 
HETATM   42  C19 UNL     1       2.716  21.515   2.817  1.00  0.00     0.006 A 
HETATM   43  C20 UNL     1       2.827  20.316   3.699  1.00  0.00     0.054 C 
ENDBRANCH  33  35
ENDBRANCH  32  33
ENDBRANCH  17  32
BRANCH  29  44
HETATM   44  O1  UNL     1       5.421  17.038   8.166  1.00  0.00    -0.341 OA
HETATM   45  C28 UNL     1       5.186  16.129   9.193  1.00  0.00     0.211 C 
ENDBRANCH  29  44
ENDBRANCH  15  16
ENDBRANCH  11  14
TORSDOF 7
ENDMDL
MODEL 3
REMARK VINA RESULT: -7.716473259      3.816      7.140
REMARK  7 active torsions:
REMARK  status: ('A' for Active; 'I' for Inactive)
REMARK    1  A    between atoms: C2_2  and  C3_3 
REMARK    2  A    between atoms: C8_13  and  C9_14 
REMARK    3  A    between atoms: C10_15  and  C11_16 
REMARK    4  A    between atoms: C12_17  and  C13_18 
REMARK    5  A    between atoms: C13_18  and  N4_19 
REMARK    6  A    between atoms: N4_19  and  C14_21 
REMARK    7  A    between atoms: C27_40  and  O1_41 
ROOT
HETATM    1  C3  UNL     1      -0.601  23.304   4.985  1.00  0.00     0.032 A 
HETATM    2  N1  UNL     1      -1.651  23.454   5.835  1.00  0.00    -0.336 N 
ATOM      3  H1  UNL     1      -2.199  24.313   5.791  1.00  0.00     0.168 HD
HETATM    4  C4  UNL     1      -1.993  22.513   6.732  1.00  0.00     0.189 A 
HETATM    5  C5  UNL     1      -3.119  22.701   7.628  1.00  0.00     0.137 C 
HETATM    6  N2  UNL     1      -4.010  22.838   8.355  1.00  0.00    -0.188 NA
HETATM    7  N3  UNL     1      -1.256  21.393   6.769  1.00  0.00    -0.336 N 
ATOM      8  H3  UNL     1      -1.509  20.673   7.446  1.00  0.00     0.168 HD
HETATM    9  C6  UNL     1      -0.206  21.167   5.966  1.00  0.00     0.028 A 
HETATM   10  C7  UNL     1       0.605  19.938   6.004  1.00  0.00     0.070 C 
HETATM   11  C8  UNL     1       0.135  22.152   5.042  1.00  0.00     0.062 A 
ENDROOT
BRANCH   1  12
HETATM   12  C2  UNL     1      -0.297  24.369   4.025  1.00  0.00     0.054 C 
HETATM   13  C1  UNL     1      -0.969  25.657   4.410  1.00  0.00     0.011 C 
ENDBRANCH   1  12
BRANCH  11  14
HETATM   14  C9  UNL     1       1.246  21.941   4.194  1.00  0.00    -0.057 C 
HETATM   15  C10 UNL     1       2.223  21.776   3.469  1.00  0.00    -0.058 C 
BRANCH  15  16
HETATM   16  C11 UNL     1       3.360  21.611   2.633  1.00  0.00     0.056 A 
HETATM   17  C12 UNL     1       3.528  22.158   1.356  1.00  0.00     0.047 A 
HETATM   18  N5  UNL     1       4.734  21.756   0.920  1.00  0.00    -0.354 N 
HETATM   19  C21 UNL     1       5.323  20.989   1.859  1.00  0.00     0.075 A 
ATOM     20  H5  UNL     1       5.143  21.994   0.016  1.00  0.00     0.166 HD
HETATM   21  C22 UNL     1       4.484  20.880   2.948  1.00  0.00     0.029 A 
HETATM   22  C29 UNL     1       6.572  20.357   1.845  1.00  0.00     0.089 A 
HETATM   23  C23 UNL     1       4.908  20.130   4.025  1.00  0.00     0.103 A 
HETATM   24  N6  UNL     1       6.123  19.519   4.004  1.00  0.00    -0.363 N 
HETATM   25  C24 UNL     1       6.936  19.623   2.952  1.00  0.00     0.061 A 
ATOM     26  H6  UNL     1       6.418  18.969   4.810  1.00  0.00     0.165 HD
HETATM   27  C25 UNL     1       8.184  19.006   2.908  1.00  0.00     0.036 A 
HETATM   28  C26 UNL     1       8.973  19.157   1.788  1.00  0.00     0.058 A 
HETATM   29  C27 UNL     1       8.583  19.898   0.692  1.00  0.00     0.142 A 
HETATM   30  N7  UNL     1       7.375  20.483   0.761  1.00  0.00    -0.333 N 
ATOM     31  H7  UNL     1       7.051  21.040  -0.030  1.00  0.00     0.168 HD
BRANCH  17  32
HETATM   32  C13 UNL     1       2.490  22.996   0.700  1.00  0.00     0.178 C 
BRANCH  32  33
HETATM   33  N4  UNL     1       1.918  22.418  -0.469  1.00  0.00    -0.384 N 
ATOM     34  H4  UNL     1       2.451  22.474  -1.336  1.00  0.00     0.160 HD
BRANCH  33  35
HETATM   35  C14 UNL     1       0.658  21.771  -0.508  1.00  0.00     0.037 A 
HETATM   36  C15 UNL     1       0.200  21.170   0.668  1.00  0.00     0.033 A 
HETATM   37  C16 UNL     1      -1.018  20.534   0.595  1.00  0.00     0.048 A 
HETATM   38  C17 UNL     1      -1.767  20.479  -0.565  1.00  0.00     0.155 A 
HETATM   39  F1  UNL     1      -2.944  19.850  -0.585  1.00  0.00    -0.203 F 
HETATM   40  C18 UNL     1      -1.271  21.088  -1.703  1.00  0.00     0.163 A 
HETATM   41  F2  UNL     1      -1.981  21.058  -2.871  1.00  0.00    -0.202 F 
HETATM   42  C19 UNL     1      -0.061  21.737  -1.687  1.00  0.00     0.006 A 
HETATM   43  C20 UNL     1       0.484  22.399  -2.908  1.00  0.00     0.054 C 
ENDBRANCH  33  35
ENDBRANCH  32  33
ENDBRANCH  17  32
BRANCH  29  44
HETATM   44  O1  UNL     1       9.425  20.011  -0.407  1.00  0.00    -0.341 OA
HETATM   45  C28 UNL     1       9.102  20.644  -1.604  1.00  0.00     0.211 C 
ENDBRANCH  29  44
ENDBRANCH  15  16
ENDBRANCH  11  14
TORSDOF 7
ENDMDL
MODEL 4
REMARK VINA RESULT: -7.670518770      3.793      7.277
REMARK  7 active torsions:
REMARK  status: ('A' for Active; 'I' for Inactive)
REMARK    1  A    between atoms: C2_2  and  C3_3 
REMARK    2  A    between atoms: C8_13  and  C9_14 
REMARK    3  A    between atoms: C10_15  and  C11_16 
REMARK    4  A    between atoms: C12_17  and  C13_18 
REMARK    5  A    between atoms: C13_18  and  N4_19 
REMARK    6  A    between atoms: N4_19  and  C14_21 
REMARK    7  A    between atoms: C27_40  and  O1_41 
ROOT
HETATM    1  C3  UNL     1      -0.302  21.516   5.938  1.00  0.00     0.032 A 
HETATM    2  N1  UNL     1      -1.380  21.825   6.706  1.00  0.00    -0.336 N 
ATOM      3  H1  UNL     1      -1.699  21.148   7.398  1.00  0.00     0.168 HD
HETATM    4  C4  UNL     1      -2.041  22.990   6.588  1.00  0.00     0.189 A 
HETATM    5  C5  UNL     1      -3.189  23.292   7.422  1.00  0.00     0.137 C 
HETATM    6  N2  UNL     1      -4.112  23.546   8.074  1.00  0.00    -0.188 NA
HETATM    7  N3  UNL     1      -1.600  23.864   5.671  1.00  0.00    -0.336 N 
ATOM      8  H3  UNL     1      -2.095  24.750   5.574  1.00  0.00     0.168 HD
HETATM    9  C6  UNL     1      -0.546  23.636   4.874  1.00  0.00     0.028 A 
HETATM   10  C7  UNL     1      -0.059  24.594   3.866  1.00  0.00     0.070 C 
HETATM   11  C8  UNL     1       0.128  22.424   5.009  1.00  0.00     0.062 A 
ENDROOT
BRANCH   1  12
HETATM   12  C2  UNL     1       0.375  20.231   6.134  1.00  0.00     0.054 C 
HETATM   13  C1  UNL     1       1.180  20.228   7.403  1.00  0.00     0.011 C 
ENDBRANCH   1  12
BRANCH  11  14
HETATM   14  C9  UNL     1       1.235  22.158   4.172  1.00  0.00    -0.057 C 
HETATM   15  C10 UNL     1       2.206  21.949   3.451  1.00  0.00    -0.058 C 
BRANCH  15  16
HETATM   16  C11 UNL     1       3.333  21.733   2.612  1.00  0.00     0.056 A 
HETATM   17  C12 UNL     1       3.503  22.235   1.317  1.00  0.00     0.047 A 
HETATM   18  N5  UNL     1       4.697  21.794   0.886  1.00  0.00    -0.354 N 
HETATM   19  C21 UNL     1       5.276  21.044   1.844  1.00  0.00     0.075 A 
ATOM     20  H5  UNL     1       5.104  21.995  -0.027  1.00  0.00     0.166 HD
HETATM   21  C22 UNL     1       4.443  20.987   2.942  1.00  0.00     0.029 A 
HETATM   22  C29 UNL     1       6.511  20.384   1.842  1.00  0.00     0.089 A 
HETATM   23  C23 UNL     1       4.859  20.262   4.039  1.00  0.00     0.103 A 
HETATM   24  N6  UNL     1       6.060  19.623   4.029  1.00  0.00    -0.363 N 
HETATM   25  C24 UNL     1       6.867  19.677   2.969  1.00  0.00     0.061 A 
ATOM     26  H6  UNL     1       6.349  19.092   4.850  1.00  0.00     0.165 HD
HETATM   27  C25 UNL     1       8.101  19.031   2.935  1.00  0.00     0.036 A 
HETATM   28  C26 UNL     1       8.884  19.130   1.805  1.00  0.00     0.058 A 
HETATM   29  C27 UNL     1       8.502  19.846   0.690  1.00  0.00     0.142 A 
HETATM   30  N7  UNL     1       7.308  20.459   0.749  1.00  0.00    -0.333 N 
ATOM     31  H7  UNL     1       6.990  20.998  -0.057  1.00  0.00     0.168 HD
BRANCH  17  32
HETATM   32  C13 UNL     1       2.479  23.076   0.643  1.00  0.00     0.178 C 
BRANCH  32  33
HETATM   33  N4  UNL     1       1.921  22.496  -0.531  1.00  0.00    -0.384 N 
ATOM     34  H4  UNL     1       2.466  22.548  -1.392  1.00  0.00     0.160 HD
BRANCH  33  35
HETATM   35  C14 UNL     1       0.661  21.850  -0.585  1.00  0.00     0.037 A 
HETATM   36  C15 UNL     1       0.174  21.279   0.594  1.00  0.00     0.033 A 
HETATM   37  C16 UNL     1      -1.045  20.644   0.507  1.00  0.00     0.048 A 
HETATM   38  C17 UNL     1      -1.765  20.562  -0.668  1.00  0.00     0.155 A 
HETATM   39  F1  UNL     1      -2.943  19.935  -0.701  1.00  0.00    -0.203 F 
HETATM   40  C18 UNL     1      -1.241  21.142  -1.809  1.00  0.00     0.163 A 
HETATM   41  F2  UNL     1      -1.923  21.085  -2.992  1.00  0.00    -0.202 F 
HETATM   42  C19 UNL     1      -0.030  21.789  -1.780  1.00  0.00     0.006 A 
HETATM   43  C20 UNL     1       0.546  22.419  -3.003  1.00  0.00     0.054 C 
ENDBRANCH  33  35
ENDBRANCH  32  33
ENDBRANCH  17  32
BRANCH  29  44
HETATM   44  O1  UNL     1       9.338  19.906  -0.418  1.00  0.00    -0.341 OA
HETATM   45  C28 UNL     1       9.086  20.637  -1.576  1.00  0.00     0.211 C 
ENDBRANCH  29  44
ENDBRANCH  15  16
ENDBRANCH  11  14
TORSDOF 7
ENDMDL
MODEL 5
REMARK VINA RESULT: -7.633498307      4.867      9.833
REMARK  7 active torsions:
REMARK  status: ('A' for Active; 'I' for Inactive)
REMARK    1  A    between atoms: C2_2  and  C3_3 
REMARK    2  A    between atoms: C8_13  and  C9_14 
REMARK    3  A    between atoms: C10_15  and  C11_16 
REMARK    4  A    between atoms: C12_17  and  C13_18 
REMARK    5  A    between atoms: C13_18  and  N4_19 
REMARK    6  A    between atoms: N4_19  and  C14_21 
REMARK    7  A    between atoms: C27_40  and  O1_41 
ROOT
HETATM    1  C3  UNL     1       5.861  17.053   4.864  1.00  0.00     0.032 A 
HETATM    2  N1  UNL     1       6.380  16.567   6.022  1.00  0.00    -0.336 N 
ATOM      3  H1  UNL     1       7.210  15.975   5.977  1.00  0.00     0.168 HD
HETATM    4  C4  UNL     1       5.843  16.837   7.224  1.00  0.00     0.189 A 
HETATM    5  C5  UNL     1       6.419  16.303   8.444  1.00  0.00     0.137 C 
HETATM    6  N2  UNL     1       6.862  15.880   9.427  1.00  0.00    -0.188 NA
HETATM    7  N3  UNL     1       4.753  17.618   7.255  1.00  0.00    -0.336 N 
ATOM      8  H3  UNL     1       4.338  17.829   8.163  1.00  0.00     0.168 HD
HETATM    9  C6  UNL     1       4.179  18.137   6.160  1.00  0.00     0.028 A 
HETATM   10  C7  UNL     1       2.983  18.996   6.191  1.00  0.00     0.070 C 
HETATM   11  C8  UNL     1       4.749  17.848   4.922  1.00  0.00     0.062 A 
ENDROOT
BRANCH   1  12
HETATM   12  C2  UNL     1       6.511  16.725   3.592  1.00  0.00     0.054 C 
HETATM   13  C1  UNL     1       7.895  16.181   3.812  1.00  0.00     0.011 C 
ENDBRANCH   1  12
BRANCH  11  14
HETATM   14  C9  UNL     1       4.154  18.374   3.753  1.00  0.00    -0.057 C 
HETATM   15  C10 UNL     1       3.655  18.821   2.724  1.00  0.00    -0.058 C 
BRANCH  15  16
HETATM   16  C11 UNL     1       3.103  19.339   1.522  1.00  0.00     0.056 A 
HETATM   17  C12 UNL     1       3.382  20.591   0.961  1.00  0.00     0.047 A 
HETATM   18  N5  UNL     1       2.651  20.681  -0.163  1.00  0.00    -0.354 N 
HETATM   19  C21 UNL     1       1.933  19.553  -0.329  1.00  0.00     0.075 A 
ATOM     20  H5  UNL     1       2.641  21.481  -0.795  1.00  0.00     0.166 HD
HETATM   21  C22 UNL     1       2.195  18.690   0.714  1.00  0.00     0.029 A 
HETATM   22  C29 UNL     1       1.040  19.201  -1.348  1.00  0.00     0.089 A 
HETATM   23  C23 UNL     1       1.553  17.470   0.728  1.00  0.00     0.103 A 
HETATM   24  N6  UNL     1       0.686  17.136  -0.265  1.00  0.00    -0.363 N 
HETATM   25  C24 UNL     1       0.431  17.968  -1.275  1.00  0.00     0.061 A 
ATOM     26  H6  UNL     1       0.221  16.229  -0.237  1.00  0.00     0.165 HD
HETATM   27  C25 UNL     1      -0.453  17.649  -2.303  1.00  0.00     0.036 A 
HETATM   28  C26 UNL     1      -0.669  18.558  -3.316  1.00  0.00     0.058 A 
HETATM   29  C27 UNL     1      -0.045  19.787  -3.363  1.00  0.00     0.142 A 
HETATM   30  N7  UNL     1       0.802  20.071  -2.360  1.00  0.00    -0.333 N 
ATOM     31  H7  UNL     1       1.283  20.971  -2.360  1.00  0.00     0.168 HD
BRANCH  17  32
HETATM   32  C13 UNL     1       4.318  21.560   1.590  1.00  0.00     0.178 C 
BRANCH  32  33
HETATM   33  N4  UNL     1       5.696  21.266   1.384  1.00  0.00    -0.384 N 
ATOM     34  H4  UNL     1       6.071  21.381   0.443  1.00  0.00     0.160 HD
BRANCH  33  35
HETATM   35  C14 UNL     1       6.582  20.823   2.399  1.00  0.00     0.037 A 
HETATM   36  C15 UNL     1       6.280  21.170   3.719  1.00  0.00     0.033 A 
HETATM   37  C16 UNL     1       7.167  20.741   4.681  1.00  0.00     0.048 A 
HETATM   38  C17 UNL     1       8.299  20.007   4.383  1.00  0.00     0.155 A 
HETATM   39  F1  UNL     1       9.129  19.614   5.352  1.00  0.00    -0.203 F 
HETATM   40  C18 UNL     1       8.554  19.690   3.061  1.00  0.00     0.163 A 
HETATM   41  F2  UNL     1       9.663  18.964   2.724  1.00  0.00    -0.202 F 
HETATM   42  C19 UNL     1       7.704  20.091   2.061  1.00  0.00     0.006 A 
HETATM   43  C20 UNL     1       7.967  19.755   0.632  1.00  0.00     0.054 C 
ENDBRANCH  33  35
ENDBRANCH  32  33
ENDBRANCH  17  32
BRANCH  29  44
HETATM   44  O1  UNL     1      -0.307  20.660  -4.413  1.00  0.00    -0.341 OA
HETATM   45  C28 UNL     1       0.644  21.444  -5.061  1.00  0.00     0.211 C 
ENDBRANCH  29  44
ENDBRANCH  15  16
ENDBRANCH  11  14
TORSDOF 7
ENDMDL
