MODEL 1
REMARK VINA RESULT: -7.275589638      0.000      0.000
REMARK  14 active torsions:
REMARK  status: ('A' for Active; 'I' for Inactive)
REMARK    1  A    between atoms: C2_5  and  O1_6 
REMARK    2  A    between atoms: O1_6  and  C3_7 
REMARK    3  A    between atoms: C4_8  and  O2_9 
REMARK    4  A    between atoms: C5_11  and  N3_12 
REMARK    5  A    between atoms: C7_17  and  N4_18 
REMARK    6  A    between atoms: C8_22  and  O3_23 
REMARK    7  A    between atoms: O3_23  and  C9_24 
REMARK    8  A    between atoms: C10_25  and  N5_26 
REMARK    9  A    between atoms: C12_31  and  N6_32 
REMARK   10  A    between atoms: C13_36  and  O4_37 
REMARK   11  A    between atoms: C14_39  and  S1_40 
REMARK   12  A    between atoms: C15_42  and  O5_43 
REMARK   13  A    between atoms: C16_45  and  C17_46 
REMARK   14  A    between atoms: C17_46  and  N7_47 
REMARK       I    between atoms: N7_47  and  C18_50 
REMARK       I    between atoms: C18_50  and  N8_51 
REMARK       I    between atoms: C18_50  and  N9_55 
ROOT
HETATM    1  C3  UNL     1      28.698   1.175 -50.714  1.00  0.00     0.186 C 
HETATM    2  C4  UNL     1      29.306   0.651 -52.047  1.00  0.00     0.180 C 
HETATM    3  C5  UNL     1      30.282   1.645 -52.578  1.00  0.00     0.216 C 
HETATM    4  C6  UNL     1      31.360   2.031 -51.633  1.00  0.00     0.071 C 
HETATM    5  C7  UNL     1      30.750   2.543 -50.331  1.00  0.00     0.217 C 
HETATM    6  C8  UNL     1      29.876   1.414 -49.828  1.00  0.00     0.184 C 
ENDROOT
BRANCH   1   7
HETATM    7  O1  UNL     1      28.095   2.349 -51.074  1.00  0.00    -0.354 OA
BRANCH   7   8
HETATM    8  C2  UNL     1      26.767   2.498 -50.818  1.00  0.00     0.252 C 
HETATM    9  N2  UNL     1      26.008   2.159 -51.976  1.00  0.00    -0.353 N 
HETATM   10  C1  UNL     1      25.448   1.015 -51.948  1.00  0.00     0.099 C 
ATOM     11  H2  UNL     1      25.920   2.791 -52.773  1.00  0.00     0.163 HD
HETATM   12  N1  UNL     1      24.627   0.389 -52.946  1.00  0.00    -0.087 NA
HETATM   13  C16 UNL     1      25.791   0.387 -50.640  1.00  0.00     0.109 C 
HETATM   14  C15 UNL     1      26.237   1.534 -49.774  1.00  0.00     0.179 C 
BRANCH  13  15
HETATM   15  C17 UNL     1      24.591  -0.325 -50.050  1.00  0.00     0.251 C 
BRANCH  15  16
HETATM   16  N7  UNL     1      24.543  -1.650 -50.608  1.00  0.00    -0.021 N 
HETATM   17  C18 UNL     1      23.206  -2.138 -50.830  1.00  0.00     0.575 C 
HETATM   18  N8  UNL     1      22.475  -1.300 -51.741  1.00  0.00    -0.026 N 
HETATM   19  N9  UNL     1      22.486  -2.249 -49.588  1.00  0.00    -0.026 N 
ATOM     20  H83 UNL     1      22.468  -0.329 -51.428  1.00  0.00     0.278 HD
ATOM     21  H82 UNL     1      22.978  -1.181 -52.620  1.00  0.00     0.278 HD
ATOM     22  H81 UNL     1      21.529  -1.646 -51.898  1.00  0.00     0.278 HD
ATOM     23  H93 UNL     1      22.989  -2.822 -48.910  1.00  0.00     0.278 HD
ATOM     24  H92 UNL     1      22.484  -1.368 -49.073  1.00  0.00     0.278 HD
ATOM     25  H91 UNL     1      21.540  -2.595 -49.745  1.00  0.00     0.278 HD
ATOM     26  H72 UNL     1      25.091  -1.698 -51.467  1.00  0.00     0.281 HD
ATOM     27  H71 UNL     1      25.073  -2.302 -50.030  1.00  0.00     0.281 HD
ENDBRANCH  15  16
ENDBRANCH  13  15
BRANCH  14  28
HETATM   28  O5  UNL     1      25.217   2.139 -49.081  1.00  0.00    -0.390 OA
ATOM     29  H5  UNL     1      25.179   1.775 -48.205  1.00  0.00     0.210 HD
ENDBRANCH  14  28
ENDBRANCH   7   8
ENDBRANCH   1   7
BRANCH   2  30
HETATM   30  O2  UNL     1      29.976  -0.535 -51.775  1.00  0.00    -0.391 OA
ATOM     31  H2  UNL     1      29.643  -1.202 -52.364  1.00  0.00     0.210 HD
ENDBRANCH   2  30
BRANCH   6  32
HETATM   32  O3  UNL     1      29.573   1.439 -48.500  1.00  0.00    -0.372 OA
BRANCH  32  33
HETATM   33  C9  UNL     1      30.311   2.347 -47.779  1.00  0.00     0.169 C 
HETATM   34  C10 UNL     1      29.351   3.252 -47.020  1.00  0.00     0.215 C 
HETATM   35  C11 UNL     1      30.179   4.372 -46.369  1.00  0.00     0.070 C 
HETATM   36  C12 UNL     1      31.076   3.701 -45.358  1.00  0.00     0.215 C 
HETATM   37  C13 UNL     1      32.063   2.825 -46.092  1.00  0.00     0.165 C 
HETATM   38  C14 UNL     1      31.325   1.740 -46.885  1.00  0.00     0.121 C 
BRANCH  34  39
HETATM   39  N5  UNL     1      28.779   2.474 -45.942  1.00  0.00    -0.072 N 
ATOM     40  H53 UNL     1      27.762   2.538 -45.903  1.00  0.00     0.274 HD
ATOM     41  H52 UNL     1      28.844   1.468 -46.100  1.00  0.00     0.274 HD
ATOM     42  H51 UNL     1      29.230   2.771 -45.077  1.00  0.00     0.274 HD
ENDBRANCH  34  39
BRANCH  36  43
HETATM   43  N6  UNL     1      31.803   4.696 -44.625  1.00  0.00    -0.072 N 
ATOM     44  H63 UNL     1      31.239   5.525 -44.439  1.00  0.00     0.274 HD
ATOM     45  H62 UNL     1      31.973   4.415 -43.659  1.00  0.00     0.274 HD
ATOM     46  H61 UNL     1      32.667   4.921 -45.118  1.00  0.00     0.274 HD
ENDBRANCH  36  43
BRANCH  37  47
HETATM   47  O4  UNL     1      32.923   3.566 -46.885  1.00  0.00    -0.392 OA
ATOM     48  H4  UNL     1      33.639   3.938 -46.382  1.00  0.00     0.210 HD
ENDBRANCH  37  47
BRANCH  38  49
HETATM   49  S1  UNL     1      30.653   0.568 -45.687  1.00  0.00    -0.075 SA
HETATM   50  S2  UNL     1      31.579  -1.327 -45.798  1.00  0.00    -0.013 SA
ENDBRANCH  38  49
ENDBRANCH  32  33
ENDBRANCH   6  32
BRANCH   3  51
HETATM   51  N3  UNL     1      29.674   2.824 -53.166  1.00  0.00    -0.072 N 
ATOM     52  H33 UNL     1      28.805   2.578 -53.640  1.00  0.00     0.274 HD
ATOM     53  H32 UNL     1      29.307   3.436 -52.437  1.00  0.00     0.274 HD
ATOM     54  H31 UNL     1      30.287   3.345 -53.793  1.00  0.00     0.274 HD
ENDBRANCH   3  51
BRANCH   5  55
HETATM   55  N4  UNL     1      30.076   3.780 -50.536  1.00  0.00    -0.072 N 
ATOM     56  H43 UNL     1      30.512   4.537 -50.008  1.00  0.00     0.274 HD
ATOM     57  H42 UNL     1      30.229   4.140 -51.477  1.00  0.00     0.274 HD
ATOM     58  H41 UNL     1      29.082   3.695 -50.322  1.00  0.00     0.274 HD
ENDBRANCH   5  55
TORSDOF 14
ENDMDL
MODEL 2
REMARK VINA RESULT: -7.271458042      3.065      4.872
REMARK  14 active torsions:
REMARK  status: ('A' for Active; 'I' for Inactive)
REMARK    1  A    between atoms: C2_5  and  O1_6 
REMARK    2  A    between atoms: O1_6  and  C3_7 
REMARK    3  A    between atoms: C4_8  and  O2_9 
REMARK    4  A    between atoms: C5_11  and  N3_12 
REMARK    5  A    between atoms: C7_17  and  N4_18 
REMARK    6  A    between atoms: C8_22  and  O3_23 
REMARK    7  A    between atoms: O3_23  and  C9_24 
REMARK    8  A    between atoms: C10_25  and  N5_26 
REMARK    9  A    between atoms: C12_31  and  N6_32 
REMARK   10  A    between atoms: C13_36  and  O4_37 
REMARK   11  A    between atoms: C14_39  and  S1_40 
REMARK   12  A    between atoms: C15_42  and  O5_43 
REMARK   13  A    between atoms: C16_45  and  C17_46 
REMARK   14  A    between atoms: C17_46  and  N7_47 
REMARK       I    between atoms: N7_47  and  C18_50 
REMARK       I    between atoms: C18_50  and  N8_51 
REMARK       I    between atoms: C18_50  and  N9_55 
ROOT
HETATM    1  C3  UNL     1      28.533   2.250 -50.006  1.00  0.00     0.186 C 
HETATM    2  C4  UNL     1      27.142   1.804 -50.544  1.00  0.00     0.180 C 
HETATM    3  C5  UNL     1      27.089   2.000 -52.022  1.00  0.00     0.216 C 
HETATM    4  C6  UNL     1      28.177   1.333 -52.782  1.00  0.00     0.071 C 
HETATM    5  C7  UNL     1      29.534   1.781 -52.244  1.00  0.00     0.217 C 
HETATM    6  C8  UNL     1      29.516   1.428 -50.772  1.00  0.00     0.184 C 
ENDROOT
BRANCH   1   7
HETATM    7  O1  UNL     1      28.604   3.570 -50.354  1.00  0.00    -0.354 OA
BRANCH   7   8
HETATM    8  C2  UNL     1      28.171   4.499 -49.459  1.00  0.00     0.252 C 
HETATM    9  N2  UNL     1      26.750   4.601 -49.516  1.00  0.00    -0.353 N 
HETATM   10  C1  UNL     1      26.122   4.021 -48.570  1.00  0.00     0.099 C 
ATOM     11  H2  UNL     1      26.270   5.104 -50.262  1.00  0.00     0.163 HD
HETATM   12  N1  UNL     1      24.707   3.942 -48.345  1.00  0.00    -0.087 NA
HETATM   13  C16 UNL     1      27.142   3.404 -47.675  1.00  0.00     0.109 C 
HETATM   14  C15 UNL     1      28.424   4.115 -48.015  1.00  0.00     0.179 C 
BRANCH  13  15
HETATM   15  C17 UNL     1      26.768   3.590 -46.219  1.00  0.00     0.251 C 
BRANCH  15  16
HETATM   16  N7  UNL     1      27.721   2.868 -45.420  1.00  0.00    -0.021 N 
HETATM   17  C18 UNL     1      27.845   3.365 -44.074  1.00  0.00     0.575 C 
HETATM   18  N8  UNL     1      26.599   3.294 -43.361  1.00  0.00    -0.026 N 
HETATM   19  N9  UNL     1      28.331   4.721 -44.068  1.00  0.00    -0.026 N 
ATOM     20  H83 UNL     1      25.854   3.774 -43.866  1.00  0.00     0.278 HD
ATOM     21  H82 UNL     1      26.217   2.348 -43.374  1.00  0.00     0.278 HD
ATOM     22  H81 UNL     1      26.687   3.646 -42.408  1.00  0.00     0.278 HD
ATOM     23  H93 UNL     1      29.206   4.809 -44.585  1.00  0.00     0.278 HD
ATOM     24  H92 UNL     1      27.750   5.332 -44.643  1.00  0.00     0.278 HD
ATOM     25  H91 UNL     1      28.419   5.072 -43.115  1.00  0.00     0.278 HD
ATOM     26  H72 UNL     1      27.506   1.871 -45.417  1.00  0.00     0.281 HD
ATOM     27  H71 UNL     1      28.631   2.845 -45.880  1.00  0.00     0.281 HD
ENDBRANCH  15  16
ENDBRANCH  13  15
BRANCH  14  28
HETATM   28  O5  UNL     1      28.642   5.255 -47.279  1.00  0.00    -0.390 OA
ATOM     29  H5  UNL     1      28.999   5.926 -47.847  1.00  0.00     0.210 HD
ENDBRANCH  14  28
ENDBRANCH   7   8
ENDBRANCH   1   7
BRANCH   2  30
HETATM   30  O2  UNL     1      26.988   0.451 -50.265  1.00  0.00    -0.391 OA
ATOM     31  H2  UNL     1      26.936  -0.014 -51.092  1.00  0.00     0.210 HD
ENDBRANCH   2  30
BRANCH   6  32
HETATM   32  O3  UNL     1      30.734   1.319 -50.169  1.00  0.00    -0.372 OA
BRANCH  32  33
HETATM   33  C9  UNL     1      30.676   0.822 -48.889  1.00  0.00     0.169 C 
HETATM   34  C10 UNL     1      31.816  -0.170 -48.707  1.00  0.00     0.215 C 
HETATM   35  C11 UNL     1      31.628  -0.852 -47.341  1.00  0.00     0.070 C 
HETATM   36  C12 UNL     1      31.790   0.230 -46.303  1.00  0.00     0.215 C 
HETATM   37  C13 UNL     1      30.648   1.208 -46.440  1.00  0.00     0.165 C 
HETATM   38  C14 UNL     1      30.667   1.858 -47.829  1.00  0.00     0.121 C 
BRANCH  34  39
HETATM   39  N5  UNL     1      33.045   0.588 -48.631  1.00  0.00    -0.072 N 
ATOM     40  H53 UNL     1      33.867   0.036 -48.874  1.00  0.00     0.274 HD
ATOM     41  H52 UNL     1      33.128   1.286 -49.371  1.00  0.00     0.274 HD
ATOM     42  H51 UNL     1      33.100   0.991 -47.696  1.00  0.00     0.274 HD
ENDBRANCH  34  39
BRANCH  36  43
HETATM   43  N6  UNL     1      31.742  -0.349 -44.992  1.00  0.00    -0.072 N 
ATOM     44  H63 UNL     1      30.815  -0.705 -44.763  1.00  0.00     0.274 HD
ATOM     45  H62 UNL     1      32.254  -1.230 -44.942  1.00  0.00     0.274 HD
ATOM     46  H61 UNL     1      32.074   0.329 -44.306  1.00  0.00     0.274 HD
ENDBRANCH  36  43
BRANCH  37  47
HETATM   47  O4  UNL     1      29.427   0.623 -46.148  1.00  0.00    -0.392 OA
ATOM     48  H4  UNL     1      29.286  -0.173 -46.646  1.00  0.00     0.210 HD
ENDBRANCH  37  47
BRANCH  38  49
HETATM   49  S1  UNL     1      32.083   2.978 -47.874  1.00  0.00    -0.075 SA
HETATM   50  S2  UNL     1      32.408   3.951 -46.029  1.00  0.00    -0.013 SA
ENDBRANCH  38  49
ENDBRANCH  32  33
ENDBRANCH   6  32
BRANCH   3  51
HETATM   51  N3  UNL     1      26.952   3.383 -52.436  1.00  0.00    -0.072 N 
ATOM     52  H33 UNL     1      26.024   3.735 -52.200  1.00  0.00     0.274 HD
ATOM     53  H32 UNL     1      27.523   3.990 -51.847  1.00  0.00     0.274 HD
ATOM     54  H31 UNL     1      27.156   3.549 -53.422  1.00  0.00     0.274 HD
ENDBRANCH   3  51
BRANCH   5  55
HETATM   55  N4  UNL     1      29.769   3.154 -52.531  1.00  0.00    -0.072 N 
ATOM     56  H43 UNL     1      30.753   3.399 -52.418  1.00  0.00     0.274 HD
ATOM     57  H42 UNL     1      29.673   3.352 -53.526  1.00  0.00     0.274 HD
ATOM     58  H41 UNL     1      29.165   3.754 -51.968  1.00  0.00     0.274 HD
ENDBRANCH   5  55
TORSDOF 14
ENDMDL
MODEL 3
REMARK VINA RESULT: -7.212600265      3.147      7.102
REMARK  14 active torsions:
REMARK  status: ('A' for Active; 'I' for Inactive)
REMARK    1  A    between atoms: C2_5  and  O1_6 
REMARK    2  A    between atoms: O1_6  and  C3_7 
REMARK    3  A    between atoms: C4_8  and  O2_9 
REMARK    4  A    between atoms: C5_11  and  N3_12 
REMARK    5  A    between atoms: C7_17  and  N4_18 
REMARK    6  A    between atoms: C8_22  and  O3_23 
REMARK    7  A    between atoms: O3_23  and  C9_24 
REMARK    8  A    between atoms: C10_25  and  N5_26 
REMARK    9  A    between atoms: C12_31  and  N6_32 
REMARK   10  A    between atoms: C13_36  and  O4_37 
REMARK   11  A    between atoms: C14_39  and  S1_40 
REMARK   12  A    between atoms: C15_42  and  O5_43 
REMARK   13  A    between atoms: C16_45  and  C17_46 
REMARK   14  A    between atoms: C17_46  and  N7_47 
REMARK       I    between atoms: N7_47  and  C18_50 
REMARK       I    between atoms: C18_50  and  N8_51 
REMARK       I    between atoms: C18_50  and  N9_55 
ROOT
HETATM    1  C3  UNL     1      31.236   2.560 -48.604  1.00  0.00     0.186 C 
HETATM    2  C4  UNL     1      32.753   2.345 -48.876  1.00  0.00     0.180 C 
HETATM    3  C5  UNL     1      32.952   1.072 -49.628  1.00  0.00     0.216 C 
HETATM    4  C6  UNL     1      32.179   0.964 -50.891  1.00  0.00     0.071 C 
HETATM    5  C7  UNL     1      30.694   1.177 -50.610  1.00  0.00     0.217 C 
HETATM    6  C8  UNL     1      30.603   2.539 -49.957  1.00  0.00     0.184 C 
ENDROOT
BRANCH   1   7
HETATM    7  O1  UNL     1      30.881   1.464 -47.868  1.00  0.00    -0.354 OA
BRANCH   7   8
HETATM    8  C2  UNL     1      30.450   1.656 -46.591  1.00  0.00     0.252 C 
HETATM    9  N2  UNL     1      31.338   2.536 -45.907  1.00  0.00    -0.353 N 
HETATM   10  C1  UNL     1      30.923   3.734 -45.771  1.00  0.00     0.099 C 
ATOM     11  H2  UNL     1      32.243   2.229 -45.549  1.00  0.00     0.163 HD
HETATM   12  N1  UNL     1      31.573   4.846 -45.138  1.00  0.00    -0.087 NA
HETATM   13  C16 UNL     1      29.575   3.810 -46.405  1.00  0.00     0.109 C 
HETATM   14  C15 UNL     1      29.121   2.379 -46.500  1.00  0.00     0.179 C 
BRANCH  13  15
HETATM   15  C17 UNL     1      28.629   4.643 -45.566  1.00  0.00     0.251 C 
BRANCH  15  16
HETATM   16  N7  UNL     1      28.938   4.407 -44.182  1.00  0.00    -0.021 N 
HETATM   17  C18 UNL     1      27.817   4.594 -43.296  1.00  0.00     0.575 C 
HETATM   18  N8  UNL     1      26.731   3.708 -43.614  1.00  0.00    -0.026 N 
HETATM   19  N9  UNL     1      27.357   5.958 -43.330  1.00  0.00    -0.026 N 
ATOM     20  H83 UNL     1      26.451   3.799 -44.591  1.00  0.00     0.278 HD
ATOM     21  H82 UNL     1      27.036   2.735 -43.625  1.00  0.00     0.278 HD
ATOM     22  H81 UNL     1      25.937   3.841 -42.987  1.00  0.00     0.278 HD
ATOM     23  H93 UNL     1      28.111   6.615 -43.128  1.00  0.00     0.278 HD
ATOM     24  H92 UNL     1      27.140   6.260 -44.281  1.00  0.00     0.278 HD
ATOM     25  H91 UNL     1      26.564   6.091 -42.703  1.00  0.00     0.278 HD
ATOM     26  H72 UNL     1      29.343   3.479 -44.057  1.00  0.00     0.281 HD
ATOM     27  H71 UNL     1      29.729   4.980 -43.887  1.00  0.00     0.281 HD
ENDBRANCH  15  16
ENDBRANCH  13  15
BRANCH  14  28
HETATM   28  O5  UNL     1      28.443   1.934 -45.391  1.00  0.00    -0.390 OA
ATOM     29  H5  UNL     1      29.062   1.802 -44.682  1.00  0.00     0.210 HD
ENDBRANCH  14  28
ENDBRANCH   7   8
ENDBRANCH   1   7
BRANCH   2  30
HETATM   30  O2  UNL     1      33.204   3.403 -49.656  1.00  0.00    -0.391 OA
ATOM     31  H2  UNL     1      33.506   3.048 -50.484  1.00  0.00     0.210 HD
ENDBRANCH   2  30
BRANCH   6  32
HETATM   32  O3  UNL     1      29.382   3.145 -50.005  1.00  0.00    -0.372 OA
BRANCH  32  33
HETATM   33  C9  UNL     1      28.405   2.378 -50.592  1.00  0.00     0.169 C 
HETATM   34  C10 UNL     1      27.349   2.060 -49.542  1.00  0.00     0.215 C 
HETATM   35  C11 UNL     1      26.364   1.054 -50.161  1.00  0.00     0.070 C 
HETATM   36  C12 UNL     1      25.681   1.775 -51.297  1.00  0.00     0.215 C 
HETATM   37  C13 UNL     1      26.703   2.069 -52.368  1.00  0.00     0.165 C 
HETATM   38  C14 UNL     1      27.812   2.972 -51.813  1.00  0.00     0.121 C 
BRANCH  34  39
HETATM   39  N5  UNL     1      26.605   3.274 -49.291  1.00  0.00    -0.072 N 
ATOM     40  H53 UNL     1      26.626   3.557 -48.311  1.00  0.00     0.274 HD
ATOM     41  H52 UNL     1      27.054   4.104 -49.680  1.00  0.00     0.274 HD
ATOM     42  H51 UNL     1      25.658   3.133 -49.643  1.00  0.00     0.274 HD
ENDBRANCH  34  39
BRANCH  36  43
HETATM   43  N6  UNL     1      24.660   0.937 -51.854  1.00  0.00    -0.072 N 
ATOM     44  H63 UNL     1      24.987   0.428 -52.676  1.00  0.00     0.274 HD
ATOM     45  H62 UNL     1      24.453   0.135 -51.258  1.00  0.00     0.274 HD
ATOM     46  H61 UNL     1      23.830   1.495 -52.052  1.00  0.00     0.274 HD
ENDBRANCH  36  43
BRANCH  37  47
HETATM   47  O4  UNL     1      27.203   0.911 -52.940  1.00  0.00    -0.392 OA
ATOM     48  H4  UNL     1      27.389   1.023 -53.864  1.00  0.00     0.210 HD
ENDBRANCH  37  47
BRANCH  38  49
HETATM   49  S1  UNL     1      27.092   4.611 -51.568  1.00  0.00    -0.075 SA
HETATM   50  S2  UNL     1      27.243   5.828 -53.287  1.00  0.00    -0.013 SA
ENDBRANCH  38  49
ENDBRANCH  32  33
ENDBRANCH   6  32
BRANCH   3  51
HETATM   51  N3  UNL     1      32.790  -0.126 -48.828  1.00  0.00    -0.072 N 
ATOM     52  H33 UNL     1      33.230  -0.007 -47.915  1.00  0.00     0.274 HD
ATOM     53  H32 UNL     1      31.818  -0.234 -48.539  1.00  0.00     0.274 HD
ATOM     54  H31 UNL     1      33.125  -0.980 -49.276  1.00  0.00     0.274 HD
ENDBRANCH   3  51
BRANCH   5  55
HETATM   55  N4  UNL     1      30.161   0.105 -49.842  1.00  0.00    -0.072 N 
ATOM     56  H43 UNL     1      30.638  -0.775 -50.043  1.00  0.00     0.274 HD
ATOM     57  H42 UNL     1      30.405   0.191 -48.856  1.00  0.00     0.274 HD
ATOM     58  H41 UNL     1      29.153   0.026 -49.974  1.00  0.00     0.274 HD
ENDBRANCH   5  55
TORSDOF 14
ENDMDL
MODEL 4
REMARK VINA RESULT: -7.001853873      3.043      6.649
REMARK  14 active torsions:
REMARK  status: ('A' for Active; 'I' for Inactive)
REMARK    1  A    between atoms: C2_5  and  O1_6 
REMARK    2  A    between atoms: O1_6  and  C3_7 
REMARK    3  A    between atoms: C4_8  and  O2_9 
REMARK    4  A    between atoms: C5_11  and  N3_12 
REMARK    5  A    between atoms: C7_17  and  N4_18 
REMARK    6  A    between atoms: C8_22  and  O3_23 
REMARK    7  A    between atoms: O3_23  and  C9_24 
REMARK    8  A    between atoms: C10_25  and  N5_26 
REMARK    9  A    between atoms: C12_31  and  N6_32 
REMARK   10  A    between atoms: C13_36  and  O4_37 
REMARK   11  A    between atoms: C14_39  and  S1_40 
REMARK   12  A    between atoms: C15_42  and  O5_43 
REMARK   13  A    between atoms: C16_45  and  C17_46 
REMARK   14  A    between atoms: C17_46  and  N7_47 
REMARK       I    between atoms: N7_47  and  C18_50 
REMARK       I    between atoms: C18_50  and  N8_51 
REMARK       I    between atoms: C18_50  and  N9_55 
ROOT
HETATM    1  C3  UNL     1      30.935   2.489 -49.821  1.00  0.00     0.186 C 
HETATM    2  C4  UNL     1      32.216   1.776 -50.343  1.00  0.00     0.180 C 
HETATM    3  C5  UNL     1      32.339   0.435 -49.705  1.00  0.00     0.216 C 
HETATM    4  C6  UNL     1      31.154  -0.446 -49.865  1.00  0.00     0.071 C 
HETATM    5  C7  UNL     1      29.907   0.265 -49.348  1.00  0.00     0.217 C 
HETATM    6  C8  UNL     1      29.820   1.549 -50.144  1.00  0.00     0.184 C 
ENDROOT
BRANCH   1   7
HETATM    7  O1  UNL     1      31.142   2.577 -48.472  1.00  0.00    -0.354 OA
BRANCH   7   8
HETATM    8  C2  UNL     1      30.782   3.724 -47.836  1.00  0.00     0.252 C 
HETATM    9  N2  UNL     1      29.567   4.225 -48.389  1.00  0.00    -0.353 N 
HETATM   10  C1  UNL     1      28.521   4.016 -47.691  1.00  0.00     0.099 C 
ATOM     11  H2  UNL     1      29.537   4.717 -49.283  1.00  0.00     0.163 HD
HETATM   12  N1  UNL     1      27.163   4.389 -47.969  1.00  0.00    -0.087 NA
HETATM   13  C16 UNL     1      28.948   3.284 -46.464  1.00  0.00     0.109 C 
HETATM   14  C15 UNL     1      30.430   3.525 -46.375  1.00  0.00     0.179 C 
BRANCH  13  15
HETATM   15  C17 UNL     1      28.221   3.806 -45.242  1.00  0.00     0.251 C 
BRANCH  15  16
HETATM   16  N7  UNL     1      26.871   3.315 -45.285  1.00  0.00    -0.021 N 
HETATM   17  C18 UNL     1      26.398   2.806 -44.022  1.00  0.00     0.575 C 
HETATM   18  N8  UNL     1      26.419   3.814 -42.998  1.00  0.00    -0.026 N 
HETATM   19  N9  UNL     1      27.177   1.670 -43.602  1.00  0.00    -0.026 N 
ATOM     20  H83 UNL     1      27.345   4.231 -42.907  1.00  0.00     0.278 HD
ATOM     21  H82 UNL     1      25.897   4.643 -43.283  1.00  0.00     0.278 HD
ATOM     22  H81 UNL     1      26.084   3.453 -42.105  1.00  0.00     0.278 HD
ATOM     23  H93 UNL     1      27.200   0.943 -44.317  1.00  0.00     0.278 HD
ATOM     24  H92 UNL     1      28.174   1.887 -43.571  1.00  0.00     0.278 HD
ATOM     25  H91 UNL     1      26.842   1.310 -42.708  1.00  0.00     0.278 HD
ATOM     26  H72 UNL     1      26.239   4.030 -45.643  1.00  0.00     0.281 HD
ATOM     27  H71 UNL     1      26.767   2.613 -46.017  1.00  0.00     0.281 HD
ENDBRANCH  15  16
ENDBRANCH  13  15
BRANCH  14  28
HETATM   28  O5  UNL     1      30.770   4.657 -45.674  1.00  0.00    -0.390 OA
ATOM     29  H5  UNL     1      31.198   4.403 -44.865  1.00  0.00     0.210 HD
ENDBRANCH  14  28
ENDBRANCH   7   8
ENDBRANCH   1   7
BRANCH   2  30
HETATM   30  O2  UNL     1      32.084   1.610 -51.716  1.00  0.00    -0.391 OA
ATOM     31  H2  UNL     1      31.162   1.493 -51.910  1.00  0.00     0.210 HD
ENDBRANCH   2  30
BRANCH   6  32
HETATM   32  O3  UNL     1      28.594   2.142 -50.192  1.00  0.00    -0.372 OA
BRANCH  32  33
HETATM   33  C9  UNL     1      27.607   1.335 -50.704  1.00  0.00     0.169 C 
HETATM   34  C10 UNL     1      26.402   1.402 -49.776  1.00  0.00     0.215 C 
HETATM   35  C11 UNL     1      25.381   0.357 -50.259  1.00  0.00     0.070 C 
HETATM   36  C12 UNL     1      24.934   0.805 -51.628  1.00  0.00     0.215 C 
HETATM   37  C13 UNL     1      26.105   0.712 -52.575  1.00  0.00     0.165 C 
HETATM   38  C14 UNL     1      27.242   1.630 -52.110  1.00  0.00     0.121 C 
BRANCH  34  39
HETATM   39  N5  UNL     1      25.788   2.699 -49.953  1.00  0.00    -0.072 N 
ATOM     40  H53 UNL     1      24.818   2.640 -50.263  1.00  0.00     0.274 HD
ATOM     41  H52 UNL     1      25.617   3.181 -49.070  1.00  0.00     0.274 HD
ATOM     42  H51 UNL     1      26.377   3.234 -50.590  1.00  0.00     0.274 HD
ENDBRANCH  34  39
BRANCH  36  43
HETATM   43  N6  UNL     1      23.892  -0.059 -52.100  1.00  0.00    -0.072 N 
ATOM     44  H63 UNL     1      23.436  -0.563 -51.340  1.00  0.00     0.274 HD
ATOM     45  H62 UNL     1      23.083   0.462 -52.438  1.00  0.00     0.274 HD
ATOM     46  H61 UNL     1      24.267  -0.691 -52.809  1.00  0.00     0.274 HD
ENDBRANCH  36  43
BRANCH  37  47
HETATM   47  O4  UNL     1      26.523  -0.596 -52.756  1.00  0.00    -0.392 OA
ATOM     48  H4  UNL     1      25.893  -1.105 -53.251  1.00  0.00     0.210 HD
ENDBRANCH  37  47
BRANCH  38  49
HETATM   49  S1  UNL     1      26.705   3.331 -52.396  1.00  0.00    -0.075 SA
HETATM   50  S2  UNL     1      28.315   4.628 -52.824  1.00  0.00    -0.013 SA
ENDBRANCH  38  49
ENDBRANCH  32  33
ENDBRANCH   6  32
BRANCH   3  51
HETATM   51  N3  UNL     1      32.764   0.469 -48.319  1.00  0.00    -0.072 N 
ATOM     52  H33 UNL     1      33.752   0.223 -48.243  1.00  0.00     0.274 HD
ATOM     53  H32 UNL     1      32.799   1.431 -47.980  1.00  0.00     0.274 HD
ATOM     54  H31 UNL     1      32.204  -0.109 -47.692  1.00  0.00     0.274 HD
ENDBRANCH   3  51
BRANCH   5  55
HETATM   55  N4  UNL     1      29.963   0.434 -47.937  1.00  0.00    -0.072 N 
ATOM     56  H43 UNL     1      29.033   0.421 -47.519  1.00  0.00     0.274 HD
ATOM     57  H42 UNL     1      30.352  -0.387 -47.475  1.00  0.00     0.274 HD
ATOM     58  H41 UNL     1      30.475   1.282 -47.690  1.00  0.00     0.274 HD
ENDBRANCH   5  55
TORSDOF 14
ENDMDL
MODEL 5
REMARK VINA RESULT: -6.932505715      3.657      6.920
REMARK  14 active torsions:
REMARK  status: ('A' for Active; 'I' for Inactive)
REMARK    1  A    between atoms: C2_5  and  O1_6 
REMARK    2  A    between atoms: O1_6  and  C3_7 
REMARK    3  A    between atoms: C4_8  and  O2_9 
REMARK    4  A    between atoms: C5_11  and  N3_12 
REMARK    5  A    between atoms: C7_17  and  N4_18 
REMARK    6  A    between atoms: C8_22  and  O3_23 
REMARK    7  A    between atoms: O3_23  and  C9_24 
REMARK    8  A    between atoms: C10_25  and  N5_26 
REMARK    9  A    between atoms: C12_31  and  N6_32 
REMARK   10  A    between atoms: C13_36  and  O4_37 
REMARK   11  A    between atoms: C14_39  and  S1_40 
REMARK   12  A    between atoms: C15_42  and  O5_43 
REMARK   13  A    between atoms: C16_45  and  C17_46 
REMARK   14  A    between atoms: C17_46  and  N7_47 
REMARK       I    between atoms: N7_47  and  C18_50 
REMARK       I    between atoms: C18_50  and  N8_51 
REMARK       I    between atoms: C18_50  and  N9_55 
ROOT
HETATM    1  C3  UNL     1      31.063   2.503 -48.730  1.00  0.00     0.186 C 
HETATM    2  C4  UNL     1      32.564   2.568 -49.137  1.00  0.00     0.180 C 
HETATM    3  C5  UNL     1      32.952   1.304 -49.826  1.00  0.00     0.216 C 
HETATM    4  C6  UNL     1      32.112   0.945 -50.997  1.00  0.00     0.071 C 
HETATM    5  C7  UNL     1      30.644   0.884 -50.583  1.00  0.00     0.217 C 
HETATM    6  C8  UNL     1      30.334   2.250 -50.009  1.00  0.00     0.184 C 
ENDROOT
BRANCH   1   7
HETATM    7  O1  UNL     1      31.002   1.421 -47.896  1.00  0.00    -0.354 OA
BRANCH   7   8
HETATM    8  C2  UNL     1      30.555   1.610 -46.625  1.00  0.00     0.252 C 
HETATM    9  N2  UNL     1      31.420   2.508 -45.934  1.00  0.00    -0.353 N 
HETATM   10  C1  UNL     1      30.983   3.699 -45.808  1.00  0.00     0.099 C 
ATOM     11  H2  UNL     1      32.326   2.217 -45.567  1.00  0.00     0.163 HD
HETATM   12  N1  UNL     1      31.608   4.825 -45.172  1.00  0.00    -0.087 NA
HETATM   13  C16 UNL     1      29.641   3.749 -46.456  1.00  0.00     0.109 C 
HETATM   14  C15 UNL     1      29.212   2.310 -46.550  1.00  0.00     0.179 C 
BRANCH  13  15
HETATM   15  C17 UNL     1      28.672   4.569 -45.630  1.00  0.00     0.251 C 
BRANCH  15  16
HETATM   16  N7  UNL     1      28.966   4.339 -44.242  1.00  0.00    -0.021 N 
HETATM   17  C18 UNL     1      27.837   4.534 -43.369  1.00  0.00     0.575 C 
HETATM   18  N8  UNL     1      26.751   3.651 -43.693  1.00  0.00    -0.026 N 
HETATM   19  N9  UNL     1      27.382   5.900 -43.414  1.00  0.00    -0.026 N 
ATOM     20  H83 UNL     1      26.482   3.738 -44.673  1.00  0.00     0.278 HD
ATOM     21  H82 UNL     1      27.053   2.676 -43.697  1.00  0.00     0.278 HD
ATOM     22  H81 UNL     1      25.952   3.789 -43.075  1.00  0.00     0.278 HD
ATOM     23  H93 UNL     1      28.136   6.555 -43.207  1.00  0.00     0.278 HD
ATOM     24  H92 UNL     1      27.176   6.197 -44.368  1.00  0.00     0.278 HD
ATOM     25  H91 UNL     1      26.583   6.038 -42.796  1.00  0.00     0.278 HD
ATOM     26  H72 UNL     1      29.367   3.410 -44.108  1.00  0.00     0.281 HD
ATOM     27  H71 UNL     1      29.756   4.910 -43.943  1.00  0.00     0.281 HD
ENDBRANCH  15  16
ENDBRANCH  13  15
BRANCH  14  28
HETATM   28  O5  UNL     1      28.531   1.858 -45.446  1.00  0.00    -0.390 OA
ATOM     29  H5  UNL     1      28.241   2.603 -44.935  1.00  0.00     0.210 HD
ENDBRANCH  14  28
ENDBRANCH   7   8
ENDBRANCH   1   7
BRANCH   2  30
HETATM   30  O2  UNL     1      32.722   3.628 -50.022  1.00  0.00    -0.391 OA
ATOM     31  H2  UNL     1      32.754   3.273 -50.902  1.00  0.00     0.210 HD
ENDBRANCH   2  30
BRANCH   6  32
HETATM   32  O3  UNL     1      29.017   2.598 -49.972  1.00  0.00    -0.372 OA
BRANCH  32  33
HETATM   33  C9  UNL     1      28.702   3.662 -50.783  1.00  0.00     0.169 C 
HETATM   34  C10 UNL     1      28.481   3.139 -52.196  1.00  0.00     0.215 C 
HETATM   35  C11 UNL     1      28.313   4.355 -53.123  1.00  0.00     0.070 C 
HETATM   36  C12 UNL     1      27.047   5.048 -52.685  1.00  0.00     0.215 C 
HETATM   37  C13 UNL     1      27.255   5.608 -51.299  1.00  0.00     0.165 C 
HETATM   38  C14 UNL     1      27.559   4.477 -50.308  1.00  0.00     0.121 C 
BRANCH  34  39
HETATM   39  N5  UNL     1      27.221   2.429 -52.205  1.00  0.00    -0.072 N 
ATOM     40  H53 UNL     1      27.321   1.440 -51.976  1.00  0.00     0.274 HD
ATOM     41  H52 UNL     1      26.614   2.686 -51.427  1.00  0.00     0.274 HD
ATOM     42  H51 UNL     1      26.788   2.584 -53.115  1.00  0.00     0.274 HD
ENDBRANCH  34  39
BRANCH  36  43
HETATM   43  N6  UNL     1      26.758   6.132 -53.579  1.00  0.00    -0.072 N 
ATOM     44  H63 UNL     1      26.870   7.041 -53.130  1.00  0.00     0.274 HD
ATOM     45  H62 UNL     1      27.472   6.236 -54.301  1.00  0.00     0.274 HD
ATOM     46  H61 UNL     1      25.826   6.010 -53.973  1.00  0.00     0.274 HD
ENDBRANCH  36  43
BRANCH  37  47
HETATM   47  O4  UNL     1      28.221   6.600 -51.280  1.00  0.00    -0.392 OA
ATOM     48  H4  UNL     1      27.921   7.380 -50.827  1.00  0.00     0.210 HD
ENDBRANCH  37  47
BRANCH  38  49
HETATM   49  S1  UNL     1      26.029   3.547 -50.074  1.00  0.00    -0.075 SA
HETATM   50  S2  UNL     1      25.580   3.223 -48.037  1.00  0.00    -0.013 SA
ENDBRANCH  38  49
ENDBRANCH  32  33
ENDBRANCH   6  32
BRANCH   3  51
HETATM   51  N3  UNL     1      33.105   0.164 -48.942  1.00  0.00    -0.072 N 
ATOM     52  H33 UNL     1      33.138   0.470 -47.969  1.00  0.00     0.274 HD
ATOM     53  H32 UNL     1      32.249  -0.389 -48.921  1.00  0.00     0.274 HD
ATOM     54  H31 UNL     1      33.908  -0.429 -49.155  1.00  0.00     0.274 HD
ENDBRANCH   3  51
BRANCH   5  55
HETATM   55  N4  UNL     1      30.408  -0.207 -49.701  1.00  0.00    -0.072 N 
ATOM     56  H43 UNL     1      30.208  -1.067 -50.213  1.00  0.00     0.274 HD
ATOM     57  H42 UNL     1      31.263  -0.502 -49.231  1.00  0.00     0.274 HD
ATOM     58  H41 UNL     1      29.668   0.015 -49.034  1.00  0.00     0.274 HD
ENDBRANCH   5  55
TORSDOF 14
ENDMDL
