MODEL 1
REMARK VINA RESULT: -8.526944075      0.000      0.000
REMARK  19 active torsions:
REMARK  status: ('A' for Active; 'I' for Inactive)
REMARK    1  A    between atoms: C2_2  and  O2_4 
REMARK    2  A    between atoms: O2_4  and  C3_5 
REMARK    3  A    between atoms: C3_5  and  O3_6 
REMARK    4  A    between atoms: C3_5  and  C4_8 
REMARK    5  A    between atoms: C4_8  and  N1_9 
REMARK    6  A    between atoms: C4_8  and  C5_13 
REMARK    7  A    between atoms: C5_13  and  N2_14 
REMARK    8  A    between atoms: C5_13  and  O4_18 
REMARK    9  A    between atoms: O4_18  and  C6_19 
REMARK   10  A    between atoms: C10_24  and  O6_25 
REMARK   11  A    between atoms: C11_27  and  O7_28 
REMARK   12  A    between atoms: C11_27  and  O8_30 
REMARK   13  A    between atoms: N3_34  and  O9_36 
REMARK   14  A    between atoms: C14_39  and  C15_40 
REMARK   15  A    between atoms: C15_40  and  O11_41 
REMARK   16  A    between atoms: C15_40  and  C16_43 
REMARK   17  A    between atoms: C16_43  and  O12_45 
REMARK   18  A    between atoms: C18_47  and  O13_48 
REMARK   19  A    between atoms: C19_50  and  O14_51 
ROOT
HETATM    1  C6  UNL     1      30.027   2.682 -48.827  1.00  0.00     0.240 C 
HETATM    2  O5  UNL     1      29.981   2.701 -50.205  1.00  0.00    -0.311 OA
HETATM    3  C7  UNL     1      29.779   1.699 -50.996  1.00  0.00     0.167 C 
HETATM    4  C8  UNL     1      30.301   2.223 -52.378  1.00  0.00     0.079 C 
HETATM    5  C9  UNL     1      30.520   0.390 -50.860  1.00  0.00     0.105 C 
HETATM    6  C10 UNL     1      31.982   0.468 -50.646  1.00  0.00     0.185 C 
HETATM    7  C11 UNL     1      32.283  -0.163 -49.304  1.00  0.00     0.191 C 
HETATM    8  C12 UNL     1      31.857   0.672 -48.123  1.00  0.00     0.131 C 
HETATM    9  C13 UNL     1      31.316   1.988 -48.517  1.00  0.00     0.079 C 
HETATM   10  N3  UNL     1      32.286   2.814 -48.668  1.00  0.00    -0.272 N 
ATOM     11  H3  UNL     1      32.025   3.755 -48.959  1.00  0.00     0.193 HD
HETATM   12  O10 UNL     1      28.498   1.297 -51.311  1.00  0.00    -0.345 OA
HETATM   13  C14 UNL     1      27.616   1.177 -50.276  1.00  0.00     0.187 C 
HETATM   14  C18 UNL     1      27.685   2.263 -49.276  1.00  0.00     0.184 C 
HETATM   15  C19 UNL     1      28.821   2.081 -48.266  1.00  0.00     0.218 C 
ENDROOT
BRANCH   1  16
HETATM   16  O4  UNL     1      30.171   3.991 -48.474  1.00  0.00    -0.312 OA
BRANCH  16  17
HETATM   17  C5  UNL     1      29.548   4.619 -47.503  1.00  0.00     0.357 C 
BRANCH  17  18
HETATM   18  C4  UNL     1      29.525   3.794 -46.241  1.00  0.00     0.294 C 
BRANCH  18  19
HETATM   19  C3  UNL     1      28.418   4.281 -45.316  1.00  0.00     0.301 C 
BRANCH  19  20
HETATM   20  O2  UNL     1      27.450   3.263 -45.123  1.00  0.00    -0.288 OA
BRANCH  20  21
HETATM   21  C2  UNL     1      26.801   3.048 -43.920  1.00  0.00     0.257 C 
HETATM   22  C1  UNL     1      26.658   1.680 -43.377  1.00  0.00     0.126 C 
HETATM   23  O1  UNL     1      26.344   4.047 -43.314  1.00  0.00    -0.266 OA
ENDBRANCH  20  21
ENDBRANCH  19  20
BRANCH  19  24
HETATM   24  O3  UNL     1      28.949   4.703 -44.100  1.00  0.00    -0.368 OA
ATOM     25  H3  UNL     1      29.843   5.006 -44.204  1.00  0.00     0.212 HD
ENDBRANCH  19  24
ENDBRANCH  18  19
BRANCH  18  26
HETATM   26  N1  UNL     1      30.760   3.657 -45.559  1.00  0.00    -0.066 N 
ATOM     27  H13 UNL     1      31.413   4.395 -45.822  1.00  0.00     0.275 HD
ATOM     28  H12 UNL     1      30.663   3.876 -44.567  1.00  0.00     0.275 HD
ATOM     29  H11 UNL     1      31.170   2.733 -45.696  1.00  0.00     0.275 HD
ENDBRANCH  18  26
ENDBRANCH  17  18
BRANCH  17  30
HETATM   30  N2  UNL     1      28.096   4.850 -47.727  1.00  0.00    -0.051 N 
ATOM     31  H23 UNL     1      27.797   4.840 -48.702  1.00  0.00     0.277 HD
ATOM     32  H22 UNL     1      27.483   4.088 -47.437  1.00  0.00     0.277 HD
ATOM     33  H21 UNL     1      27.956   5.733 -47.237  1.00  0.00     0.277 HD
ENDBRANCH  17  30
ENDBRANCH  16  17
ENDBRANCH   1  16
BRANCH  15  34
HETATM   34  O14 UNL     1      28.916   0.756 -47.850  1.00  0.00    -0.387 OA
ATOM     35  H14 UNL     1      28.254   0.450 -47.240  1.00  0.00     0.210 HD
ENDBRANCH  15  34
BRANCH  10  36
HETATM   36  O9  UNL     1      33.604   2.603 -48.492  1.00  0.00    -0.290 OA
ATOM     37  H9  UNL     1      34.192   3.010 -47.866  1.00  0.00     0.244 HD
ENDBRANCH  10  36
BRANCH  14  38
HETATM   38  O13 UNL     1      26.462   2.423 -48.650  1.00  0.00    -0.390 OA
ATOM     39  H13 UNL     1      26.379   3.302 -48.301  1.00  0.00     0.210 HD
ENDBRANCH  14  38
BRANCH   7  40
HETATM   40  O7  UNL     1      31.514  -1.336 -49.248  1.00  0.00    -0.363 OA
ATOM     41  H7  UNL     1      32.036  -1.968 -48.767  1.00  0.00     0.213 HD
ENDBRANCH   7  40
BRANCH   7  42
HETATM   42  O8  UNL     1      33.608  -0.580 -49.221  1.00  0.00    -0.363 OA
ATOM     43  H8  UNL     1      33.670  -1.510 -49.041  1.00  0.00     0.213 HD
ENDBRANCH   7  42
BRANCH  13  44
HETATM   44  C15 UNL     1      26.227   1.039 -50.820  1.00  0.00     0.178 C 
BRANCH  44  45
HETATM   45  O11 UNL     1      25.461   0.099 -50.090  1.00  0.00    -0.390 OA
ATOM     46  H11 UNL     1      25.271  -0.679 -50.600  1.00  0.00     0.210 HD
ENDBRANCH  44  45
BRANCH  44  47
HETATM   47  C16 UNL     1      26.149   0.695 -52.283  1.00  0.00     0.145 C 
HETATM   48  C17 UNL     1      25.448  -0.606 -52.568  1.00  0.00     0.042 C 
BRANCH  47  49
HETATM   49  O12 UNL     1      25.650   1.674 -53.091  1.00  0.00    -0.393 OA
ATOM     50  H12 UNL     1      25.057   1.379 -53.772  1.00  0.00     0.210 HD
ENDBRANCH  47  49
ENDBRANCH  44  47
ENDBRANCH  13  44
BRANCH   6  51
HETATM   51  O6  UNL     1      32.670  -0.379 -51.568  1.00  0.00    -0.390 OA
ATOM     52  H6  UNL     1      32.945  -1.183 -51.143  1.00  0.00     0.210 HD
ENDBRANCH   6  51
TORSDOF 19
ENDMDL
MODEL 2
REMARK VINA RESULT: -8.158113496      2.006      6.041
REMARK  19 active torsions:
REMARK  status: ('A' for Active; 'I' for Inactive)
REMARK    1  A    between atoms: C2_2  and  O2_4 
REMARK    2  A    between atoms: O2_4  and  C3_5 
REMARK    3  A    between atoms: C3_5  and  O3_6 
REMARK    4  A    between atoms: C3_5  and  C4_8 
REMARK    5  A    between atoms: C4_8  and  N1_9 
REMARK    6  A    between atoms: C4_8  and  C5_13 
REMARK    7  A    between atoms: C5_13  and  N2_14 
REMARK    8  A    between atoms: C5_13  and  O4_18 
REMARK    9  A    between atoms: O4_18  and  C6_19 
REMARK   10  A    between atoms: C10_24  and  O6_25 
REMARK   11  A    between atoms: C11_27  and  O7_28 
REMARK   12  A    between atoms: C11_27  and  O8_30 
REMARK   13  A    between atoms: N3_34  and  O9_36 
REMARK   14  A    between atoms: C14_39  and  C15_40 
REMARK   15  A    between atoms: C15_40  and  O11_41 
REMARK   16  A    between atoms: C15_40  and  C16_43 
REMARK   17  A    between atoms: C16_43  and  O12_45 
REMARK   18  A    between atoms: C18_47  and  O13_48 
REMARK   19  A    between atoms: C19_50  and  O14_51 
ROOT
HETATM    1  C6  UNL     1      29.349   2.797 -49.772  1.00  0.00     0.240 C 
HETATM    2  O5  UNL     1      30.664   3.100 -49.485  1.00  0.00    -0.311 OA
HETATM    3  C7  UNL     1      31.369   2.666 -48.493  1.00  0.00     0.167 C 
HETATM    4  C8  UNL     1      32.558   3.685 -48.427  1.00  0.00     0.079 C 
HETATM    5  C9  UNL     1      30.868   2.680 -47.068  1.00  0.00     0.105 C 
HETATM    6  C10 UNL     1      30.208   3.920 -46.604  1.00  0.00     0.185 C 
HETATM    7  C11 UNL     1      28.782   3.570 -46.237  1.00  0.00     0.191 C 
HETATM    8  C12 UNL     1      27.893   3.294 -47.423  1.00  0.00     0.131 C 
HETATM    9  C13 UNL     1      28.573   3.518 -48.714  1.00  0.00     0.079 C 
HETATM   10  N3  UNL     1      28.491   4.760 -49.024  1.00  0.00    -0.272 N 
ATOM     11  H3  UNL     1      28.947   5.030 -49.895  1.00  0.00     0.193 HD
HETATM   12  O10 UNL     1      32.033   1.461 -48.574  1.00  0.00    -0.345 OA
HETATM   13  C14 UNL     1      31.328   0.398 -49.062  1.00  0.00     0.187 C 
HETATM   14  C18 UNL     1      30.477   0.705 -50.230  1.00  0.00     0.184 C 
HETATM   15  C19 UNL     1      29.144   1.355 -49.851  1.00  0.00     0.218 C 
ENDROOT
BRANCH   1  16
HETATM   16  O4  UNL     1      29.106   3.426 -50.957  1.00  0.00    -0.312 OA
BRANCH  16  17
HETATM   17  C5  UNL     1      27.934   3.747 -51.454  1.00  0.00     0.357 C 
BRANCH  17  18
HETATM   18  C4  UNL     1      27.406   2.665 -52.362  1.00  0.00     0.294 C 
BRANCH  18  19
HETATM   19  C3  UNL     1      26.147   2.049 -51.767  1.00  0.00     0.301 C 
BRANCH  19  20
HETATM   20  O2  UNL     1      26.277   0.639 -51.684  1.00  0.00    -0.288 OA
BRANCH  20  21
HETATM   21  C2  UNL     1      25.230  -0.203 -51.358  1.00  0.00     0.257 C 
HETATM   22  C1  UNL     1      24.827  -1.292 -52.275  1.00  0.00     0.126 C 
HETATM   23  O1  UNL     1      24.640  -0.010 -50.267  1.00  0.00    -0.266 OA
ENDBRANCH  20  21
ENDBRANCH  19  20
BRANCH  19  24
HETATM   24  O3  UNL     1      25.877   2.600 -50.518  1.00  0.00    -0.368 OA
ATOM     25  H3  UNL     1      25.246   3.307 -50.585  1.00  0.00     0.212 HD
ENDBRANCH  19  24
ENDBRANCH  18  19
BRANCH  18  26
HETATM   26  N1  UNL     1      28.338   1.675 -52.764  1.00  0.00    -0.066 N 
ATOM     27  H13 UNL     1      29.145   1.649 -52.141  1.00  0.00     0.275 HD
ATOM     28  H12 UNL     1      27.978   0.735 -52.596  1.00  0.00     0.275 HD
ATOM     29  H11 UNL     1      28.624   1.794 -53.736  1.00  0.00     0.275 HD
ENDBRANCH  18  26
ENDBRANCH  17  18
BRANCH  17  30
HETATM   30  N2  UNL     1      27.933   4.920 -52.368  1.00  0.00    -0.051 N 
ATOM     31  H23 UNL     1      28.854   5.262 -52.641  1.00  0.00     0.277 HD
ATOM     32  H22 UNL     1      27.621   4.731 -53.321  1.00  0.00     0.277 HD
ATOM     33  H21 UNL     1      27.360   5.581 -51.844  1.00  0.00     0.277 HD
ENDBRANCH  17  30
ENDBRANCH  16  17
ENDBRANCH   1  16
BRANCH  15  34
HETATM   34  O14 UNL     1      28.584   0.739 -48.735  1.00  0.00    -0.387 OA
ATOM     35  H14 UNL     1      27.719   0.360 -48.844  1.00  0.00     0.210 HD
ENDBRANCH  15  34
BRANCH  10  36
HETATM   36  O9  UNL     1      27.882   5.755 -48.352  1.00  0.00    -0.290 OA
ATOM     37  H9  UNL     1      27.857   5.908 -47.414  1.00  0.00     0.244 HD
ENDBRANCH  10  36
BRANCH  14  38
HETATM   38  O13 UNL     1      30.295  -0.426 -51.006  1.00  0.00    -0.390 OA
ATOM     39  H13 UNL     1      30.529  -0.250 -51.910  1.00  0.00     0.210 HD
ENDBRANCH  14  38
BRANCH   7  40
HETATM   40  O7  UNL     1      28.853   2.367 -45.518  1.00  0.00    -0.363 OA
ATOM     41  H7  UNL     1      28.139   2.395 -44.891  1.00  0.00     0.213 HD
ENDBRANCH   7  40
BRANCH   7  42
HETATM   42  O8  UNL     1      28.237   4.501 -45.358  1.00  0.00    -0.363 OA
ATOM     43  H8  UNL     1      28.327   4.221 -44.454  1.00  0.00     0.213 HD
ENDBRANCH   7  42
BRANCH  13  44
HETATM   44  C15 UNL     1      32.270  -0.726 -49.367  1.00  0.00     0.178 C 
BRANCH  44  45
HETATM   45  O11 UNL     1      32.858  -1.260 -48.195  1.00  0.00    -0.390 OA
ATOM     46  H11 UNL     1      32.921  -2.207 -48.228  1.00  0.00     0.210 HD
ENDBRANCH  44  45
BRANCH  44  47
HETATM   47  C16 UNL     1      33.361  -0.392 -50.348  1.00  0.00     0.145 C 
HETATM   48  C17 UNL     1      34.652  -1.124 -50.097  1.00  0.00     0.042 C 
BRANCH  47  49
HETATM   49  O12 UNL     1      33.020  -0.499 -51.664  1.00  0.00    -0.393 OA
ATOM     50  H12 UNL     1      32.204  -0.081 -51.911  1.00  0.00     0.210 HD
ENDBRANCH  47  49
ENDBRANCH  44  47
ENDBRANCH  13  44
BRANCH   6  51
HETATM   51  O6  UNL     1      30.768   4.353 -45.363  1.00  0.00    -0.390 OA
ATOM     52  H6  UNL     1      30.270   5.080 -45.007  1.00  0.00     0.210 HD
ENDBRANCH   6  51
TORSDOF 19
ENDMDL
MODEL 3
REMARK VINA RESULT: -7.974376784      2.871      6.512
REMARK  19 active torsions:
REMARK  status: ('A' for Active; 'I' for Inactive)
REMARK    1  A    between atoms: C2_2  and  O2_4 
REMARK    2  A    between atoms: O2_4  and  C3_5 
REMARK    3  A    between atoms: C3_5  and  O3_6 
REMARK    4  A    between atoms: C3_5  and  C4_8 
REMARK    5  A    between atoms: C4_8  and  N1_9 
REMARK    6  A    between atoms: C4_8  and  C5_13 
REMARK    7  A    between atoms: C5_13  and  N2_14 
REMARK    8  A    between atoms: C5_13  and  O4_18 
REMARK    9  A    between atoms: O4_18  and  C6_19 
REMARK   10  A    between atoms: C10_24  and  O6_25 
REMARK   11  A    between atoms: C11_27  and  O7_28 
REMARK   12  A    between atoms: C11_27  and  O8_30 
REMARK   13  A    between atoms: N3_34  and  O9_36 
REMARK   14  A    between atoms: C14_39  and  C15_40 
REMARK   15  A    between atoms: C15_40  and  O11_41 
REMARK   16  A    between atoms: C15_40  and  C16_43 
REMARK   17  A    between atoms: C16_43  and  O12_45 
REMARK   18  A    between atoms: C18_47  and  O13_48 
REMARK   19  A    between atoms: C19_50  and  O14_51 
ROOT
HETATM    1  C6  UNL     1      29.495   2.747 -49.715  1.00  0.00     0.240 C 
HETATM    2  O5  UNL     1      30.798   3.043 -49.374  1.00  0.00    -0.311 OA
HETATM    3  C7  UNL     1      31.459   2.605 -48.353  1.00  0.00     0.167 C 
HETATM    4  C8  UNL     1      32.649   3.618 -48.237  1.00  0.00     0.079 C 
HETATM    5  C9  UNL     1      30.900   2.620 -46.951  1.00  0.00     0.105 C 
HETATM    6  C10 UNL     1      30.227   3.862 -46.512  1.00  0.00     0.185 C 
HETATM    7  C11 UNL     1      28.785   3.520 -46.206  1.00  0.00     0.191 C 
HETATM    8  C12 UNL     1      27.945   3.249 -47.428  1.00  0.00     0.131 C 
HETATM    9  C13 UNL     1      28.679   3.471 -48.689  1.00  0.00     0.079 C 
HETATM   10  N3  UNL     1      28.616   4.713 -49.001  1.00  0.00    -0.272 N 
ATOM     11  H3  UNL     1      29.109   4.982 -49.852  1.00  0.00     0.193 HD
HETATM   12  O10 UNL     1      32.120   1.396 -48.408  1.00  0.00    -0.345 OA
HETATM   13  C14 UNL     1      31.430   0.337 -48.926  1.00  0.00     0.187 C 
HETATM   14  C18 UNL     1      30.630   0.650 -50.128  1.00  0.00     0.184 C 
HETATM   15  C19 UNL     1      29.286   1.306 -49.804  1.00  0.00     0.218 C 
ENDROOT
BRANCH   1  16
HETATM   16  O4  UNL     1      29.305   3.378 -50.909  1.00  0.00    -0.312 OA
BRANCH  16  17
HETATM   17  C5  UNL     1      28.681   2.902 -51.961  1.00  0.00     0.357 C 
BRANCH  17  18
HETATM   18  C4  UNL     1      27.373   3.617 -52.195  1.00  0.00     0.294 C 
BRANCH  18  19
HETATM   19  C3  UNL     1      27.626   5.089 -52.492  1.00  0.00     0.301 C 
BRANCH  19  20
HETATM   20  O2  UNL     1      26.688   5.571 -53.440  1.00  0.00    -0.288 OA
BRANCH  20  21
HETATM   21  C2  UNL     1      26.709   6.858 -53.944  1.00  0.00     0.257 C 
HETATM   22  C1  UNL     1      25.618   7.342 -54.817  1.00  0.00     0.126 C 
HETATM   23  O1  UNL     1      27.680   7.592 -53.637  1.00  0.00    -0.266 OA
ENDBRANCH  20  21
ENDBRANCH  19  20
BRANCH  19  24
HETATM   24  O3  UNL     1      27.580   5.838 -51.319  1.00  0.00    -0.368 OA
ATOM     25  H3  UNL     1      28.261   5.568 -50.714  1.00  0.00     0.212 HD
ENDBRANCH  19  24
ENDBRANCH  18  19
BRANCH  18  26
HETATM   26  N1  UNL     1      26.377   3.442 -51.201  1.00  0.00    -0.066 N 
ATOM     27  H13 UNL     1      26.543   4.051 -50.399  1.00  0.00     0.275 HD
ATOM     28  H12 UNL     1      25.480   3.820 -51.505  1.00  0.00     0.275 HD
ATOM     29  H11 UNL     1      26.292   2.467 -50.915  1.00  0.00     0.275 HD
ENDBRANCH  18  26
ENDBRANCH  17  18
BRANCH  17  30
HETATM   30  N2  UNL     1      28.223   1.491 -51.843  1.00  0.00    -0.051 N 
ATOM     31  H23 UNL     1      27.667   1.281 -51.014  1.00  0.00     0.277 HD
ATOM     32  H22 UNL     1      27.505   1.208 -52.509  1.00  0.00     0.277 HD
ATOM     33  H21 UNL     1      29.108   0.988 -51.914  1.00  0.00     0.277 HD
ENDBRANCH  17  30
ENDBRANCH  16  17
ENDBRANCH   1  16
BRANCH  15  34
HETATM   34  O14 UNL     1      28.677   0.691 -48.713  1.00  0.00    -0.387 OA
ATOM     35  H14 UNL     1      28.812  -0.245 -48.619  1.00  0.00     0.210 HD
ENDBRANCH  15  34
BRANCH  10  36
HETATM   36  O9  UNL     1      27.985   5.711 -48.354  1.00  0.00    -0.290 OA
ATOM     37  H9  UNL     1      28.263   6.612 -48.237  1.00  0.00     0.244 HD
ENDBRANCH  10  36
BRANCH  14  38
HETATM   38  O13 UNL     1      30.475  -0.480 -50.912  1.00  0.00    -0.390 OA
ATOM     39  H13 UNL     1      30.892  -0.357 -51.757  1.00  0.00     0.210 HD
ENDBRANCH  14  38
BRANCH   7  40
HETATM   40  O7  UNL     1      28.820   2.316 -45.485  1.00  0.00    -0.363 OA
ATOM     41  H7  UNL     1      27.937   2.180 -45.161  1.00  0.00     0.213 HD
ENDBRANCH   7  40
BRANCH   7  42
HETATM   42  O8  UNL     1      28.209   4.452 -45.349  1.00  0.00    -0.363 OA
ATOM     43  H8  UNL     1      27.674   4.032 -44.686  1.00  0.00     0.213 HD
ENDBRANCH   7  42
BRANCH  13  44
HETATM   44  C15 UNL     1      32.378  -0.791 -49.192  1.00  0.00     0.178 C 
BRANCH  44  45
HETATM   45  O11 UNL     1      32.984  -1.269 -48.006  1.00  0.00    -0.390 OA
ATOM     46  H11 UNL     1      32.354  -1.381 -47.304  1.00  0.00     0.210 HD
ENDBRANCH  44  45
BRANCH  44  47
HETATM   47  C16 UNL     1      33.456  -0.492 -50.200  1.00  0.00     0.145 C 
HETATM   48  C17 UNL     1      34.777  -1.144 -49.893  1.00  0.00     0.042 C 
BRANCH  47  49
HETATM   49  O12 UNL     1      33.122  -0.719 -51.503  1.00  0.00    -0.393 OA
ATOM     50  H12 UNL     1      33.080  -1.632 -51.761  1.00  0.00     0.210 HD
ENDBRANCH  47  49
ENDBRANCH  44  47
ENDBRANCH  13  44
BRANCH   6  51
HETATM   51  O6  UNL     1      30.737   4.292 -45.249  1.00  0.00    -0.390 OA
ATOM     52  H6  UNL     1      30.776   5.240 -45.208  1.00  0.00     0.210 HD
ENDBRANCH   6  51
TORSDOF 19
ENDMDL
MODEL 4
REMARK VINA RESULT: -7.911509031      2.884      4.759
REMARK  19 active torsions:
REMARK  status: ('A' for Active; 'I' for Inactive)
REMARK    1  A    between atoms: C2_2  and  O2_4 
REMARK    2  A    between atoms: O2_4  and  C3_5 
REMARK    3  A    between atoms: C3_5  and  O3_6 
REMARK    4  A    between atoms: C3_5  and  C4_8 
REMARK    5  A    between atoms: C4_8  and  N1_9 
REMARK    6  A    between atoms: C4_8  and  C5_13 
REMARK    7  A    between atoms: C5_13  and  N2_14 
REMARK    8  A    between atoms: C5_13  and  O4_18 
REMARK    9  A    between atoms: O4_18  and  C6_19 
REMARK   10  A    between atoms: C10_24  and  O6_25 
REMARK   11  A    between atoms: C11_27  and  O7_28 
REMARK   12  A    between atoms: C11_27  and  O8_30 
REMARK   13  A    between atoms: N3_34  and  O9_36 
REMARK   14  A    between atoms: C14_39  and  C15_40 
REMARK   15  A    between atoms: C15_40  and  O11_41 
REMARK   16  A    between atoms: C15_40  and  C16_43 
REMARK   17  A    between atoms: C16_43  and  O12_45 
REMARK   18  A    between atoms: C18_47  and  O13_48 
REMARK   19  A    between atoms: C19_50  and  O14_51 
ROOT
HETATM    1  C6  UNL     1      28.700   2.940 -50.275  1.00  0.00     0.240 C 
HETATM    2  O5  UNL     1      28.775   2.689 -51.629  1.00  0.00    -0.311 OA
HETATM    3  C7  UNL     1      28.845   1.536 -52.209  1.00  0.00     0.167 C 
HETATM    4  C8  UNL     1      29.374   1.888 -53.641  1.00  0.00     0.079 C 
HETATM    5  C9  UNL     1      29.812   0.461 -51.775  1.00  0.00     0.105 C 
HETATM    6  C10 UNL     1      31.206   0.882 -51.511  1.00  0.00     0.185 C 
HETATM    7  C11 UNL     1      31.504   0.594 -50.056  1.00  0.00     0.191 C 
HETATM    8  C12 UNL     1      30.819   1.528 -49.090  1.00  0.00     0.131 C 
HETATM    9  C13 UNL     1      30.068   2.603 -49.769  1.00  0.00     0.079 C 
HETATM   10  N3  UNL     1      30.867   3.570 -50.037  1.00  0.00    -0.272 N 
ATOM     11  H3  UNL     1      30.453   4.364 -50.525  1.00  0.00     0.193 HD
HETATM   12  O10 UNL     1      27.701   0.822 -52.497  1.00  0.00    -0.345 OA
HETATM   13  C14 UNL     1      26.770   0.717 -51.504  1.00  0.00     0.187 C 
HETATM   14  C18 UNL     1      26.536   1.962 -50.743  1.00  0.00     0.184 C 
HETATM   15  C19 UNL     1      27.591   2.216 -49.664  1.00  0.00     0.218 C 
ENDROOT
BRANCH   1  16
HETATM   16  O4  UNL     1      28.553   4.293 -50.188  1.00  0.00    -0.312 OA
BRANCH  16  17
HETATM   17  C5  UNL     1      27.433   4.954 -50.015  1.00  0.00     0.357 C 
BRANCH  17  18
HETATM   18  C4  UNL     1      27.163   5.888 -51.169  1.00  0.00     0.294 C 
BRANCH  18  19
HETATM   19  C3  UNL     1      27.209   5.123 -52.485  1.00  0.00     0.301 C 
BRANCH  19  20
HETATM   20  O2  UNL     1      26.354   5.729 -53.440  1.00  0.00    -0.288 OA
BRANCH  20  21
HETATM   21  C2  UNL     1      26.609   6.961 -54.016  1.00  0.00     0.257 C 
HETATM   22  C1  UNL     1      25.510   7.757 -54.605  1.00  0.00     0.126 C 
HETATM   23  O1  UNL     1      27.794   7.372 -54.020  1.00  0.00    -0.266 OA
ENDBRANCH  20  21
ENDBRANCH  19  20
BRANCH  19  24
HETATM   24  O3  UNL     1      28.516   5.049 -52.960  1.00  0.00    -0.368 OA
ATOM     25  H3  UNL     1      28.701   4.188 -53.317  1.00  0.00     0.212 HD
ENDBRANCH  19  24
ENDBRANCH  18  19
BRANCH  18  26
HETATM   26  N1  UNL     1      27.947   7.069 -51.217  1.00  0.00    -0.066 N 
ATOM     27  H13 UNL     1      28.554   7.144 -50.401  1.00  0.00     0.275 HD
ATOM     28  H12 UNL     1      28.661   7.010 -51.942  1.00  0.00     0.275 HD
ATOM     29  H11 UNL     1      27.371   7.903 -51.330  1.00  0.00     0.275 HD
ENDBRANCH  18  26
ENDBRANCH  17  18
BRANCH  17  30
HETATM   30  N2  UNL     1      27.426   5.901 -48.868  1.00  0.00    -0.051 N 
ATOM     31  H23 UNL     1      27.334   6.886 -49.115  1.00  0.00     0.277 HD
ATOM     32  H22 UNL     1      26.589   5.875 -48.285  1.00  0.00     0.277 HD
ATOM     33  H21 UNL     1      28.295   5.649 -48.396  1.00  0.00     0.277 HD
ENDBRANCH  17  30
ENDBRANCH  16  17
ENDBRANCH   1  16
BRANCH  15  34
HETATM   34  O14 UNL     1      27.906   1.043 -48.983  1.00  0.00    -0.387 OA
ATOM     35  H14 UNL     1      27.644   0.993 -48.071  1.00  0.00     0.210 HD
ENDBRANCH  15  34
BRANCH  10  36
HETATM   36  O9  UNL     1      32.180   3.677 -49.758  1.00  0.00    -0.290 OA
ATOM     37  H9  UNL     1      32.681   4.458 -49.553  1.00  0.00     0.244 HD
ENDBRANCH  10  36
BRANCH  14  38
HETATM   38  O13 UNL     1      25.254   1.977 -50.222  1.00  0.00    -0.390 OA
ATOM     39  H13 UNL     1      25.188   2.613 -49.520  1.00  0.00     0.210 HD
ENDBRANCH  14  38
BRANCH   7  40
HETATM   40  O7  UNL     1      30.978  -0.682 -49.800  1.00  0.00    -0.363 OA
ATOM     41  H7  UNL     1      30.523  -0.615 -48.968  1.00  0.00     0.213 HD
ENDBRANCH   7  40
BRANCH   7  42
HETATM   42  O8  UNL     1      32.872   0.487 -49.826  1.00  0.00    -0.363 OA
ATOM     43  H8  UNL     1      33.226   1.287 -49.454  1.00  0.00     0.213 HD
ENDBRANCH   7  42
BRANCH  13  44
HETATM   44  C15 UNL     1      25.490   0.191 -52.075  1.00  0.00     0.178 C 
BRANCH  44  45
HETATM   45  O11 UNL     1      24.707   1.215 -52.660  1.00  0.00    -0.390 OA
ATOM     46  H11 UNL     1      24.480   1.892 -52.033  1.00  0.00     0.210 HD
ENDBRANCH  44  45
BRANCH  44  47
HETATM   47  C16 UNL     1      24.632  -0.581 -51.108  1.00  0.00     0.145 C 
HETATM   48  C17 UNL     1      24.151  -1.904 -51.641  1.00  0.00     0.042 C 
BRANCH  47  49
HETATM   49  O12 UNL     1      25.159  -0.751 -49.862  1.00  0.00    -0.393 OA
ATOM     50  H12 UNL     1      25.489   0.037 -49.446  1.00  0.00     0.210 HD
ENDBRANCH  47  49
ENDBRANCH  44  47
ENDBRANCH  13  44
BRANCH   6  51
HETATM   51  O6  UNL     1      32.126   0.040 -52.207  1.00  0.00    -0.390 OA
ATOM     52  H6  UNL     1      33.007   0.160 -51.873  1.00  0.00     0.210 HD
ENDBRANCH   6  51
TORSDOF 19
ENDMDL
MODEL 5
REMARK VINA RESULT: -7.762157919      3.218      4.795
REMARK  19 active torsions:
REMARK  status: ('A' for Active; 'I' for Inactive)
REMARK    1  A    between atoms: C2_2  and  O2_4 
REMARK    2  A    between atoms: O2_4  and  C3_5 
REMARK    3  A    between atoms: C3_5  and  O3_6 
REMARK    4  A    between atoms: C3_5  and  C4_8 
REMARK    5  A    between atoms: C4_8  and  N1_9 
REMARK    6  A    between atoms: C4_8  and  C5_13 
REMARK    7  A    between atoms: C5_13  and  N2_14 
REMARK    8  A    between atoms: C5_13  and  O4_18 
REMARK    9  A    between atoms: O4_18  and  C6_19 
REMARK   10  A    between atoms: C10_24  and  O6_25 
REMARK   11  A    between atoms: C11_27  and  O7_28 
REMARK   12  A    between atoms: C11_27  and  O8_30 
REMARK   13  A    between atoms: N3_34  and  O9_36 
REMARK   14  A    between atoms: C14_39  and  C15_40 
REMARK   15  A    between atoms: C15_40  and  O11_41 
REMARK   16  A    between atoms: C15_40  and  C16_43 
REMARK   17  A    between atoms: C16_43  and  O12_45 
REMARK   18  A    between atoms: C18_47  and  O13_48 
REMARK   19  A    between atoms: C19_50  and  O14_51 
ROOT
HETATM    1  C6  UNL     1      28.787   3.400 -49.993  1.00  0.00     0.240 C 
HETATM    2  O5  UNL     1      28.775   2.518 -51.053  1.00  0.00    -0.311 OA
HETATM    3  C7  UNL     1      28.685   1.230 -51.000  1.00  0.00     0.167 C 
HETATM    4  C8  UNL     1      29.191   0.778 -52.413  1.00  0.00     0.079 C 
HETATM    5  C9  UNL     1      29.539   0.390 -50.080  1.00  0.00     0.105 C 
HETATM    6  C10 UNL     1      30.982   0.713 -50.027  1.00  0.00     0.185 C 
HETATM    7  C11 UNL     1      31.306   1.130 -48.609  1.00  0.00     0.191 C 
HETATM    8  C12 UNL     1      30.776   2.490 -48.231  1.00  0.00     0.131 C 
HETATM    9  C13 UNL     1      30.127   3.186 -49.360  1.00  0.00     0.079 C 
HETATM   10  N3  UNL     1      31.021   3.797 -50.048  1.00  0.00    -0.272 N 
ATOM     11  H3  UNL     1      30.681   4.299 -50.868  1.00  0.00     0.193 HD
HETATM   12  O10 UNL     1      27.455   0.612 -50.928  1.00  0.00    -0.345 OA
HETATM   13  C14 UNL     1      26.562   1.115 -50.026  1.00  0.00     0.187 C 
HETATM   14  C18 UNL     1      26.506   2.591 -49.970  1.00  0.00     0.184 C 
HETATM   15  C19 UNL     1      27.628   3.204 -49.129  1.00  0.00     0.218 C 
ENDROOT
BRANCH   1  16
HETATM   16  O4  UNL     1      28.802   4.633 -50.576  1.00  0.00    -0.312 OA
BRANCH  16  17
HETATM   17  C5  UNL     1      28.146   5.005 -51.650  1.00  0.00     0.357 C 
BRANCH  17  18
HETATM   18  C4  UNL     1      27.200   6.142 -51.350  1.00  0.00     0.294 C 
BRANCH  18  19
HETATM   19  C3  UNL     1      27.478   7.315 -52.281  1.00  0.00     0.301 C 
BRANCH  19  20
HETATM   20  O2  UNL     1      26.269   7.969 -52.628  1.00  0.00    -0.288 OA
BRANCH  20  21
HETATM   21  C2  UNL     1      25.644   7.813 -53.852  1.00  0.00     0.257 C 
HETATM   22  C1  UNL     1      26.281   7.017 -54.924  1.00  0.00     0.126 C 
HETATM   23  O1  UNL     1      24.531   8.367 -54.016  1.00  0.00    -0.266 OA
ENDBRANCH  20  21
ENDBRANCH  19  20
BRANCH  19  24
HETATM   24  O3  UNL     1      28.375   8.203 -51.692  1.00  0.00    -0.368 OA
ATOM     25  H3  UNL     1      29.220   7.791 -51.551  1.00  0.00     0.212 HD
ENDBRANCH  19  24
ENDBRANCH  18  19
BRANCH  18  26
HETATM   26  N1  UNL     1      27.123   6.551 -49.994  1.00  0.00    -0.066 N 
ATOM     27  H13 UNL     1      28.045   6.771 -49.620  1.00  0.00     0.275 HD
ATOM     28  H12 UNL     1      26.692   7.472 -49.909  1.00  0.00     0.275 HD
ATOM     29  H11 UNL     1      26.642   5.862 -49.417  1.00  0.00     0.275 HD
ENDBRANCH  18  26
ENDBRANCH  17  18
BRANCH  17  30
HETATM   30  N2  UNL     1      27.211   3.990 -52.205  1.00  0.00    -0.051 N 
ATOM     31  H23 UNL     1      26.398   4.365 -52.692  1.00  0.00     0.277 HD
ATOM     32  H22 UNL     1      27.562   3.465 -53.007  1.00  0.00     0.277 HD
ATOM     33  H21 UNL     1      27.005   3.433 -51.376  1.00  0.00     0.277 HD
ENDBRANCH  17  30
ENDBRANCH  16  17
ENDBRANCH   1  16
BRANCH  15  34
HETATM   34  O14 UNL     1      27.833   2.478 -47.959  1.00  0.00    -0.387 OA
ATOM     35  H14 UNL     1      27.726   2.946 -47.139  1.00  0.00     0.210 HD
ENDBRANCH  15  34
BRANCH  10  36
HETATM   36  O9  UNL     1      32.347   3.864 -49.831  1.00  0.00    -0.290 OA
ATOM     37  H9  UNL     1      32.843   3.546 -49.085  1.00  0.00     0.244 HD
ENDBRANCH  10  36
BRANCH  14  38
HETATM   38  O13 UNL     1      25.258   3.011 -49.546  1.00  0.00    -0.390 OA
ATOM     39  H13 UNL     1      25.085   3.895 -49.848  1.00  0.00     0.210 HD
ENDBRANCH  14  38
BRANCH   7  40
HETATM   40  O7  UNL     1      30.646   0.212 -47.777  1.00  0.00    -0.363 OA
ATOM     41  H7  UNL     1      30.343   0.711 -47.027  1.00  0.00     0.213 HD
ENDBRANCH   7  40
BRANCH   7  42
HETATM   42  O8  UNL     1      32.661   0.982 -48.330  1.00  0.00    -0.363 OA
ATOM     43  H8  UNL     1      32.984   1.689 -47.782  1.00  0.00     0.213 HD
ENDBRANCH   7  42
BRANCH  13  44
HETATM   44  C15 UNL     1      25.205   0.539 -50.295  1.00  0.00     0.178 C 
BRANCH  44  45
HETATM   45  O11 UNL     1      25.043  -0.737 -49.705  1.00  0.00    -0.390 OA
ATOM     46  H11 UNL     1      24.461  -1.293 -50.211  1.00  0.00     0.210 HD
ENDBRANCH  44  45
BRANCH  44  47
HETATM   47  C16 UNL     1      24.829   0.451 -51.750  1.00  0.00     0.145 C 
HETATM   48  C17 UNL     1      25.052  -0.909 -52.357  1.00  0.00     0.042 C 
BRANCH  47  49
HETATM   49  O12 UNL     1      23.578   0.895 -52.062  1.00  0.00    -0.393 OA
ATOM     50  H12 UNL     1      23.543   1.663 -52.620  1.00  0.00     0.210 HD
ENDBRANCH  47  49
ENDBRANCH  44  47
ENDBRANCH  13  44
BRANCH   6  51
HETATM   51  O6  UNL     1      31.768  -0.465 -50.209  1.00  0.00    -0.390 OA
ATOM     52  H6  UNL     1      32.612  -0.250 -50.588  1.00  0.00     0.210 HD
ENDBRANCH   6  51
TORSDOF 19
ENDMDL
