MODEL 1
REMARK VINA RESULT: -8.936118375      0.000      0.000
REMARK  17 active torsions:
REMARK  status: ('A' for Active; 'I' for Inactive)
REMARK    1  A    between atoms: C2_2  and  C3_3 
REMARK    2  A    between atoms: C2_2  and  O2_6 
REMARK    3  A    between atoms: C3_3  and  O1_4 
REMARK    4  A    between atoms: O2_6  and  C4_7 
REMARK    5  A    between atoms: C4_7  and  C6_9 
REMARK    6  A    between atoms: C6_9  and  O3_10 
REMARK    7  A    between atoms: C8_13  and  O4_14 
REMARK    8  A    between atoms: O4_14  and  C9_15 
REMARK    9  A    between atoms: C10_19  and  O5_20 
REMARK   10  A    between atoms: C11_24  and  O6_25 
REMARK   11  A    between atoms: O6_25  and  C12_26 
REMARK   12  A    between atoms: C13_27  and  O7_28 
REMARK   13  A    between atoms: C14_30  and  O8_31 
REMARK   14  A    between atoms: C15_33  and  O9_34 
REMARK   15  A    between atoms: C16_36  and  O10_37 
REMARK   16  A    between atoms: C17_39  and  C18_40 
REMARK   17  A    between atoms: C18_40  and  O11_41 
ROOT
HETATM    1  C9  UNL     1      27.139   3.187 -48.891  1.00  0.00     0.379 C 
HETATM    2  N1  UNL     1      26.711   4.185 -49.892  1.00  0.00    -0.002 N 
ATOM      3  H11 UNL     1      25.736   4.474 -49.805  1.00  0.00     0.285 HD
ATOM      4  H12 UNL     1      26.633   3.820 -50.841  1.00  0.00     0.285 HD
HETATM    5  C10 UNL     1      27.682   5.280 -49.743  1.00  0.00     0.435 C 
HETATM    6  N2  UNL     1      28.952   4.782 -50.185  1.00  0.00    -0.086 NA
HETATM    7  N3  UNL     1      29.381   3.821 -49.233  1.00  0.00    -0.107 NA
HETATM    8  C11 UNL     1      28.456   2.668 -49.331  1.00  0.00     0.287 C 
ENDROOT
BRANCH   1   9
HETATM    9  O4  UNL     1      26.092   2.256 -48.815  1.00  0.00    -0.293 OA
BRANCH   9  10
HETATM   10  C8  UNL     1      25.703   1.639 -49.994  1.00  0.00     0.186 C 
HETATM   11  C7  UNL     1      24.836   0.636 -50.024  1.00  0.00     0.107 C 
HETATM   12  C6  UNL     1      24.526   0.085 -51.381  1.00  0.00     0.214 C 
HETATM   13  O13 UNL     1      25.768  -0.102 -51.998  1.00  0.00    -0.319 OA
HETATM   14  C19 UNL     1      26.219   1.175 -52.356  1.00  0.00     0.268 C 
HETATM   15  O12 UNL     1      26.212   2.047 -51.238  1.00  0.00    -0.299 OA
HETATM   16  C20 UNL     1      27.638   1.015 -52.856  1.00  0.00     0.071 C 
BRANCH  12  17
HETATM   17  C4  UNL     1      23.742  -1.169 -51.319  1.00  0.00     0.184 C 
HETATM   18  C5  UNL     1      22.698  -1.211 -52.469  1.00  0.00     0.046 C 
BRANCH  17  19
HETATM   19  O2  UNL     1      23.010  -1.225 -50.141  1.00  0.00    -0.373 OA
BRANCH  19  20
HETATM   20  C2  UNL     1      23.027  -2.426 -49.491  1.00  0.00     0.141 C 
HETATM   21  C1  UNL     1      23.731  -3.392 -50.498  1.00  0.00     0.042 C 
BRANCH  20  22
HETATM   22  C3  UNL     1      21.650  -2.990 -49.334  1.00  0.00     0.195 C 
BRANCH  22  23
HETATM   23  O1  UNL     1      20.643  -2.247 -49.926  1.00  0.00    -0.398 OA
ATOM     24  H1  UNL     1      19.837  -2.722 -50.087  1.00  0.00     0.209 HD
ENDBRANCH  22  23
ENDBRANCH  20  22
ENDBRANCH  19  20
ENDBRANCH  17  19
ENDBRANCH  12  17
BRANCH  12  25
HETATM   25  O3  UNL     1      23.856   1.048 -52.107  1.00  0.00    -0.360 OA
ATOM     26  H3  UNL     1      24.467   1.600 -52.581  1.00  0.00     0.213 HD
ENDBRANCH  12  25
ENDBRANCH   9  10
ENDBRANCH   1   9
BRANCH   8  27
HETATM   27  O6  UNL     1      28.952   1.628 -48.588  1.00  0.00    -0.355 OA
BRANCH  27  28
HETATM   28  C12 UNL     1      30.253   1.298 -48.846  1.00  0.00     0.164 C 
HETATM   29  C13 UNL     1      30.407   0.632 -50.199  1.00  0.00     0.179 C 
HETATM   30  C14 UNL     1      31.602  -0.257 -50.324  1.00  0.00     0.180 C 
HETATM   31  C15 UNL     1      32.772   0.122 -49.476  1.00  0.00     0.178 C 
HETATM   32  C16 UNL     1      32.391   0.530 -48.076  1.00  0.00     0.158 C 
HETATM   33  C17 UNL     1      30.897   0.347 -47.871  1.00  0.00     0.072 C 
BRANCH  29  34
HETATM   34  O7  UNL     1      30.512   1.673 -51.152  1.00  0.00    -0.390 OA
ATOM     35  H7  UNL     1      30.806   1.272 -51.961  1.00  0.00     0.210 HD
ENDBRANCH  29  34
BRANCH  30  36
HETATM   36  O8  UNL     1      31.970  -0.289 -51.670  1.00  0.00    -0.390 OA
ATOM     37  H8  UNL     1      31.763  -1.152 -52.006  1.00  0.00     0.210 HD
ENDBRANCH  30  36
BRANCH  31  38
HETATM   38  O9  UNL     1      33.698  -0.908 -49.372  1.00  0.00    -0.390 OA
ATOM     39  H9  UNL     1      33.406  -1.593 -48.783  1.00  0.00     0.210 HD
ENDBRANCH  31  38
BRANCH  32  40
HETATM   40  O10 UNL     1      32.675   1.871 -47.861  1.00  0.00    -0.392 OA
ATOM     41  H10 UNL     1      32.048   2.255 -47.260  1.00  0.00     0.210 HD
ENDBRANCH  32  40
BRANCH  33  42
HETATM   42  C18 UNL     1      30.478   0.425 -46.467  1.00  0.00     0.174 C 
BRANCH  42  43
HETATM   43  O11 UNL     1      30.322   1.753 -46.082  1.00  0.00    -0.400 OA
ATOM     44  H11 UNL     1      29.607   1.835 -45.462  1.00  0.00     0.209 HD
ENDBRANCH  42  43
ENDBRANCH  33  42
ENDBRANCH  27  28
ENDBRANCH   8  27
BRANCH   5  45
HETATM   45  O5  UNL     1      27.227   6.356 -50.479  1.00  0.00    -0.357 OA
ATOM     46  H5  UNL     1      27.473   6.217 -51.386  1.00  0.00     0.213 HD
ENDBRANCH   5  45
TORSDOF 17
ENDMDL
MODEL 2
REMARK VINA RESULT: -8.291962606      2.056      7.050
REMARK  17 active torsions:
REMARK  status: ('A' for Active; 'I' for Inactive)
REMARK    1  A    between atoms: C2_2  and  C3_3 
REMARK    2  A    between atoms: C2_2  and  O2_6 
REMARK    3  A    between atoms: C3_3  and  O1_4 
REMARK    4  A    between atoms: O2_6  and  C4_7 
REMARK    5  A    between atoms: C4_7  and  C6_9 
REMARK    6  A    between atoms: C6_9  and  O3_10 
REMARK    7  A    between atoms: C8_13  and  O4_14 
REMARK    8  A    between atoms: O4_14  and  C9_15 
REMARK    9  A    between atoms: C10_19  and  O5_20 
REMARK   10  A    between atoms: C11_24  and  O6_25 
REMARK   11  A    between atoms: O6_25  and  C12_26 
REMARK   12  A    between atoms: C13_27  and  O7_28 
REMARK   13  A    between atoms: C14_30  and  O8_31 
REMARK   14  A    between atoms: C15_33  and  O9_34 
REMARK   15  A    between atoms: C16_36  and  O10_37 
REMARK   16  A    between atoms: C17_39  and  C18_40 
REMARK   17  A    between atoms: C18_40  and  O11_41 
ROOT
HETATM    1  C9  UNL     1      27.680   5.102 -50.020  1.00  0.00     0.379 C 
HETATM    2  N1  UNL     1      27.194   6.411 -50.501  1.00  0.00    -0.002 N 
ATOM      3  H11 UNL     1      27.395   7.190 -49.873  1.00  0.00     0.285 HD
ATOM      4  H12 UNL     1      26.179   6.514 -50.482  1.00  0.00     0.285 HD
HETATM    5  C10 UNL     1      27.790   6.545 -51.840  1.00  0.00     0.435 C 
HETATM    6  N2  UNL     1      27.179   5.552 -52.676  1.00  0.00    -0.086 NA
HETATM    7  N3  UNL     1      27.637   4.286 -52.229  1.00  0.00    -0.107 NA
HETATM    8  C11 UNL     1      27.063   4.066 -50.882  1.00  0.00     0.287 C 
ENDROOT
BRANCH   1   9
HETATM    9  O4  UNL     1      27.357   5.058 -48.656  1.00  0.00    -0.293 OA
BRANCH   9  10
HETATM   10  C8  UNL     1      28.264   4.440 -47.808  1.00  0.00     0.186 C 
HETATM   11  C7  UNL     1      28.972   3.378 -48.169  1.00  0.00     0.107 C 
HETATM   12  C6  UNL     1      29.905   2.836 -47.132  1.00  0.00     0.214 C 
HETATM   13  O13 UNL     1      29.147   2.752 -45.960  1.00  0.00    -0.319 OA
HETATM   14  C19 UNL     1      29.007   4.065 -45.492  1.00  0.00     0.268 C 
HETATM   15  O12 UNL     1      28.485   4.910 -46.504  1.00  0.00    -0.299 OA
HETATM   16  C20 UNL     1      28.039   4.018 -44.331  1.00  0.00     0.071 C 
BRANCH  12  17
HETATM   17  C4  UNL     1      30.482   1.528 -47.516  1.00  0.00     0.184 C 
HETATM   18  C5  UNL     1      30.346   0.513 -46.348  1.00  0.00     0.046 C 
BRANCH  17  19
HETATM   19  O2  UNL     1      31.844   1.650 -47.755  1.00  0.00    -0.373 OA
BRANCH  19  20
HETATM   20  C2  UNL     1      32.271   1.216 -48.977  1.00  0.00     0.141 C 
HETATM   21  C1  UNL     1      31.937   2.402 -49.939  1.00  0.00     0.042 C 
BRANCH  20  22
HETATM   22  C3  UNL     1      31.437   0.081 -49.484  1.00  0.00     0.195 C 
BRANCH  22  23
HETATM   23  O1  UNL     1      31.891  -1.179 -49.134  1.00  0.00    -0.398 OA
ATOM     24  H1  UNL     1      31.464  -1.564 -48.378  1.00  0.00     0.209 HD
ENDBRANCH  22  23
ENDBRANCH  20  22
ENDBRANCH  19  20
ENDBRANCH  17  19
ENDBRANCH  12  17
BRANCH  12  25
HETATM   25  O3  UNL     1      30.900   3.764 -46.903  1.00  0.00    -0.360 OA
ATOM     26  H3  UNL     1      30.946   4.393 -47.614  1.00  0.00     0.213 HD
ENDBRANCH  12  25
ENDBRANCH   9  10
ENDBRANCH   1   9
BRANCH   8  27
HETATM   27  O6  UNL     1      27.298   2.771 -50.498  1.00  0.00    -0.355 OA
BRANCH  27  28
HETATM   28  C12 UNL     1      26.417   1.849 -50.990  1.00  0.00     0.164 C 
HETATM   29  C13 UNL     1      25.790   1.023 -49.884  1.00  0.00     0.179 C 
HETATM   30  C14 UNL     1      25.304  -0.324 -50.312  1.00  0.00     0.180 C 
HETATM   31  C15 UNL     1      24.867  -0.423 -51.737  1.00  0.00     0.178 C 
HETATM   32  C16 UNL     1      25.787   0.286 -52.697  1.00  0.00     0.158 C 
HETATM   33  C17 UNL     1      26.989   0.840 -51.951  1.00  0.00     0.072 C 
BRANCH  29  34
HETATM   34  O7  UNL     1      24.691   1.770 -49.395  1.00  0.00    -0.390 OA
ATOM     35  H7  UNL     1      24.850   2.675 -49.634  1.00  0.00     0.210 HD
ENDBRANCH  29  34
BRANCH  30  36
HETATM   36  O8  UNL     1      24.262  -0.691 -49.458  1.00  0.00    -0.390 OA
ATOM     37  H8  UNL     1      24.636  -1.189 -48.742  1.00  0.00     0.210 HD
ENDBRANCH  30  36
BRANCH  31  38
HETATM   38  O9  UNL     1      24.760  -1.743 -52.160  1.00  0.00    -0.390 OA
ATOM     39  H9  UNL     1      25.273  -2.333 -51.621  1.00  0.00     0.210 HD
ENDBRANCH  31  38
BRANCH  32  40
HETATM   40  O10 UNL     1      25.140   1.361 -53.291  1.00  0.00    -0.392 OA
ATOM     41  H10 UNL     1      25.192   1.302 -54.237  1.00  0.00     0.210 HD
ENDBRANCH  32  40
BRANCH  33  42
HETATM   42  C18 UNL     1      28.080   1.277 -52.828  1.00  0.00     0.174 C 
BRANCH  42  43
HETATM   43  O11 UNL     1      29.245   1.471 -52.092  1.00  0.00    -0.400 OA
ATOM     44  H11 UNL     1      29.118   2.159 -51.449  1.00  0.00     0.209 HD
ENDBRANCH  42  43
ENDBRANCH  33  42
ENDBRANCH  27  28
ENDBRANCH   8  27
BRANCH   5  45
HETATM   45  O5  UNL     1      27.578   7.837 -52.275  1.00  0.00    -0.357 OA
ATOM     46  H5  UNL     1      28.390   8.320 -52.172  1.00  0.00     0.213 HD
ENDBRANCH   5  45
TORSDOF 17
ENDMDL
MODEL 3
REMARK VINA RESULT: -7.875698589      1.635      2.169
REMARK  17 active torsions:
REMARK  status: ('A' for Active; 'I' for Inactive)
REMARK    1  A    between atoms: C2_2  and  C3_3 
REMARK    2  A    between atoms: C2_2  and  O2_6 
REMARK    3  A    between atoms: C3_3  and  O1_4 
REMARK    4  A    between atoms: O2_6  and  C4_7 
REMARK    5  A    between atoms: C4_7  and  C6_9 
REMARK    6  A    between atoms: C6_9  and  O3_10 
REMARK    7  A    between atoms: C8_13  and  O4_14 
REMARK    8  A    between atoms: O4_14  and  C9_15 
REMARK    9  A    between atoms: C10_19  and  O5_20 
REMARK   10  A    between atoms: C11_24  and  O6_25 
REMARK   11  A    between atoms: O6_25  and  C12_26 
REMARK   12  A    between atoms: C13_27  and  O7_28 
REMARK   13  A    between atoms: C14_30  and  O8_31 
REMARK   14  A    between atoms: C15_33  and  O9_34 
REMARK   15  A    between atoms: C16_36  and  O10_37 
REMARK   16  A    between atoms: C17_39  and  C18_40 
REMARK   17  A    between atoms: C18_40  and  O11_41 
ROOT
HETATM    1  C9  UNL     1      26.992   2.778 -50.461  1.00  0.00     0.379 C 
HETATM    2  N1  UNL     1      26.344   3.406 -51.630  1.00  0.00    -0.002 N 
ATOM      3  H11 UNL     1      25.456   3.863 -51.421  1.00  0.00     0.285 HD
ATOM      4  H12 UNL     1      25.969   2.742 -52.308  1.00  0.00     0.285 HD
HETATM    5  C10 UNL     1      27.375   4.305 -52.171  1.00  0.00     0.435 C 
HETATM    6  N2  UNL     1      28.429   3.479 -52.686  1.00  0.00    -0.086 NA
HETATM    7  N3  UNL     1      29.065   2.868 -51.575  1.00  0.00    -0.107 NA
HETATM    8  C11 UNL     1      28.090   1.927 -50.978  1.00  0.00     0.287 C 
ENDROOT
BRANCH   1   9
HETATM    9  O4  UNL     1      25.965   2.123 -49.767  1.00  0.00    -0.293 OA
BRANCH   9  10
HETATM   10  C8  UNL     1      25.325   1.078 -50.416  1.00  0.00     0.186 C 
HETATM   11  C7  UNL     1      24.688   0.114 -49.764  1.00  0.00     0.107 C 
HETATM   12  C6  UNL     1      24.050  -0.937 -50.618  1.00  0.00     0.214 C 
HETATM   13  O13 UNL     1      25.032  -1.307 -51.544  1.00  0.00    -0.319 OA
HETATM   14  C19 UNL     1      25.107  -0.260 -52.470  1.00  0.00     0.268 C 
HETATM   15  O12 UNL     1      25.314   0.982 -51.816  1.00  0.00    -0.299 OA
HETATM   16  C20 UNL     1      26.286  -0.553 -53.371  1.00  0.00     0.071 C 
BRANCH  12  17
HETATM   17  C4  UNL     1      23.566  -2.092 -49.829  1.00  0.00     0.184 C 
HETATM   18  C5  UNL     1      24.042  -3.424 -50.473  1.00  0.00     0.046 C 
BRANCH  17  19
HETATM   19  O2  UNL     1      22.179  -2.140 -49.842  1.00  0.00    -0.373 OA
BRANCH  19  20
HETATM   20  C2  UNL     1      21.600  -2.788 -48.789  1.00  0.00     0.141 C 
HETATM   21  C1  UNL     1      21.013  -4.091 -49.423  1.00  0.00     0.042 C 
BRANCH  20  22
HETATM   22  C3  UNL     1      20.402  -2.052 -48.277  1.00  0.00     0.195 C 
BRANCH  22  23
HETATM   23  O1  UNL     1      19.207  -2.744 -48.369  1.00  0.00    -0.398 OA
ATOM     24  H1  UNL     1      18.577  -2.549 -47.685  1.00  0.00     0.209 HD
ENDBRANCH  22  23
ENDBRANCH  20  22
ENDBRANCH  19  20
ENDBRANCH  17  19
ENDBRANCH  12  17
BRANCH  12  25
HETATM   25  O3  UNL     1      23.020  -0.362 -51.332  1.00  0.00    -0.360 OA
ATOM     26  H3  UNL     1      22.180  -0.568 -50.939  1.00  0.00     0.213 HD
ENDBRANCH  12  25
ENDBRANCH   9  10
ENDBRANCH   1   9
BRANCH   8  27
HETATM   27  O6  UNL     1      28.725   1.156 -50.038  1.00  0.00    -0.355 OA
BRANCH  27  28
HETATM   28  C12 UNL     1      30.028   1.489 -49.797  1.00  0.00     0.164 C 
HETATM   29  C13 UNL     1      30.896   0.260 -49.609  1.00  0.00     0.179 C 
HETATM   30  C14 UNL     1      32.131   0.488 -48.798  1.00  0.00     0.180 C 
HETATM   31  C15 UNL     1      32.695   1.869 -48.866  1.00  0.00     0.178 C 
HETATM   32  C16 UNL     1      31.647   2.949 -48.797  1.00  0.00     0.158 C 
HETATM   33  C17 UNL     1      30.278   2.330 -48.573  1.00  0.00     0.072 C 
BRANCH  29  34
HETATM   34  O7  UNL     1      31.276  -0.169 -50.904  1.00  0.00    -0.390 OA
ATOM     35  H7  UNL     1      32.148  -0.535 -50.824  1.00  0.00     0.210 HD
ENDBRANCH  29  34
BRANCH  30  36
HETATM   36  O8  UNL     1      33.086  -0.446 -49.204  1.00  0.00    -0.390 OA
ATOM     37  H8  UNL     1      32.774  -0.848 -50.007  1.00  0.00     0.210 HD
ENDBRANCH  30  36
BRANCH  31  38
HETATM   38  O9  UNL     1      33.610   2.111 -47.849  1.00  0.00    -0.390 OA
ATOM     39  H9  UNL     1      33.890   1.309 -47.423  1.00  0.00     0.210 HD
ENDBRANCH  31  38
BRANCH  32  40
HETATM   40  O10 UNL     1      31.589   3.654 -49.991  1.00  0.00    -0.392 OA
ATOM     41  H10 UNL     1      31.385   3.073 -50.714  1.00  0.00     0.210 HD
ENDBRANCH  32  40
BRANCH  33  42
HETATM   42  C18 UNL     1      29.245   3.299 -48.191  1.00  0.00     0.174 C 
BRANCH  42  43
HETATM   43  O11 UNL     1      28.207   2.660 -47.519  1.00  0.00    -0.400 OA
ATOM     44  H11 UNL     1      28.363   1.724 -47.484  1.00  0.00     0.209 HD
ENDBRANCH  42  43
ENDBRANCH  33  42
ENDBRANCH  27  28
ENDBRANCH   8  27
BRANCH   5  45
HETATM   45  O5  UNL     1      26.785   5.104 -53.129  1.00  0.00    -0.357 OA
ATOM     46  H5  UNL     1      27.324   5.074 -53.910  1.00  0.00     0.213 HD
ENDBRANCH   5  45
TORSDOF 17
ENDMDL
MODEL 4
REMARK VINA RESULT: -7.839644987      2.153      3.376
REMARK  17 active torsions:
REMARK  status: ('A' for Active; 'I' for Inactive)
REMARK    1  A    between atoms: C2_2  and  C3_3 
REMARK    2  A    between atoms: C2_2  and  O2_6 
REMARK    3  A    between atoms: C3_3  and  O1_4 
REMARK    4  A    between atoms: O2_6  and  C4_7 
REMARK    5  A    between atoms: C4_7  and  C6_9 
REMARK    6  A    between atoms: C6_9  and  O3_10 
REMARK    7  A    between atoms: C8_13  and  O4_14 
REMARK    8  A    between atoms: O4_14  and  C9_15 
REMARK    9  A    between atoms: C10_19  and  O5_20 
REMARK   10  A    between atoms: C11_24  and  O6_25 
REMARK   11  A    between atoms: O6_25  and  C12_26 
REMARK   12  A    between atoms: C13_27  and  O7_28 
REMARK   13  A    between atoms: C14_30  and  O8_31 
REMARK   14  A    between atoms: C15_33  and  O9_34 
REMARK   15  A    between atoms: C16_36  and  O10_37 
REMARK   16  A    between atoms: C17_39  and  C18_40 
REMARK   17  A    between atoms: C18_40  and  O11_41 
ROOT
HETATM    1  C9  UNL     1      28.804   2.930 -47.512  1.00  0.00     0.379 C 
HETATM    2  N1  UNL     1      27.480   3.552 -47.309  1.00  0.00    -0.002 N 
ATOM      3  H11 UNL     1      26.793   3.318 -48.025  1.00  0.00     0.285 HD
ATOM      4  H12 UNL     1      27.463   4.560 -47.465  1.00  0.00     0.285 HD
HETATM    5  C10 UNL     1      27.098   3.144 -45.948  1.00  0.00     0.435 C 
HETATM    6  N2  UNL     1      27.998   3.799 -45.042  1.00  0.00    -0.086 NA
HETATM    7  N3  UNL     1      29.277   3.211 -45.222  1.00  0.00    -0.107 NA
HETATM    8  C11 UNL     1      29.744   3.591 -46.575  1.00  0.00     0.287 C 
ENDROOT
BRANCH   1   9
HETATM    9  O4  UNL     1      29.080   3.069 -48.880  1.00  0.00    -0.293 OA
BRANCH   9  10
HETATM   10  C8  UNL     1      28.025   2.898 -49.762  1.00  0.00     0.186 C 
HETATM   11  C7  UNL     1      27.497   1.710 -50.024  1.00  0.00     0.107 C 
HETATM   12  C6  UNL     1      26.362   1.703 -51.000  1.00  0.00     0.214 C 
HETATM   13  O13 UNL     1      26.799   2.480 -52.080  1.00  0.00    -0.319 OA
HETATM   14  C19 UNL     1      26.736   3.811 -51.650  1.00  0.00     0.268 C 
HETATM   15  O12 UNL     1      27.450   3.987 -50.437  1.00  0.00    -0.299 OA
HETATM   16  C20 UNL     1      27.376   4.653 -52.732  1.00  0.00     0.071 C 
BRANCH  12  17
HETATM   17  C4  UNL     1      25.981   0.335 -51.418  1.00  0.00     0.184 C 
HETATM   18  C5  UNL     1      26.004   0.217 -52.967  1.00  0.00     0.046 C 
BRANCH  17  19
HETATM   19  O2  UNL     1      24.676   0.058 -51.036  1.00  0.00    -0.373 OA
BRANCH  19  20
HETATM   20  C2  UNL     1      24.270  -1.235 -51.212  1.00  0.00     0.141 C 
HETATM   21  C1  UNL     1      22.937  -1.107 -52.017  1.00  0.00     0.042 C 
BRANCH  20  22
HETATM   22  C3  UNL     1      23.863  -1.866 -49.918  1.00  0.00     0.195 C 
BRANCH  22  23
HETATM   23  O1  UNL     1      24.755  -2.800 -49.417  1.00  0.00    -0.398 OA
ATOM     24  H1  UNL     1      24.970  -2.695 -48.498  1.00  0.00     0.209 HD
ENDBRANCH  22  23
ENDBRANCH  20  22
ENDBRANCH  19  20
ENDBRANCH  17  19
ENDBRANCH  12  17
BRANCH  12  25
HETATM   25  O3  UNL     1      25.289   2.362 -50.437  1.00  0.00    -0.360 OA
ATOM     26  H3  UNL     1      25.583   3.012 -49.809  1.00  0.00     0.213 HD
ENDBRANCH  12  25
ENDBRANCH   9  10
ENDBRANCH   1   9
BRANCH   8  27
HETATM   27  O6  UNL     1      31.059   3.230 -46.716  1.00  0.00    -0.355 OA
BRANCH  27  28
HETATM   28  C12 UNL     1      31.273   2.055 -47.380  1.00  0.00     0.164 C 
HETATM   29  C13 UNL     1      31.419   0.888 -46.424  1.00  0.00     0.179 C 
HETATM   30  C14 UNL     1      32.203  -0.265 -46.963  1.00  0.00     0.180 C 
HETATM   31  C15 UNL     1      32.143  -0.441 -48.445  1.00  0.00     0.178 C 
HETATM   32  C16 UNL     1      32.257   0.854 -49.208  1.00  0.00     0.158 C 
HETATM   33  C17 UNL     1      32.505   2.003 -48.245  1.00  0.00     0.072 C 
BRANCH  29  34
HETATM   34  O7  UNL     1      30.108   0.446 -46.122  1.00  0.00    -0.390 OA
ATOM     35  H7  UNL     1      29.601   0.537 -46.920  1.00  0.00     0.210 HD
ENDBRANCH  29  34
BRANCH  30  36
HETATM   36  O8  UNL     1      31.758  -1.421 -46.319  1.00  0.00    -0.390 OA
ATOM     37  H8  UNL     1      31.771  -2.128 -46.952  1.00  0.00     0.210 HD
ENDBRANCH  30  36
BRANCH  31  38
HETATM   38  O9  UNL     1      33.142  -1.288 -48.911  1.00  0.00    -0.390 OA
ATOM     39  H9  UNL     1      33.320  -1.997 -48.304  1.00  0.00     0.210 HD
ENDBRANCH  31  38
BRANCH  32  40
HETATM   40  O10 UNL     1      31.076   1.130 -49.883  1.00  0.00    -0.392 OA
ATOM     41  H10 UNL     1      31.257   1.522 -50.729  1.00  0.00     0.210 HD
ENDBRANCH  32  40
BRANCH  33  42
HETATM   42  C18 UNL     1      32.928   3.244 -48.902  1.00  0.00     0.174 C 
BRANCH  42  43
HETATM   43  O11 UNL     1      31.975   3.648 -49.833  1.00  0.00    -0.400 OA
ATOM     44  H11 UNL     1      31.621   2.895 -50.291  1.00  0.00     0.209 HD
ENDBRANCH  42  43
ENDBRANCH  33  42
ENDBRANCH  27  28
ENDBRANCH   8  27
BRANCH   5  45
HETATM   45  O5  UNL     1      25.776   3.489 -45.754  1.00  0.00    -0.357 OA
ATOM     46  H5  UNL     1      25.324   2.734 -45.396  1.00  0.00     0.213 HD
ENDBRANCH   5  45
TORSDOF 17
ENDMDL
MODEL 5
REMARK VINA RESULT: -7.822643975      2.494      4.346
REMARK  17 active torsions:
REMARK  status: ('A' for Active; 'I' for Inactive)
REMARK    1  A    between atoms: C2_2  and  C3_3 
REMARK    2  A    between atoms: C2_2  and  O2_6 
REMARK    3  A    between atoms: C3_3  and  O1_4 
REMARK    4  A    between atoms: O2_6  and  C4_7 
REMARK    5  A    between atoms: C4_7  and  C6_9 
REMARK    6  A    between atoms: C6_9  and  O3_10 
REMARK    7  A    between atoms: C8_13  and  O4_14 
REMARK    8  A    between atoms: O4_14  and  C9_15 
REMARK    9  A    between atoms: C10_19  and  O5_20 
REMARK   10  A    between atoms: C11_24  and  O6_25 
REMARK   11  A    between atoms: O6_25  and  C12_26 
REMARK   12  A    between atoms: C13_27  and  O7_28 
REMARK   13  A    between atoms: C14_30  and  O8_31 
REMARK   14  A    between atoms: C15_33  and  O9_34 
REMARK   15  A    between atoms: C16_36  and  O10_37 
REMARK   16  A    between atoms: C17_39  and  C18_40 
REMARK   17  A    between atoms: C18_40  and  O11_41 
ROOT
HETATM    1  C9  UNL     1      30.558   2.195 -49.491  1.00  0.00     0.379 C 
HETATM    2  N1  UNL     1      30.586   1.819 -50.919  1.00  0.00    -0.002 N 
ATOM      3  H11 UNL     1      30.571   2.612 -51.562  1.00  0.00     0.285 HD
ATOM      4  H12 UNL     1      29.724   1.388 -51.256  1.00  0.00     0.285 HD
HETATM    5  C10 UNL     1      31.777   0.964 -51.042  1.00  0.00     0.435 C 
HETATM    6  N2  UNL     1      31.510  -0.241 -50.310  1.00  0.00    -0.086 NA
HETATM    7  N3  UNL     1      31.482   0.101 -48.933  1.00  0.00    -0.107 NA
HETATM    8  C11 UNL     1      30.291   0.956 -48.721  1.00  0.00     0.287 C 
ENDROOT
BRANCH   1   9
HETATM    9  O4  UNL     1      29.602   3.215 -49.388  1.00  0.00    -0.293 OA
BRANCH   9  10
HETATM   10  C8  UNL     1      28.416   3.049 -50.087  1.00  0.00     0.186 C 
HETATM   11  C7  UNL     1      27.874   1.857 -50.301  1.00  0.00     0.107 C 
HETATM   12  C6  UNL     1      26.592   1.856 -51.074  1.00  0.00     0.214 C 
HETATM   13  O13 UNL     1      26.825   2.680 -52.180  1.00  0.00    -0.319 OA
HETATM   14  C19 UNL     1      26.812   3.994 -51.696  1.00  0.00     0.268 C 
HETATM   15  O12 UNL     1      27.716   4.145 -50.614  1.00  0.00    -0.299 OA
HETATM   16  C20 UNL     1      27.244   4.888 -52.837  1.00  0.00     0.071 C 
BRANCH  12  17
HETATM   17  C4  UNL     1      26.171   0.494 -51.473  1.00  0.00     0.184 C 
HETATM   18  C5  UNL     1      26.174   0.360 -53.021  1.00  0.00     0.046 C 
BRANCH  17  19
HETATM   19  O2  UNL     1      24.863   0.254 -51.075  1.00  0.00    -0.373 OA
BRANCH  19  20
HETATM   20  C2  UNL     1      24.423  -1.029 -51.232  1.00  0.00     0.141 C 
HETATM   21  C1  UNL     1      23.104  -0.878 -52.058  1.00  0.00     0.042 C 
BRANCH  20  22
HETATM   22  C3  UNL     1      23.981  -1.625 -49.933  1.00  0.00     0.195 C 
BRANCH  22  23
HETATM   23  O1  UNL     1      24.763  -2.671 -49.474  1.00  0.00    -0.398 OA
ATOM     24  H1  UNL     1      24.312  -3.292 -48.914  1.00  0.00     0.209 HD
ENDBRANCH  22  23
ENDBRANCH  20  22
ENDBRANCH  19  20
ENDBRANCH  17  19
ENDBRANCH  12  17
BRANCH  12  25
HETATM   25  O3  UNL     1      25.617   2.469 -50.314  1.00  0.00    -0.360 OA
ATOM     26  H3  UNL     1      25.317   3.269 -50.729  1.00  0.00     0.213 HD
ENDBRANCH  12  25
ENDBRANCH   9  10
ENDBRANCH   1   9
BRANCH   8  27
HETATM   27  O6  UNL     1      30.098   1.135 -47.375  1.00  0.00    -0.355 OA
BRANCH  27  28
HETATM   28  C12 UNL     1      30.479   2.354 -46.890  1.00  0.00     0.164 C 
HETATM   29  C13 UNL     1      31.881   2.317 -46.314  1.00  0.00     0.179 C 
HETATM   30  C14 UNL     1      32.159   3.361 -45.281  1.00  0.00     0.180 C 
HETATM   31  C15 UNL     1      31.383   4.629 -45.430  1.00  0.00     0.178 C 
HETATM   32  C16 UNL     1      29.934   4.408 -45.778  1.00  0.00     0.158 C 
HETATM   33  C17 UNL     1      29.623   2.921 -45.787  1.00  0.00     0.072 C 
BRANCH  29  34
HETATM   34  O7  UNL     1      32.770   2.504 -47.401  1.00  0.00    -0.390 OA
ATOM     35  H7  UNL     1      32.862   1.659 -47.824  1.00  0.00     0.210 HD
ENDBRANCH  29  34
BRANCH  30  36
HETATM   36  O8  UNL     1      33.529   3.626 -45.301  1.00  0.00    -0.390 OA
ATOM     37  H8  UNL     1      33.675   4.437 -44.829  1.00  0.00     0.210 HD
ENDBRANCH  30  36
BRANCH  31  38
HETATM   38  O9  UNL     1      31.422   5.403 -44.276  1.00  0.00    -0.390 OA
ATOM     39  H9  UNL     1      31.793   6.263 -44.435  1.00  0.00     0.210 HD
ENDBRANCH  31  38
BRANCH  32  40
HETATM   40  O10 UNL     1      29.655   4.895 -47.047  1.00  0.00    -0.392 OA
ATOM     41  H10 UNL     1      30.458   5.095 -47.514  1.00  0.00     0.210 HD
ENDBRANCH  32  40
BRANCH  33  42
HETATM   42  C18 UNL     1      28.189   2.616 -45.815  1.00  0.00     0.174 C 
BRANCH  42  43
HETATM   43  O11 UNL     1      27.618   3.083 -46.995  1.00  0.00    -0.400 OA
ATOM     44  H11 UNL     1      28.231   3.638 -47.461  1.00  0.00     0.209 HD
ENDBRANCH  42  43
ENDBRANCH  33  42
ENDBRANCH  27  28
ENDBRANCH   8  27
BRANCH   5  45
HETATM   45  O5  UNL     1      32.013   0.751 -52.385  1.00  0.00    -0.357 OA
ATOM     46  H5  UNL     1      31.373   1.249 -52.878  1.00  0.00     0.213 HD
ENDBRANCH   5  45
TORSDOF 17
ENDMDL
