MODEL 1
REMARK VINA RESULT: -7.097378156      0.000      0.000
REMARK  20 active torsions:
REMARK  status: ('A' for Active; 'I' for Inactive)
REMARK    1  A    between atoms: N1_1  and  N2_4 
REMARK    2  A    between atoms: N3_6  and  C1_8 
REMARK    3  A    between atoms: C1_8  and  C2_9 
REMARK    4  A    between atoms: C3_11  and  N4_12 
REMARK    5  A    between atoms: N4_12  and  O2_13 
REMARK    6  A    between atoms: C4_15  and  N5_16 
REMARK    7  A    between atoms: C5_20  and  O3_21 
REMARK    8  A    between atoms: O3_21  and  C6_22 
REMARK    9  A    between atoms: C7_23  and  N6_24 
REMARK   10  A    between atoms: C9_29  and  N7_30 
REMARK   11  A    between atoms: C10_34  and  O4_35 
REMARK   12  A    between atoms: O4_35  and  C11_36 
REMARK   13  A    between atoms: C12_37  and  N8_38 
REMARK   14  A    between atoms: C14_43  and  N9_44 
REMARK   15  A    between atoms: C15_48  and  O5_49 
REMARK   16  A    between atoms: C16_51  and  O6_52 
REMARK   17  A    between atoms: C17_54  and  O7_55 
REMARK   18  A    between atoms: O7_55  and  C18_56 
REMARK   19  A    between atoms: C18_56  and  O8_57 
REMARK   20  A    between atoms: C18_56  and  O9_59 
ROOT
HETATM    1  C6  UNL     1      29.135   2.996 -48.441  1.00  0.00     0.186 C 
HETATM    2  C7  UNL     1      28.355   4.124 -47.741  1.00  0.00     0.217 C 
HETATM    3  C8  UNL     1      27.018   3.520 -47.461  1.00  0.00     0.071 C 
HETATM    4  C9  UNL     1      26.289   3.329 -48.744  1.00  0.00     0.217 C 
HETATM    5  C10 UNL     1      27.062   2.723 -49.854  1.00  0.00     0.184 C 
HETATM    6  C17 UNL     1      28.546   2.872 -49.798  1.00  0.00     0.189 C 
ENDROOT
BRANCH   1   7
HETATM    7  O3  UNL     1      30.437   3.428 -48.469  1.00  0.00    -0.349 OA
BRANCH   7   8
HETATM    8  C5  UNL     1      31.390   2.425 -48.404  1.00  0.00     0.298 C 
HETATM    9  C4  UNL     1      31.067   1.547 -47.216  1.00  0.00     0.284 C 
HETATM   10  C3  UNL     1      32.026   0.410 -47.198  1.00  0.00     0.279 C 
HETATM   11  O1  UNL     1      32.689   0.108 -48.324  1.00  0.00    -0.334 OA
HETATM   12  C2  UNL     1      32.414   0.722 -49.478  1.00  0.00     0.284 C 
HETATM   13  O10 UNL     1      31.335   1.575 -49.510  1.00  0.00    -0.328 OA
BRANCH   9  14
HETATM   14  N5  UNL     1      31.089   2.252 -45.955  1.00  0.00    -0.067 N 
ATOM     15  H53 UNL     1      31.823   1.902 -45.339  1.00  0.00     0.275 HD
ATOM     16  H52 UNL     1      31.423   3.210 -46.064  1.00  0.00     0.275 HD
ATOM     17  H51 UNL     1      30.173   2.220 -45.509  1.00  0.00     0.275 HD
ENDBRANCH   9  14
BRANCH  10  18
HETATM   18  N4  UNL     1      31.368  -0.812 -46.705  1.00  0.00    -0.069 NA
BRANCH  18  19
HETATM   19  O2  UNL     1      31.309  -0.823 -45.355  1.00  0.00    -0.294 OA
ATOM     20  H2  UNL     1      31.247  -1.710 -45.022  1.00  0.00     0.238 HD
ENDBRANCH  18  19
ENDBRANCH  10  18
BRANCH  12  21
HETATM   21  C1  UNL     1      32.236  -0.294 -50.597  1.00  0.00     0.201 C 
BRANCH  21  22
HETATM   22  N3  UNL     1      32.179   0.353 -51.896  1.00  0.00    -0.318 N 
HETATM   23  N2  UNL     1      31.096   0.808 -52.309  1.00  0.00    -0.254 N 
ATOM     24  H2  UNL     1      30.766   0.032 -52.881  1.00  0.00     0.207 HD
ATOM     25  H3  UNL     1      33.021   0.434 -52.467  1.00  0.00     0.181 HD
BRANCH  23  26
HETATM   26  N1  UNL     1      30.164   1.624 -52.456  1.00  0.00    -0.331 N 
ATOM     27  H12 UNL     1      30.705   2.480 -52.337  1.00  0.00     0.178 HD
ATOM     28  H11 UNL     1      29.214   1.956 -52.619  1.00  0.00     0.178 HD
ENDBRANCH  23  26
ENDBRANCH  21  22
ENDBRANCH  12  21
ENDBRANCH   7   8
ENDBRANCH   1   7
BRANCH   2  29
HETATM   29  N6  UNL     1      29.063   4.524 -46.542  1.00  0.00    -0.072 N 
ATOM     30  H63 UNL     1      28.770   3.990 -45.725  1.00  0.00     0.274 HD
ATOM     31  H62 UNL     1      30.042   4.240 -46.559  1.00  0.00     0.274 HD
ATOM     32  H61 UNL     1      28.954   5.529 -46.405  1.00  0.00     0.274 HD
ENDBRANCH   2  29
BRANCH   6  33
HETATM   33  O7  UNL     1      28.961   4.019 -50.514  1.00  0.00    -0.329 OA
BRANCH  33  34
HETATM   34  C18 UNL     1      28.062   4.415 -51.471  1.00  0.00     0.408 C 
BRANCH  34  35
HETATM   35  O8  UNL     1      28.639   4.162 -52.731  1.00  0.00    -0.350 OA
ATOM     36  H8  UNL     1      29.481   4.602 -52.756  1.00  0.00     0.215 HD
ENDBRANCH  34  35
BRANCH  34  37
HETATM   37  O9  UNL     1      27.812   5.784 -51.336  1.00  0.00    -0.350 OA
ATOM     38  H9  UNL     1      27.502   6.132 -52.164  1.00  0.00     0.215 HD
ENDBRANCH  34  37
ENDBRANCH  33  34
ENDBRANCH   6  33
BRANCH   5  39
HETATM   39  O4  UNL     1      26.760   1.368 -49.982  1.00  0.00    -0.371 OA
BRANCH  39  40
HETATM   40  C11 UNL     1      25.828   1.111 -50.984  1.00  0.00     0.183 C 
HETATM   41  C12 UNL     1      26.414   0.362 -52.151  1.00  0.00     0.217 C 
HETATM   42  C13 UNL     1      25.432  -0.443 -52.930  1.00  0.00     0.071 C 
HETATM   43  C14 UNL     1      24.460  -1.229 -52.122  1.00  0.00     0.216 C 
HETATM   44  C15 UNL     1      23.728  -0.252 -51.221  1.00  0.00     0.179 C 
HETATM   45  C16 UNL     1      24.719   0.338 -50.287  1.00  0.00     0.180 C 
BRANCH  41  46
HETATM   46  N8  UNL     1      27.001   1.307 -53.114  1.00  0.00    -0.072 N 
ATOM     47  H83 UNL     1      26.482   2.184 -53.153  1.00  0.00     0.274 HD
ATOM     48  H82 UNL     1      27.895   1.677 -52.790  1.00  0.00     0.274 HD
ATOM     49  H81 UNL     1      27.078   0.868 -54.032  1.00  0.00     0.274 HD
ENDBRANCH  41  46
BRANCH  43  50
HETATM   50  N9  UNL     1      23.507  -1.859 -52.987  1.00  0.00    -0.072 N 
ATOM     51  H93 UNL     1      23.854  -2.741 -53.363  1.00  0.00     0.274 HD
ATOM     52  H92 UNL     1      22.705  -2.223 -52.473  1.00  0.00     0.274 HD
ATOM     53  H91 UNL     1      23.229  -1.212 -53.725  1.00  0.00     0.274 HD
ENDBRANCH  43  50
BRANCH  44  54
HETATM   54  O5  UNL     1      23.159   0.730 -52.017  1.00  0.00    -0.391 OA
ATOM     55  H5  UNL     1      22.872   1.440 -51.455  1.00  0.00     0.210 HD
ENDBRANCH  44  54
BRANCH  45  56
HETATM   56  O6  UNL     1      25.225  -0.594 -49.413  1.00  0.00    -0.390 OA
ATOM     57  H6  UNL     1      24.668  -0.696 -48.650  1.00  0.00     0.210 HD
ENDBRANCH  45  56
ENDBRANCH  39  40
ENDBRANCH   5  39
BRANCH   4  58
HETATM   58  N7  UNL     1      25.682   4.601 -49.096  1.00  0.00    -0.072 N 
ATOM     59  H73 UNL     1      24.819   4.785 -48.585  1.00  0.00     0.274 HD
ATOM     60  H72 UNL     1      26.212   5.403 -48.753  1.00  0.00     0.274 HD
ATOM     61  H71 UNL     1      25.555   4.612 -50.108  1.00  0.00     0.274 HD
ENDBRANCH   4  58
TORSDOF 20
ENDMDL
MODEL 2
REMARK VINA RESULT: -6.753625885      1.012      1.299
REMARK  20 active torsions:
REMARK  status: ('A' for Active; 'I' for Inactive)
REMARK    1  A    between atoms: N1_1  and  N2_4 
REMARK    2  A    between atoms: N3_6  and  C1_8 
REMARK    3  A    between atoms: C1_8  and  C2_9 
REMARK    4  A    between atoms: C3_11  and  N4_12 
REMARK    5  A    between atoms: N4_12  and  O2_13 
REMARK    6  A    between atoms: C4_15  and  N5_16 
REMARK    7  A    between atoms: C5_20  and  O3_21 
REMARK    8  A    between atoms: O3_21  and  C6_22 
REMARK    9  A    between atoms: C7_23  and  N6_24 
REMARK   10  A    between atoms: C9_29  and  N7_30 
REMARK   11  A    between atoms: C10_34  and  O4_35 
REMARK   12  A    between atoms: O4_35  and  C11_36 
REMARK   13  A    between atoms: C12_37  and  N8_38 
REMARK   14  A    between atoms: C14_43  and  N9_44 
REMARK   15  A    between atoms: C15_48  and  O5_49 
REMARK   16  A    between atoms: C16_51  and  O6_52 
REMARK   17  A    between atoms: C17_54  and  O7_55 
REMARK   18  A    between atoms: O7_55  and  C18_56 
REMARK   19  A    between atoms: C18_56  and  O8_57 
REMARK   20  A    between atoms: C18_56  and  O9_59 
ROOT
HETATM    1  C6  UNL     1      28.899   3.125 -48.298  1.00  0.00     0.186 C 
HETATM    2  C7  UNL     1      28.035   4.085 -47.460  1.00  0.00     0.217 C 
HETATM    3  C8  UNL     1      26.785   3.310 -47.197  1.00  0.00     0.071 C 
HETATM    4  C9  UNL     1      26.023   3.164 -48.465  1.00  0.00     0.217 C 
HETATM    5  C10 UNL     1      26.805   2.760 -49.658  1.00  0.00     0.184 C 
HETATM    6  C17 UNL     1      28.265   3.069 -49.640  1.00  0.00     0.189 C 
ENDROOT
BRANCH   1   7
HETATM    7  O3  UNL     1      30.144   3.702 -48.328  1.00  0.00    -0.349 OA
BRANCH   7   8
HETATM    8  C5  UNL     1      31.175   2.855 -48.700  1.00  0.00     0.298 C 
HETATM    9  C4  UNL     1      31.294   1.772 -47.652  1.00  0.00     0.284 C 
HETATM   10  C3  UNL     1      32.331   0.802 -48.095  1.00  0.00     0.279 C 
HETATM   11  O1  UNL     1      32.675   0.774 -49.391  1.00  0.00    -0.334 OA
HETATM   12  C2  UNL     1      32.023   1.504 -50.299  1.00  0.00     0.284 C 
HETATM   13  O10 UNL     1      30.896   2.181 -49.890  1.00  0.00    -0.328 OA
BRANCH   9  14
HETATM   14  N5  UNL     1      31.600   2.278 -46.334  1.00  0.00    -0.067 N 
ATOM     15  H53 UNL     1      30.833   2.117 -45.679  1.00  0.00     0.275 HD
ATOM     16  H52 UNL     1      32.316   1.718 -45.870  1.00  0.00     0.275 HD
ATOM     17  H51 UNL     1      31.859   3.263 -46.377  1.00  0.00     0.275 HD
ENDBRANCH   9  14
BRANCH  10  18
HETATM   18  N4  UNL     1      31.970  -0.564 -47.681  1.00  0.00    -0.069 NA
BRANCH  18  19
HETATM   19  O2  UNL     1      31.915  -1.398 -48.742  1.00  0.00    -0.294 OA
ATOM     20  H2  UNL     1      31.259  -1.114 -49.368  1.00  0.00     0.238 HD
ENDBRANCH  18  19
ENDBRANCH  10  18
BRANCH  12  21
HETATM   21  C1  UNL     1      31.641   0.650 -51.500  1.00  0.00     0.201 C 
BRANCH  21  22
HETATM   22  N3  UNL     1      32.797  -0.028 -52.057  1.00  0.00    -0.318 N 
HETATM   23  N2  UNL     1      33.678  -0.469 -51.293  1.00  0.00    -0.254 N 
ATOM     24  H2  UNL     1      34.348   0.300 -51.308  1.00  0.00     0.207 HD
ATOM     25  H3  UNL     1      32.889  -0.144 -53.067  1.00  0.00     0.181 HD
BRANCH  23  26
HETATM   26  N1  UNL     1      34.249  -1.266 -50.523  1.00  0.00    -0.331 N 
ATOM     27  H12 UNL     1      35.106  -0.732 -50.377  1.00  0.00     0.178 HD
ATOM     28  H11 UNL     1      34.385  -2.105 -49.960  1.00  0.00     0.178 HD
ENDBRANCH  23  26
ENDBRANCH  21  22
ENDBRANCH  12  21
ENDBRANCH   7   8
ENDBRANCH   1   7
BRANCH   2  29
HETATM   29  N6  UNL     1      28.749   4.444 -46.253  1.00  0.00    -0.072 N 
ATOM     30  H63 UNL     1      28.122   4.747 -45.508  1.00  0.00     0.274 HD
ATOM     31  H62 UNL     1      29.148   3.630 -45.784  1.00  0.00     0.274 HD
ATOM     32  H61 UNL     1      29.454   5.147 -46.473  1.00  0.00     0.274 HD
ENDBRANCH   2  29
BRANCH   6  33
HETATM   33  O7  UNL     1      28.519   4.320 -50.249  1.00  0.00    -0.329 OA
BRANCH  33  34
HETATM   34  C18 UNL     1      27.777   4.531 -51.382  1.00  0.00     0.408 C 
BRANCH  34  35
HETATM   35  O8  UNL     1      28.503   4.012 -52.472  1.00  0.00    -0.350 OA
ATOM     36  H8  UNL     1      29.080   4.698 -52.787  1.00  0.00     0.215 HD
ENDBRANCH  34  35
BRANCH  34  37
HETATM   37  O9  UNL     1      27.580   5.904 -51.560  1.00  0.00    -0.350 OA
ATOM     38  H9  UNL     1      27.059   6.050 -52.341  1.00  0.00     0.215 HD
ENDBRANCH  34  37
ENDBRANCH  33  34
ENDBRANCH   6  33
BRANCH   5  39
HETATM   39  O4  UNL     1      26.646   1.398 -49.913  1.00  0.00    -0.371 OA
BRANCH  39  40
HETATM   40  C11 UNL     1      25.757   1.140 -50.953  1.00  0.00     0.183 C 
HETATM   41  C12 UNL     1      26.403   0.427 -52.111  1.00  0.00     0.217 C 
HETATM   42  C13 UNL     1      25.468  -0.385 -52.940  1.00  0.00     0.071 C 
HETATM   43  C14 UNL     1      24.487  -1.209 -52.184  1.00  0.00     0.216 C 
HETATM   44  C15 UNL     1      23.700  -0.267 -51.292  1.00  0.00     0.179 C 
HETATM   45  C16 UNL     1      24.643   0.328 -50.312  1.00  0.00     0.180 C 
BRANCH  41  46
HETATM   46  N8  UNL     1      27.002   1.404 -53.034  1.00  0.00    -0.072 N 
ATOM     47  H83 UNL     1      28.005   1.261 -53.143  1.00  0.00     0.274 HD
ATOM     48  H82 UNL     1      26.722   1.237 -54.002  1.00  0.00     0.274 HD
ATOM     49  H81 UNL     1      26.781   2.352 -52.730  1.00  0.00     0.274 HD
ENDBRANCH  41  46
BRANCH  43  50
HETATM   50  N9  UNL     1      23.581  -1.843 -53.094  1.00  0.00    -0.072 N 
ATOM     51  H93 UNL     1      22.633  -1.476 -53.011  1.00  0.00     0.274 HD
ATOM     52  H92 UNL     1      23.759  -1.575 -54.061  1.00  0.00     0.274 HD
ATOM     53  H91 UNL     1      23.612  -2.855 -52.964  1.00  0.00     0.274 HD
ENDBRANCH  43  50
BRANCH  44  54
HETATM   54  O5  UNL     1      23.138   0.718 -52.089  1.00  0.00    -0.391 OA
ATOM     55  H5  UNL     1      22.623   1.293 -51.535  1.00  0.00     0.210 HD
ENDBRANCH  44  54
BRANCH  45  56
HETATM   56  O6  UNL     1      25.139  -0.609 -49.436  1.00  0.00    -0.390 OA
ATOM     57  H6  UNL     1      24.791  -1.474 -49.618  1.00  0.00     0.210 HD
ENDBRANCH  45  56
ENDBRANCH  39  40
ENDBRANCH   5  39
BRANCH   4  58
HETATM   58  N7  UNL     1      25.266   4.388 -48.664  1.00  0.00    -0.072 N 
ATOM     59  H73 UNL     1      25.860   5.209 -48.775  1.00  0.00     0.274 HD
ATOM     60  H72 UNL     1      24.811   4.429 -49.576  1.00  0.00     0.274 HD
ATOM     61  H71 UNL     1      24.610   4.473 -47.887  1.00  0.00     0.274 HD
ENDBRANCH   4  58
TORSDOF 20
ENDMDL
MODEL 3
REMARK VINA RESULT: -5.552532208      1.293      2.848
REMARK  20 active torsions:
REMARK  status: ('A' for Active; 'I' for Inactive)
REMARK    1  A    between atoms: N1_1  and  N2_4 
REMARK    2  A    between atoms: N3_6  and  C1_8 
REMARK    3  A    between atoms: C1_8  and  C2_9 
REMARK    4  A    between atoms: C3_11  and  N4_12 
REMARK    5  A    between atoms: N4_12  and  O2_13 
REMARK    6  A    between atoms: C4_15  and  N5_16 
REMARK    7  A    between atoms: C5_20  and  O3_21 
REMARK    8  A    between atoms: O3_21  and  C6_22 
REMARK    9  A    between atoms: C7_23  and  N6_24 
REMARK   10  A    between atoms: C9_29  and  N7_30 
REMARK   11  A    between atoms: C10_34  and  O4_35 
REMARK   12  A    between atoms: O4_35  and  C11_36 
REMARK   13  A    between atoms: C12_37  and  N8_38 
REMARK   14  A    between atoms: C14_43  and  N9_44 
REMARK   15  A    between atoms: C15_48  and  O5_49 
REMARK   16  A    between atoms: C16_51  and  O6_52 
REMARK   17  A    between atoms: C17_54  and  O7_55 
REMARK   18  A    between atoms: O7_55  and  C18_56 
REMARK   19  A    between atoms: C18_56  and  O8_57 
REMARK   20  A    between atoms: C18_56  and  O9_59 
ROOT
HETATM    1  C6  UNL     1      29.214   2.134 -48.883  1.00  0.00     0.186 C 
HETATM    2  C7  UNL     1      28.926   3.576 -48.425  1.00  0.00     0.217 C 
HETATM    3  C8  UNL     1      27.490   3.545 -48.013  1.00  0.00     0.071 C 
HETATM    4  C9  UNL     1      26.638   3.380 -49.221  1.00  0.00     0.217 C 
HETATM    5  C10 UNL     1      27.064   2.342 -50.188  1.00  0.00     0.184 C 
HETATM    6  C17 UNL     1      28.509   1.968 -50.179  1.00  0.00     0.189 C 
ENDROOT
BRANCH   1   7
HETATM    7  O3  UNL     1      30.578   2.068 -49.014  1.00  0.00    -0.349 OA
BRANCH   7   8
HETATM    8  C5  UNL     1      31.116   0.796 -48.914  1.00  0.00     0.298 C 
HETATM    9  C4  UNL     1      32.313   0.718 -49.834  1.00  0.00     0.284 C 
HETATM   10  C3  UNL     1      32.956  -0.612 -49.657  1.00  0.00     0.279 C 
HETATM   11  O1  UNL     1      32.690  -1.312 -48.546  1.00  0.00    -0.334 OA
HETATM   12  C2  UNL     1      31.968  -0.791 -47.550  1.00  0.00     0.284 C 
HETATM   13  O10 UNL     1      31.621   0.538 -47.638  1.00  0.00    -0.328 OA
BRANCH   9  14
HETATM   14  N5  UNL     1      31.986   0.946 -51.223  1.00  0.00    -0.067 N 
ATOM     15  H53 UNL     1      32.683   1.531 -51.685  1.00  0.00     0.275 HD
ATOM     16  H52 UNL     1      32.102   0.100 -51.783  1.00  0.00     0.275 HD
ATOM     17  H51 UNL     1      31.047   1.333 -51.314  1.00  0.00     0.275 HD
ENDBRANCH   9  14
BRANCH  10  18
HETATM   18  N4  UNL     1      34.417  -0.501 -49.799  1.00  0.00    -0.069 NA
BRANCH  18  19
HETATM   19  O2  UNL     1      35.035  -1.627 -49.382  1.00  0.00    -0.294 OA
ATOM     20  H2  UNL     1      35.561  -2.007 -50.076  1.00  0.00     0.238 HD
ENDBRANCH  18  19
ENDBRANCH  10  18
BRANCH  12  21
HETATM   21  C1  UNL     1      32.666  -1.001 -46.214  1.00  0.00     0.201 C 
BRANCH  21  22
HETATM   22  N3  UNL     1      31.794  -0.667 -45.103  1.00  0.00    -0.318 N 
HETATM   23  N2  UNL     1      30.848   0.124 -45.280  1.00  0.00    -0.254 N 
ATOM     24  H2  UNL     1      31.271   1.001 -44.977  1.00  0.00     0.207 HD
ATOM     25  H3  UNL     1      31.953  -1.078 -44.182  1.00  0.00     0.181 HD
BRANCH  23  26
HETATM   26  N1  UNL     1      29.706   0.510 -45.598  1.00  0.00    -0.331 N 
ATOM     27  H12 UNL     1      29.979   1.197 -46.301  1.00  0.00     0.178 HD
ATOM     28  H11 UNL     1      28.687   0.561 -45.590  1.00  0.00     0.178 HD
ENDBRANCH  23  26
ENDBRANCH  21  22
ENDBRANCH  12  21
ENDBRANCH   7   8
ENDBRANCH   1   7
BRANCH   2  29
HETATM   29  N6  UNL     1      29.822   3.923 -47.343  1.00  0.00    -0.072 N 
ATOM     30  H63 UNL     1      29.363   4.482 -46.625  1.00  0.00     0.274 HD
ATOM     31  H62 UNL     1      30.063   3.117 -46.767  1.00  0.00     0.274 HD
ATOM     32  H61 UNL     1      30.648   4.387 -47.723  1.00  0.00     0.274 HD
ENDBRANCH   2  29
BRANCH   6  33
HETATM   33  O7  UNL     1      29.230   2.738 -51.122  1.00  0.00    -0.329 OA
BRANCH  33  34
HETATM   34  C18 UNL     1      28.473   3.126 -52.197  1.00  0.00     0.408 C 
BRANCH  34  35
HETATM   35  O8  UNL     1      29.181   2.783 -53.366  1.00  0.00    -0.350 OA
ATOM     36  H8  UNL     1      29.862   2.168 -53.120  1.00  0.00     0.215 HD
ENDBRANCH  34  35
BRANCH  34  37
HETATM   37  O9  UNL     1      28.281   4.511 -52.154  1.00  0.00    -0.350 OA
ATOM     38  H9  UNL     1      28.215   4.793 -51.249  1.00  0.00     0.215 HD
ENDBRANCH  34  37
ENDBRANCH  33  34
ENDBRANCH   6  33
BRANCH   5  39
HETATM   39  O4  UNL     1      26.308   1.181 -50.030  1.00  0.00    -0.371 OA
BRANCH  39  40
HETATM   40  C11 UNL     1      25.397   0.980 -51.063  1.00  0.00     0.183 C 
HETATM   41  C12 UNL     1      25.971   0.180 -52.202  1.00  0.00     0.217 C 
HETATM   42  C13 UNL     1      24.963  -0.562 -53.011  1.00  0.00     0.071 C 
HETATM   43  C14 UNL     1      23.910  -1.271 -52.234  1.00  0.00     0.216 C 
HETATM   44  C15 UNL     1      23.216  -0.236 -51.368  1.00  0.00     0.179 C 
HETATM   45  C16 UNL     1      24.212   0.293 -50.402  1.00  0.00     0.180 C 
BRANCH  41  46
HETATM   46  N8  UNL     1      26.657   1.072 -53.150  1.00  0.00    -0.072 N 
ATOM     47  H83 UNL     1      26.000   1.561 -53.758  1.00  0.00     0.274 HD
ATOM     48  H82 UNL     1      27.063   1.884 -52.685  1.00  0.00     0.274 HD
ATOM     49  H81 UNL     1      27.352   0.548 -53.683  1.00  0.00     0.274 HD
ENDBRANCH  41  46
BRANCH  43  50
HETATM   50  N9  UNL     1      22.947  -1.841 -53.128  1.00  0.00    -0.072 N 
ATOM     51  H93 UNL     1      23.383  -2.439 -53.830  1.00  0.00     0.274 HD
ATOM     52  H92 UNL     1      22.370  -2.547 -52.671  1.00  0.00     0.274 HD
ATOM     53  H91 UNL     1      22.386  -1.101 -53.550  1.00  0.00     0.274 HD
ENDBRANCH  43  50
BRANCH  44  54
HETATM   54  O5  UNL     1      22.747   0.776 -52.191  1.00  0.00    -0.391 OA
ATOM     55  H5  UNL     1      22.175   1.336 -51.679  1.00  0.00     0.210 HD
ENDBRANCH  44  54
BRANCH  45  56
HETATM   56  O6  UNL     1      24.620  -0.663 -49.503  1.00  0.00    -0.390 OA
ATOM     57  H6  UNL     1      23.888  -1.180 -49.187  1.00  0.00     0.210 HD
ENDBRANCH  45  56
ENDBRANCH  39  40
ENDBRANCH   5  39
BRANCH   4  58
HETATM   58  N7  UNL     1      26.475   4.692 -49.823  1.00  0.00    -0.072 N 
ATOM     59  H73 UNL     1      26.954   4.781 -50.719  1.00  0.00     0.274 HD
ATOM     60  H72 UNL     1      25.528   4.859 -50.162  1.00  0.00     0.274 HD
ATOM     61  H71 UNL     1      26.780   5.385 -49.138  1.00  0.00     0.274 HD
ENDBRANCH   4  58
TORSDOF 20
ENDMDL
MODEL 4
REMARK VINA RESULT: -5.519213793      2.487      5.687
REMARK  20 active torsions:
REMARK  status: ('A' for Active; 'I' for Inactive)
REMARK    1  A    between atoms: N1_1  and  N2_4 
REMARK    2  A    between atoms: N3_6  and  C1_8 
REMARK    3  A    between atoms: C1_8  and  C2_9 
REMARK    4  A    between atoms: C3_11  and  N4_12 
REMARK    5  A    between atoms: N4_12  and  O2_13 
REMARK    6  A    between atoms: C4_15  and  N5_16 
REMARK    7  A    between atoms: C5_20  and  O3_21 
REMARK    8  A    between atoms: O3_21  and  C6_22 
REMARK    9  A    between atoms: C7_23  and  N6_24 
REMARK   10  A    between atoms: C9_29  and  N7_30 
REMARK   11  A    between atoms: C10_34  and  O4_35 
REMARK   12  A    between atoms: O4_35  and  C11_36 
REMARK   13  A    between atoms: C12_37  and  N8_38 
REMARK   14  A    between atoms: C14_43  and  N9_44 
REMARK   15  A    between atoms: C15_48  and  O5_49 
REMARK   16  A    between atoms: C16_51  and  O6_52 
REMARK   17  A    between atoms: C17_54  and  O7_55 
REMARK   18  A    between atoms: O7_55  and  C18_56 
REMARK   19  A    between atoms: C18_56  and  O8_57 
REMARK   20  A    between atoms: C18_56  and  O9_59 
ROOT
HETATM    1  C6  UNL     1      27.772   2.742 -49.143  1.00  0.00     0.186 C 
HETATM    2  C7  UNL     1      26.894   1.938 -50.120  1.00  0.00     0.217 C 
HETATM    3  C8  UNL     1      27.870   1.088 -50.867  1.00  0.00     0.071 C 
HETATM    4  C9  UNL     1      28.691   1.951 -51.757  1.00  0.00     0.217 C 
HETATM    5  C10 UNL     1      29.232   3.191 -51.151  1.00  0.00     0.184 C 
HETATM    6  C17 UNL     1      28.500   3.737 -49.971  1.00  0.00     0.189 C 
ENDROOT
BRANCH   1   7
HETATM    7  O3  UNL     1      26.888   3.328 -48.272  1.00  0.00    -0.349 OA
BRANCH   7   8
HETATM    8  C5  UNL     1      27.462   3.888 -47.142  1.00  0.00     0.298 C 
HETATM    9  C4  UNL     1      26.868   3.210 -45.929  1.00  0.00     0.284 C 
HETATM   10  C3  UNL     1      27.553   3.735 -44.716  1.00  0.00     0.279 C 
HETATM   11  O1  UNL     1      28.742   4.337 -44.858  1.00  0.00    -0.334 OA
HETATM   12  C2  UNL     1      29.373   4.363 -46.035  1.00  0.00     0.284 C 
HETATM   13  O10 UNL     1      28.833   3.632 -47.068  1.00  0.00    -0.328 OA
BRANCH   9  14
HETATM   14  N5  UNL     1      25.437   3.377 -45.819  1.00  0.00    -0.067 N 
ATOM     15  H53 UNL     1      25.115   3.256 -44.858  1.00  0.00     0.275 HD
ATOM     16  H52 UNL     1      25.158   4.349 -45.952  1.00  0.00     0.275 HD
ATOM     17  H51 UNL     1      24.952   2.753 -46.463  1.00  0.00     0.275 HD
ENDBRANCH   9  14
BRANCH  10  18
HETATM   18  N4  UNL     1      27.685   2.677 -43.701  1.00  0.00    -0.069 NA
BRANCH  18  19
HETATM   19  O2  UNL     1      27.172   1.508 -44.144  1.00  0.00    -0.294 OA
ATOM     20  H2  UNL     1      26.428   1.239 -43.619  1.00  0.00     0.238 HD
ENDBRANCH  18  19
ENDBRANCH  10  18
BRANCH  12  21
HETATM   21  C1  UNL     1      30.825   3.937 -45.874  1.00  0.00     0.201 C 
BRANCH  21  22
HETATM   22  N3  UNL     1      31.044   2.598 -46.391  1.00  0.00    -0.318 N 
HETATM   23  N2  UNL     1      30.394   1.644 -45.921  1.00  0.00    -0.254 N 
ATOM     24  H2  UNL     1      31.048   1.288 -45.225  1.00  0.00     0.207 HD
ATOM     25  H3  UNL     1      31.726   2.438 -47.132  1.00  0.00     0.181 HD
BRANCH  23  26
HETATM   26  N1  UNL     1      29.439   0.855 -45.774  1.00  0.00    -0.331 N 
ATOM     27  H12 UNL     1      29.935  -0.009 -45.994  1.00  0.00     0.178 HD
ATOM     28  H11 UNL     1      28.488   0.547 -45.574  1.00  0.00     0.178 HD
ENDBRANCH  23  26
ENDBRANCH  21  22
ENDBRANCH  12  21
ENDBRANCH   7   8
ENDBRANCH   1   7
BRANCH   2  29
HETATM   29  N6  UNL     1      25.924   1.168 -49.371  1.00  0.00    -0.072 N 
ATOM     30  H63 UNL     1      25.965   1.363 -48.371  1.00  0.00     0.274 HD
ATOM     31  H62 UNL     1      24.968   1.483 -49.540  1.00  0.00     0.274 HD
ATOM     32  H61 UNL     1      26.046   0.177 -49.577  1.00  0.00     0.274 HD
ENDBRANCH   2  29
BRANCH   6  33
HETATM   33  O7  UNL     1      27.539   4.693 -50.376  1.00  0.00    -0.329 OA
BRANCH  33  34
HETATM   34  C18 UNL     1      27.871   5.335 -51.541  1.00  0.00     0.408 C 
BRANCH  34  35
HETATM   35  O8  UNL     1      27.837   6.720 -51.291  1.00  0.00    -0.350 OA
ATOM     36  H8  UNL     1      28.607   6.941 -50.780  1.00  0.00     0.215 HD
ENDBRANCH  34  35
BRANCH  34  37
HETATM   37  O9  UNL     1      26.938   5.013 -52.532  1.00  0.00    -0.350 OA
ATOM     38  H9  UNL     1      27.212   4.221 -52.980  1.00  0.00     0.215 HD
ENDBRANCH  34  37
ENDBRANCH  33  34
ENDBRANCH   6  33
BRANCH   5  39
HETATM   39  O4  UNL     1      30.571   3.025 -50.801  1.00  0.00    -0.371 OA
BRANCH  39  40
HETATM   40  C11 UNL     1      30.910   1.697 -50.559  1.00  0.00     0.183 C 
HETATM   41  C12 UNL     1      31.883   1.148 -51.569  1.00  0.00     0.217 C 
HETATM   42  C13 UNL     1      32.720   0.019 -51.074  1.00  0.00     0.071 C 
HETATM   43  C14 UNL     1      33.285   0.186 -49.707  1.00  0.00     0.216 C 
HETATM   44  C15 UNL     1      32.119   0.415 -48.764  1.00  0.00     0.179 C 
HETATM   45  C16 UNL     1      31.467   1.694 -49.145  1.00  0.00     0.180 C 
BRANCH  41  46
HETATM   46  N8  UNL     1      31.157   0.618 -52.734  1.00  0.00    -0.072 N 
ATOM     47  H83 UNL     1      31.170  -0.401 -52.761  1.00  0.00     0.274 HD
ATOM     48  H82 UNL     1      30.149   0.752 -52.649  1.00  0.00     0.274 HD
ATOM     49  H81 UNL     1      31.527   1.029 -53.592  1.00  0.00     0.274 HD
ENDBRANCH  41  46
BRANCH  43  50
HETATM   50  N9  UNL     1      33.966  -1.010 -49.313  1.00  0.00    -0.072 N 
ATOM     51  H93 UNL     1      34.658  -1.303 -50.003  1.00  0.00     0.274 HD
ATOM     52  H92 UNL     1      34.598  -0.851 -48.529  1.00  0.00     0.274 HD
ATOM     53  H91 UNL     1      33.287  -1.746 -49.115  1.00  0.00     0.274 HD
ENDBRANCH  43  50
BRANCH  44  54
HETATM   54  O5  UNL     1      31.235  -0.643 -48.900  1.00  0.00    -0.391 OA
ATOM     55  H5  UNL     1      31.688  -1.357 -49.334  1.00  0.00     0.210 HD
ENDBRANCH  44  54
BRANCH  45  56
HETATM   56  O6  UNL     1      32.284   2.777 -48.922  1.00  0.00    -0.390 OA
ATOM     57  H6  UNL     1      32.632   2.776 -48.038  1.00  0.00     0.210 HD
ENDBRANCH  45  56
ENDBRANCH  39  40
ENDBRANCH   5  39
BRANCH   4  58
HETATM   58  N7  UNL     1      27.920   2.192 -52.965  1.00  0.00    -0.072 N 
ATOM     59  H73 UNL     1      27.679   1.334 -53.460  1.00  0.00     0.274 HD
ATOM     60  H72 UNL     1      26.969   2.507 -52.773  1.00  0.00     0.274 HD
ATOM     61  H71 UNL     1      28.449   2.848 -53.540  1.00  0.00     0.274 HD
ENDBRANCH   4  58
TORSDOF 20
ENDMDL
MODEL 5
REMARK VINA RESULT: -5.496007308      2.831      7.622
REMARK  20 active torsions:
REMARK  status: ('A' for Active; 'I' for Inactive)
REMARK    1  A    between atoms: N1_1  and  N2_4 
REMARK    2  A    between atoms: N3_6  and  C1_8 
REMARK    3  A    between atoms: C1_8  and  C2_9 
REMARK    4  A    between atoms: C3_11  and  N4_12 
REMARK    5  A    between atoms: N4_12  and  O2_13 
REMARK    6  A    between atoms: C4_15  and  N5_16 
REMARK    7  A    between atoms: C5_20  and  O3_21 
REMARK    8  A    between atoms: O3_21  and  C6_22 
REMARK    9  A    between atoms: C7_23  and  N6_24 
REMARK   10  A    between atoms: C9_29  and  N7_30 
REMARK   11  A    between atoms: C10_34  and  O4_35 
REMARK   12  A    between atoms: O4_35  and  C11_36 
REMARK   13  A    between atoms: C12_37  and  N8_38 
REMARK   14  A    between atoms: C14_43  and  N9_44 
REMARK   15  A    between atoms: C15_48  and  O5_49 
REMARK   16  A    between atoms: C16_51  and  O6_52 
REMARK   17  A    between atoms: C17_54  and  O7_55 
REMARK   18  A    between atoms: O7_55  and  C18_56 
REMARK   19  A    between atoms: C18_56  and  O8_57 
REMARK   20  A    between atoms: C18_56  and  O9_59 
ROOT
HETATM    1  C6  UNL     1      28.408   4.346 -49.570  1.00  0.00     0.186 C 
HETATM    2  C7  UNL     1      28.058   4.532 -48.082  1.00  0.00     0.217 C 
HETATM    3  C8  UNL     1      29.364   4.347 -47.378  1.00  0.00     0.071 C 
HETATM    4  C9  UNL     1      29.772   2.921 -47.471  1.00  0.00     0.217 C 
HETATM    5  C10 UNL     1      29.654   2.289 -48.806  1.00  0.00     0.184 C 
HETATM    6  C17 UNL     1      28.672   2.896 -49.751  1.00  0.00     0.189 C 
ENDROOT
BRANCH   1   7
HETATM    7  O3  UNL     1      27.295   4.768 -50.252  1.00  0.00    -0.349 OA
BRANCH   7   8
HETATM    8  C5  UNL     1      27.520   5.772 -51.180  1.00  0.00     0.298 C 
HETATM    9  C4  UNL     1      27.112   5.254 -52.540  1.00  0.00     0.284 C 
HETATM   10  C3  UNL     1      27.256   6.360 -53.526  1.00  0.00     0.279 C 
HETATM   11  O1  UNL     1      27.307   7.621 -53.075  1.00  0.00    -0.334 OA
HETATM   12  C2  UNL     1      27.108   7.908 -51.786  1.00  0.00     0.284 C 
HETATM   13  O10 UNL     1      26.710   6.886 -50.955  1.00  0.00    -0.328 OA
BRANCH   9  14
HETATM   14  N5  UNL     1      27.861   4.094 -52.964  1.00  0.00    -0.067 N 
ATOM     15  H53 UNL     1      27.735   3.905 -53.959  1.00  0.00     0.275 HD
ATOM     16  H52 UNL     1      28.865   4.272 -52.967  1.00  0.00     0.275 HD
ATOM     17  H51 UNL     1      27.623   3.284 -52.392  1.00  0.00     0.275 HD
ENDBRANCH   9  14
BRANCH  10  18
HETATM   18  N4  UNL     1      26.204   6.275 -54.553  1.00  0.00    -0.069 NA
BRANCH  18  19
HETATM   19  O2  UNL     1      25.876   7.501 -55.017  1.00  0.00    -0.294 OA
ATOM     20  H2  UNL     1      26.385   8.178 -54.587  1.00  0.00     0.238 HD
ENDBRANCH  18  19
ENDBRANCH  10  18
BRANCH  12  21
HETATM   21  C1  UNL     1      26.105   9.043 -51.638  1.00  0.00     0.201 C 
BRANCH  21  22
HETATM   22  N3  UNL     1      25.311   9.209 -52.843  1.00  0.00    -0.318 N 
HETATM   23  N2  UNL     1      24.068   9.171 -52.769  1.00  0.00    -0.254 N 
ATOM     24  H2  UNL     1      23.891   8.195 -53.003  1.00  0.00     0.207 HD
ATOM     25  H3  UNL     1      25.768   9.356 -53.743  1.00  0.00     0.181 HD
BRANCH  23  26
HETATM   26  N1  UNL     1      22.906   9.586 -52.587  1.00  0.00    -0.331 N 
ATOM     27  H12 UNL     1      23.024  10.517 -52.986  1.00  0.00     0.178 HD
ATOM     28  H11 UNL     1      21.930   9.569 -52.291  1.00  0.00     0.178 HD
ENDBRANCH  23  26
ENDBRANCH  21  22
ENDBRANCH  12  21
ENDBRANCH   7   8
ENDBRANCH   1   7
BRANCH   2  29
HETATM   29  N6  UNL     1      27.484   5.846 -47.884  1.00  0.00    -0.072 N 
ATOM     30  H63 UNL     1      26.468   5.816 -47.812  1.00  0.00     0.274 HD
ATOM     31  H62 UNL     1      27.685   6.219 -46.957  1.00  0.00     0.274 HD
ATOM     32  H61 UNL     1      27.800   6.468 -48.628  1.00  0.00     0.274 HD
ENDBRANCH   2  29
BRANCH   6  33
HETATM   33  O7  UNL     1      27.416   2.252 -49.650  1.00  0.00    -0.329 OA
BRANCH  33  34
HETATM   34  C18 UNL     1      27.096   1.512 -50.759  1.00  0.00     0.408 C 
BRANCH  34  35
HETATM   35  O8  UNL     1      28.235   1.467 -51.587  1.00  0.00    -0.350 OA
ATOM     36  H8  UNL     1      28.170   0.686 -52.125  1.00  0.00     0.215 HD
ENDBRANCH  34  35
BRANCH  34  37
HETATM   37  O9  UNL     1      26.043   2.129 -51.442  1.00  0.00    -0.350 OA
ATOM     38  H9  UNL     1      26.184   2.050 -52.378  1.00  0.00     0.215 HD
ENDBRANCH  34  37
ENDBRANCH  33  34
ENDBRANCH   6  33
BRANCH   5  39
HETATM   39  O4  UNL     1      30.896   2.235 -49.437  1.00  0.00    -0.371 OA
BRANCH  39  40
HETATM   40  C11 UNL     1      31.346   0.933 -49.642  1.00  0.00     0.183 C 
HETATM   41  C12 UNL     1      31.986   0.740 -50.991  1.00  0.00     0.217 C 
HETATM   42  C13 UNL     1      32.979  -0.368 -51.055  1.00  0.00     0.071 C 
HETATM   43  C14 UNL     1      33.926  -0.451 -49.910  1.00  0.00     0.216 C 
HETATM   44  C15 UNL     1      33.096  -0.575 -48.647  1.00  0.00     0.179 C 
HETATM   45  C16 UNL     1      32.308   0.674 -48.494  1.00  0.00     0.180 C 
BRANCH  41  46
HETATM   46  N8  UNL     1      30.961   0.409 -51.993  1.00  0.00    -0.072 N 
ATOM     47  H83 UNL     1      30.050   0.243 -51.567  1.00  0.00     0.274 HD
ATOM     48  H82 UNL     1      30.712   1.216 -52.567  1.00  0.00     0.274 HD
ATOM     49  H81 UNL     1      31.268  -0.383 -52.559  1.00  0.00     0.274 HD
ENDBRANCH  41  46
BRANCH  43  50
HETATM   50  N9  UNL     1      34.744  -1.620 -50.039  1.00  0.00    -0.072 N 
ATOM     51  H93 UNL     1      34.260  -2.462 -49.729  1.00  0.00     0.274 HD
ATOM     52  H92 UNL     1      34.886  -1.883 -51.014  1.00  0.00     0.274 HD
ATOM     53  H91 UNL     1      35.626  -1.482 -49.546  1.00  0.00     0.274 HD
ENDBRANCH  43  50
BRANCH  44  54
HETATM   54  O5  UNL     1      32.256  -1.669 -48.784  1.00  0.00    -0.391 OA
ATOM     55  H5  UNL     1      32.016  -1.972 -47.916  1.00  0.00     0.210 HD
ENDBRANCH  44  54
BRANCH  45  56
HETATM   56  O6  UNL     1      33.110   1.765 -48.250  1.00  0.00    -0.390 OA
ATOM     57  H6  UNL     1      33.654   1.633 -47.483  1.00  0.00     0.210 HD
ENDBRANCH  45  56
ENDBRANCH  39  40
ENDBRANCH   5  39
BRANCH   4  58
HETATM   58  N7  UNL     1      29.066   2.195 -46.429  1.00  0.00    -0.072 N 
ATOM     59  H73 UNL     1      28.169   1.823 -46.741  1.00  0.00     0.274 HD
ATOM     60  H72 UNL     1      29.506   1.304 -46.197  1.00  0.00     0.274 HD
ATOM     61  H71 UNL     1      28.980   2.817 -45.625  1.00  0.00     0.274 HD
ENDBRANCH   4  58
TORSDOF 20
ENDMDL
