MODEL 1
REMARK VINA RESULT: -9.874867902      0.000      0.000
REMARK  17 active torsions:
REMARK  status: ('A' for Active; 'I' for Inactive)
REMARK    1  A    between atoms: C2_2  and  O1_3 
REMARK    2  A    between atoms: C3_5  and  C4_6 
REMARK    3  A    between atoms: C4_6  and  N2_11 
REMARK    4  A    between atoms: N1_7  and  O2_9 
REMARK    5  A    between atoms: N2_11  and  C5_13 
REMARK    6  A    between atoms: C5_13  and  C6_14 
REMARK    7  A    between atoms: N6_21  and  C7_22 
REMARK    8  A    between atoms: C7_22  and  O3_23 
REMARK    9  A    between atoms: C7_22  and  N7_25 
REMARK   10  A    between atoms: N7_25  and  C8_28 
REMARK   11  A    between atoms: C8_28  and  C9_29 
REMARK   12  A    between atoms: C9_29  and  N8_30 
REMARK   13  A    between atoms: C11_32  and  O4_33 
REMARK   14  A    between atoms: C12_35  and  O5_36 
REMARK   15  A    between atoms: C13_38  and  O6_39 
REMARK   16  A    between atoms: C16_43  and  O7_44 
REMARK   17  A    between atoms: C17_46  and  O8_47 
ROOT
HETATM    1  C6  UNL     1      27.481   5.864 -50.992  1.00  0.00     0.138 A 
HETATM    2  N3  UNL     1      27.484   7.189 -51.112  1.00  0.00    -0.271 N 
ATOM      3  H3  UNL     1      27.485   7.873 -50.355  1.00  0.00     0.190 HD
HETATM    4  N4  UNL     1      27.485   7.440 -52.400  1.00  0.00    -0.226 N 
ATOM      5  H4  UNL     1      27.488   8.372 -52.814  1.00  0.00     0.210 HD
HETATM    6  N5  UNL     1      27.482   6.308 -53.081  1.00  0.00    -0.221 N 
ATOM      7  H5  UNL     1      27.481   6.214 -54.096  1.00  0.00     0.210 HD
HETATM    8  N6  UNL     1      27.480   5.335 -52.217  1.00  0.00    -0.208 N 
ENDROOT
BRANCH   1   9
HETATM    9  C5  UNL     1      27.478   5.086 -49.734  1.00  0.00     0.200 C 
BRANCH   9  10
HETATM   10  N2  UNL     1      28.744   4.583 -49.346  1.00  0.00    -0.371 N 
ATOM     11  H2  UNL     1      29.560   5.114 -49.650  1.00  0.00     0.161 HD
BRANCH  10  12
HETATM   12  C4  UNL     1      28.991   3.420 -48.580  1.00  0.00     0.104 C 
HETATM   13  N1  UNL     1      28.013   2.716 -48.176  1.00  0.00    -0.257 N 
ATOM     14  H1  UNL     1      28.281   1.896 -47.632  1.00  0.00     0.195 HD
BRANCH  12  15
HETATM   15  C3  UNL     1      30.411   3.023 -48.250  1.00  0.00     0.092 C 
HETATM   16  C2  UNL     1      31.262   2.735 -49.405  1.00  0.00     0.080 C 
HETATM   17  C1  UNL     1      32.701   3.255 -49.156  1.00  0.00     0.048 C 
HETATM   18  C18 UNL     1      31.401   1.285 -49.774  1.00  0.00     0.124 C 
HETATM   19  C17 UNL     1      31.625   0.403 -48.566  1.00  0.00     0.164 C 
HETATM   20  S1  UNL     1      30.029   0.680 -50.793  1.00  0.00    -0.086 SA
HETATM   21  C16 UNL     1      30.452   0.565 -47.654  1.00  0.00     0.149 C 
HETATM   22  C15 UNL     1      30.385   1.968 -47.179  1.00  0.00     0.050 C 
BRANCH  16  23
HETATM   23  O1  UNL     1      30.840   3.427 -50.525  1.00  0.00    -0.388 OA
ATOM     24  H1  UNL     1      30.505   4.246 -50.180  1.00  0.00     0.210 HD
ENDBRANCH  16  23
BRANCH  19  25
HETATM   25  O8  UNL     1      31.719  -0.916 -49.047  1.00  0.00    -0.392 OA
ATOM     26  H8  UNL     1      32.402  -1.399 -48.596  1.00  0.00     0.210 HD
ENDBRANCH  19  25
BRANCH  21  27
HETATM   27  O7  UNL     1      30.677  -0.242 -46.515  1.00  0.00    -0.393 OA
ATOM     28  H7  UNL     1      31.573  -0.550 -46.569  1.00  0.00     0.210 HD
ENDBRANCH  21  27
ENDBRANCH  12  15
BRANCH  13  29
HETATM   29  O2  UNL     1      26.698   2.861 -48.338  1.00  0.00    -0.288 OA
ATOM     30  H2  UNL     1      26.189   3.215 -49.059  1.00  0.00     0.244 HD
ENDBRANCH  13  29
ENDBRANCH  10  12
ENDBRANCH   9  10
ENDBRANCH   1   9
BRANCH   8  31
HETATM   31  C7  UNL     1      27.476   3.909 -52.538  1.00  0.00     0.450 C 
BRANCH  31  32
HETATM   32  O3  UNL     1      28.788   3.446 -52.317  1.00  0.00    -0.353 OA
ATOM     33  H3  UNL     1      28.829   2.568 -52.679  1.00  0.00     0.214 HD
ENDBRANCH  31  32
BRANCH  31  34
HETATM   34  N7  UNL     1      26.627   3.164 -51.645  1.00  0.00    -0.027 N 
ATOM     35  H72 UNL     1      26.968   3.230 -50.686  1.00  0.00     0.282 HD
ATOM     36  H71 UNL     1      25.725   3.627 -51.536  1.00  0.00     0.282 HD
BRANCH  34  37
HETATM   37  C8  UNL     1      26.448   1.783 -52.030  1.00  0.00     0.268 C 
BRANCH  37  38
HETATM   38  C9  UNL     1      26.224   0.989 -50.769  1.00  0.00     0.300 C 
BRANCH  38  39
HETATM   39  N8  UNL     1      24.877   0.455 -50.780  1.00  0.00     0.095 N 
HETATM   40  C10 UNL     1      24.503   0.196 -52.128  1.00  0.00     0.306 C 
HETATM   41  C11 UNL     1      23.403  -0.783 -52.341  1.00  0.00     0.177 C 
HETATM   42  C12 UNL     1      23.528  -1.998 -51.417  1.00  0.00     0.179 C 
HETATM   43  C13 UNL     1      23.495  -1.424 -50.018  1.00  0.00     0.177 C 
HETATM   44  C14 UNL     1      24.797  -0.628 -49.864  1.00  0.00     0.306 C 
BRANCH  41  45
HETATM   45  O4  UNL     1      22.164  -0.203 -52.080  1.00  0.00    -0.391 OA
ATOM     46  H4  UNL     1      21.837   0.257 -52.845  1.00  0.00     0.210 HD
ENDBRANCH  41  45
BRANCH  42  47
HETATM   47  O5  UNL     1      24.737  -2.651 -51.621  1.00  0.00    -0.390 OA
ATOM     48  H5  UNL     1      24.840  -3.370 -51.008  1.00  0.00     0.210 HD
ENDBRANCH  42  47
BRANCH  43  49
HETATM   49  O6  UNL     1      23.393  -2.378 -49.037  1.00  0.00    -0.391 OA
ATOM     50  H6  UNL     1      23.361  -2.017 -48.159  1.00  0.00     0.210 HD
ENDBRANCH  43  49
ENDBRANCH  38  39
ENDBRANCH  37  38
ENDBRANCH  34  37
ENDBRANCH  31  34
ENDBRANCH   8  31
TORSDOF 17
ENDMDL
MODEL 2
REMARK VINA RESULT: -9.860121552      1.545      1.868
REMARK  17 active torsions:
REMARK  status: ('A' for Active; 'I' for Inactive)
REMARK    1  A    between atoms: C2_2  and  O1_3 
REMARK    2  A    between atoms: C3_5  and  C4_6 
REMARK    3  A    between atoms: C4_6  and  N2_11 
REMARK    4  A    between atoms: N1_7  and  O2_9 
REMARK    5  A    between atoms: N2_11  and  C5_13 
REMARK    6  A    between atoms: C5_13  and  C6_14 
REMARK    7  A    between atoms: N6_21  and  C7_22 
REMARK    8  A    between atoms: C7_22  and  O3_23 
REMARK    9  A    between atoms: C7_22  and  N7_25 
REMARK   10  A    between atoms: N7_25  and  C8_28 
REMARK   11  A    between atoms: C8_28  and  C9_29 
REMARK   12  A    between atoms: C9_29  and  N8_30 
REMARK   13  A    between atoms: C11_32  and  O4_33 
REMARK   14  A    between atoms: C12_35  and  O5_36 
REMARK   15  A    between atoms: C13_38  and  O6_39 
REMARK   16  A    between atoms: C16_43  and  O7_44 
REMARK   17  A    between atoms: C17_46  and  O8_47 
ROOT
HETATM    1  C6  UNL     1      27.451   5.350 -50.852  1.00  0.00     0.138 A 
HETATM    2  N3  UNL     1      27.484   6.679 -50.907  1.00  0.00    -0.271 N 
ATOM      3  H3  UNL     1      27.495   7.325 -50.118  1.00  0.00     0.190 HD
HETATM    4  N4  UNL     1      27.500   6.993 -52.182  1.00  0.00    -0.226 N 
ATOM      5  H4  UNL     1      27.526   7.943 -52.550  1.00  0.00     0.210 HD
HETATM    6  N5  UNL     1      27.477   5.895 -52.917  1.00  0.00    -0.221 N 
ATOM      7  H5  UNL     1      27.481   5.851 -53.936  1.00  0.00     0.210 HD
HETATM    8  N6  UNL     1      27.447   4.882 -52.102  1.00  0.00    -0.208 N 
ENDROOT
BRANCH   1   9
HETATM    9  C5  UNL     1      27.422   4.512 -49.634  1.00  0.00     0.200 C 
BRANCH   9  10
HETATM   10  N2  UNL     1      28.477   4.758 -48.721  1.00  0.00    -0.371 N 
ATOM     11  H2  UNL     1      28.607   5.724 -48.422  1.00  0.00     0.161 HD
BRANCH  10  12
HETATM   12  C4  UNL     1      29.369   3.799 -48.184  1.00  0.00     0.104 C 
HETATM   13  N1  UNL     1      29.491   3.697 -46.923  1.00  0.00    -0.257 N 
ATOM     14  H1  UNL     1      30.154   2.982 -46.622  1.00  0.00     0.195 HD
BRANCH  12  15
HETATM   15  C3  UNL     1      30.164   2.908 -49.109  1.00  0.00     0.092 C 
HETATM   16  C2  UNL     1      29.785   1.496 -49.092  1.00  0.00     0.080 C 
HETATM   17  C1  UNL     1      29.868   0.899 -50.520  1.00  0.00     0.048 C 
HETATM   18  C18 UNL     1      30.618   0.601 -48.217  1.00  0.00     0.124 C 
HETATM   19  C17 UNL     1      32.098   0.874 -48.360  1.00  0.00     0.164 C 
HETATM   20  S1  UNL     1      30.101   0.631 -46.481  1.00  0.00    -0.086 SA
HETATM   21  C16 UNL     1      32.342   2.298 -47.977  1.00  0.00     0.149 C 
HETATM   22  C15 UNL     1      31.628   3.193 -48.918  1.00  0.00     0.050 C 
BRANCH  16  23
HETATM   23  O1  UNL     1      28.459   1.336 -48.734  1.00  0.00    -0.388 OA
ATOM     24  H1  UNL     1      27.980   1.829 -49.390  1.00  0.00     0.210 HD
ENDBRANCH  16  23
BRANCH  19  25
HETATM   25  O8  UNL     1      32.754  -0.009 -47.483  1.00  0.00    -0.392 OA
ATOM     26  H8  UNL     1      32.574  -0.915 -47.709  1.00  0.00     0.210 HD
ENDBRANCH  19  25
BRANCH  21  27
HETATM   27  O7  UNL     1      33.723   2.557 -48.135  1.00  0.00    -0.393 OA
ATOM     28  H7  UNL     1      34.071   2.729 -47.268  1.00  0.00     0.210 HD
ENDBRANCH  21  27
ENDBRANCH  12  15
BRANCH  13  29
HETATM   29  O2  UNL     1      28.907   4.359 -45.924  1.00  0.00    -0.288 OA
ATOM     30  H2  UNL     1      28.481   4.052 -45.132  1.00  0.00     0.244 HD
ENDBRANCH  13  29
ENDBRANCH  10  12
ENDBRANCH   9  10
ENDBRANCH   1   9
BRANCH   8  31
HETATM   31  C7  UNL     1      27.413   3.473 -52.492  1.00  0.00     0.450 C 
BRANCH  31  32
HETATM   32  O3  UNL     1      28.691   3.170 -53.002  1.00  0.00    -0.353 OA
ATOM     33  H3  UNL     1      28.673   3.394 -53.925  1.00  0.00     0.214 HD
ENDBRANCH  31  32
BRANCH  31  34
HETATM   34  N7  UNL     1      27.213   2.611 -51.357  1.00  0.00    -0.027 N 
ATOM     35  H72 UNL     1      28.097   2.202 -51.055  1.00  0.00     0.282 HD
ATOM     36  H71 UNL     1      26.986   3.156 -50.526  1.00  0.00     0.282 HD
BRANCH  34  37
HETATM   37  C8  UNL     1      26.224   1.580 -51.577  1.00  0.00     0.268 C 
BRANCH  37  38
HETATM   38  C9  UNL     1      25.497   1.367 -50.275  1.00  0.00     0.300 C 
BRANCH  38  39
HETATM   39  N8  UNL     1      24.477   0.355 -50.463  1.00  0.00     0.095 N 
HETATM   40  C10 UNL     1      24.037   0.401 -51.815  1.00  0.00     0.306 C 
HETATM   41  C11 UNL     1      23.384  -0.824 -52.349  1.00  0.00     0.177 C 
HETATM   42  C12 UNL     1      24.106  -2.100 -51.904  1.00  0.00     0.179 C 
HETATM   43  C13 UNL     1      24.061  -2.062 -50.393  1.00  0.00     0.177 C 
HETATM   44  C14 UNL     1      24.960  -0.890 -49.979  1.00  0.00     0.306 C 
BRANCH  41  45
HETATM   45  O4  UNL     1      22.071  -0.924 -51.897  1.00  0.00    -0.391 OA
ATOM     46  H4  UNL     1      21.555  -1.474 -52.474  1.00  0.00     0.210 HD
ENDBRANCH  41  45
BRANCH  42  47
HETATM   47  O5  UNL     1      25.428  -2.092 -52.328  1.00  0.00    -0.390 OA
ATOM     48  H5  UNL     1      25.987  -1.670 -51.685  1.00  0.00     0.210 HD
ENDBRANCH  42  47
BRANCH  43  49
HETATM   49  O6  UNL     1      24.484  -3.226 -49.803  1.00  0.00    -0.391 OA
ATOM     50  H6  UNL     1      25.303  -3.136 -49.330  1.00  0.00     0.210 HD
ENDBRANCH  43  49
ENDBRANCH  38  39
ENDBRANCH  37  38
ENDBRANCH  34  37
ENDBRANCH  31  34
ENDBRANCH   8  31
TORSDOF 17
ENDMDL
MODEL 3
REMARK VINA RESULT: -9.696701113      1.795      2.512
REMARK  17 active torsions:
REMARK  status: ('A' for Active; 'I' for Inactive)
REMARK    1  A    between atoms: C2_2  and  O1_3 
REMARK    2  A    between atoms: C3_5  and  C4_6 
REMARK    3  A    between atoms: C4_6  and  N2_11 
REMARK    4  A    between atoms: N1_7  and  O2_9 
REMARK    5  A    between atoms: N2_11  and  C5_13 
REMARK    6  A    between atoms: C5_13  and  C6_14 
REMARK    7  A    between atoms: N6_21  and  C7_22 
REMARK    8  A    between atoms: C7_22  and  O3_23 
REMARK    9  A    between atoms: C7_22  and  N7_25 
REMARK   10  A    between atoms: N7_25  and  C8_28 
REMARK   11  A    between atoms: C8_28  and  C9_29 
REMARK   12  A    between atoms: C9_29  and  N8_30 
REMARK   13  A    between atoms: C11_32  and  O4_33 
REMARK   14  A    between atoms: C12_35  and  O5_36 
REMARK   15  A    between atoms: C13_38  and  O6_39 
REMARK   16  A    between atoms: C16_43  and  O7_44 
REMARK   17  A    between atoms: C17_46  and  O8_47 
ROOT
HETATM    1  C6  UNL     1      27.610   4.664 -49.943  1.00  0.00     0.138 A 
HETATM    2  N3  UNL     1      27.903   5.829 -50.515  1.00  0.00    -0.271 N 
ATOM      3  H3  UNL     1      28.303   6.650 -50.062  1.00  0.00     0.190 HD
HETATM    4  N4  UNL     1      27.574   5.708 -51.780  1.00  0.00    -0.226 N 
ATOM      5  H4  UNL     1      27.681   6.439 -52.484  1.00  0.00     0.210 HD
HETATM    6  N5  UNL     1      27.086   4.502 -52.007  1.00  0.00    -0.221 N 
ATOM      7  H5  UNL     1      26.753   4.145 -52.902  1.00  0.00     0.210 HD
HETATM    8  N6  UNL     1      27.106   3.856 -50.878  1.00  0.00    -0.208 N 
ENDROOT
BRANCH   1   9
HETATM    9  C5  UNL     1      27.798   4.299 -48.522  1.00  0.00     0.200 C 
BRANCH   9  10
HETATM   10  N2  UNL     1      29.047   3.702 -48.224  1.00  0.00    -0.371 N 
ATOM     11  H2  UNL     1      29.814   3.900 -48.867  1.00  0.00     0.161 HD
BRANCH  10  12
HETATM   12  C4  UNL     1      29.338   2.857 -47.127  1.00  0.00     0.104 C 
HETATM   13  N1  UNL     1      29.265   3.318 -45.945  1.00  0.00    -0.257 N 
ATOM     14  H1  UNL     1      29.491   2.642 -45.215  1.00  0.00     0.195 HD
BRANCH  12  15
HETATM   15  C3  UNL     1      29.732   1.418 -47.368  1.00  0.00     0.092 C 
HETATM   16  C2  UNL     1      31.103   1.076 -46.993  1.00  0.00     0.080 C 
HETATM   17  C1  UNL     1      31.154  -0.347 -46.380  1.00  0.00     0.048 C 
HETATM   18  C18 UNL     1      32.112   1.086 -48.107  1.00  0.00     0.124 C 
HETATM   19  C17 UNL     1      31.594   0.413 -49.358  1.00  0.00     0.164 C 
HETATM   20  S1  UNL     1      32.757   2.742 -48.461  1.00  0.00    -0.086 SA
HETATM   21  C16 UNL     1      30.369   1.146 -49.801  1.00  0.00     0.149 C 
HETATM   22  C15 UNL     1      29.320   1.029 -48.761  1.00  0.00     0.050 C 
BRANCH  16  23
HETATM   23  O1  UNL     1      31.568   1.897 -45.982  1.00  0.00    -0.388 OA
ATOM     24  H1  UNL     1      31.288   2.767 -46.242  1.00  0.00     0.210 HD
ENDBRANCH  16  23
BRANCH  19  25
HETATM   25  O8  UNL     1      32.620   0.508 -50.316  1.00  0.00    -0.392 OA
ATOM     26  H8  UNL     1      33.402   0.050 -50.030  1.00  0.00     0.210 HD
ENDBRANCH  19  25
BRANCH  21  27
HETATM   27  O7  UNL     1      29.874   0.499 -50.957  1.00  0.00    -0.393 OA
ATOM     28  H7  UNL     1      30.037   1.082 -51.688  1.00  0.00     0.210 HD
ENDBRANCH  21  27
ENDBRANCH  12  15
BRANCH  13  29
HETATM   29  O2  UNL     1      28.946   4.530 -45.491  1.00  0.00    -0.288 OA
ATOM     30  H2  UNL     1      29.483   5.292 -45.305  1.00  0.00     0.244 HD
ENDBRANCH  13  29
ENDBRANCH  10  12
ENDBRANCH   9  10
ENDBRANCH   1   9
BRANCH   8  31
HETATM   31  C7  UNL     1      26.653   2.481 -50.673  1.00  0.00     0.450 C 
BRANCH  31  32
HETATM   32  O3  UNL     1      25.486   2.558 -49.887  1.00  0.00    -0.353 OA
ATOM     33  H3  UNL     1      24.814   2.942 -50.440  1.00  0.00     0.214 HD
ENDBRANCH  31  32
BRANCH  31  34
HETATM   34  N7  UNL     1      26.268   1.857 -51.912  1.00  0.00    -0.027 N 
ATOM     35  H72 UNL     1      25.504   2.370 -52.351  1.00  0.00     0.282 HD
ATOM     36  H71 UNL     1      26.990   1.987 -52.620  1.00  0.00     0.282 HD
BRANCH  34  37
HETATM   37  C8  UNL     1      25.932   0.457 -51.778  1.00  0.00     0.268 C 
BRANCH  37  38
HETATM   38  C9  UNL     1      24.541   0.273 -52.327  1.00  0.00     0.300 C 
BRANCH  38  39
HETATM   39  N8  UNL     1      23.714  -0.358 -51.318  1.00  0.00     0.095 N 
HETATM   40  C10 UNL     1      22.626  -1.008 -51.965  1.00  0.00     0.306 C 
HETATM   41  C11 UNL     1      21.954  -2.099 -51.209  1.00  0.00     0.177 C 
HETATM   42  C12 UNL     1      22.959  -2.999 -50.483  1.00  0.00     0.179 C 
HETATM   43  C13 UNL     1      23.712  -2.068 -49.558  1.00  0.00     0.177 C 
HETATM   44  C14 UNL     1      24.535  -1.151 -50.472  1.00  0.00     0.306 C 
BRANCH  41  45
HETATM   45  O4  UNL     1      21.102  -1.579 -50.238  1.00  0.00    -0.391 OA
ATOM     46  H4  UNL     1      20.196  -1.787 -50.436  1.00  0.00     0.210 HD
ENDBRANCH  41  45
BRANCH  42  47
HETATM   47  O5  UNL     1      23.845  -3.575 -51.382  1.00  0.00    -0.390 OA
ATOM     48  H5  UNL     1      23.492  -4.384 -51.734  1.00  0.00     0.210 HD
ENDBRANCH  42  47
BRANCH  43  49
HETATM   49  O6  UNL     1      24.527  -2.722 -48.669  1.00  0.00    -0.391 OA
ATOM     50  H6  UNL     1      25.118  -2.143 -48.201  1.00  0.00     0.210 HD
ENDBRANCH  43  49
ENDBRANCH  38  39
ENDBRANCH  37  38
ENDBRANCH  34  37
ENDBRANCH  31  34
ENDBRANCH   8  31
TORSDOF 17
ENDMDL
MODEL 4
REMARK VINA RESULT: -9.674488210      1.454      1.973
REMARK  17 active torsions:
REMARK  status: ('A' for Active; 'I' for Inactive)
REMARK    1  A    between atoms: C2_2  and  O1_3 
REMARK    2  A    between atoms: C3_5  and  C4_6 
REMARK    3  A    between atoms: C4_6  and  N2_11 
REMARK    4  A    between atoms: N1_7  and  O2_9 
REMARK    5  A    between atoms: N2_11  and  C5_13 
REMARK    6  A    between atoms: C5_13  and  C6_14 
REMARK    7  A    between atoms: N6_21  and  C7_22 
REMARK    8  A    between atoms: C7_22  and  O3_23 
REMARK    9  A    between atoms: C7_22  and  N7_25 
REMARK   10  A    between atoms: N7_25  and  C8_28 
REMARK   11  A    between atoms: C8_28  and  C9_29 
REMARK   12  A    between atoms: C9_29  and  N8_30 
REMARK   13  A    between atoms: C11_32  and  O4_33 
REMARK   14  A    between atoms: C12_35  and  O5_36 
REMARK   15  A    between atoms: C13_38  and  O6_39 
REMARK   16  A    between atoms: C16_43  and  O7_44 
REMARK   17  A    between atoms: C17_46  and  O8_47 
ROOT
HETATM    1  C6  UNL     1      27.557   5.097 -50.784  1.00  0.00     0.138 A 
HETATM    2  N3  UNL     1      27.583   6.424 -50.682  1.00  0.00    -0.271 N 
ATOM      3  H3  UNL     1      27.602   6.971 -49.821  1.00  0.00     0.190 HD
HETATM    4  N4  UNL     1      27.581   6.886 -51.910  1.00  0.00    -0.226 N 
ATOM      5  H4  UNL     1      27.598   7.873 -52.163  1.00  0.00     0.210 HD
HETATM    6  N5  UNL     1      27.553   5.883 -52.769  1.00  0.00    -0.221 N 
ATOM      7  H5  UNL     1      27.543   5.960 -53.786  1.00  0.00     0.210 HD
HETATM    8  N6  UNL     1      27.539   4.780 -52.080  1.00  0.00    -0.208 N 
ENDROOT
BRANCH   1   9
HETATM    9  C5  UNL     1      27.549   4.121 -49.673  1.00  0.00     0.200 C 
BRANCH   9  10
HETATM   10  N2  UNL     1      28.820   3.598 -49.335  1.00  0.00    -0.371 N 
ATOM     11  H2  UNL     1      29.512   3.557 -50.084  1.00  0.00     0.161 HD
BRANCH  10  12
HETATM   12  C4  UNL     1      29.229   3.125 -48.065  1.00  0.00     0.104 C 
HETATM   13  N1  UNL     1      29.301   3.936 -47.089  1.00  0.00    -0.257 N 
ATOM     14  H1  UNL     1      29.602   3.512 -46.212  1.00  0.00     0.195 HD
BRANCH  12  15
HETATM   15  C3  UNL     1      29.574   1.666 -47.880  1.00  0.00     0.092 C 
HETATM   16  C2  UNL     1      30.741   1.404 -47.039  1.00  0.00     0.080 C 
HETATM   17  C1  UNL     1      30.506   0.144 -46.168  1.00  0.00     0.048 C 
HETATM   18  C18 UNL     1      32.037   1.173 -47.765  1.00  0.00     0.124 C 
HETATM   19  C17 UNL     1      31.873   0.252 -48.954  1.00  0.00     0.164 C 
HETATM   20  S1  UNL     1      32.873   2.712 -48.227  1.00  0.00    -0.086 SA
HETATM   21  C16 UNL     1      30.893   0.881 -49.890  1.00  0.00     0.149 C 
HETATM   22  C15 UNL     1      29.573   0.992 -49.224  1.00  0.00     0.050 C 
BRANCH  16  23
HETATM   23  O1  UNL     1      30.938   2.419 -46.120  1.00  0.00    -0.388 OA
ATOM     24  H1  UNL     1      31.812   2.262 -45.783  1.00  0.00     0.210 HD
ENDBRANCH  16  23
BRANCH  19  25
HETATM   25  O8  UNL     1      33.143   0.136 -49.547  1.00  0.00    -0.392 OA
ATOM     26  H8  UNL     1      33.094   0.247 -50.490  1.00  0.00     0.210 HD
ENDBRANCH  19  25
BRANCH  21  27
HETATM   27  O7  UNL     1      30.724   0.006 -50.988  1.00  0.00    -0.393 OA
ATOM     28  H7  UNL     1      31.407  -0.650 -50.925  1.00  0.00     0.210 HD
ENDBRANCH  21  27
ENDBRANCH  12  15
BRANCH  13  29
HETATM   29  O2  UNL     1      29.051   5.244 -47.010  1.00  0.00    -0.288 OA
ATOM     30  H2  UNL     1      28.288   5.719 -46.704  1.00  0.00     0.244 HD
ENDBRANCH  13  29
ENDBRANCH  10  12
ENDBRANCH   9  10
ENDBRANCH   1   9
BRANCH   8  31
HETATM   31  C7  UNL     1      27.506   3.427 -52.634  1.00  0.00     0.450 C 
BRANCH  31  32
HETATM   32  O3  UNL     1      28.641   2.762 -52.129  1.00  0.00    -0.353 OA
ATOM     33  H3  UNL     1      28.983   3.307 -51.429  1.00  0.00     0.214 HD
ENDBRANCH  31  32
BRANCH  31  34
HETATM   34  N7  UNL     1      26.362   2.689 -52.169  1.00  0.00    -0.027 N 
ATOM     35  H72 UNL     1      25.974   3.117 -51.329  1.00  0.00     0.282 HD
ATOM     36  H71 UNL     1      25.572   2.812 -52.802  1.00  0.00     0.282 HD
BRANCH  34  37
HETATM   37  C8  UNL     1      26.626   1.285 -51.951  1.00  0.00     0.268 C 
BRANCH  37  38
HETATM   38  C9  UNL     1      26.142   0.945 -50.565  1.00  0.00     0.300 C 
BRANCH  38  39
HETATM   39  N8  UNL     1      24.802   0.402 -50.651  1.00  0.00     0.095 N 
HETATM   40  C10 UNL     1      24.498   0.160 -52.020  1.00  0.00     0.306 C 
HETATM   41  C11 UNL     1      23.418  -0.823 -52.303  1.00  0.00     0.177 C 
HETATM   42  C12 UNL     1      23.506  -2.051 -51.391  1.00  0.00     0.179 C 
HETATM   43  C13 UNL     1      23.398  -1.497 -49.987  1.00  0.00     0.177 C 
HETATM   44  C14 UNL     1      24.684  -0.695 -49.756  1.00  0.00     0.306 C 
BRANCH  41  45
HETATM   45  O4  UNL     1      22.163  -0.255 -52.096  1.00  0.00    -0.391 OA
ATOM     46  H4  UNL     1      21.707  -0.690 -51.386  1.00  0.00     0.210 HD
ENDBRANCH  41  45
BRANCH  42  47
HETATM   47  O5  UNL     1      24.728  -2.692 -51.543  1.00  0.00    -0.390 OA
ATOM     48  H5  UNL     1      24.638  -3.628 -51.405  1.00  0.00     0.210 HD
ENDBRANCH  42  47
BRANCH  43  49
HETATM   49  O6  UNL     1      23.254  -2.467 -49.027  1.00  0.00    -0.391 OA
ATOM     50  H6  UNL     1      23.154  -2.118 -48.148  1.00  0.00     0.210 HD
ENDBRANCH  43  49
ENDBRANCH  38  39
ENDBRANCH  37  38
ENDBRANCH  34  37
ENDBRANCH  31  34
ENDBRANCH   8  31
TORSDOF 17
ENDMDL
MODEL 5
REMARK VINA RESULT: -9.639119325      1.856      2.406
REMARK  17 active torsions:
REMARK  status: ('A' for Active; 'I' for Inactive)
REMARK    1  A    between atoms: C2_2  and  O1_3 
REMARK    2  A    between atoms: C3_5  and  C4_6 
REMARK    3  A    between atoms: C4_6  and  N2_11 
REMARK    4  A    between atoms: N1_7  and  O2_9 
REMARK    5  A    between atoms: N2_11  and  C5_13 
REMARK    6  A    between atoms: C5_13  and  C6_14 
REMARK    7  A    between atoms: N6_21  and  C7_22 
REMARK    8  A    between atoms: C7_22  and  O3_23 
REMARK    9  A    between atoms: C7_22  and  N7_25 
REMARK   10  A    between atoms: N7_25  and  C8_28 
REMARK   11  A    between atoms: C8_28  and  C9_29 
REMARK   12  A    between atoms: C9_29  and  N8_30 
REMARK   13  A    between atoms: C11_32  and  O4_33 
REMARK   14  A    between atoms: C12_35  and  O5_36 
REMARK   15  A    between atoms: C13_38  and  O6_39 
REMARK   16  A    between atoms: C16_43  and  O7_44 
REMARK   17  A    between atoms: C17_46  and  O8_47 
ROOT
HETATM    1  C6  UNL     1      27.335   4.682 -50.263  1.00  0.00     0.138 A 
HETATM    2  N3  UNL     1      27.687   5.808 -50.879  1.00  0.00    -0.271 N 
ATOM      3  H3  UNL     1      27.999   6.674 -50.440  1.00  0.00     0.190 HD
HETATM    4  N4  UNL     1      27.554   5.580 -52.164  1.00  0.00    -0.226 N 
ATOM      5  H4  UNL     1      27.750   6.256 -52.902  1.00  0.00     0.210 HD
HETATM    6  N5  UNL     1      27.128   4.345 -52.362  1.00  0.00    -0.221 N 
ATOM      7  H5  UNL     1      26.939   3.908 -53.264  1.00  0.00     0.210 HD
HETATM    8  N6  UNL     1      26.992   3.789 -51.193  1.00  0.00    -0.208 N 
ENDROOT
BRANCH   1   9
HETATM    9  C5  UNL     1      27.316   4.436 -48.805  1.00  0.00     0.200 C 
BRANCH   9  10
HETATM   10  N2  UNL     1      28.538   4.706 -48.143  1.00  0.00    -0.371 N 
ATOM     11  H2  UNL     1      28.722   5.679 -47.901  1.00  0.00     0.161 HD
BRANCH  10  12
HETATM   12  C4  UNL     1      29.530   3.762 -47.784  1.00  0.00     0.104 C 
HETATM   13  N1  UNL     1      29.826   3.601 -46.559  1.00  0.00    -0.257 N 
ATOM     14  H1  UNL     1      30.550   2.902 -46.389  1.00  0.00     0.195 HD
BRANCH  12  15
HETATM   15  C3  UNL     1      30.225   2.956 -48.855  1.00  0.00     0.092 C 
HETATM   16  C2  UNL     1      29.821   1.553 -48.940  1.00  0.00     0.080 C 
HETATM   17  C1  UNL     1      29.769   1.095 -50.420  1.00  0.00     0.048 C 
HETATM   18  C18 UNL     1      30.708   0.568 -48.230  1.00  0.00     0.124 C 
HETATM   19  C17 UNL     1      32.176   0.837 -48.475  1.00  0.00     0.164 C 
HETATM   20  S1  UNL     1      30.343   0.436 -46.461  1.00  0.00    -0.086 SA
HETATM   21  C16 UNL     1      32.480   2.214 -47.981  1.00  0.00     0.149 C 
HETATM   22  C15 UNL     1      31.706   3.204 -48.767  1.00  0.00     0.050 C 
BRANCH  16  23
HETATM   23  O1  UNL     1      28.528   1.374 -48.485  1.00  0.00    -0.388 OA
ATOM     24  H1  UNL     1      28.003   1.351 -49.277  1.00  0.00     0.210 HD
ENDBRANCH  16  23
BRANCH  19  25
HETATM   25  O8  UNL     1      32.887  -0.135 -47.747  1.00  0.00    -0.392 OA
ATOM     26  H8  UNL     1      33.254  -0.796 -48.323  1.00  0.00     0.210 HD
ENDBRANCH  19  25
BRANCH  21  27
HETATM   27  O7  UNL     1      33.847   2.470 -48.233  1.00  0.00    -0.393 OA
ATOM     28  H7  UNL     1      34.206   1.684 -48.626  1.00  0.00     0.210 HD
ENDBRANCH  21  27
ENDBRANCH  12  15
BRANCH  13  29
HETATM   29  O2  UNL     1      29.359   4.186 -45.455  1.00  0.00    -0.288 OA
ATOM     30  H2  UNL     1      29.735   4.849 -44.889  1.00  0.00     0.244 HD
ENDBRANCH  13  29
ENDBRANCH  10  12
ENDBRANCH   9  10
ENDBRANCH   1   9
BRANCH   8  31
HETATM   31  C7  UNL     1      26.540   2.421 -50.946  1.00  0.00     0.450 C 
BRANCH  31  32
HETATM   32  O3  UNL     1      25.447   2.515 -50.063  1.00  0.00    -0.353 OA
ATOM     33  H3  UNL     1      25.037   1.657 -50.049  1.00  0.00     0.214 HD
ENDBRANCH  31  32
BRANCH  31  34
HETATM   34  N7  UNL     1      26.042   1.799 -52.145  1.00  0.00    -0.027 N 
ATOM     35  H72 UNL     1      25.223   2.296 -52.494  1.00  0.00     0.282 HD
ATOM     36  H71 UNL     1      26.681   1.956 -52.924  1.00  0.00     0.282 HD
BRANCH  34  37
HETATM   37  C8  UNL     1      25.759   0.390 -51.994  1.00  0.00     0.268 C 
BRANCH  37  38
HETATM   38  C9  UNL     1      24.305   0.183 -52.333  1.00  0.00     0.300 C 
BRANCH  38  39
HETATM   39  N8  UNL     1      23.645  -0.454 -51.212  1.00  0.00     0.095 N 
HETATM   40  C10 UNL     1      22.462  -1.089 -51.683  1.00  0.00     0.306 C 
HETATM   41  C11 UNL     1      21.909  -2.184 -50.841  1.00  0.00     0.177 C 
HETATM   42  C12 UNL     1      23.010  -3.099 -50.295  1.00  0.00     0.179 C 
HETATM   43  C13 UNL     1      23.909  -2.185 -49.493  1.00  0.00     0.177 C 
HETATM   44  C14 UNL     1      24.583  -1.263 -50.516  1.00  0.00     0.306 C 
BRANCH  41  45
HETATM   45  O4  UNL     1      21.228  -1.670 -49.742  1.00  0.00    -0.391 OA
ATOM     46  H4  UNL     1      20.298  -1.855 -49.803  1.00  0.00     0.210 HD
ENDBRANCH  41  45
BRANCH  42  47
HETATM   47  O5  UNL     1      23.736  -3.671 -51.331  1.00  0.00    -0.390 OA
ATOM     48  H5  UNL     1      24.257  -4.401 -51.016  1.00  0.00     0.210 HD
ENDBRANCH  42  47
BRANCH  43  49
HETATM   49  O6  UNL     1      24.850  -2.855 -48.752  1.00  0.00    -0.391 OA
ATOM     50  H6  UNL     1      24.894  -2.568 -47.847  1.00  0.00     0.210 HD
ENDBRANCH  43  49
ENDBRANCH  38  39
ENDBRANCH  37  38
ENDBRANCH  34  37
ENDBRANCH  31  34
ENDBRANCH   8  31
TORSDOF 17
ENDMDL
