MODEL 1
REMARK VINA RESULT: -9.202057640      0.000      0.000
REMARK  16 active torsions:
REMARK  status: ('A' for Active; 'I' for Inactive)
REMARK    1  A    between atoms: N1_1  and  C1_5 
REMARK    2  A    between atoms: C1_5  and  C2_6 
REMARK    3  A    between atoms: C4_9  and  N2_10 
REMARK    4  A    between atoms: C6_12  and  C7_13 
REMARK    5  A    between atoms: C7_13  and  N3_14 
REMARK    6  A    between atoms: N3_14  and  C8_16 
REMARK    7  A    between atoms: C10_18  and  N4_19 
REMARK    8  A    between atoms: C11_23  and  O1_24 
REMARK    9  A    between atoms: C12_26  and  N5_27 
REMARK       I    between atoms: N5_27  and  C13_29 
REMARK   10  A    between atoms: N7_31  and  O2_33 
REMARK   11  A    between atoms: C14_35  and  O3_36 
REMARK   12  A    between atoms: C15_43  and  C16_44 
REMARK   13  A    between atoms: C16_44  and  O5_45 
REMARK   14  A    between atoms: C17_47  and  O6_48 
REMARK   15  A    between atoms: C17_47  and  C18_50 
REMARK   16  A    between atoms: N10_51  and  O7_53 
ROOT
HETATM    1  N2  UNL     1      29.658   3.937 -48.823  1.00  0.00    -0.223 N 
HETATM    2  C5  UNL     1      29.348   3.786 -50.120  1.00  0.00     0.149 A 
HETATM    3  C6  UNL     1      28.065   4.311 -50.347  1.00  0.00     0.062 A 
HETATM    4  N8  UNL     1      27.653   4.753 -49.185  1.00  0.00    -0.287 N 
ATOM      5  H8  UNL     1      26.752   5.194 -49.000  1.00  0.00     0.188 HD
HETATM    6  N9  UNL     1      28.621   4.524 -48.277  1.00  0.00    -0.234 N 
ATOM      7  H9  UNL     1      28.555   4.775 -47.291  1.00  0.00     0.209 HD
ENDROOT
BRANCH   3   8
HETATM    8  C7  UNL     1      27.415   4.392 -51.683  1.00  0.00     0.174 C 
BRANCH   8   9
HETATM    9  N3  UNL     1      26.413   3.381 -51.815  1.00  0.00    -0.409 N 
ATOM     10  H3  UNL     1      25.420   3.618 -51.813  1.00  0.00     0.154 HD
BRANCH   9  11
HETATM   11  C8  UNL     1      26.845   2.035 -51.948  1.00  0.00     0.109 C 
HETATM   12  C9  UNL     1      27.255   1.492 -50.594  1.00  0.00     0.062 C 
HETATM   13  C10 UNL     1      26.124   1.046 -49.732  1.00  0.00     0.216 C 
HETATM   14  C11 UNL     1      25.143   0.218 -50.493  1.00  0.00     0.173 C 
HETATM   15  C12 UNL     1      25.545  -0.112 -51.883  1.00  0.00     0.145 C 
HETATM   16  C14 UNL     1      26.041   1.065 -52.699  1.00  0.00     0.165 C 
BRANCH  13  17
HETATM   17  N4  UNL     1      25.433   2.133 -49.099  1.00  0.00    -0.072 N 
ATOM     18  H43 UNL     1      26.085   2.731 -48.591  1.00  0.00     0.274 HD
ATOM     19  H42 UNL     1      25.096   2.803 -49.792  1.00  0.00     0.274 HD
ATOM     20  H41 UNL     1      24.673   1.827 -48.491  1.00  0.00     0.274 HD
ENDBRANCH  13  17
BRANCH  14  21
HETATM   21  O1  UNL     1      25.013  -1.011 -49.801  1.00  0.00    -0.391 OA
ATOM     22  H1  UNL     1      24.178  -0.988 -49.348  1.00  0.00     0.210 HD
ENDBRANCH  14  21
BRANCH  15  23
HETATM   23  N5  UNL     1      24.463  -0.747 -52.586  1.00  0.00    -0.353 N 
HETATM   24  C13 UNL     1      23.149  -0.927 -52.135  1.00  0.00     0.208 C 
HETATM   25  N6  UNL     1      22.070  -0.040 -52.257  1.00  0.00    -0.062 NA
HETATM   26  N7  UNL     1      22.906  -2.059 -51.523  1.00  0.00    -0.241 N 
ATOM     27  H7  UNL     1      21.963  -2.233 -51.175  1.00  0.00     0.197 HD
ATOM     28  H5  UNL     1      24.676  -1.106 -53.516  1.00  0.00     0.162 HD
BRANCH  26  29
HETATM   29  O2  UNL     1      23.861  -3.020 -51.332  1.00  0.00    -0.287 OA
ATOM     30  H2  UNL     1      23.796  -3.684 -50.656  1.00  0.00     0.244 HD
ENDBRANCH  26  29
ENDBRANCH  15  23
BRANCH  16  31
HETATM   31  O3  UNL     1      26.867   0.462 -53.697  1.00  0.00    -0.391 OA
ATOM     32  H3  UNL     1      26.311   0.134 -54.394  1.00  0.00     0.210 HD
ENDBRANCH  16  31
ENDBRANCH   9  11
ENDBRANCH   8   9
ENDBRANCH   3   8
BRANCH   1  33
HETATM   33  C4  UNL     1      30.883   3.566 -48.155  1.00  0.00     0.205 C 
HETATM   34  S1  UNL     1      30.514   2.959 -46.453  1.00  0.00    -0.084 SA
HETATM   35  C3  UNL     1      30.123   1.181 -46.700  1.00  0.00     0.092 C 
HETATM   36  C2  UNL     1      31.474   0.595 -47.137  1.00  0.00     0.063 C 
HETATM   37  C17 UNL     1      31.517   0.515 -48.624  1.00  0.00     0.126 C 
HETATM   38  C15 UNL     1      31.915   1.756 -49.344  1.00  0.00     0.194 C 
HETATM   39  O4  UNL     1      31.830   2.941 -48.799  1.00  0.00    -0.318 OA
BRANCH  36  40
HETATM   40  C1  UNL     1      31.533  -0.761 -46.472  1.00  0.00     0.238 C 
BRANCH  40  41
HETATM   41  N1  UNL     1      32.117  -0.565 -45.146  1.00  0.00    -0.079 N 
ATOM     42  H13 UNL     1      33.115  -0.358 -45.175  1.00  0.00     0.274 HD
ATOM     43  H12 UNL     1      31.816   0.301 -44.700  1.00  0.00     0.274 HD
ATOM     44  H11 UNL     1      31.898  -1.395 -44.595  1.00  0.00     0.274 HD
ENDBRANCH  40  41
ENDBRANCH  36  40
BRANCH  37  45
HETATM   45  O6  UNL     1      30.274   0.027 -49.069  1.00  0.00    -0.381 OA
ATOM     46  H6  UNL     1      30.042   0.496 -49.862  1.00  0.00     0.211 HD
ENDBRANCH  37  45
BRANCH  37  47
HETATM   47  C18 UNL     1      32.495  -0.593 -48.916  1.00  0.00     0.127 C 
HETATM   48  N10 UNL     1      33.692  -0.406 -49.286  1.00  0.00    -0.281 N 
ATOM     49  H10 UNL     1      34.076   0.531 -49.409  1.00  0.00     0.193 HD
BRANCH  48  50
HETATM   50  O7  UNL     1      34.460  -1.555 -49.515  1.00  0.00    -0.290 OA
ATOM     51  H7  UNL     1      35.261  -1.435 -50.012  1.00  0.00     0.244 HD
ENDBRANCH  48  50
ENDBRANCH  37  47
BRANCH  38  52
HETATM   52  C16 UNL     1      31.422   1.628 -50.798  1.00  0.00     0.200 C 
BRANCH  52  53
HETATM   53  O5  UNL     1      32.130   0.652 -51.494  1.00  0.00    -0.398 OA
ATOM     54  H5  UNL     1      31.546   0.038 -51.924  1.00  0.00     0.209 HD
ENDBRANCH  52  53
ENDBRANCH  38  52
ENDBRANCH   1  33
TORSDOF 16
ENDMDL
MODEL 2
REMARK VINA RESULT: -8.977803544      2.156      3.126
REMARK  16 active torsions:
REMARK  status: ('A' for Active; 'I' for Inactive)
REMARK    1  A    between atoms: N1_1  and  C1_5 
REMARK    2  A    between atoms: C1_5  and  C2_6 
REMARK    3  A    between atoms: C4_9  and  N2_10 
REMARK    4  A    between atoms: C6_12  and  C7_13 
REMARK    5  A    between atoms: C7_13  and  N3_14 
REMARK    6  A    between atoms: N3_14  and  C8_16 
REMARK    7  A    between atoms: C10_18  and  N4_19 
REMARK    8  A    between atoms: C11_23  and  O1_24 
REMARK    9  A    between atoms: C12_26  and  N5_27 
REMARK       I    between atoms: N5_27  and  C13_29 
REMARK   10  A    between atoms: N7_31  and  O2_33 
REMARK   11  A    between atoms: C14_35  and  O3_36 
REMARK   12  A    between atoms: C15_43  and  C16_44 
REMARK   13  A    between atoms: C16_44  and  O5_45 
REMARK   14  A    between atoms: C17_47  and  O6_48 
REMARK   15  A    between atoms: C17_47  and  C18_50 
REMARK   16  A    between atoms: N10_51  and  O7_53 
ROOT
HETATM    1  N2  UNL     1      27.781   2.956 -50.461  1.00  0.00    -0.223 N 
HETATM    2  C5  UNL     1      27.465   2.253 -51.560  1.00  0.00     0.149 A 
HETATM    3  C6  UNL     1      26.103   1.907 -51.505  1.00  0.00     0.062 A 
HETATM    4  N8  UNL     1      25.657   2.408 -50.381  1.00  0.00    -0.287 N 
ATOM      5  H8  UNL     1      24.701   2.334 -50.032  1.00  0.00     0.188 HD
HETATM    6  N9  UNL     1      26.675   3.039 -49.763  1.00  0.00    -0.234 N 
ATOM      7  H9  UNL     1      26.595   3.519 -48.867  1.00  0.00     0.209 HD
ENDROOT
BRANCH   3   8
HETATM    8  C7  UNL     1      25.374   1.192 -52.586  1.00  0.00     0.174 C 
BRANCH   8   9
HETATM    9  N3  UNL     1      24.069   0.812 -52.144  1.00  0.00    -0.409 N 
ATOM     10  H3  UNL     1      23.436   1.492 -51.722  1.00  0.00     0.154 HD
BRANCH   9  11
HETATM   11  C8  UNL     1      23.683  -0.544 -52.312  1.00  0.00     0.109 C 
HETATM   12  C9  UNL     1      24.787  -1.456 -51.816  1.00  0.00     0.062 C 
HETATM   13  C10 UNL     1      24.824  -1.647 -50.339  1.00  0.00     0.216 C 
HETATM   14  C11 UNL     1      23.466  -1.913 -49.782  1.00  0.00     0.173 C 
HETATM   15  C12 UNL     1      22.393  -2.075 -50.795  1.00  0.00     0.145 C 
HETATM   16  C14 UNL     1      22.363  -1.003 -51.866  1.00  0.00     0.165 C 
BRANCH  13  17
HETATM   17  N4  UNL     1      25.412  -0.538 -49.641  1.00  0.00    -0.072 N 
ATOM     18  H43 UNL     1      26.143  -0.857 -49.004  1.00  0.00     0.274 HD
ATOM     19  H42 UNL     1      25.976   0.031 -50.272  1.00  0.00     0.274 HD
ATOM     20  H41 UNL     1      24.727   0.036 -49.149  1.00  0.00     0.274 HD
ENDBRANCH  13  17
BRANCH  14  21
HETATM   21  O1  UNL     1      23.543  -3.133 -49.067  1.00  0.00    -0.391 OA
ATOM     22  H1  UNL     1      23.453  -3.833 -49.702  1.00  0.00     0.210 HD
ENDBRANCH  14  21
BRANCH  15  23
HETATM   23  N5  UNL     1      21.104  -2.141 -50.161  1.00  0.00    -0.353 N 
HETATM   24  C13 UNL     1      20.838  -2.304 -48.795  1.00  0.00     0.208 C 
HETATM   25  N6  UNL     1      20.734  -1.306 -47.815  1.00  0.00    -0.062 NA
HETATM   26  N7  UNL     1      20.672  -3.538 -48.390  1.00  0.00    -0.241 N 
ATOM     27  H7  UNL     1      20.480  -3.704 -47.402  1.00  0.00     0.197 HD
ATOM     28  H5  UNL     1      20.293  -2.059 -50.774  1.00  0.00     0.162 HD
BRANCH  26  29
HETATM   29  O2  UNL     1      20.745  -4.612 -49.232  1.00  0.00    -0.287 OA
ATOM     30  H2  UNL     1      21.037  -5.471 -48.949  1.00  0.00     0.244 HD
ENDBRANCH  26  29
ENDBRANCH  15  23
BRANCH  16  31
HETATM   31  O3  UNL     1      21.707  -1.642 -52.965  1.00  0.00    -0.391 OA
ATOM     32  H3  UNL     1      21.274  -2.426 -52.646  1.00  0.00     0.210 HD
ENDBRANCH  16  31
ENDBRANCH   9  11
ENDBRANCH   8   9
ENDBRANCH   3   8
BRANCH   1  33
HETATM   33  C4  UNL     1      29.058   3.534 -50.116  1.00  0.00     0.205 C 
HETATM   34  S1  UNL     1      29.074   4.010 -48.335  1.00  0.00    -0.084 SA
HETATM   35  C3  UNL     1      29.555   2.460 -47.474  1.00  0.00     0.092 C 
HETATM   36  C2  UNL     1      31.007   2.258 -47.930  1.00  0.00     0.063 C 
HETATM   37  C17 UNL     1      31.034   1.310 -49.079  1.00  0.00     0.126 C 
HETATM   38  C15 UNL     1      30.779   1.892 -50.426  1.00  0.00     0.194 C 
HETATM   39  O4  UNL     1      30.166   3.035 -50.591  1.00  0.00    -0.318 OA
BRANCH  36  40
HETATM   40  C1  UNL     1      31.719   1.722 -46.708  1.00  0.00     0.238 C 
BRANCH  40  41
HETATM   41  N1  UNL     1      32.008   2.865 -45.843  1.00  0.00    -0.079 N 
ATOM     42  H13 UNL     1      31.256   3.068 -45.185  1.00  0.00     0.274 HD
ATOM     43  H12 UNL     1      32.736   2.671 -45.155  1.00  0.00     0.274 HD
ATOM     44  H11 UNL     1      32.231   3.653 -46.450  1.00  0.00     0.274 HD
ENDBRANCH  40  41
ENDBRANCH  36  40
BRANCH  37  45
HETATM   45  O6  UNL     1      30.153   0.252 -48.790  1.00  0.00    -0.381 OA
ATOM     46  H6  UNL     1      30.016  -0.243 -49.590  1.00  0.00     0.211 HD
ENDBRANCH  37  45
BRANCH  37  47
HETATM   47  C18 UNL     1      32.408   0.693 -49.031  1.00  0.00     0.127 C 
HETATM   48  N10 UNL     1      32.649  -0.527 -49.272  1.00  0.00    -0.281 N 
ATOM     49  H10 UNL     1      31.908  -1.182 -49.522  1.00  0.00     0.193 HD
BRANCH  48  50
HETATM   50  O7  UNL     1      33.988  -0.929 -49.177  1.00  0.00    -0.290 OA
ATOM     51  H7  UNL     1      34.278  -1.234 -48.326  1.00  0.00     0.244 HD
ENDBRANCH  48  50
ENDBRANCH  37  47
BRANCH  38  52
HETATM   52  C16 UNL     1      30.356   0.740 -51.357  1.00  0.00     0.200 C 
BRANCH  52  53
HETATM   53  O5  UNL     1      31.446   0.212 -52.043  1.00  0.00    -0.398 OA
ATOM     54  H5  UNL     1      31.169  -0.305 -52.792  1.00  0.00     0.209 HD
ENDBRANCH  52  53
ENDBRANCH  38  52
ENDBRANCH   1  33
TORSDOF 16
ENDMDL
MODEL 3
REMARK VINA RESULT: -8.327273314      5.380      7.047
REMARK  16 active torsions:
REMARK  status: ('A' for Active; 'I' for Inactive)
REMARK    1  A    between atoms: N1_1  and  C1_5 
REMARK    2  A    between atoms: C1_5  and  C2_6 
REMARK    3  A    between atoms: C4_9  and  N2_10 
REMARK    4  A    between atoms: C6_12  and  C7_13 
REMARK    5  A    between atoms: C7_13  and  N3_14 
REMARK    6  A    between atoms: N3_14  and  C8_16 
REMARK    7  A    between atoms: C10_18  and  N4_19 
REMARK    8  A    between atoms: C11_23  and  O1_24 
REMARK    9  A    between atoms: C12_26  and  N5_27 
REMARK       I    between atoms: N5_27  and  C13_29 
REMARK   10  A    between atoms: N7_31  and  O2_33 
REMARK   11  A    between atoms: C14_35  and  O3_36 
REMARK   12  A    between atoms: C15_43  and  C16_44 
REMARK   13  A    between atoms: C16_44  and  O5_45 
REMARK   14  A    between atoms: C17_47  and  O6_48 
REMARK   15  A    between atoms: C17_47  and  C18_50 
REMARK   16  A    between atoms: N10_51  and  O7_53 
ROOT
HETATM    1  N2  UNL     1      27.234   4.444 -51.409  1.00  0.00    -0.223 N 
HETATM    2  C5  UNL     1      26.996   4.863 -52.661  1.00  0.00     0.149 A 
HETATM    3  C6  UNL     1      27.299   6.233 -52.749  1.00  0.00     0.062 A 
HETATM    4  N8  UNL     1      27.700   6.584 -51.554  1.00  0.00    -0.287 N 
ATOM      5  H8  UNL     1      27.995   7.519 -51.273  1.00  0.00     0.188 HD
HETATM    6  N9  UNL     1      27.659   5.498 -50.757  1.00  0.00    -0.234 N 
ATOM      7  H9  UNL     1      27.924   5.497 -49.772  1.00  0.00     0.209 HD
ENDROOT
BRANCH   3   8
HETATM    8  C7  UNL     1      27.233   7.029 -54.005  1.00  0.00     0.174 C 
BRANCH   8   9
HETATM    9  N3  UNL     1      25.948   6.897 -54.616  1.00  0.00    -0.409 N 
ATOM     10  H3  UNL     1      25.626   5.999 -54.979  1.00  0.00     0.154 HD
BRANCH   9  11
HETATM   11  C8  UNL     1      25.134   8.057 -54.701  1.00  0.00     0.109 C 
HETATM   12  C9  UNL     1      24.895   8.409 -56.155  1.00  0.00     0.062 C 
HETATM   13  C10 UNL     1      23.829   7.610 -56.824  1.00  0.00     0.216 C 
HETATM   14  C11 UNL     1      22.607   7.498 -55.975  1.00  0.00     0.173 C 
HETATM   15  C12 UNL     1      22.635   8.301 -54.727  1.00  0.00     0.145 C 
HETATM   16  C14 UNL     1      23.904   8.164 -53.909  1.00  0.00     0.165 C 
BRANCH  13  17
HETATM   17  N4  UNL     1      24.263   6.295 -57.203  1.00  0.00    -0.072 N 
ATOM     18  H43 UNL     1      24.541   6.274 -58.184  1.00  0.00     0.274 HD
ATOM     19  H42 UNL     1      25.159   6.069 -56.770  1.00  0.00     0.274 HD
ATOM     20  H41 UNL     1      23.572   5.571 -57.006  1.00  0.00     0.274 HD
ENDBRANCH  13  17
BRANCH  14  21
HETATM   21  O1  UNL     1      21.521   7.976 -56.747  1.00  0.00    -0.391 OA
ATOM     22  H1  UNL     1      20.796   7.378 -56.606  1.00  0.00     0.210 HD
ENDBRANCH  14  21
BRANCH  15  23
HETATM   23  N5  UNL     1      21.505   7.984 -53.895  1.00  0.00    -0.353 N 
HETATM   24  C13 UNL     1      20.532   8.870 -53.414  1.00  0.00     0.208 C 
HETATM   25  N6  UNL     1      19.345   9.267 -54.045  1.00  0.00    -0.062 NA
HETATM   26  N7  UNL     1      20.766   9.387 -52.234  1.00  0.00    -0.241 N 
ATOM     27  H7  UNL     1      20.086  10.040 -51.845  1.00  0.00     0.197 HD
ATOM     28  H5  UNL     1      21.401   7.006 -53.627  1.00  0.00     0.162 HD
BRANCH  26  29
HETATM   29  O2  UNL     1      21.882   9.092 -51.501  1.00  0.00    -0.287 OA
ATOM     30  H2  UNL     1      21.890   8.434 -50.816  1.00  0.00     0.244 HD
ENDBRANCH  26  29
ENDBRANCH  15  23
BRANCH  16  31
HETATM   31  O3  UNL     1      23.952   9.376 -53.152  1.00  0.00    -0.391 OA
ATOM     32  H3  UNL     1      24.146   9.161 -52.247  1.00  0.00     0.210 HD
ENDBRANCH  16  31
ENDBRANCH   9  11
ENDBRANCH   8   9
ENDBRANCH   3   8
BRANCH   1  33
HETATM   33  C4  UNL     1      27.087   3.109 -50.878  1.00  0.00     0.205 C 
HETATM   34  S1  UNL     1      27.793   1.881 -52.056  1.00  0.00    -0.084 SA
HETATM   35  C3  UNL     1      29.580   1.842 -51.628  1.00  0.00     0.092 C 
HETATM   36  C2  UNL     1      29.577   1.216 -50.226  1.00  0.00     0.063 C 
HETATM   37  C17 UNL     1      29.631   2.300 -49.204  1.00  0.00     0.126 C 
HETATM   38  C15 UNL     1      28.333   2.929 -48.835  1.00  0.00     0.194 C 
HETATM   39  O4  UNL     1      27.281   2.872 -49.610  1.00  0.00    -0.318 OA
BRANCH  36  40
HETATM   40  C1  UNL     1      30.798   0.325 -50.205  1.00  0.00     0.238 C 
BRANCH  40  41
HETATM   41  N1  UNL     1      31.696   0.800 -51.257  1.00  0.00    -0.079 N 
ATOM     42  H13 UNL     1      32.362   0.091 -51.563  1.00  0.00     0.274 HD
ATOM     43  H12 UNL     1      31.227   0.934 -52.152  1.00  0.00     0.274 HD
ATOM     44  H11 UNL     1      32.145   1.647 -50.910  1.00  0.00     0.274 HD
ENDBRANCH  40  41
ENDBRANCH  36  40
BRANCH  37  45
HETATM   45  O6  UNL     1      30.574   3.253 -49.631  1.00  0.00    -0.381 OA
ATOM     46  H6  UNL     1      31.240   3.329 -48.957  1.00  0.00     0.211 HD
ENDBRANCH  37  45
BRANCH  37  47
HETATM   47  C18 UNL     1      30.257   1.651 -47.996  1.00  0.00     0.127 C 
HETATM   48  N10 UNL     1      29.608   1.271 -46.976  1.00  0.00    -0.281 N 
ATOM     49  H10 UNL     1      28.596   1.383 -46.911  1.00  0.00     0.193 HD
BRANCH  48  50
HETATM   50  O7  UNL     1      30.354   0.689 -45.944  1.00  0.00    -0.290 OA
ATOM     51  H7  UNL     1      29.963   0.706 -45.078  1.00  0.00     0.244 HD
ENDBRANCH  48  50
ENDBRANCH  37  47
BRANCH  38  52
HETATM   52  C16 UNL     1      28.645   4.295 -48.194  1.00  0.00     0.200 C 
BRANCH  52  53
HETATM   53  O5  UNL     1      28.433   4.274 -46.819  1.00  0.00    -0.398 OA
ATOM     54  H5  UNL     1      27.754   4.888 -46.561  1.00  0.00     0.209 HD
ENDBRANCH  52  53
ENDBRANCH  38  52
ENDBRANCH   1  33
TORSDOF 16
ENDMDL
MODEL 4
REMARK VINA RESULT: -8.186981427      2.560      3.937
REMARK  16 active torsions:
REMARK  status: ('A' for Active; 'I' for Inactive)
REMARK    1  A    between atoms: N1_1  and  C1_5 
REMARK    2  A    between atoms: C1_5  and  C2_6 
REMARK    3  A    between atoms: C4_9  and  N2_10 
REMARK    4  A    between atoms: C6_12  and  C7_13 
REMARK    5  A    between atoms: C7_13  and  N3_14 
REMARK    6  A    between atoms: N3_14  and  C8_16 
REMARK    7  A    between atoms: C10_18  and  N4_19 
REMARK    8  A    between atoms: C11_23  and  O1_24 
REMARK    9  A    between atoms: C12_26  and  N5_27 
REMARK       I    between atoms: N5_27  and  C13_29 
REMARK   10  A    between atoms: N7_31  and  O2_33 
REMARK   11  A    between atoms: C14_35  and  O3_36 
REMARK   12  A    between atoms: C15_43  and  C16_44 
REMARK   13  A    between atoms: C16_44  and  O5_45 
REMARK   14  A    between atoms: C17_47  and  O6_48 
REMARK   15  A    between atoms: C17_47  and  C18_50 
REMARK   16  A    between atoms: N10_51  and  O7_53 
ROOT
HETATM    1  N2  UNL     1      27.984   2.720 -51.259  1.00  0.00    -0.223 N 
HETATM    2  C5  UNL     1      26.806   2.797 -51.896  1.00  0.00     0.149 A 
HETATM    3  C6  UNL     1      26.481   1.531 -52.413  1.00  0.00     0.062 A 
HETATM    4  N8  UNL     1      27.473   0.746 -52.073  1.00  0.00    -0.287 N 
ATOM      5  H8  UNL     1      27.552  -0.246 -52.296  1.00  0.00     0.188 HD
HETATM    6  N9  UNL     1      28.369   1.473 -51.377  1.00  0.00    -0.234 N 
ATOM      7  H9  UNL     1      29.237   1.099 -50.992  1.00  0.00     0.209 HD
ENDROOT
BRANCH   3   8
HETATM    8  C7  UNL     1      25.210   1.211 -53.115  1.00  0.00     0.174 C 
BRANCH   8   9
HETATM    9  N3  UNL     1      24.227   0.747 -52.186  1.00  0.00    -0.409 N 
ATOM     10  H3  UNL     1      23.843   1.366 -51.472  1.00  0.00     0.154 HD
BRANCH   9  11
HETATM   11  C8  UNL     1      23.804  -0.604 -52.291  1.00  0.00     0.109 C 
HETATM   12  C9  UNL     1      24.862  -1.519 -51.709  1.00  0.00     0.062 C 
HETATM   13  C10 UNL     1      24.846  -1.626 -50.222  1.00  0.00     0.216 C 
HETATM   14  C11 UNL     1      23.463  -1.820 -49.698  1.00  0.00     0.173 C 
HETATM   15  C12 UNL     1      22.419  -2.007 -50.736  1.00  0.00     0.145 C 
HETATM   16  C14 UNL     1      22.457  -0.998 -51.866  1.00  0.00     0.165 C 
BRANCH  13  17
HETATM   17  N4  UNL     1      25.446  -0.498 -49.567  1.00  0.00    -0.072 N 
ATOM     18  H43 UNL     1      25.974   0.068 -50.231  1.00  0.00     0.274 HD
ATOM     19  H42 UNL     1      24.737   0.183 -49.294  1.00  0.00     0.274 HD
ATOM     20  H41 UNL     1      26.026  -0.758 -48.770  1.00  0.00     0.274 HD
ENDBRANCH  13  17
BRANCH  14  21
HETATM   21  O1  UNL     1      23.478  -2.999 -48.914  1.00  0.00    -0.391 OA
ATOM     22  H1  UNL     1      22.573  -3.242 -48.758  1.00  0.00     0.210 HD
ENDBRANCH  14  21
BRANCH  15  23
HETATM   23  N5  UNL     1      21.108  -1.999 -50.143  1.00  0.00    -0.353 N 
HETATM   24  C13 UNL     1      20.786  -2.208 -48.796  1.00  0.00     0.208 C 
HETATM   25  N6  UNL     1      20.730  -1.255 -47.769  1.00  0.00    -0.062 NA
HETATM   26  N7  UNL     1      20.508  -3.443 -48.461  1.00  0.00    -0.241 N 
ATOM     27  H7  UNL     1      20.270  -3.642 -47.490  1.00  0.00     0.197 HD
ATOM     28  H5  UNL     1      20.327  -1.820 -50.774  1.00  0.00     0.162 HD
BRANCH  26  29
HETATM   29  O2  UNL     1      20.522  -4.476 -49.356  1.00  0.00    -0.287 OA
ATOM     30  H2  UNL     1      20.655  -5.380 -49.099  1.00  0.00     0.244 HD
ENDBRANCH  26  29
ENDBRANCH  15  23
BRANCH  16  31
HETATM   31  O3  UNL     1      21.817  -1.678 -52.949  1.00  0.00    -0.391 OA
ATOM     32  H3  UNL     1      20.906  -1.409 -52.981  1.00  0.00     0.210 HD
ENDBRANCH  16  31
ENDBRANCH   9  11
ENDBRANCH   8   9
ENDBRANCH   3   8
BRANCH   1  33
HETATM   33  C4  UNL     1      28.684   3.770 -50.559  1.00  0.00     0.205 C 
HETATM   34  S1  UNL     1      27.520   4.677 -49.455  1.00  0.00    -0.084 SA
HETATM   35  C3  UNL     1      27.508   3.674 -47.915  1.00  0.00     0.092 C 
HETATM   36  C2  UNL     1      28.932   3.868 -47.375  1.00  0.00     0.063 C 
HETATM   37  C17 UNL     1      29.779   2.718 -47.797  1.00  0.00     0.126 C 
HETATM   38  C15 UNL     1      30.374   2.798 -49.160  1.00  0.00     0.194 C 
HETATM   39  O4  UNL     1      29.887   3.574 -50.093  1.00  0.00    -0.318 OA
BRANCH  36  40
HETATM   40  C1  UNL     1      28.761   3.954 -45.875  1.00  0.00     0.238 C 
BRANCH  40  41
HETATM   41  N1  UNL     1      27.567   3.182 -45.532  1.00  0.00    -0.079 N 
ATOM     42  H13 UNL     1      27.716   2.175 -45.580  1.00  0.00     0.274 HD
ATOM     43  H12 UNL     1      27.329   3.233 -44.542  1.00  0.00     0.274 HD
ATOM     44  H11 UNL     1      26.815   3.504 -46.141  1.00  0.00     0.274 HD
ENDBRANCH  40  41
ENDBRANCH  36  40
BRANCH  37  45
HETATM   45  O6  UNL     1      29.032   1.539 -47.620  1.00  0.00    -0.381 OA
ATOM     46  H6  UNL     1      29.491   0.832 -48.059  1.00  0.00     0.211 HD
ENDBRANCH  37  45
BRANCH  37  47
HETATM   47  C18 UNL     1      30.868   2.646 -46.757  1.00  0.00     0.127 C 
HETATM   48  N10 UNL     1      31.140   1.609 -46.084  1.00  0.00    -0.281 N 
ATOM     49  H10 UNL     1      30.627   0.736 -46.210  1.00  0.00     0.193 HD
BRANCH  48  50
HETATM   50  O7  UNL     1      32.184   1.723 -45.157  1.00  0.00    -0.290 OA
ATOM     51  H7  UNL     1      32.391   0.944 -44.654  1.00  0.00     0.244 HD
ENDBRANCH  48  50
ENDBRANCH  37  47
BRANCH  38  52
HETATM   52  C16 UNL     1      30.761   1.368 -49.583  1.00  0.00     0.200 C 
BRANCH  52  53
HETATM   53  O5  UNL     1      31.395   1.355 -50.821  1.00  0.00    -0.398 OA
ATOM     54  H5  UNL     1      31.205   0.557 -51.302  1.00  0.00     0.209 HD
ENDBRANCH  52  53
ENDBRANCH  38  52
ENDBRANCH   1  33
TORSDOF 16
ENDMDL
MODEL 5
REMARK VINA RESULT: -7.929186677      1.450      1.876
REMARK  16 active torsions:
REMARK  status: ('A' for Active; 'I' for Inactive)
REMARK    1  A    between atoms: N1_1  and  C1_5 
REMARK    2  A    between atoms: C1_5  and  C2_6 
REMARK    3  A    between atoms: C4_9  and  N2_10 
REMARK    4  A    between atoms: C6_12  and  C7_13 
REMARK    5  A    between atoms: C7_13  and  N3_14 
REMARK    6  A    between atoms: N3_14  and  C8_16 
REMARK    7  A    between atoms: C10_18  and  N4_19 
REMARK    8  A    between atoms: C11_23  and  O1_24 
REMARK    9  A    between atoms: C12_26  and  N5_27 
REMARK       I    between atoms: N5_27  and  C13_29 
REMARK   10  A    between atoms: N7_31  and  O2_33 
REMARK   11  A    between atoms: C14_35  and  O3_36 
REMARK   12  A    between atoms: C15_43  and  C16_44 
REMARK   13  A    between atoms: C16_44  and  O5_45 
REMARK   14  A    between atoms: C17_47  and  O6_48 
REMARK   15  A    between atoms: C17_47  and  C18_50 
REMARK   16  A    between atoms: N10_51  and  O7_53 
ROOT
HETATM    1  N2  UNL     1      29.595   3.563 -49.592  1.00  0.00    -0.223 N 
HETATM    2  C5  UNL     1      28.345   3.395 -49.135  1.00  0.00     0.149 A 
HETATM    3  C6  UNL     1      27.438   3.665 -50.174  1.00  0.00     0.062 A 
HETATM    4  N8  UNL     1      28.173   3.986 -51.209  1.00  0.00    -0.287 N 
ATOM      5  H8  UNL     1      27.823   4.243 -52.133  1.00  0.00     0.188 HD
HETATM    6  N9  UNL     1      29.469   3.919 -50.847  1.00  0.00    -0.234 N 
ATOM      7  H9  UNL     1      30.251   4.120 -51.470  1.00  0.00     0.209 HD
ENDROOT
BRANCH   3   8
HETATM    8  C7  UNL     1      25.963   3.507 -50.064  1.00  0.00     0.174 C 
BRANCH   8   9
HETATM    9  N3  UNL     1      25.599   2.126 -50.135  1.00  0.00    -0.409 N 
ATOM     10  H3  UNL     1      25.760   1.497 -49.348  1.00  0.00     0.154 HD
BRANCH   9  11
HETATM   11  C8  UNL     1      25.007   1.660 -51.338  1.00  0.00     0.109 C 
HETATM   12  C9  UNL     1      26.069   1.515 -52.409  1.00  0.00     0.062 C 
HETATM   13  C10 UNL     1      26.879   0.267 -52.321  1.00  0.00     0.216 C 
HETATM   14  C11 UNL     1      26.023  -0.933 -52.092  1.00  0.00     0.173 C 
HETATM   15  C12 UNL     1      24.561  -0.678 -52.139  1.00  0.00     0.145 C 
HETATM   16  C14 UNL     1      24.096   0.510 -51.322  1.00  0.00     0.165 C 
BRANCH  13  17
HETATM   17  N4  UNL     1      27.895   0.323 -51.307  1.00  0.00    -0.072 N 
ATOM     18  H43 UNL     1      27.916  -0.542 -50.767  1.00  0.00     0.274 HD
ATOM     19  H42 UNL     1      28.826   0.284 -51.723  1.00  0.00     0.274 HD
ATOM     20  H41 UNL     1      27.805   1.133 -50.693  1.00  0.00     0.274 HD
ENDBRANCH  13  17
BRANCH  14  21
HETATM   21  O1  UNL     1      26.313  -1.853 -53.128  1.00  0.00    -0.391 OA
ATOM     22  H1  UNL     1      25.846  -1.557 -53.901  1.00  0.00     0.210 HD
ENDBRANCH  14  21
BRANCH  15  23
HETATM   23  N5  UNL     1      23.830  -1.846 -51.726  1.00  0.00    -0.353 N 
HETATM   24  C13 UNL     1      22.959  -1.958 -50.634  1.00  0.00     0.208 C 
HETATM   25  N6  UNL     1      21.586  -1.677 -50.598  1.00  0.00    -0.062 NA
HETATM   26  N7  UNL     1      23.498  -2.372 -49.514  1.00  0.00    -0.241 N 
ATOM     27  H7  UNL     1      22.902  -2.466 -48.692  1.00  0.00     0.197 HD
ATOM     28  H5  UNL     1      23.960  -2.685 -52.289  1.00  0.00     0.162 HD
BRANCH  26  29
HETATM   29  O2  UNL     1      24.824  -2.683 -49.399  1.00  0.00    -0.287 OA
ATOM     30  H2  UNL     1      25.155  -3.570 -49.478  1.00  0.00     0.244 HD
ENDBRANCH  26  29
ENDBRANCH  15  23
BRANCH  16  31
HETATM   31  O3  UNL     1      22.869   0.892 -51.950  1.00  0.00    -0.391 OA
ATOM     32  H3  UNL     1      23.036   1.637 -52.516  1.00  0.00     0.210 HD
ENDBRANCH  16  31
ENDBRANCH   9  11
ENDBRANCH   8   9
ENDBRANCH   3   8
BRANCH   1  33
HETATM   33  C4  UNL     1      30.834   3.368 -48.877  1.00  0.00     0.205 C 
HETATM   34  S1  UNL     1      30.488   2.990 -47.107  1.00  0.00    -0.084 SA
HETATM   35  C3  UNL     1      30.210   1.173 -47.096  1.00  0.00     0.092 C 
HETATM   36  C2  UNL     1      31.598   0.617 -47.443  1.00  0.00     0.063 C 
HETATM   37  C17 UNL     1      31.660   0.327 -48.904  1.00  0.00     0.126 C 
HETATM   38  C15 UNL     1      31.987   1.475 -49.795  1.00  0.00     0.194 C 
HETATM   39  O4  UNL     1      31.825   2.718 -49.425  1.00  0.00    -0.318 OA
BRANCH  36  40
HETATM   40  C1  UNL     1      31.735  -0.624 -46.590  1.00  0.00     0.238 C 
BRANCH  40  41
HETATM   41  N1  UNL     1      31.668  -0.196 -45.194  1.00  0.00    -0.079 N 
ATOM     42  H13 UNL     1      32.582  -0.157 -44.744  1.00  0.00     0.274 HD
ATOM     43  H12 UNL     1      31.428   0.789 -45.089  1.00  0.00     0.274 HD
ATOM     44  H11 UNL     1      31.016  -0.819 -44.719  1.00  0.00     0.274 HD
ENDBRANCH  40  41
ENDBRANCH  36  40
BRANCH  37  45
HETATM   45  O6  UNL     1      30.454  -0.297 -49.274  1.00  0.00    -0.381 OA
ATOM     46  H6  UNL     1      30.341  -0.183 -50.211  1.00  0.00     0.211 HD
ENDBRANCH  37  45
BRANCH  37  47
HETATM   47  C18 UNL     1      32.708  -0.748 -49.033  1.00  0.00     0.127 C 
HETATM   48  N10 UNL     1      33.895  -0.541 -49.424  1.00  0.00    -0.281 N 
ATOM     49  H10 UNL     1      34.222   0.391 -49.679  1.00  0.00     0.193 HD
BRANCH  48  50
HETATM   50  O7  UNL     1      34.735  -1.661 -49.486  1.00  0.00    -0.290 OA
ATOM     51  H7  UNL     1      34.308  -2.509 -49.488  1.00  0.00     0.244 HD
ENDBRANCH  48  50
ENDBRANCH  37  47
BRANCH  38  52
HETATM   52  C16 UNL     1      31.517   1.109 -51.215  1.00  0.00     0.200 C 
BRANCH  52  53
HETATM   53  O5  UNL     1      32.317   0.120 -51.779  1.00  0.00    -0.398 OA
ATOM     54  H5  UNL     1      32.745   0.427 -52.570  1.00  0.00     0.209 HD
ENDBRANCH  52  53
ENDBRANCH  38  52
ENDBRANCH   1  33
TORSDOF 16
ENDMDL
