MODEL 1
REMARK VINA RESULT: -7.719627503      0.000      0.000
REMARK  13 active torsions:
REMARK  status: ('A' for Active; 'I' for Inactive)
REMARK    1  A    between atoms: C2_2  and  S1_6 
REMARK    2  A    between atoms: S1_6  and  S2_7 
REMARK    3  A    between atoms: S2_7  and  C3_8 
REMARK    4  A    between atoms: C6_14  and  N3_15 
REMARK    5  A    between atoms: C7_19  and  N4_20 
REMARK    6  A    between atoms: N4_20  and  C8_22 
REMARK    7  A    between atoms: C9_26  and  C10_27 
REMARK    8  A    between atoms: C10_27  and  O1_28 
REMARK    9  A    between atoms: O1_28  and  C11_29 
REMARK   10  A    between atoms: C12_31  and  N6_32 
REMARK   11  A    between atoms: C13_36  and  O3_37 
REMARK   12  A    between atoms: C14_39  and  N7_40 
REMARK   13  A    between atoms: C15_45  and  O5_46 
ROOT
HETATM    1  C8  UNL     1     -21.270   2.088  43.495  1.00  0.00     0.339 C 
HETATM    2  N5  UNL     1     -21.430   0.808  44.164  1.00  0.00    -0.021 N 
ATOM      3  H51 UNL     1     -20.833   0.075  43.781  1.00  0.00     0.283 HD
ATOM      4  H52 UNL     1     -22.325   0.360  43.968  1.00  0.00     0.283 HD
HETATM    5  C9  UNL     1     -21.210   1.047  45.560  1.00  0.00     0.349 C 
HETATM    6  O4  UNL     1     -21.656   2.347  45.791  1.00  0.00    -0.323 OA
HETATM    7  C15 UNL     1     -21.239   3.055  44.691  1.00  0.00     0.309 C 
ENDROOT
BRANCH   1   8
HETATM    8  N4  UNL     1     -22.371   2.435  42.719  1.00  0.00    -0.382 N 
ATOM      9  H4  UNL     1     -23.251   2.651  43.188  1.00  0.00     0.155 HD
BRANCH   8  10
HETATM   10  C7  UNL     1     -22.322   2.500  41.321  1.00  0.00     0.151 C 
HETATM   11  C3  UNL     1     -21.872   1.216  40.687  1.00  0.00     0.087 C 
HETATM   12  C4  UNL     1     -20.837   1.436  39.604  1.00  0.00     0.045 C 
HETATM   13  C5  UNL     1     -21.170   2.569  38.682  1.00  0.00     0.236 C 
HETATM   14  N2  UNL     1     -21.842   3.658  39.308  1.00  0.00    -0.044 N 
HETATM   15  C6  UNL     1     -21.561   3.688  40.756  1.00  0.00     0.403 C 
ATOM     16  H22 UNL     1     -21.616   4.546  38.862  1.00  0.00     0.279 HD
ATOM     17  H21 UNL     1     -22.844   3.640  39.119  1.00  0.00     0.279 HD
BRANCH  11  18
HETATM   18  S2  UNL     1     -23.251   0.242  39.993  1.00  0.00    -0.084 SA
BRANCH  18  19
HETATM   19  S1  UNL     1     -24.339  -0.588  41.611  1.00  0.00    -0.045 SA
BRANCH  19  20
HETATM   20  C2  UNL     1     -25.142  -2.053  41.079  1.00  0.00     0.047 C 
HETATM   21  C1  UNL     1     -25.563  -3.119  42.046  1.00  0.00     0.076 C 
HETATM   22  N1  UNL     1     -25.438  -2.241  39.843  1.00  0.00    -0.397 N 
ATOM     23  H12 UNL     1     -25.905  -3.093  39.534  1.00  0.00     0.156 HD
ATOM     24  H11 UNL     1     -25.152  -1.516  39.186  1.00  0.00     0.156 HD
ENDBRANCH  19  20
ENDBRANCH  18  19
ENDBRANCH  11  18
BRANCH  15  25
HETATM   25  N3  UNL     1     -22.175   4.899  41.218  1.00  0.00    -0.048 N 
ATOM     26  H33 UNL     1     -22.616   5.449  40.481  1.00  0.00     0.276 HD
ATOM     27  H32 UNL     1     -23.019   4.751  41.771  1.00  0.00     0.276 HD
ATOM     28  H31 UNL     1     -21.433   5.391  41.716  1.00  0.00     0.276 HD
ENDBRANCH  15  25
ENDBRANCH   8  10
ENDBRANCH   1   8
BRANCH   7  29
HETATM   29  O5  UNL     1     -20.051   3.728  44.813  1.00  0.00    -0.367 OA
ATOM     30  H5  UNL     1     -20.162   4.649  45.017  1.00  0.00     0.212 HD
ENDBRANCH   7  29
BRANCH   5  31
HETATM   31  C10 UNL     1     -19.762   0.986  45.988  1.00  0.00     0.232 C 
BRANCH  31  32
HETATM   32  O1  UNL     1     -19.247  -0.264  45.639  1.00  0.00    -0.355 OA
BRANCH  32  33
HETATM   33  C11 UNL     1     -17.964  -0.238  45.155  1.00  0.00     0.295 C 
HETATM   34  O2  UNL     1     -17.633  -1.508  44.749  1.00  0.00    -0.324 OA
HETATM   35  C12 UNL     1     -17.458  -1.591  43.407  1.00  0.00     0.352 C 
HETATM   36  C13 UNL     1     -18.085  -0.354  42.826  1.00  0.00     0.209 C 
HETATM   37  C14 UNL     1     -17.877   0.666  43.949  1.00  0.00     0.271 C 
BRANCH  35  38
HETATM   38  N6  UNL     1     -16.063  -1.725  43.025  1.00  0.00    -0.050 N 
ATOM     39  H63 UNL     1     -15.448  -1.475  43.799  1.00  0.00     0.277 HD
ATOM     40  H62 UNL     1     -15.807  -2.707  42.920  1.00  0.00     0.277 HD
ATOM     41  H61 UNL     1     -15.827  -1.195  42.186  1.00  0.00     0.277 HD
ENDBRANCH  35  38
BRANCH  36  42
HETATM   42  O3  UNL     1     -19.433  -0.582  42.643  1.00  0.00    -0.389 OA
ATOM     43  H3  UNL     1     -19.829  -0.774  43.485  1.00  0.00     0.210 HD
ENDBRANCH  36  42
BRANCH  37  44
HETATM   44  N7  UNL     1     -16.519   1.156  43.832  1.00  0.00    -0.068 N 
ATOM     45  H73 UNL     1     -15.886   0.712  44.497  1.00  0.00     0.275 HD
ATOM     46  H72 UNL     1     -16.064   0.844  42.974  1.00  0.00     0.275 HD
ATOM     47  H71 UNL     1     -16.528   2.173  43.922  1.00  0.00     0.275 HD
ENDBRANCH  37  44
ENDBRANCH  32  33
ENDBRANCH  31  32
ENDBRANCH   5  31
TORSDOF 13
ENDMDL
MODEL 2
REMARK VINA RESULT: -7.378807087      3.709      7.656
REMARK  13 active torsions:
REMARK  status: ('A' for Active; 'I' for Inactive)
REMARK    1  A    between atoms: C2_2  and  S1_6 
REMARK    2  A    between atoms: S1_6  and  S2_7 
REMARK    3  A    between atoms: S2_7  and  C3_8 
REMARK    4  A    between atoms: C6_14  and  N3_15 
REMARK    5  A    between atoms: C7_19  and  N4_20 
REMARK    6  A    between atoms: N4_20  and  C8_22 
REMARK    7  A    between atoms: C9_26  and  C10_27 
REMARK    8  A    between atoms: C10_27  and  O1_28 
REMARK    9  A    between atoms: O1_28  and  C11_29 
REMARK   10  A    between atoms: C12_31  and  N6_32 
REMARK   11  A    between atoms: C13_36  and  O3_37 
REMARK   12  A    between atoms: C14_39  and  N7_40 
REMARK   13  A    between atoms: C15_45  and  O5_46 
ROOT
HETATM    1  C8  UNL     1     -20.831   1.198  41.628  1.00  0.00     0.339 C 
HETATM    2  N5  UNL     1     -21.933   2.105  41.901  1.00  0.00    -0.021 N 
ATOM      3  H51 UNL     1     -21.642   3.079  41.988  1.00  0.00     0.283 HD
ATOM      4  H52 UNL     1     -22.316   2.002  42.840  1.00  0.00     0.283 HD
HETATM    5  C9  UNL     1     -22.902   1.893  40.867  1.00  0.00     0.349 C 
HETATM    6  O4  UNL     1     -22.791   0.548  40.521  1.00  0.00    -0.323 OA
HETATM    7  C15 UNL     1     -21.441   0.298  40.539  1.00  0.00     0.309 C 
ENDROOT
BRANCH   1   8
HETATM    8  N4  UNL     1     -20.524   0.379  42.709  1.00  0.00    -0.382 N 
ATOM      9  H4  UNL     1     -21.204  -0.324  42.998  1.00  0.00     0.155 HD
BRANCH   8  10
HETATM   10  C7  UNL     1     -19.319   0.479  43.416  1.00  0.00     0.151 C 
HETATM   11  C3  UNL     1     -18.980   1.889  43.806  1.00  0.00     0.087 C 
HETATM   12  C4  UNL     1     -17.533   2.235  43.526  1.00  0.00     0.045 C 
HETATM   13  C5  UNL     1     -16.571   1.164  43.943  1.00  0.00     0.236 C 
HETATM   14  N2  UNL     1     -17.066  -0.162  43.790  1.00  0.00    -0.044 N 
HETATM   15  C6  UNL     1     -18.130  -0.213  42.768  1.00  0.00     0.403 C 
ATOM     16  H22 UNL     1     -16.317  -0.823  43.586  1.00  0.00     0.279 HD
ATOM     17  H21 UNL     1     -17.379  -0.552  44.679  1.00  0.00     0.279 HD
BRANCH  11  18
HETATM   18  S2  UNL     1     -19.342   2.249  45.559  1.00  0.00    -0.084 SA
BRANCH  18  19
HETATM   19  S1  UNL     1     -21.381   2.808  45.699  1.00  0.00    -0.045 SA
BRANCH  19  20
HETATM   20  C2  UNL     1     -21.941   2.552  47.341  1.00  0.00     0.047 C 
HETATM   21  C1  UNL     1     -22.171   3.695  48.284  1.00  0.00     0.076 C 
HETATM   22  N1  UNL     1     -22.219   1.376  47.775  1.00  0.00    -0.397 N 
ATOM     23  H12 UNL     1     -22.544   1.227  48.730  1.00  0.00     0.156 HD
ATOM     24  H11 UNL     1     -22.063   0.599  47.133  1.00  0.00     0.156 HD
ENDBRANCH  19  20
ENDBRANCH  18  19
ENDBRANCH  11  18
BRANCH  15  25
HETATM   25  N3  UNL     1     -18.425  -1.609  42.623  1.00  0.00    -0.048 N 
ATOM     26  H33 UNL     1     -17.784  -2.224  43.124  1.00  0.00     0.276 HD
ATOM     27  H32 UNL     1     -19.271  -1.908  43.107  1.00  0.00     0.276 HD
ATOM     28  H31 UNL     1     -18.447  -1.764  41.615  1.00  0.00     0.276 HD
ENDBRANCH  15  25
ENDBRANCH   8  10
ENDBRANCH   1   8
BRANCH   7  29
HETATM   29  O5  UNL     1     -20.787   0.384  39.337  1.00  0.00    -0.367 OA
ATOM     30  H5  UNL     1     -21.363   0.594  38.612  1.00  0.00     0.212 HD
ENDBRANCH   7  29
BRANCH   5  31
HETATM   31  C10 UNL     1     -22.668   2.701  39.611  1.00  0.00     0.232 C 
BRANCH  31  32
HETATM   32  O1  UNL     1     -22.913   4.045  39.895  1.00  0.00    -0.355 OA
BRANCH  32  33
HETATM   33  C11 UNL     1     -22.482   4.920  38.930  1.00  0.00     0.295 C 
HETATM   34  O2  UNL     1     -23.547   5.221  38.116  1.00  0.00    -0.324 OA
HETATM   35  C12 UNL     1     -23.926   6.519  38.220  1.00  0.00     0.352 C 
HETATM   36  C13 UNL     1     -23.296   7.038  39.482  1.00  0.00     0.209 C 
HETATM   37  C14 UNL     1     -22.011   6.208  39.562  1.00  0.00     0.271 C 
BRANCH  35  38
HETATM   38  N6  UNL     1     -23.555   7.311  37.060  1.00  0.00    -0.050 N 
ATOM     39  H63 UNL     1     -22.811   7.969  37.291  1.00  0.00     0.277 HD
ATOM     40  H62 UNL     1     -23.065   6.740  36.371  1.00  0.00     0.277 HD
ATOM     41  H61 UNL     1     -24.349   7.792  36.637  1.00  0.00     0.277 HD
ENDBRANCH  35  38
BRANCH  36  42
HETATM   42  O3  UNL     1     -24.118   6.735  40.547  1.00  0.00    -0.389 OA
ATOM     43  H3  UNL     1     -24.061   7.436  41.187  1.00  0.00     0.210 HD
ENDBRANCH  36  42
BRANCH  37  44
HETATM   44  N7  UNL     1     -21.045   6.833  38.683  1.00  0.00    -0.068 N 
ATOM     45  H73 UNL     1     -21.437   7.626  38.175  1.00  0.00     0.275 HD
ATOM     46  H72 UNL     1     -20.321   7.338  39.195  1.00  0.00     0.275 HD
ATOM     47  H71 UNL     1     -20.659   6.122  38.061  1.00  0.00     0.275 HD
ENDBRANCH  37  44
ENDBRANCH  32  33
ENDBRANCH  31  32
ENDBRANCH   5  31
TORSDOF 13
ENDMDL
MODEL 3
REMARK VINA RESULT: -7.329520526      3.586      7.642
REMARK  13 active torsions:
REMARK  status: ('A' for Active; 'I' for Inactive)
REMARK    1  A    between atoms: C2_2  and  S1_6 
REMARK    2  A    between atoms: S1_6  and  S2_7 
REMARK    3  A    between atoms: S2_7  and  C3_8 
REMARK    4  A    between atoms: C6_14  and  N3_15 
REMARK    5  A    between atoms: C7_19  and  N4_20 
REMARK    6  A    between atoms: N4_20  and  C8_22 
REMARK    7  A    between atoms: C9_26  and  C10_27 
REMARK    8  A    between atoms: C10_27  and  O1_28 
REMARK    9  A    between atoms: O1_28  and  C11_29 
REMARK   10  A    between atoms: C12_31  and  N6_32 
REMARK   11  A    between atoms: C13_36  and  O3_37 
REMARK   12  A    between atoms: C14_39  and  N7_40 
REMARK   13  A    between atoms: C15_45  and  O5_46 
ROOT
HETATM    1  C8  UNL     1     -19.438   2.035  41.077  1.00  0.00     0.339 C 
HETATM    2  N5  UNL     1     -20.401   3.015  41.547  1.00  0.00    -0.021 N 
ATOM      3  H51 UNL     1     -20.263   3.942  41.143  1.00  0.00     0.283 HD
ATOM      4  H52 UNL     1     -20.264   3.280  42.522  1.00  0.00     0.283 HD
HETATM    5  C9  UNL     1     -21.700   2.470  41.285  1.00  0.00     0.349 C 
HETATM    6  O4  UNL     1     -21.556   1.089  41.404  1.00  0.00    -0.323 OA
HETATM    7  C15 UNL     1     -20.343   0.818  40.820  1.00  0.00     0.309 C 
ENDROOT
BRANCH   1   8
HETATM    8  N4  UNL     1     -18.522   1.662  42.056  1.00  0.00    -0.382 N 
ATOM      9  H4  UNL     1     -17.637   2.166  42.114  1.00  0.00     0.155 HD
BRANCH   8  10
HETATM   10  C7  UNL     1     -18.766   0.625  42.964  1.00  0.00     0.151 C 
HETATM   11  C3  UNL     1     -19.078   1.115  44.349  1.00  0.00     0.087 C 
HETATM   12  C4  UNL     1     -18.324   0.352  45.418  1.00  0.00     0.045 C 
HETATM   13  C5  UNL     1     -18.326  -1.132  45.205  1.00  0.00     0.236 C 
HETATM   14  N2  UNL     1     -18.294  -1.529  43.838  1.00  0.00    -0.044 N 
HETATM   15  C6  UNL     1     -17.710  -0.469  42.994  1.00  0.00     0.403 C 
ATOM     16  H22 UNL     1     -17.809  -2.418  43.716  1.00  0.00     0.279 HD
ATOM     17  H21 UNL     1     -19.217  -1.809  43.506  1.00  0.00     0.279 HD
BRANCH  11  18
HETATM   18  S2  UNL     1     -20.861   1.064  44.737  1.00  0.00    -0.084 SA
BRANCH  18  19
HETATM   19  S1  UNL     1     -21.374   2.895  45.672  1.00  0.00    -0.045 SA
BRANCH  19  20
HETATM   20  C2  UNL     1     -21.934   2.577  47.303  1.00  0.00     0.047 C 
HETATM   21  C1  UNL     1     -22.187   3.685  48.282  1.00  0.00     0.076 C 
HETATM   22  N1  UNL     1     -22.190   1.383  47.699  1.00  0.00    -0.397 N 
ATOM     23  H12 UNL     1     -22.515   1.198  48.648  1.00  0.00     0.156 HD
ATOM     24  H11 UNL     1     -22.018   0.630  47.034  1.00  0.00     0.156 HD
ENDBRANCH  19  20
ENDBRANCH  18  19
ENDBRANCH  11  18
BRANCH  15  25
HETATM   25  N3  UNL     1     -17.612  -1.058  41.690  1.00  0.00    -0.048 N 
ATOM     26  H33 UNL     1     -18.464  -1.524  41.379  1.00  0.00     0.276 HD
ATOM     27  H32 UNL     1     -17.570  -0.379  40.930  1.00  0.00     0.276 HD
ATOM     28  H31 UNL     1     -16.799  -1.671  41.745  1.00  0.00     0.276 HD
ENDBRANCH  15  25
ENDBRANCH   8  10
ENDBRANCH   1   8
BRANCH   7  29
HETATM   29  O5  UNL     1     -20.371   0.431  39.505  1.00  0.00    -0.367 OA
ATOM     30  H5  UNL     1     -20.083  -0.464  39.372  1.00  0.00     0.212 HD
ENDBRANCH   7  29
BRANCH   5  31
HETATM   31  C10 UNL     1     -22.231   2.748  39.897  1.00  0.00     0.232 C 
BRANCH  31  32
HETATM   32  O1  UNL     1     -22.880   3.983  39.909  1.00  0.00    -0.355 OA
BRANCH  32  33
HETATM   33  C11 UNL     1     -22.443   4.867  38.956  1.00  0.00     0.295 C 
HETATM   34  O2  UNL     1     -23.499   5.168  38.132  1.00  0.00    -0.324 OA
HETATM   35  C12 UNL     1     -23.886   6.463  38.240  1.00  0.00     0.352 C 
HETATM   36  C13 UNL     1     -23.274   6.977  39.513  1.00  0.00     0.209 C 
HETATM   37  C14 UNL     1     -21.986   6.153  39.602  1.00  0.00     0.271 C 
BRANCH  35  38
HETATM   38  N6  UNL     1     -23.507   7.266  37.090  1.00  0.00    -0.050 N 
ATOM     39  H63 UNL     1     -22.815   6.779  36.519  1.00  0.00     0.277 HD
ATOM     40  H62 UNL     1     -24.271   7.321  36.416  1.00  0.00     0.277 HD
ATOM     41  H61 UNL     1     -23.178   8.196  37.346  1.00  0.00     0.277 HD
ENDBRANCH  35  38
BRANCH  36  42
HETATM   42  O3  UNL     1     -24.106   6.663  40.567  1.00  0.00    -0.389 OA
ATOM     43  H3  UNL     1     -24.519   7.459  40.880  1.00  0.00     0.210 HD
ENDBRANCH  36  42
BRANCH  37  44
HETATM   44  N7  UNL     1     -21.013   6.789  38.739  1.00  0.00    -0.068 N 
ATOM     45  H73 UNL     1     -20.153   7.029  39.232  1.00  0.00     0.275 HD
ATOM     46  H72 UNL     1     -20.611   6.141  38.061  1.00  0.00     0.275 HD
ATOM     47  H71 UNL     1     -21.448   7.598  38.294  1.00  0.00     0.275 HD
ENDBRANCH  37  44
ENDBRANCH  32  33
ENDBRANCH  31  32
ENDBRANCH   5  31
TORSDOF 13
ENDMDL
MODEL 4
REMARK VINA RESULT: -7.111744819      3.807      7.420
REMARK  13 active torsions:
REMARK  status: ('A' for Active; 'I' for Inactive)
REMARK    1  A    between atoms: C2_2  and  S1_6 
REMARK    2  A    between atoms: S1_6  and  S2_7 
REMARK    3  A    between atoms: S2_7  and  C3_8 
REMARK    4  A    between atoms: C6_14  and  N3_15 
REMARK    5  A    between atoms: C7_19  and  N4_20 
REMARK    6  A    between atoms: N4_20  and  C8_22 
REMARK    7  A    between atoms: C9_26  and  C10_27 
REMARK    8  A    between atoms: C10_27  and  O1_28 
REMARK    9  A    between atoms: O1_28  and  C11_29 
REMARK   10  A    between atoms: C12_31  and  N6_32 
REMARK   11  A    between atoms: C13_36  and  O3_37 
REMARK   12  A    between atoms: C14_39  and  N7_40 
REMARK   13  A    between atoms: C15_45  and  O5_46 
ROOT
HETATM    1  C8  UNL     1     -21.617   1.162  42.314  1.00  0.00     0.339 C 
HETATM    2  N5  UNL     1     -20.741   2.079  41.604  1.00  0.00    -0.021 N 
ATOM      3  H51 UNL     1     -20.202   1.630  40.864  1.00  0.00     0.283 HD
ATOM      4  H52 UNL     1     -19.950   2.396  42.164  1.00  0.00     0.283 HD
HETATM    5  C9  UNL     1     -21.568   3.150  41.133  1.00  0.00     0.349 C 
HETATM    6  O4  UNL     1     -22.582   3.284  42.080  1.00  0.00    -0.323 OA
HETATM    7  C15 UNL     1     -22.906   1.994  42.421  1.00  0.00     0.309 C 
ENDROOT
BRANCH   1   8
HETATM    8  N4  UNL     1     -21.190   0.903  43.612  1.00  0.00    -0.382 N 
ATOM      9  H4  UNL     1     -21.690   0.203  44.160  1.00  0.00     0.155 HD
BRANCH   8  10
HETATM   10  C7  UNL     1     -20.103   1.563  44.198  1.00  0.00     0.151 C 
HETATM   11  C3  UNL     1     -18.943   0.653  44.479  1.00  0.00     0.087 C 
HETATM   12  C4  UNL     1     -18.362   0.863  45.862  1.00  0.00     0.045 C 
HETATM   13  C5  UNL     1     -18.198   2.307  46.228  1.00  0.00     0.236 C 
HETATM   14  N2  UNL     1     -19.205   3.165  45.699  1.00  0.00    -0.044 N 
HETATM   15  C6  UNL     1     -20.442   2.412  45.413  1.00  0.00     0.403 C 
ATOM     16  H22 UNL     1     -19.381   3.960  46.313  1.00  0.00     0.279 HD
ATOM     17  H21 UNL     1     -18.874   3.672  44.878  1.00  0.00     0.279 HD
BRANCH  11  18
HETATM   18  S2  UNL     1     -17.602   0.808  43.250  1.00  0.00    -0.084 SA
BRANCH  18  19
HETATM   19  S1  UNL     1     -17.366  -1.074  42.305  1.00  0.00    -0.045 SA
BRANCH  19  20
HETATM   20  C2  UNL     1     -17.593  -0.887  40.576  1.00  0.00     0.047 C 
HETATM   21  C1  UNL     1     -18.862  -0.330  40.002  1.00  0.00     0.076 C 
HETATM   22  N1  UNL     1     -16.658  -1.178  39.745  1.00  0.00    -0.397 N 
ATOM     23  H12 UNL     1     -16.790  -1.070  38.740  1.00  0.00     0.156 HD
ATOM     24  H11 UNL     1     -15.796  -1.557  40.136  1.00  0.00     0.156 HD
ENDBRANCH  19  20
ENDBRANCH  18  19
ENDBRANCH  11  18
BRANCH  15  25
HETATM   25  N3  UNL     1     -21.394   3.414  45.031  1.00  0.00    -0.048 N 
ATOM     26  H33 UNL     1     -22.277   3.363  45.540  1.00  0.00     0.276 HD
ATOM     27  H32 UNL     1     -21.146   4.358  45.327  1.00  0.00     0.276 HD
ATOM     28  H31 UNL     1     -21.490   3.307  44.022  1.00  0.00     0.276 HD
ENDBRANCH  15  25
ENDBRANCH   8  10
ENDBRANCH   1   8
BRANCH   7  29
HETATM   29  O5  UNL     1     -23.968   1.436  41.758  1.00  0.00    -0.367 OA
ATOM     30  H5  UNL     1     -24.113   1.812  40.898  1.00  0.00     0.212 HD
ENDBRANCH   7  29
BRANCH   5  31
HETATM   31  C10 UNL     1     -22.231   2.894  39.799  1.00  0.00     0.232 C 
BRANCH  31  32
HETATM   32  O1  UNL     1     -23.120   3.937  39.536  1.00  0.00    -0.355 OA
BRANCH  32  33
HETATM   33  C11 UNL     1     -22.660   4.867  38.638  1.00  0.00     0.295 C 
HETATM   34  O2  UNL     1     -23.718   5.276  37.863  1.00  0.00    -0.324 OA
HETATM   35  C12 UNL     1     -24.039   6.577  38.074  1.00  0.00     0.352 C 
HETATM   36  C13 UNL     1     -23.375   6.967  39.365  1.00  0.00     0.209 C 
HETATM   37  C14 UNL     1     -22.128   6.079  39.363  1.00  0.00     0.271 C 
BRANCH  35  38
HETATM   38  N6  UNL     1     -23.645   7.441  36.975  1.00  0.00    -0.050 N 
ATOM     39  H63 UNL     1     -22.680   7.261  36.698  1.00  0.00     0.277 HD
ATOM     40  H62 UNL     1     -24.119   7.173  36.112  1.00  0.00     0.277 HD
ATOM     41  H61 UNL     1     -23.787   8.431  37.178  1.00  0.00     0.277 HD
ENDBRANCH  35  38
BRANCH  36  42
HETATM   42  O3  UNL     1     -24.200   6.616  40.413  1.00  0.00    -0.389 OA
ATOM     43  H3  UNL     1     -23.662   6.356  41.153  1.00  0.00     0.210 HD
ENDBRANCH  36  42
BRANCH  37  44
HETATM   44  N7  UNL     1     -21.143   6.729  38.524  1.00  0.00    -0.068 N 
ATOM     45  H73 UNL     1     -20.233   6.270  38.563  1.00  0.00     0.275 HD
ATOM     46  H72 UNL     1     -21.327   6.592  37.530  1.00  0.00     0.275 HD
ATOM     47  H71 UNL     1     -21.095   7.716  38.779  1.00  0.00     0.275 HD
ENDBRANCH  37  44
ENDBRANCH  32  33
ENDBRANCH  31  32
ENDBRANCH   5  31
TORSDOF 13
ENDMDL
MODEL 5
REMARK VINA RESULT: -7.028022332      4.045      7.853
REMARK  13 active torsions:
REMARK  status: ('A' for Active; 'I' for Inactive)
REMARK    1  A    between atoms: C2_2  and  S1_6 
REMARK    2  A    between atoms: S1_6  and  S2_7 
REMARK    3  A    between atoms: S2_7  and  C3_8 
REMARK    4  A    between atoms: C6_14  and  N3_15 
REMARK    5  A    between atoms: C7_19  and  N4_20 
REMARK    6  A    between atoms: N4_20  and  C8_22 
REMARK    7  A    between atoms: C9_26  and  C10_27 
REMARK    8  A    between atoms: C10_27  and  O1_28 
REMARK    9  A    between atoms: O1_28  and  C11_29 
REMARK   10  A    between atoms: C12_31  and  N6_32 
REMARK   11  A    between atoms: C13_36  and  O3_37 
REMARK   12  A    between atoms: C14_39  and  N7_40 
REMARK   13  A    between atoms: C15_45  and  O5_46 
ROOT
HETATM    1  C8  UNL     1     -23.245  -0.983  40.291  1.00  0.00     0.339 C 
HETATM    2  N5  UNL     1     -23.988  -1.885  39.427  1.00  0.00    -0.021 N 
ATOM      3  H51 UNL     1     -23.517  -2.778  39.275  1.00  0.00     0.283 HD
ATOM      4  H52 UNL     1     -24.009  -1.585  38.453  1.00  0.00     0.283 HD
HETATM    5  C9  UNL     1     -25.292  -2.023  40.006  1.00  0.00     0.349 C 
HETATM    6  O4  UNL     1     -25.557  -0.802  40.623  1.00  0.00    -0.323 OA
HETATM    7  C15 UNL     1     -24.363  -0.440  41.196  1.00  0.00     0.309 C 
ENDROOT
BRANCH   1   8
HETATM    8  N4  UNL     1     -22.711   0.104  39.606  1.00  0.00    -0.382 N 
ATOM      9  H4  UNL     1     -23.016   0.275  38.648  1.00  0.00     0.155 HD
BRANCH   8  10
HETATM   10  C7  UNL     1     -21.772   0.971  40.178  1.00  0.00     0.151 C 
HETATM   11  C3  UNL     1     -20.983   0.337  41.288  1.00  0.00     0.087 C 
HETATM   12  C4  UNL     1     -20.868   1.234  42.502  1.00  0.00     0.045 C 
HETATM   13  C5  UNL     1     -20.545   2.658  42.166  1.00  0.00     0.236 C 
HETATM   14  N2  UNL     1     -21.120   3.118  40.947  1.00  0.00    -0.044 N 
HETATM   15  C6  UNL     1     -22.316   2.328  40.596  1.00  0.00     0.403 C 
ATOM     16  H22 UNL     1     -21.326   4.116  40.981  1.00  0.00     0.279 HD
ATOM     17  H21 UNL     1     -20.438   3.126  40.188  1.00  0.00     0.279 HD
BRANCH  11  18
HETATM   18  S2  UNL     1     -19.307  -0.169  40.771  1.00  0.00    -0.084 SA
BRANCH  18  19
HETATM   19  S1  UNL     1     -18.413  -1.203  42.390  1.00  0.00    -0.045 SA
BRANCH  19  20
HETATM   20  C2  UNL     1     -17.664  -0.046  43.474  1.00  0.00     0.047 C 
HETATM   21  C1  UNL     1     -17.197   1.297  42.995  1.00  0.00     0.076 C 
HETATM   22  N1  UNL     1     -17.532  -0.293  44.727  1.00  0.00    -0.397 N 
ATOM     23  H12 UNL     1     -17.096   0.379  45.357  1.00  0.00     0.156 HD
ATOM     24  H11 UNL     1     -17.850  -1.206  45.052  1.00  0.00     0.156 HD
ENDBRANCH  19  20
ENDBRANCH  18  19
ENDBRANCH  11  18
BRANCH  15  25
HETATM   25  N3  UNL     1     -22.861   2.987  39.445  1.00  0.00    -0.048 N 
ATOM     26  H33 UNL     1     -23.845   3.238  39.537  1.00  0.00     0.276 HD
ATOM     27  H32 UNL     1     -22.514   3.936  39.307  1.00  0.00     0.276 HD
ATOM     28  H31 UNL     1     -22.664   2.355  38.669  1.00  0.00     0.276 HD
ENDBRANCH  15  25
ENDBRANCH   8  10
ENDBRANCH   1   8
BRANCH   7  29
HETATM   29  O5  UNL     1     -24.196  -0.765  42.518  1.00  0.00    -0.367 OA
ATOM     30  H5  UNL     1     -23.434  -0.358  42.910  1.00  0.00     0.212 HD
ENDBRANCH   7  29
BRANCH   5  31
HETATM   31  C10 UNL     1     -25.399  -3.095  41.066  1.00  0.00     0.232 C 
BRANCH  31  32
HETATM   32  O1  UNL     1     -26.165  -2.600  42.123  1.00  0.00    -0.355 OA
BRANCH  32  33
HETATM   33  C11 UNL     1     -26.784  -3.562  42.879  1.00  0.00     0.295 C 
HETATM   34  O2  UNL     1     -27.649  -2.939  43.744  1.00  0.00    -0.324 OA
HETATM   35  C12 UNL     1     -28.947  -3.226  43.472  1.00  0.00     0.352 C 
HETATM   36  C13 UNL     1     -28.965  -3.796  42.082  1.00  0.00     0.209 C 
HETATM   37  C14 UNL     1     -27.597  -4.480  41.999  1.00  0.00     0.271 C 
BRANCH  35  38
HETATM   38  N6  UNL     1     -29.541  -4.131  44.441  1.00  0.00    -0.050 N 
ATOM     39  H63 UNL     1     -28.883  -4.346  45.191  1.00  0.00     0.277 HD
ATOM     40  H62 UNL     1     -30.265  -3.659  44.984  1.00  0.00     0.277 HD
ATOM     41  H61 UNL     1     -29.901  -4.986  44.017  1.00  0.00     0.277 HD
ENDBRANCH  35  38
BRANCH  36  42
HETATM   42  O3  UNL     1     -29.027  -2.759  41.175  1.00  0.00    -0.389 OA
ATOM     43  H3  UNL     1     -28.457  -2.058  41.471  1.00  0.00     0.210 HD
ENDBRANCH  36  42
BRANCH  37  44
HETATM   44  N7  UNL     1     -27.723  -5.765  42.655  1.00  0.00    -0.068 N 
ATOM     45  H73 UNL     1     -28.426  -6.360  42.215  1.00  0.00     0.275 HD
ATOM     46  H72 UNL     1     -26.913  -6.364  42.497  1.00  0.00     0.275 HD
ATOM     47  H71 UNL     1     -27.908  -5.611  43.647  1.00  0.00     0.275 HD
ENDBRANCH  37  44
ENDBRANCH  32  33
ENDBRANCH  31  32
ENDBRANCH   5  31
TORSDOF 13
ENDMDL
