MODEL 1
REMARK VINA RESULT: -6.249589599      0.000      0.000
REMARK  13 active torsions:
REMARK  status: ('A' for Active; 'I' for Inactive)
REMARK    1  A    between atoms: O1_2  and  C2_3 
REMARK    2  A    between atoms: C2_3  and  O2_4 
REMARK    3  A    between atoms: C2_3  and  C3_6 
REMARK    4  A    between atoms: C5_8  and  O3_9 
REMARK    5  A    between atoms: C9_15  and  N1_16 
REMARK    6  A    between atoms: N2_18  and  C10_20 
REMARK    7  A    between atoms: C11_21  and  N3_22 
REMARK    8  A    between atoms: C11_21  and  N4_26 
REMARK    9  A    between atoms: C12_30  and  N5_31 
REMARK   10  A    between atoms: C13_35  and  N6_36 
REMARK   11  A    between atoms: C13_35  and  O5_40 
REMARK   12  A    between atoms: C15_44  and  O7_45 
REMARK   13  A    between atoms: C15_44  and  C16_47 
ROOT
HETATM    1  N1  UNL     1     -21.793   1.536  42.167  1.00  0.00    -0.300 N 
ATOM      2  H1  UNL     1     -22.147   2.490  42.232  1.00  0.00     0.186 HD
HETATM    3  N2  UNL     1     -20.705   1.240  42.749  1.00  0.00    -0.322 N 
ATOM      4  H2  UNL     1     -20.322   0.295  42.706  1.00  0.00     0.180 HD
ENDROOT
BRANCH   1   5
HETATM    5  C9  UNL     1     -22.526   0.578  41.432  1.00  0.00     0.112 C 
HETATM    6  C3  UNL     1     -22.348   0.579  40.057  1.00  0.00     0.031 C 
HETATM    7  C4  UNL     1     -22.819  -0.362  39.174  1.00  0.00     0.052 C 
HETATM    8  C5  UNL     1     -23.925  -1.176  39.312  1.00  0.00     0.083 C 
HETATM    9  C6  UNL     1     -24.569  -1.550  40.498  1.00  0.00     0.084 C 
HETATM   10  C7  UNL     1     -24.302  -1.130  41.779  1.00  0.00     0.138 C 
HETATM   11  C17 UNL     1     -25.645  -2.500  40.294  1.00  0.00     0.212 C 
HETATM   12  C8  UNL     1     -23.332  -0.241  42.177  1.00  0.00     0.234 C 
HETATM   13  O6  UNL     1     -25.080  -1.644  42.797  1.00  0.00    -0.342 OA
HETATM   14  O4  UNL     1     -23.170  -0.182  43.441  1.00  0.00    -0.283 OA
HETATM   15  C14 UNL     1     -25.647  -2.938  42.745  1.00  0.00     0.234 C 
HETATM   16  C15 UNL     1     -26.278  -3.259  41.428  1.00  0.00     0.233 C 
HETATM   17  O10 UNL     1     -26.073  -2.710  39.147  1.00  0.00    -0.288 OA
BRANCH   6  18
HETATM   18  C2  UNL     1     -21.585   1.683  39.466  1.00  0.00     0.293 C 
BRANCH  18  19
HETATM   19  O1  UNL     1     -21.877   2.898  40.074  1.00  0.00    -0.362 OA
HETATM   20  C1  UNL     1     -22.403   3.840  39.199  1.00  0.00     0.205 C 
ENDBRANCH  18  19
BRANCH  18  21
HETATM   21  O2  UNL     1     -20.219   1.401  39.649  1.00  0.00    -0.367 OA
ATOM     22  H2  UNL     1     -20.128   0.498  39.930  1.00  0.00     0.213 HD
ENDBRANCH  18  21
ENDBRANCH   6  18
BRANCH   8  23
HETATM   23  O3  UNL     1     -24.510  -1.713  38.180  1.00  0.00    -0.360 OA
ATOM     24  H3  UNL     1     -24.339  -2.621  37.959  1.00  0.00     0.217 HD
ENDBRANCH   8  23
BRANCH  16  25
HETATM   25  O7  UNL     1     -26.060  -4.615  41.148  1.00  0.00    -0.370 OA
ATOM     26  H7  UNL     1     -26.703  -5.129  41.623  1.00  0.00     0.212 HD
ENDBRANCH  16  25
BRANCH  16  27
HETATM   27  C16 UNL     1     -27.742  -3.052  41.446  1.00  0.00     0.219 C 
HETATM   28  O8  UNL     1     -28.429  -2.930  40.418  1.00  0.00    -0.645 OA
HETATM   29  O9  UNL     1     -28.365  -2.995  42.703  1.00  0.00    -0.645 OA
ENDBRANCH  16  27
ENDBRANCH   1   5
BRANCH   3  30
HETATM   30  C10 UNL     1     -20.027   2.290  43.475  1.00  0.00     0.231 C 
HETATM   31  C11 UNL     1     -19.097   1.858  44.557  1.00  0.00     0.340 C 
HETATM   32  C12 UNL     1     -19.651   2.963  45.421  1.00  0.00     0.314 C 
HETATM   33  C13 UNL     1     -20.859   2.997  44.509  1.00  0.00     0.280 C 
BRANCH  31  34
HETATM   34  N3  UNL     1     -17.700   2.066  44.191  1.00  0.00    -0.040 N 
ATOM     35  H33 UNL     1     -17.579   2.066  43.177  1.00  0.00     0.277 HD
ATOM     36  H32 UNL     1     -17.405   3.023  44.387  1.00  0.00     0.277 HD
ATOM     37  H31 UNL     1     -17.084   1.388  44.639  1.00  0.00     0.277 HD
ENDBRANCH  31  34
BRANCH  31  38
HETATM   38  N4  UNL     1     -19.270   0.520  45.064  1.00  0.00    -0.040 N 
ATOM     39  H43 UNL     1     -20.250   0.246  44.981  1.00  0.00     0.277 HD
ATOM     40  H42 UNL     1     -18.835  -0.146  44.426  1.00  0.00     0.277 HD
ATOM     41  H41 UNL     1     -18.946   0.344  46.015  1.00  0.00     0.277 HD
ENDBRANCH  31  38
BRANCH  32  42
HETATM   42  N5  UNL     1     -19.941   2.580  46.788  1.00  0.00    -0.066 N 
ATOM     43  H53 UNL     1     -19.987   1.564  46.868  1.00  0.00     0.275 HD
ATOM     44  H52 UNL     1     -19.138   2.770  47.386  1.00  0.00     0.275 HD
ATOM     45  H51 UNL     1     -20.781   3.003  47.182  1.00  0.00     0.275 HD
ENDBRANCH  32  42
BRANCH  33  46
HETATM   46  N6  UNL     1     -21.215   4.361  44.189  1.00  0.00    -0.043 N 
ATOM     47  H63 UNL     1     -20.661   4.691  43.399  1.00  0.00     0.278 HD
ATOM     48  H62 UNL     1     -22.149   4.392  43.780  1.00  0.00     0.278 HD
ATOM     49  H61 UNL     1     -21.151   5.022  44.963  1.00  0.00     0.278 HD
ENDBRANCH  33  46
BRANCH  33  50
HETATM   50  O5  UNL     1     -21.965   2.303  44.975  1.00  0.00    -0.362 OA
ATOM     51  H5  UNL     1     -21.794   1.435  45.322  1.00  0.00     0.212 HD
ENDBRANCH  33  50
ENDBRANCH   3  30
TORSDOF 13
ENDMDL
MODEL 2
REMARK VINA RESULT: -5.114543291      3.880      6.225
REMARK  13 active torsions:
REMARK  status: ('A' for Active; 'I' for Inactive)
REMARK    1  A    between atoms: O1_2  and  C2_3 
REMARK    2  A    between atoms: C2_3  and  O2_4 
REMARK    3  A    between atoms: C2_3  and  C3_6 
REMARK    4  A    between atoms: C5_8  and  O3_9 
REMARK    5  A    between atoms: C9_15  and  N1_16 
REMARK    6  A    between atoms: N2_18  and  C10_20 
REMARK    7  A    between atoms: C11_21  and  N3_22 
REMARK    8  A    between atoms: C11_21  and  N4_26 
REMARK    9  A    between atoms: C12_30  and  N5_31 
REMARK   10  A    between atoms: C13_35  and  N6_36 
REMARK   11  A    between atoms: C13_35  and  O5_40 
REMARK   12  A    between atoms: C15_44  and  O7_45 
REMARK   13  A    between atoms: C15_44  and  C16_47 
ROOT
HETATM    1  N1  UNL     1     -20.978   1.008  46.269  1.00  0.00    -0.300 N 
ATOM      2  H1  UNL     1     -20.829   0.315  47.003  1.00  0.00     0.186 HD
HETATM    3  N2  UNL     1     -21.455   2.143  46.579  1.00  0.00    -0.322 N 
ATOM      4  H2  UNL     1     -21.615   2.859  45.871  1.00  0.00     0.180 HD
ENDROOT
BRANCH   1   5
HETATM    5  C9  UNL     1     -20.647   0.680  44.936  1.00  0.00     0.112 C 
HETATM    6  C3  UNL     1     -19.504  -0.083  44.749  1.00  0.00     0.031 C 
HETATM    7  C4  UNL     1     -19.092  -0.657  43.571  1.00  0.00     0.052 C 
HETATM    8  C5  UNL     1     -19.365  -0.241  42.283  1.00  0.00     0.083 C 
HETATM    9  C6  UNL     1     -20.425   0.566  41.851  1.00  0.00     0.084 C 
HETATM   10  C7  UNL     1     -21.382   1.191  42.615  1.00  0.00     0.138 C 
HETATM   11  C17 UNL     1     -20.475   0.730  40.412  1.00  0.00     0.212 C 
HETATM   12  C8  UNL     1     -21.505   1.160  43.984  1.00  0.00     0.234 C 
HETATM   13  O6  UNL     1     -22.336   1.941  41.958  1.00  0.00    -0.342 OA
HETATM   14  O4  UNL     1     -22.595   1.661  44.418  1.00  0.00    -0.283 OA
HETATM   15  C14 UNL     1     -22.784   1.632  40.652  1.00  0.00     0.234 C 
HETATM   16  C15 UNL     1     -21.675   1.300  39.706  1.00  0.00     0.233 C 
HETATM   17  O10 UNL     1     -19.502   0.391  39.719  1.00  0.00    -0.288 OA
BRANCH   6  18
HETATM   18  C2  UNL     1     -18.634  -0.311  45.908  1.00  0.00     0.293 C 
BRANCH  18  19
HETATM   19  O1  UNL     1     -17.811  -1.416  45.726  1.00  0.00    -0.362 OA
HETATM   20  C1  UNL     1     -18.261  -2.552  46.388  1.00  0.00     0.205 C 
ENDBRANCH  18  19
BRANCH  18  21
HETATM   21  O2  UNL     1     -17.830   0.832  46.066  1.00  0.00    -0.367 OA
ATOM     22  H2  UNL     1     -17.566   1.142  45.208  1.00  0.00     0.213 HD
ENDBRANCH  18  21
ENDBRANCH   6  18
BRANCH   8  23
HETATM   23  O3  UNL     1     -18.526  -0.635  41.258  1.00  0.00    -0.360 OA
ATOM     24  H3  UNL     1     -18.690  -0.315  40.379  1.00  0.00     0.217 HD
ENDBRANCH   8  23
BRANCH  16  25
HETATM   25  O7  UNL     1     -22.118   0.294  38.835  1.00  0.00    -0.370 OA
ATOM     26  H7  UNL     1     -21.939   0.567  37.943  1.00  0.00     0.212 HD
ENDBRANCH  16  25
BRANCH  16  27
HETATM   27  C16 UNL     1     -21.291   2.457  38.869  1.00  0.00     0.219 C 
HETATM   28  O8  UNL     1     -20.379   2.419  38.025  1.00  0.00    -0.645 OA
HETATM   29  O9  UNL     1     -22.008   3.649  39.057  1.00  0.00    -0.645 OA
ENDBRANCH  16  27
ENDBRANCH   1   5
BRANCH   3  30
HETATM   30  C10 UNL     1     -21.762   2.384  47.970  1.00  0.00     0.231 C 
HETATM   31  C11 UNL     1     -23.134   2.017  48.423  1.00  0.00     0.340 C 
HETATM   32  C12 UNL     1     -23.178   3.306  49.204  1.00  0.00     0.314 C 
HETATM   33  C13 UNL     1     -22.056   3.815  48.325  1.00  0.00     0.280 C 
BRANCH  31  34
HETATM   34  N3  UNL     1     -23.128   0.833  49.276  1.00  0.00    -0.040 N 
ATOM     35  H33 UNL     1     -22.181   0.479  49.411  1.00  0.00     0.277 HD
ATOM     36  H32 UNL     1     -23.350   1.072  50.242  1.00  0.00     0.277 HD
ATOM     37  H31 UNL     1     -23.749   0.106  48.921  1.00  0.00     0.277 HD
ENDBRANCH  31  34
BRANCH  31  38
HETATM   38  N4  UNL     1     -24.136   1.871  47.398  1.00  0.00    -0.040 N 
ATOM     39  H43 UNL     1     -24.322   2.778  46.968  1.00  0.00     0.277 HD
ATOM     40  H42 UNL     1     -23.743   1.365  46.605  1.00  0.00     0.277 HD
ATOM     41  H41 UNL     1     -25.018   1.439  47.677  1.00  0.00     0.277 HD
ENDBRANCH  31  38
BRANCH  32  42
HETATM   42  N5  UNL     1     -24.417   4.049  49.086  1.00  0.00    -0.066 N 
ATOM     43  H53 UNL     1     -25.203   3.408  48.977  1.00  0.00     0.275 HD
ATOM     44  H52 UNL     1     -24.659   4.476  49.979  1.00  0.00     0.275 HD
ATOM     45  H51 UNL     1     -24.427   4.749  48.345  1.00  0.00     0.275 HD
ENDBRANCH  32  42
BRANCH  33  46
HETATM   46  N6  UNL     1     -21.046   4.475  49.122  1.00  0.00    -0.043 N 
ATOM     47  H63 UNL     1     -20.409   3.785  49.520  1.00  0.00     0.278 HD
ATOM     48  H62 UNL     1     -20.403   4.986  48.518  1.00  0.00     0.278 HD
ATOM     49  H61 UNL     1     -21.400   5.089  49.855  1.00  0.00     0.278 HD
ENDBRANCH  33  46
BRANCH  33  50
HETATM   50  O5  UNL     1     -22.455   4.629  47.277  1.00  0.00    -0.362 OA
ATOM     51  H5  UNL     1     -23.393   4.743  47.174  1.00  0.00     0.212 HD
ENDBRANCH  33  50
ENDBRANCH   3  30
TORSDOF 13
ENDMDL
MODEL 3
REMARK VINA RESULT: -4.720068811      3.819      6.083
REMARK  13 active torsions:
REMARK  status: ('A' for Active; 'I' for Inactive)
REMARK    1  A    between atoms: O1_2  and  C2_3 
REMARK    2  A    between atoms: C2_3  and  O2_4 
REMARK    3  A    between atoms: C2_3  and  C3_6 
REMARK    4  A    between atoms: C5_8  and  O3_9 
REMARK    5  A    between atoms: C9_15  and  N1_16 
REMARK    6  A    between atoms: N2_18  and  C10_20 
REMARK    7  A    between atoms: C11_21  and  N3_22 
REMARK    8  A    between atoms: C11_21  and  N4_26 
REMARK    9  A    between atoms: C12_30  and  N5_31 
REMARK   10  A    between atoms: C13_35  and  N6_36 
REMARK   11  A    between atoms: C13_35  and  O5_40 
REMARK   12  A    between atoms: C15_44  and  O7_45 
REMARK   13  A    between atoms: C15_44  and  C16_47 
ROOT
HETATM    1  N1  UNL     1     -20.948   1.067  46.146  1.00  0.00    -0.300 N 
ATOM      2  H1  UNL     1     -20.861   0.333  46.849  1.00  0.00     0.186 HD
HETATM    3  N2  UNL     1     -21.372   2.210  46.497  1.00  0.00    -0.322 N 
ATOM      4  H2  UNL     1     -21.471   2.968  45.820  1.00  0.00     0.180 HD
ENDROOT
BRANCH   1   5
HETATM    5  C9  UNL     1     -20.592   0.784  44.808  1.00  0.00     0.112 C 
HETATM    6  C3  UNL     1     -19.374   0.153  44.609  1.00  0.00     0.031 C 
HETATM    7  C4  UNL     1     -18.910  -0.367  43.425  1.00  0.00     0.052 C 
HETATM    8  C5  UNL     1     -19.236   0.025  42.142  1.00  0.00     0.083 C 
HETATM    9  C6  UNL     1     -20.381   0.713  41.722  1.00  0.00     0.084 C 
HETATM   10  C7  UNL     1     -21.395   1.226  42.495  1.00  0.00     0.138 C 
HETATM   11  C17 UNL     1     -20.459   0.879  40.284  1.00  0.00     0.212 C 
HETATM   12  C8  UNL     1     -21.505   1.174  43.865  1.00  0.00     0.234 C 
HETATM   13  O6  UNL     1     -22.430   1.871  41.849  1.00  0.00    -0.342 OA
HETATM   14  O4  UNL     1     -22.639   1.550  44.309  1.00  0.00    -0.283 OA
HETATM   15  C14 UNL     1     -22.850   1.523  40.545  1.00  0.00     0.234 C 
HETATM   16  C15 UNL     1     -21.718   1.319  39.589  1.00  0.00     0.233 C 
HETATM   17  O10 UNL     1     -19.459   0.653  39.582  1.00  0.00    -0.288 OA
BRANCH   6  18
HETATM   18  C2  UNL     1     -18.477   0.014  45.761  1.00  0.00     0.293 C 
BRANCH  18  19
HETATM   19  O1  UNL     1     -18.209   1.241  46.358  1.00  0.00    -0.362 OA
HETATM   20  C1  UNL     1     -17.516   2.116  45.530  1.00  0.00     0.205 C 
ENDBRANCH  18  19
BRANCH  18  21
HETATM   21  O2  UNL     1     -19.115  -0.817  46.699  1.00  0.00    -0.367 OA
ATOM     22  H2  UNL     1     -18.467  -1.140  47.314  1.00  0.00     0.213 HD
ENDBRANCH  18  21
ENDBRANCH   6  18
BRANCH   8  23
HETATM   23  O3  UNL     1     -18.366  -0.269  41.108  1.00  0.00    -0.360 OA
ATOM     24  H3  UNL     1     -17.764  -0.998  41.205  1.00  0.00     0.217 HD
ENDBRANCH   8  23
BRANCH  16  25
HETATM   25  O7  UNL     1     -22.055   0.276  38.715  1.00  0.00    -0.370 OA
ATOM     26  H7  UNL     1     -21.399   0.233  38.028  1.00  0.00     0.212 HD
ENDBRANCH  16  25
BRANCH  16  27
HETATM   27  C16 UNL     1     -21.469   2.516  38.757  1.00  0.00     0.219 C 
HETATM   28  O8  UNL     1     -20.603   2.563  37.867  1.00  0.00    -0.645 OA
HETATM   29  O9  UNL     1     -22.264   3.645  39.006  1.00  0.00    -0.645 OA
ENDBRANCH  16  27
ENDBRANCH   1   5
BRANCH   3  30
HETATM   30  C10 UNL     1     -21.711   2.402  47.888  1.00  0.00     0.231 C 
HETATM   31  C11 UNL     1     -23.089   2.009  48.300  1.00  0.00     0.340 C 
HETATM   32  C12 UNL     1     -23.160   3.271  49.123  1.00  0.00     0.314 C 
HETATM   33  C13 UNL     1     -22.025   3.818  48.285  1.00  0.00     0.280 C 
BRANCH  31  34
HETATM   34  N3  UNL     1     -23.090   0.797  49.112  1.00  0.00    -0.040 N 
ATOM     35  H33 UNL     1     -22.141   0.516  49.359  1.00  0.00     0.277 HD
ATOM     36  H32 UNL     1     -23.453   0.979  50.048  1.00  0.00     0.277 HD
ATOM     37  H31 UNL     1     -23.597   0.036  48.659  1.00  0.00     0.277 HD
ENDBRANCH  31  34
BRANCH  31  38
HETATM   38  N4  UNL     1     -24.068   1.889  47.249  1.00  0.00    -0.040 N 
ATOM     39  H43 UNL     1     -23.603   1.926  46.341  1.00  0.00     0.277 HD
ATOM     40  H42 UNL     1     -24.437   0.939  47.232  1.00  0.00     0.277 HD
ATOM     41  H41 UNL     1     -24.841   2.556  47.264  1.00  0.00     0.277 HD
ENDBRANCH  31  38
BRANCH  32  42
HETATM   42  N5  UNL     1     -24.403   4.006  49.003  1.00  0.00    -0.066 N 
ATOM     43  H53 UNL     1     -24.877   3.760  48.133  1.00  0.00     0.275 HD
ATOM     44  H52 UNL     1     -25.084   3.661  49.679  1.00  0.00     0.275 HD
ATOM     45  H51 UNL     1     -24.311   5.018  49.080  1.00  0.00     0.275 HD
ENDBRANCH  32  42
BRANCH  33  46
HETATM   46  N6  UNL     1     -21.038   4.459  49.124  1.00  0.00    -0.043 N 
ATOM     47  H63 UNL     1     -20.786   5.368  48.737  1.00  0.00     0.278 HD
ATOM     48  H62 UNL     1     -21.463   4.750  50.004  1.00  0.00     0.278 HD
ATOM     49  H61 UNL     1     -20.198   3.911  49.307  1.00  0.00     0.278 HD
ENDBRANCH  33  46
BRANCH  33  50
HETATM   50  O5  UNL     1     -22.410   4.664  47.256  1.00  0.00    -0.362 OA
ATOM     51  H5  UNL     1     -21.917   5.472  47.178  1.00  0.00     0.212 HD
ENDBRANCH  33  50
ENDBRANCH   3  30
TORSDOF 13
ENDMDL
MODEL 4
REMARK VINA RESULT: -4.572036792      3.993      7.072
REMARK  13 active torsions:
REMARK  status: ('A' for Active; 'I' for Inactive)
REMARK    1  A    between atoms: O1_2  and  C2_3 
REMARK    2  A    between atoms: C2_3  and  O2_4 
REMARK    3  A    between atoms: C2_3  and  C3_6 
REMARK    4  A    between atoms: C5_8  and  O3_9 
REMARK    5  A    between atoms: C9_15  and  N1_16 
REMARK    6  A    between atoms: N2_18  and  C10_20 
REMARK    7  A    between atoms: C11_21  and  N3_22 
REMARK    8  A    between atoms: C11_21  and  N4_26 
REMARK    9  A    between atoms: C12_30  and  N5_31 
REMARK   10  A    between atoms: C13_35  and  N6_36 
REMARK   11  A    between atoms: C13_35  and  O5_40 
REMARK   12  A    between atoms: C15_44  and  O7_45 
REMARK   13  A    between atoms: C15_44  and  C16_47 
ROOT
HETATM    1  N1  UNL     1     -22.022   3.081  40.683  1.00  0.00    -0.300 N 
ATOM      2  H1  UNL     1     -22.979   2.754  40.552  1.00  0.00     0.186 HD
HETATM    3  N2  UNL     1     -21.737   4.285  40.402  1.00  0.00    -0.322 N 
ATOM      4  H2  UNL     1     -20.790   4.646  40.522  1.00  0.00     0.180 HD
ENDROOT
BRANCH   1   5
HETATM    5  C9  UNL     1     -21.049   2.183  41.174  1.00  0.00     0.112 C 
HETATM    6  C3  UNL     1     -20.558   1.248  40.277  1.00  0.00     0.031 C 
HETATM    7  C4  UNL     1     -19.496   0.399  40.483  1.00  0.00     0.052 C 
HETATM    8  C5  UNL     1     -19.022  -0.089  41.684  1.00  0.00     0.083 C 
HETATM    9  C6  UNL     1     -19.203   0.457  42.961  1.00  0.00     0.084 C 
HETATM   10  C7  UNL     1     -19.959   1.548  43.319  1.00  0.00     0.138 C 
HETATM   11  C17 UNL     1     -18.484  -0.255  43.999  1.00  0.00     0.212 C 
HETATM   12  C8  UNL     1     -20.709   2.349  42.490  1.00  0.00     0.234 C 
HETATM   13  O6  UNL     1     -19.985   1.899  44.653  1.00  0.00    -0.342 OA
HETATM   14  O4  UNL     1     -21.148   3.407  43.050  1.00  0.00    -0.283 OA
HETATM   15  C14 UNL     1     -18.894   1.671  45.524  1.00  0.00     0.234 C 
HETATM   16  C15 UNL     1     -18.292   0.310  45.380  1.00  0.00     0.233 C 
HETATM   17  O10 UNL     1     -18.000  -1.373  43.758  1.00  0.00    -0.288 OA
BRANCH   6  18
HETATM   18  C2  UNL     1     -21.220   1.134  38.973  1.00  0.00     0.293 C 
BRANCH  18  19
HETATM   19  O1  UNL     1     -22.602   1.054  39.101  1.00  0.00    -0.362 OA
HETATM   20  C1  UNL     1     -23.048  -0.205  39.483  1.00  0.00     0.205 C 
ENDBRANCH  18  19
BRANCH  18  21
HETATM   21  O2  UNL     1     -20.898   2.285  38.232  1.00  0.00    -0.367 OA
ATOM     22  H2  UNL     1     -19.976   2.255  38.003  1.00  0.00     0.213 HD
ENDBRANCH  18  21
ENDBRANCH   6  18
BRANCH   8  23
HETATM   23  O3  UNL     1     -18.274  -1.251  41.689  1.00  0.00    -0.360 OA
ATOM     24  H3  UNL     1     -18.041  -1.647  42.520  1.00  0.00     0.217 HD
ENDBRANCH   8  23
BRANCH  16  25
HETATM   25  O7  UNL     1     -16.906   0.413  45.561  1.00  0.00    -0.370 OA
ATOM     26  H7  UNL     1     -16.666   1.332  45.535  1.00  0.00     0.212 HD
ENDBRANCH  16  25
BRANCH  16  27
HETATM   27  C16 UNL     1     -18.792  -0.631  46.406  1.00  0.00     0.219 C 
HETATM   28  O8  UNL     1     -18.048  -1.311  47.133  1.00  0.00    -0.645 OA
HETATM   29  O9  UNL     1     -20.184  -0.744  46.547  1.00  0.00    -0.645 OA
ENDBRANCH  16  27
ENDBRANCH   1   5
BRANCH   3  30
HETATM   30  C10 UNL     1     -22.801   5.127  39.905  1.00  0.00     0.231 C 
HETATM   31  C11 UNL     1     -22.934   5.231  38.424  1.00  0.00     0.340 C 
HETATM   32  C12 UNL     1     -23.164   6.712  38.587  1.00  0.00     0.314 C 
HETATM   33  C13 UNL     1     -22.530   6.605  39.957  1.00  0.00     0.280 C 
BRANCH  31  34
HETATM   34  N3  UNL     1     -24.109   4.521  37.931  1.00  0.00    -0.040 N 
ATOM     35  H33 UNL     1     -24.917   5.142  37.869  1.00  0.00     0.277 HD
ATOM     36  H32 UNL     1     -24.012   4.285  36.944  1.00  0.00     0.277 HD
ATOM     37  H31 UNL     1     -24.318   3.695  38.492  1.00  0.00     0.277 HD
ENDBRANCH  31  34
BRANCH  31  38
HETATM   38  N4  UNL     1     -21.780   4.858  37.644  1.00  0.00    -0.040 N 
ATOM     39  H43 UNL     1     -21.231   5.690  37.424  1.00  0.00     0.277 HD
ATOM     40  H42 UNL     1     -21.121   4.347  38.231  1.00  0.00     0.277 HD
ATOM     41  H41 UNL     1     -21.957   4.330  36.788  1.00  0.00     0.277 HD
ENDBRANCH  31  38
BRANCH  32  42
HETATM   42  N5  UNL     1     -22.437   7.548  37.653  1.00  0.00    -0.066 N 
ATOM     43  H53 UNL     1     -21.505   7.753  38.014  1.00  0.00     0.275 HD
ATOM     44  H52 UNL     1     -22.192   7.015  36.819  1.00  0.00     0.275 HD
ATOM     45  H51 UNL     1     -22.912   8.412  37.392  1.00  0.00     0.275 HD
ENDBRANCH  32  42
BRANCH  33  46
HETATM   46  N6  UNL     1     -23.301   7.342  40.933  1.00  0.00    -0.043 N 
ATOM     47  H63 UNL     1     -24.286   7.350  40.666  1.00  0.00     0.278 HD
ATOM     48  H62 UNL     1     -23.355   6.818  41.805  1.00  0.00     0.278 HD
ATOM     49  H61 UNL     1     -22.980   8.293  41.115  1.00  0.00     0.278 HD
ENDBRANCH  33  46
BRANCH  33  50
HETATM   50  O5  UNL     1     -21.195   6.974  40.016  1.00  0.00    -0.362 OA
ATOM     51  H5  UNL     1     -20.565   6.267  39.930  1.00  0.00     0.212 HD
ENDBRANCH  33  50
ENDBRANCH   3  30
TORSDOF 13
ENDMDL
MODEL 5
REMARK VINA RESULT: -4.518620974      1.100      1.476
REMARK  13 active torsions:
REMARK  status: ('A' for Active; 'I' for Inactive)
REMARK    1  A    between atoms: O1_2  and  C2_3 
REMARK    2  A    between atoms: C2_3  and  O2_4 
REMARK    3  A    between atoms: C2_3  and  C3_6 
REMARK    4  A    between atoms: C5_8  and  O3_9 
REMARK    5  A    between atoms: C9_15  and  N1_16 
REMARK    6  A    between atoms: N2_18  and  C10_20 
REMARK    7  A    between atoms: C11_21  and  N3_22 
REMARK    8  A    between atoms: C11_21  and  N4_26 
REMARK    9  A    between atoms: C12_30  and  N5_31 
REMARK   10  A    between atoms: C13_35  and  N6_36 
REMARK   11  A    between atoms: C13_35  and  O5_40 
REMARK   12  A    between atoms: C15_44  and  O7_45 
REMARK   13  A    between atoms: C15_44  and  C16_47 
ROOT
HETATM    1  N1  UNL     1     -22.304   1.793  42.961  1.00  0.00    -0.300 N 
ATOM      2  H1  UNL     1     -22.193   2.763  42.664  1.00  0.00     0.186 HD
HETATM    3  N2  UNL     1     -22.017   1.477  44.156  1.00  0.00    -0.322 N 
ATOM      4  H2  UNL     1     -22.116   0.516  44.486  1.00  0.00     0.180 HD
ENDROOT
BRANCH   1   5
HETATM    5  C9  UNL     1     -22.772   0.838  42.031  1.00  0.00     0.112 C 
HETATM    6  C3  UNL     1     -22.280   0.936  40.739  1.00  0.00     0.031 C 
HETATM    7  C4  UNL     1     -22.460   0.024  39.727  1.00  0.00     0.052 C 
HETATM    8  C5  UNL     1     -23.503  -0.865  39.563  1.00  0.00     0.083 C 
HETATM    9  C6  UNL     1     -24.374  -1.353  40.545  1.00  0.00     0.084 C 
HETATM   10  C7  UNL     1     -24.444  -0.997  41.871  1.00  0.00     0.138 C 
HETATM   11  C17 UNL     1     -25.298  -2.355  40.051  1.00  0.00     0.212 C 
HETATM   12  C8  UNL     1     -23.663  -0.075  42.527  1.00  0.00     0.234 C 
HETATM   13  O6  UNL     1     -25.395  -1.621  42.653  1.00  0.00    -0.342 OA
HETATM   14  O4  UNL     1     -23.804  -0.084  43.795  1.00  0.00    -0.283 OA
HETATM   15  C14 UNL     1     -25.835  -2.942  42.410  1.00  0.00     0.234 C 
HETATM   16  C15 UNL     1     -26.117  -3.221  40.968  1.00  0.00     0.233 C 
HETATM   17  O10 UNL     1     -25.432  -2.519  38.827  1.00  0.00    -0.288 OA
BRANCH   6  18
HETATM   18  C2  UNL     1     -21.486   2.121  40.394  1.00  0.00     0.293 C 
BRANCH  18  19
HETATM   19  O1  UNL     1     -22.195   3.297  40.610  1.00  0.00    -0.362 OA
HETATM   20  C1  UNL     1     -22.475   3.993  39.440  1.00  0.00     0.205 C 
ENDBRANCH  18  19
BRANCH  18  21
HETATM   21  O2  UNL     1     -20.345   2.121  41.216  1.00  0.00    -0.367 OA
ATOM     22  H2  UNL     1     -20.587   1.794  42.076  1.00  0.00     0.213 HD
ENDBRANCH  18  21
ENDBRANCH   6  18
BRANCH   8  23
HETATM   23  O3  UNL     1     -23.767  -1.367  38.302  1.00  0.00    -0.360 OA
ATOM     24  H3  UNL     1     -24.659  -1.602  38.077  1.00  0.00     0.217 HD
ENDBRANCH   8  23
BRANCH  16  25
HETATM   25  O7  UNL     1     -25.738  -4.540  40.686  1.00  0.00    -0.370 OA
ATOM     26  H7  UNL     1     -24.833  -4.539  40.395  1.00  0.00     0.212 HD
ENDBRANCH  16  25
BRANCH  16  27
HETATM   27  C16 UNL     1     -27.557  -3.108  40.650  1.00  0.00     0.219 C 
HETATM   28  O8  UNL     1     -27.987  -2.750  39.540  1.00  0.00    -0.645 OA
HETATM   29  O9  UNL     1     -28.466  -3.428  41.671  1.00  0.00    -0.645 OA
ENDBRANCH  16  27
ENDBRANCH   1   5
BRANCH   3  30
HETATM   30  C10 UNL     1     -21.545   2.524  45.032  1.00  0.00     0.231 C 
HETATM   31  C11 UNL     1     -20.227   3.133  44.694  1.00  0.00     0.340 C 
HETATM   32  C12 UNL     1     -19.878   3.096  46.160  1.00  0.00     0.314 C 
HETATM   33  C13 UNL     1     -20.964   2.058  46.338  1.00  0.00     0.280 C 
BRANCH  31  34
HETATM   34  N3  UNL     1     -20.370   4.489  44.175  1.00  0.00    -0.040 N 
ATOM     35  H33 UNL     1     -20.594   4.483  43.180  1.00  0.00     0.277 HD
ATOM     36  H32 UNL     1     -21.217   4.933  44.528  1.00  0.00     0.277 HD
ATOM     37  H31 UNL     1     -19.545   5.058  44.366  1.00  0.00     0.277 HD
ENDBRANCH  31  34
BRANCH  31  38
HETATM   38  N4  UNL     1     -19.366   2.370  43.825  1.00  0.00    -0.040 N 
ATOM     39  H43 UNL     1     -19.850   2.174  42.948  1.00  0.00     0.277 HD
ATOM     40  H42 UNL     1     -18.605   2.962  43.491  1.00  0.00     0.277 HD
ATOM     41  H41 UNL     1     -18.983   1.504  44.205  1.00  0.00     0.277 HD
ENDBRANCH  31  38
BRANCH  32  42
HETATM   42  N5  UNL     1     -18.541   2.623  46.457  1.00  0.00    -0.066 N 
ATOM     43  H53 UNL     1     -18.258   1.915  45.778  1.00  0.00     0.275 HD
ATOM     44  H52 UNL     1     -17.856   3.350  46.252  1.00  0.00     0.275 HD
ATOM     45  H51 UNL     1     -18.411   2.273  47.405  1.00  0.00     0.275 HD
ENDBRANCH  32  42
BRANCH  33  46
HETATM   46  N6  UNL     1     -21.760   2.351  47.509  1.00  0.00    -0.043 N 
ATOM     47  H63 UNL     1     -21.166   2.714  48.254  1.00  0.00     0.278 HD
ATOM     48  H62 UNL     1     -22.350   3.165  47.336  1.00  0.00     0.278 HD
ATOM     49  H61 UNL     1     -22.325   1.577  47.857  1.00  0.00     0.278 HD
ENDBRANCH  33  46
BRANCH  33  50
HETATM   50  O5  UNL     1     -20.521   0.745  46.369  1.00  0.00    -0.362 OA
ATOM     51  H5  UNL     1     -19.964   0.478  45.647  1.00  0.00     0.212 HD
ENDBRANCH  33  50
ENDBRANCH   3  30
TORSDOF 13
ENDMDL
