MODEL 1
REMARK VINA RESULT: -8.154241361      0.000      0.000
REMARK  14 active torsions:
REMARK  status: ('A' for Active; 'I' for Inactive)
REMARK    1  A    between atoms: O1_2  and  N1_3 
REMARK    2  A    between atoms: C2_5  and  S1_7 
REMARK    3  A    between atoms: S1_7  and  C3_8 
REMARK    4  A    between atoms: C4_10  and  O3_11 
REMARK    5  A    between atoms: O3_11  and  N3_12 
REMARK    6  A    between atoms: C5_15  and  O4_16 
REMARK    7  A    between atoms: C6_18  and  O5_19 
REMARK    8  A    between atoms: C7_21  and  N4_22 
REMARK    9  A    between atoms: C8_26  and  O6_27 
REMARK   10  A    between atoms: O6_27  and  C9_28 
REMARK   11  A    between atoms: C10_29  and  O7_30 
REMARK   12  A    between atoms: C11_32  and  N5_33 
REMARK   13  A    between atoms: C13_38  and  N6_39 
REMARK   14  A    between atoms: C14_43  and  O8_44 
ROOT
HETATM    1  C3  UNL     1     -20.467   1.573  45.018  1.00  0.00     0.224 C 
HETATM    2  O2  UNL     1     -19.133   1.667  45.407  1.00  0.00    -0.338 OA
HETATM    3  C4  UNL     1     -18.530   0.451  45.651  1.00  0.00     0.320 C 
HETATM    4  C5  UNL     1     -17.577   0.191  44.500  1.00  0.00     0.206 C 
HETATM    5  C6  UNL     1     -18.444   0.047  43.244  1.00  0.00     0.184 C 
HETATM    6  C7  UNL     1     -19.135   1.332  42.911  1.00  0.00     0.246 C 
HETATM    7  C8  UNL     1     -20.514   1.453  43.515  1.00  0.00     0.194 C 
ENDROOT
BRANCH   7   8
HETATM    8  O6  UNL     1     -21.393   0.494  43.075  1.00  0.00    -0.370 OA
BRANCH   8   9
HETATM    9  C9  UNL     1     -21.917   0.712  41.832  1.00  0.00     0.183 C 
HETATM   10  C10 UNL     1     -22.550   2.113  41.858  1.00  0.00     0.180 C 
HETATM   11  C11 UNL     1     -22.812   2.573  40.420  1.00  0.00     0.216 C 
HETATM   12  C12 UNL     1     -22.897   1.384  39.512  1.00  0.00     0.071 C 
HETATM   13  C13 UNL     1     -23.706   0.285  40.178  1.00  0.00     0.216 C 
HETATM   14  C14 UNL     1     -23.026  -0.221  41.431  1.00  0.00     0.180 C 
BRANCH  10  15
HETATM   15  O7  UNL     1     -23.790   2.063  42.487  1.00  0.00    -0.391 OA
ATOM     16  H7  UNL     1     -23.675   2.006  43.428  1.00  0.00     0.210 HD
ENDBRANCH  10  15
BRANCH  11  17
HETATM   17  N5  UNL     1     -21.720   3.455  39.992  1.00  0.00    -0.072 N 
ATOM     18  H53 UNL     1     -22.062   4.310  39.555  1.00  0.00     0.274 HD
ATOM     19  H52 UNL     1     -21.234   3.881  40.781  1.00  0.00     0.274 HD
ATOM     20  H51 UNL     1     -21.089   2.933  39.383  1.00  0.00     0.274 HD
ENDBRANCH  11  17
BRANCH  13  21
HETATM   21  N6  UNL     1     -23.832  -0.819  39.248  1.00  0.00    -0.072 N 
ATOM     22  H63 UNL     1     -23.688  -0.534  38.280  1.00  0.00     0.274 HD
ATOM     23  H62 UNL     1     -23.058  -1.479  39.316  1.00  0.00     0.274 HD
ATOM     24  H61 UNL     1     -24.740  -1.262  39.394  1.00  0.00     0.274 HD
ENDBRANCH  13  21
BRANCH  14  25
HETATM   25  O8  UNL     1     -24.009  -0.328  42.410  1.00  0.00    -0.391 OA
ATOM     26  H8  UNL     1     -23.832  -1.029  43.027  1.00  0.00     0.210 HD
ENDBRANCH  14  25
ENDBRANCH   8   9
ENDBRANCH   7   8
BRANCH   1  27
HETATM   27  S1  UNL     1     -21.270   3.092  45.601  1.00  0.00    -0.061 SA
BRANCH  27  28
HETATM   28  C2  UNL     1     -21.850   2.827  47.257  1.00  0.00     0.176 C 
HETATM   29  N1  UNL     1     -22.427   1.699  47.510  1.00  0.00    -0.248 N 
ATOM     30  H1  UNL     1     -22.542   0.994  46.781  1.00  0.00     0.196 HD
HETATM   31  N2  UNL     1     -21.679   3.822  48.255  1.00  0.00    -0.073 NA
BRANCH  29  32
HETATM   32  O1  UNL     1     -22.877   1.475  48.773  1.00  0.00    -0.284 OA
HETATM   33  C1  UNL     1     -23.681   0.389  49.161  1.00  0.00     0.237 C 
ENDBRANCH  29  32
ENDBRANCH  27  28
ENDBRANCH   1  27
BRANCH   6  34
HETATM   34  N4  UNL     1     -19.143   1.495  41.492  1.00  0.00    -0.070 N 
ATOM     35  H43 UNL     1     -19.496   0.670  41.007  1.00  0.00     0.274 HD
ATOM     36  H42 UNL     1     -19.854   2.156  41.180  1.00  0.00     0.274 HD
ATOM     37  H41 UNL     1     -18.206   1.756  41.186  1.00  0.00     0.274 HD
ENDBRANCH   6  34
BRANCH   5  38
HETATM   38  O5  UNL     1     -19.309  -1.033  43.339  1.00  0.00    -0.391 OA
ATOM     39  H5  UNL     1     -20.077  -0.917  42.792  1.00  0.00     0.210 HD
ENDBRANCH   5  38
BRANCH   3  40
HETATM   40  O3  UNL     1     -19.386  -0.608  45.781  1.00  0.00    -0.252 OA
BRANCH  40  41
HETATM   41  N3  UNL     1     -18.758  -1.662  46.345  1.00  0.00    -0.308 N 
ATOM     42  H32 UNL     1     -18.291  -1.627  47.251  1.00  0.00     0.184 HD
ATOM     43  H31 UNL     1     -18.818  -2.482  45.742  1.00  0.00     0.184 HD
ENDBRANCH  40  41
ENDBRANCH   3  40
BRANCH   4  44
HETATM   44  O4  UNL     1     -16.758   1.292  44.288  1.00  0.00    -0.388 OA
ATOM     45  H4  UNL     1     -16.719   1.506  43.363  1.00  0.00     0.210 HD
ENDBRANCH   4  44
TORSDOF 14
ENDMDL
MODEL 2
REMARK VINA RESULT: -7.796578614      1.987      2.688
REMARK  14 active torsions:
REMARK  status: ('A' for Active; 'I' for Inactive)
REMARK    1  A    between atoms: O1_2  and  N1_3 
REMARK    2  A    between atoms: C2_5  and  S1_7 
REMARK    3  A    between atoms: S1_7  and  C3_8 
REMARK    4  A    between atoms: C4_10  and  O3_11 
REMARK    5  A    between atoms: O3_11  and  N3_12 
REMARK    6  A    between atoms: C5_15  and  O4_16 
REMARK    7  A    between atoms: C6_18  and  O5_19 
REMARK    8  A    between atoms: C7_21  and  N4_22 
REMARK    9  A    between atoms: C8_26  and  O6_27 
REMARK   10  A    between atoms: O6_27  and  C9_28 
REMARK   11  A    between atoms: C10_29  and  O7_30 
REMARK   12  A    between atoms: C11_32  and  N5_33 
REMARK   13  A    between atoms: C13_38  and  N6_39 
REMARK   14  A    between atoms: C14_43  and  O8_44 
ROOT
HETATM    1  C3  UNL     1     -18.662   0.570  44.258  1.00  0.00     0.224 C 
HETATM    2  O2  UNL     1     -17.379   0.033  44.322  1.00  0.00    -0.338 OA
HETATM    3  C4  UNL     1     -17.346  -1.345  44.373  1.00  0.00     0.320 C 
HETATM    4  C5  UNL     1     -16.858  -1.826  43.020  1.00  0.00     0.206 C 
HETATM    5  C6  UNL     1     -17.926  -1.413  42.001  1.00  0.00     0.184 C 
HETATM    6  C7  UNL     1     -18.021   0.076  41.888  1.00  0.00     0.246 C 
HETATM    7  C8  UNL     1     -19.052   0.689  42.805  1.00  0.00     0.194 C 
ENDROOT
BRANCH   7   8
HETATM    8  O6  UNL     1     -20.334   0.266  42.552  1.00  0.00    -0.370 OA
BRANCH   8   9
HETATM    9  C9  UNL     1     -21.254   1.264  42.390  1.00  0.00     0.183 C 
HETATM   10  C10 UNL     1     -22.630   0.652  42.700  1.00  0.00     0.180 C 
HETATM   11  C11 UNL     1     -23.646   1.780  42.910  1.00  0.00     0.216 C 
HETATM   12  C12 UNL     1     -23.165   3.030  42.239  1.00  0.00     0.071 C 
HETATM   13  C13 UNL     1     -22.588   2.693  40.875  1.00  0.00     0.216 C 
HETATM   14  C14 UNL     1     -21.365   1.811  40.993  1.00  0.00     0.180 C 
BRANCH  10  15
HETATM   15  O7  UNL     1     -23.080  -0.085  41.609  1.00  0.00    -0.391 OA
ATOM     16  H7  UNL     1     -22.624  -0.917  41.569  1.00  0.00     0.210 HD
ENDBRANCH  10  15
BRANCH  11  17
HETATM   17  N5  UNL     1     -23.812   2.014  44.348  1.00  0.00    -0.072 N 
ATOM     18  H53 UNL     1     -23.812   1.147  44.885  1.00  0.00     0.274 HD
ATOM     19  H52 UNL     1     -22.989   2.443  44.769  1.00  0.00     0.274 HD
ATOM     20  H51 UNL     1     -24.657   2.564  44.501  1.00  0.00     0.274 HD
ENDBRANCH  11  17
BRANCH  13  21
HETATM   21  N6  UNL     1     -22.202   3.928  40.223  1.00  0.00    -0.072 N 
ATOM     22  H63 UNL     1     -22.318   3.890  39.211  1.00  0.00     0.274 HD
ATOM     23  H62 UNL     1     -22.854   4.690  40.410  1.00  0.00     0.274 HD
ATOM     24  H61 UNL     1     -21.246   4.154  40.500  1.00  0.00     0.274 HD
ENDBRANCH  13  21
BRANCH  14  25
HETATM   25  O8  UNL     1     -21.496   0.807  40.038  1.00  0.00    -0.391 OA
ATOM     26  H8  UNL     1     -22.231   0.956  39.455  1.00  0.00     0.210 HD
ENDBRANCH  14  25
ENDBRANCH   8   9
ENDBRANCH   7   8
BRANCH   1  27
HETATM   27  S1  UNL     1     -18.571   2.192  45.068  1.00  0.00    -0.061 SA
BRANCH  27  28
HETATM   28  C2  UNL     1     -20.210   2.684  45.534  1.00  0.00     0.176 C 
HETATM   29  N1  UNL     1     -20.760   2.060  46.523  1.00  0.00    -0.248 N 
ATOM     30  H1  UNL     1     -20.264   1.314  47.012  1.00  0.00     0.196 HD
HETATM   31  N2  UNL     1     -20.881   3.725  44.840  1.00  0.00    -0.073 NA
BRANCH  29  32
HETATM   32  O1  UNL     1     -22.015   2.423  46.896  1.00  0.00    -0.284 OA
HETATM   33  C1  UNL     1     -22.339   3.091  48.090  1.00  0.00     0.237 C 
ENDBRANCH  29  32
ENDBRANCH  27  28
ENDBRANCH   1  27
BRANCH   6  34
HETATM   34  N4  UNL     1     -18.235   0.420  40.518  1.00  0.00    -0.070 N 
ATOM     35  H43 UNL     1     -17.845  -0.271  39.877  1.00  0.00     0.274 HD
ATOM     36  H42 UNL     1     -19.213   0.332  40.242  1.00  0.00     0.274 HD
ATOM     37  H41 UNL     1     -17.866   1.357  40.353  1.00  0.00     0.274 HD
ENDBRANCH   6  34
BRANCH   5  38
HETATM   38  O5  UNL     1     -19.144  -2.024  42.259  1.00  0.00    -0.391 OA
ATOM     39  H5  UNL     1     -19.871  -1.432  42.111  1.00  0.00     0.210 HD
ENDBRANCH   5  38
BRANCH   3  40
HETATM   40  O3  UNL     1     -18.540  -1.945  44.664  1.00  0.00    -0.252 OA
BRANCH  40  41
HETATM   41  N3  UNL     1     -18.504  -2.506  45.892  1.00  0.00    -0.308 N 
ATOM     42  H32 UNL     1     -17.651  -2.839  46.340  1.00  0.00     0.184 HD
ATOM     43  H31 UNL     1     -19.440  -2.548  46.296  1.00  0.00     0.184 HD
ENDBRANCH  40  41
ENDBRANCH   3  40
BRANCH   4  44
HETATM   44  O4  UNL     1     -15.692  -1.161  42.660  1.00  0.00    -0.388 OA
ATOM     45  H4  UNL     1     -15.397  -1.447  41.804  1.00  0.00     0.210 HD
ENDBRANCH   4  44
TORSDOF 14
ENDMDL
MODEL 3
REMARK VINA RESULT: -7.502099173      1.604      2.058
REMARK  14 active torsions:
REMARK  status: ('A' for Active; 'I' for Inactive)
REMARK    1  A    between atoms: O1_2  and  N1_3 
REMARK    2  A    between atoms: C2_5  and  S1_7 
REMARK    3  A    between atoms: S1_7  and  C3_8 
REMARK    4  A    between atoms: C4_10  and  O3_11 
REMARK    5  A    between atoms: O3_11  and  N3_12 
REMARK    6  A    between atoms: C5_15  and  O4_16 
REMARK    7  A    between atoms: C6_18  and  O5_19 
REMARK    8  A    between atoms: C7_21  and  N4_22 
REMARK    9  A    between atoms: C8_26  and  O6_27 
REMARK   10  A    between atoms: O6_27  and  C9_28 
REMARK   11  A    between atoms: C10_29  and  O7_30 
REMARK   12  A    between atoms: C11_32  and  N5_33 
REMARK   13  A    between atoms: C13_38  and  N6_39 
REMARK   14  A    between atoms: C14_43  and  O8_44 
ROOT
HETATM    1  C3  UNL     1     -20.219   1.122  44.561  1.00  0.00     0.224 C 
HETATM    2  O2  UNL     1     -18.876   1.194  44.923  1.00  0.00    -0.338 OA
HETATM    3  C4  UNL     1     -18.287  -0.032  45.149  1.00  0.00     0.320 C 
HETATM    4  C5  UNL     1     -17.363  -0.302  43.978  1.00  0.00     0.206 C 
HETATM    5  C6  UNL     1     -18.257  -0.426  42.739  1.00  0.00     0.184 C 
HETATM    6  C7  UNL     1     -18.935   0.871  42.426  1.00  0.00     0.246 C 
HETATM    7  C8  UNL     1     -20.299   1.010  43.058  1.00  0.00     0.194 C 
ENDROOT
BRANCH   7   8
HETATM    8  O6  UNL     1     -21.201   0.067  42.633  1.00  0.00    -0.370 OA
BRANCH   8   9
HETATM    9  C9  UNL     1     -21.877   0.384  41.488  1.00  0.00     0.183 C 
HETATM   10  C10 UNL     1     -22.332   1.846  41.634  1.00  0.00     0.180 C 
HETATM   11  C11 UNL     1     -22.752   2.381  40.261  1.00  0.00     0.216 C 
HETATM   12  C12 UNL     1     -23.111   1.241  39.358  1.00  0.00     0.071 C 
HETATM   13  C13 UNL     1     -23.932   0.217  40.122  1.00  0.00     0.216 C 
HETATM   14  C14 UNL     1     -23.135  -0.404  41.247  1.00  0.00     0.180 C 
BRANCH  10  15
HETATM   15  O7  UNL     1     -23.461   1.915  42.445  1.00  0.00    -0.391 OA
ATOM     16  H7  UNL     1     -24.195   1.490  42.017  1.00  0.00     0.210 HD
ENDBRANCH  10  15
BRANCH  11  17
HETATM   17  N5  UNL     1     -21.642   3.148  39.684  1.00  0.00    -0.072 N 
ATOM     18  H53 UNL     1     -21.321   3.891  40.305  1.00  0.00     0.274 HD
ATOM     19  H52 UNL     1     -20.777   2.609  39.646  1.00  0.00     0.274 HD
ATOM     20  H51 UNL     1     -21.920   3.500  38.768  1.00  0.00     0.274 HD
ENDBRANCH  11  17
BRANCH  13  21
HETATM   21  N6  UNL     1     -24.325  -0.833  39.204  1.00  0.00    -0.072 N 
ATOM     22  H63 UNL     1     -25.230  -0.655  38.770  1.00  0.00     0.274 HD
ATOM     23  H62 UNL     1     -23.761  -0.842  38.355  1.00  0.00     0.274 HD
ATOM     24  H61 UNL     1     -24.298  -1.724  39.702  1.00  0.00     0.274 HD
ENDBRANCH  13  21
BRANCH  14  25
HETATM   25  O8  UNL     1     -23.966  -0.433  42.364  1.00  0.00    -0.391 OA
ATOM     26  H8  UNL     1     -24.720  -0.997  42.240  1.00  0.00     0.210 HD
ENDBRANCH  14  25
ENDBRANCH   8   9
ENDBRANCH   7   8
BRANCH   1  27
HETATM   27  S1  UNL     1     -20.986   2.651  45.167  1.00  0.00    -0.061 SA
BRANCH  27  28
HETATM   28  C2  UNL     1     -20.115   3.187  46.616  1.00  0.00     0.176 C 
HETATM   29  N1  UNL     1     -18.839   3.359  46.512  1.00  0.00    -0.248 N 
ATOM     30  H1  UNL     1     -18.358   3.192  45.627  1.00  0.00     0.196 HD
HETATM   31  N2  UNL     1     -20.804   3.413  47.836  1.00  0.00    -0.073 NA
BRANCH  29  32
HETATM   32  O1  UNL     1     -18.152   3.770  47.611  1.00  0.00    -0.284 OA
HETATM   33  C1  UNL     1     -16.823   4.230  47.605  1.00  0.00     0.237 C 
ENDBRANCH  29  32
ENDBRANCH  27  28
ENDBRANCH   1  27
BRANCH   6  34
HETATM   34  N4  UNL     1     -18.969   1.040  41.008  1.00  0.00    -0.070 N 
ATOM     35  H43 UNL     1     -18.189   0.579  40.540  1.00  0.00     0.274 HD
ATOM     36  H42 UNL     1     -19.726   0.514  40.571  1.00  0.00     0.274 HD
ATOM     37  H41 UNL     1     -19.016   2.037  40.797  1.00  0.00     0.274 HD
ENDBRANCH   6  34
BRANCH   5  38
HETATM   38  O5  UNL     1     -19.136  -1.494  42.847  1.00  0.00    -0.391 OA
ATOM     39  H5  UNL     1     -18.940  -2.035  43.602  1.00  0.00     0.210 HD
ENDBRANCH   5  38
BRANCH   3  40
HETATM   40  O3  UNL     1     -19.156  -1.078  45.292  1.00  0.00    -0.252 OA
BRANCH  40  41
HETATM   41  N3  UNL     1     -18.528  -2.152  45.819  1.00  0.00    -0.308 N 
ATOM     42  H32 UNL     1     -18.228  -2.214  46.791  1.00  0.00     0.184 HD
ATOM     43  H31 UNL     1     -18.402  -2.876  45.113  1.00  0.00     0.184 HD
ENDBRANCH  40  41
ENDBRANCH   3  40
BRANCH   4  44
HETATM   44  O4  UNL     1     -16.530   0.788  43.753  1.00  0.00    -0.388 OA
ATOM     45  H4  UNL     1     -16.302   0.848  42.833  1.00  0.00     0.210 HD
ENDBRANCH   4  44
TORSDOF 14
ENDMDL
MODEL 4
REMARK VINA RESULT: -7.245270394      1.330      2.201
REMARK  14 active torsions:
REMARK  status: ('A' for Active; 'I' for Inactive)
REMARK    1  A    between atoms: O1_2  and  N1_3 
REMARK    2  A    between atoms: C2_5  and  S1_7 
REMARK    3  A    between atoms: S1_7  and  C3_8 
REMARK    4  A    between atoms: C4_10  and  O3_11 
REMARK    5  A    between atoms: O3_11  and  N3_12 
REMARK    6  A    between atoms: C5_15  and  O4_16 
REMARK    7  A    between atoms: C6_18  and  O5_19 
REMARK    8  A    between atoms: C7_21  and  N4_22 
REMARK    9  A    between atoms: C8_26  and  O6_27 
REMARK   10  A    between atoms: O6_27  and  C9_28 
REMARK   11  A    between atoms: C10_29  and  O7_30 
REMARK   12  A    between atoms: C11_32  and  N5_33 
REMARK   13  A    between atoms: C13_38  and  N6_39 
REMARK   14  A    between atoms: C14_43  and  O8_44 
ROOT
HETATM    1  C3  UNL     1     -20.491   1.600  44.648  1.00  0.00     0.224 C 
HETATM    2  O2  UNL     1     -19.425   1.738  45.533  1.00  0.00    -0.338 OA
HETATM    3  C4  UNL     1     -18.779   0.556  45.827  1.00  0.00     0.320 C 
HETATM    4  C5  UNL     1     -17.442   0.593  45.113  1.00  0.00     0.206 C 
HETATM    5  C6  UNL     1     -17.753   0.605  43.611  1.00  0.00     0.184 C 
HETATM    6  C7  UNL     1     -18.457   1.863  43.212  1.00  0.00     0.246 C 
HETATM    7  C8  UNL     1     -19.962   1.751  43.243  1.00  0.00     0.194 C 
ENDROOT
BRANCH   7   8
HETATM    8  O6  UNL     1     -20.462   0.815  42.372  1.00  0.00    -0.370 OA
BRANCH   8   9
HETATM    9  C9  UNL     1     -21.454   1.262  41.544  1.00  0.00     0.183 C 
HETATM   10  C10 UNL     1     -21.857   0.074  40.656  1.00  0.00     0.180 C 
HETATM   11  C11 UNL     1     -23.198   0.383  39.982  1.00  0.00     0.216 C 
HETATM   12  C12 UNL     1     -23.419   1.864  39.941  1.00  0.00     0.071 C 
HETATM   13  C13 UNL     1     -22.129   2.566  39.554  1.00  0.00     0.216 C 
HETATM   14  C14 UNL     1     -21.050   2.354  40.592  1.00  0.00     0.180 C 
BRANCH  10  15
HETATM   15  O7  UNL     1     -20.931  -0.090  39.631  1.00  0.00    -0.391 OA
ATOM     16  H7  UNL     1     -20.296  -0.755  39.870  1.00  0.00     0.210 HD
ENDBRANCH  10  15
BRANCH  11  17
HETATM   17  N5  UNL     1     -24.276  -0.265  40.738  1.00  0.00    -0.072 N 
ATOM     18  H53 UNL     1     -24.489  -1.198  40.387  1.00  0.00     0.274 HD
ATOM     19  H52 UNL     1     -23.984  -0.529  41.679  1.00  0.00     0.274 HD
ATOM     20  H51 UNL     1     -25.094   0.345  40.742  1.00  0.00     0.274 HD
ENDBRANCH  11  17
BRANCH  13  21
HETATM   21  N6  UNL     1     -22.394   3.987  39.451  1.00  0.00    -0.072 N 
ATOM     22  H63 UNL     1     -22.576   4.283  38.493  1.00  0.00     0.274 HD
ATOM     23  H62 UNL     1     -23.295   4.247  39.852  1.00  0.00     0.274 HD
ATOM     24  H61 UNL     1     -21.616   4.492  39.876  1.00  0.00     0.274 HD
ENDBRANCH  13  21
BRANCH  14  25
HETATM   25  O8  UNL     1     -19.879   2.052  39.904  1.00  0.00    -0.391 OA
ATOM     26  H8  UNL     1     -19.099   2.279  40.397  1.00  0.00     0.210 HD
ENDBRANCH  14  25
ENDBRANCH   8   9
ENDBRANCH   7   8
BRANCH   1  27
HETATM   27  S1  UNL     1     -21.672   2.912  45.071  1.00  0.00    -0.061 SA
BRANCH  27  28
HETATM   28  C2  UNL     1     -22.066   2.784  46.796  1.00  0.00     0.176 C 
HETATM   29  N1  UNL     1     -23.120   2.108  47.116  1.00  0.00    -0.248 N 
ATOM     30  H1  UNL     1     -23.697   1.669  46.399  1.00  0.00     0.196 HD
HETATM   31  N2  UNL     1     -21.248   3.404  47.776  1.00  0.00    -0.073 NA
BRANCH  29  32
HETATM   32  O1  UNL     1     -23.439   1.998  48.432  1.00  0.00    -0.284 OA
HETATM   33  C1  UNL     1     -23.442   0.796  49.162  1.00  0.00     0.237 C 
ENDBRANCH  29  32
ENDBRANCH  27  28
ENDBRANCH   1  27
BRANCH   6  34
HETATM   34  N4  UNL     1     -17.965   2.279  41.937  1.00  0.00    -0.070 N 
ATOM     35  H43 UNL     1     -18.568   2.973  41.493  1.00  0.00     0.274 HD
ATOM     36  H42 UNL     1     -17.124   2.851  42.011  1.00  0.00     0.274 HD
ATOM     37  H41 UNL     1     -17.826   1.454  41.354  1.00  0.00     0.274 HD
ENDBRANCH   6  34
BRANCH   5  38
HETATM   38  O5  UNL     1     -18.418  -0.546  43.217  1.00  0.00    -0.391 OA
ATOM     39  H5  UNL     1     -17.866  -1.315  43.294  1.00  0.00     0.210 HD
ENDBRANCH   5  38
BRANCH   3  40
HETATM   40  O3  UNL     1     -19.453  -0.580  45.471  1.00  0.00    -0.252 OA
BRANCH  40  41
HETATM   41  N3  UNL     1     -18.837  -1.675  45.966  1.00  0.00    -0.308 N 
ATOM     42  H32 UNL     1     -17.830  -1.744  46.109  1.00  0.00     0.184 HD
ATOM     43  H31 UNL     1     -19.516  -2.407  46.171  1.00  0.00     0.184 HD
ENDBRANCH  40  41
ENDBRANCH   3  40
BRANCH   4  44
HETATM   44  O4  UNL     1     -16.778   1.783  45.386  1.00  0.00    -0.388 OA
ATOM     45  H4  UNL     1     -17.321   2.527  45.157  1.00  0.00     0.210 HD
ENDBRANCH   4  44
TORSDOF 14
ENDMDL
MODEL 5
REMARK VINA RESULT: -7.154922377      2.411      4.876
REMARK  14 active torsions:
REMARK  status: ('A' for Active; 'I' for Inactive)
REMARK    1  A    between atoms: O1_2  and  N1_3 
REMARK    2  A    between atoms: C2_5  and  S1_7 
REMARK    3  A    between atoms: S1_7  and  C3_8 
REMARK    4  A    between atoms: C4_10  and  O3_11 
REMARK    5  A    between atoms: O3_11  and  N3_12 
REMARK    6  A    between atoms: C5_15  and  O4_16 
REMARK    7  A    between atoms: C6_18  and  O5_19 
REMARK    8  A    between atoms: C7_21  and  N4_22 
REMARK    9  A    between atoms: C8_26  and  O6_27 
REMARK   10  A    between atoms: O6_27  and  C9_28 
REMARK   11  A    between atoms: C10_29  and  O7_30 
REMARK   12  A    between atoms: C11_32  and  N5_33 
REMARK   13  A    between atoms: C13_38  and  N6_39 
REMARK   14  A    between atoms: C14_43  and  O8_44 
ROOT
HETATM    1  C3  UNL     1     -19.706   1.042  44.777  1.00  0.00     0.224 C 
HETATM    2  O2  UNL     1     -19.851   1.269  46.143  1.00  0.00    -0.338 OA
HETATM    3  C4  UNL     1     -19.601   2.569  46.528  1.00  0.00     0.320 C 
HETATM    4  C5  UNL     1     -20.939   3.196  46.866  1.00  0.00     0.206 C 
HETATM    5  C6  UNL     1     -21.742   3.235  45.561  1.00  0.00     0.184 C 
HETATM    6  C7  UNL     1     -22.056   1.854  45.076  1.00  0.00     0.246 C 
HETATM    7  C8  UNL     1     -21.034   1.304  44.110  1.00  0.00     0.194 C 
ENDROOT
BRANCH   7   8
HETATM    8  O6  UNL     1     -20.924   2.033  42.951  1.00  0.00    -0.370 OA
BRANCH   8   9
HETATM    9  C9  UNL     1     -21.274   1.367  41.810  1.00  0.00     0.183 C 
HETATM   10  C10 UNL     1     -20.539   2.060  40.651  1.00  0.00     0.180 C 
HETATM   11  C11 UNL     1     -20.576   1.151  39.418  1.00  0.00     0.216 C 
HETATM   12  C12 UNL     1     -21.719   0.189  39.528  1.00  0.00     0.071 C 
HETATM   13  C13 UNL     1     -22.950   0.908  40.050  1.00  0.00     0.216 C 
HETATM   14  C14 UNL     1     -22.733   1.430  41.453  1.00  0.00     0.180 C 
BRANCH  10  15
HETATM   15  O7  UNL     1     -21.204   3.230  40.298  1.00  0.00    -0.391 OA
ATOM     16  H7  UNL     1     -21.249   3.306  39.352  1.00  0.00     0.210 HD
ENDBRANCH  10  15
BRANCH  11  17
HETATM   17  N5  UNL     1     -19.309   0.418  39.323  1.00  0.00    -0.072 N 
ATOM     18  H53 UNL     1     -19.075  -0.065  40.190  1.00  0.00     0.274 HD
ATOM     19  H52 UNL     1     -19.379  -0.400  38.718  1.00  0.00     0.274 HD
ATOM     20  H51 UNL     1     -18.574   1.059  39.026  1.00  0.00     0.274 HD
ENDBRANCH  11  17
BRANCH  13  21
HETATM   21  N6  UNL     1     -24.054  -0.030  40.075  1.00  0.00    -0.072 N 
ATOM     22  H63 UNL     1     -24.365  -0.293  39.140  1.00  0.00     0.274 HD
ATOM     23  H62 UNL     1     -23.772  -0.957  40.395  1.00  0.00     0.274 HD
ATOM     24  H61 UNL     1     -24.804   0.368  40.640  1.00  0.00     0.274 HD
ENDBRANCH  13  21
BRANCH  14  25
HETATM   25  O8  UNL     1     -23.232   2.729  41.484  1.00  0.00    -0.391 OA
ATOM     26  H8  UNL     1     -23.756   2.898  42.259  1.00  0.00     0.210 HD
ENDBRANCH  14  25
ENDBRANCH   8   9
ENDBRANCH   7   8
BRANCH   1  27
HETATM   27  S1  UNL     1     -19.193  -0.690  44.605  1.00  0.00    -0.061 SA
BRANCH  27  28
HETATM   28  C2  UNL     1     -18.054  -0.811  43.250  1.00  0.00     0.176 C 
HETATM   29  N1  UNL     1     -17.312  -1.867  43.191  1.00  0.00    -0.248 N 
ATOM     30  H1  UNL     1     -17.383  -2.598  43.900  1.00  0.00     0.196 HD
HETATM   31  N2  UNL     1     -17.971   0.218  42.276  1.00  0.00    -0.073 NA
BRANCH  29  32
HETATM   32  O1  UNL     1     -16.433  -1.980  42.161  1.00  0.00    -0.284 OA
HETATM   33  C1  UNL     1     -15.084  -2.357  42.290  1.00  0.00     0.237 C 
ENDBRANCH  29  32
ENDBRANCH  27  28
ENDBRANCH   1  27
BRANCH   6  34
HETATM   34  N4  UNL     1     -23.379   1.847  44.536  1.00  0.00    -0.070 N 
ATOM     35  H43 UNL     1     -23.638   0.938  44.151  1.00  0.00     0.274 HD
ATOM     36  H42 UNL     1     -24.095   1.904  45.259  1.00  0.00     0.274 HD
ATOM     37  H41 UNL     1     -23.457   2.598  43.849  1.00  0.00     0.274 HD
ENDBRANCH   6  34
BRANCH   5  38
HETATM   38  O5  UNL     1     -21.126   4.027  44.603  1.00  0.00    -0.391 OA
ATOM     39  H5  UNL     1     -20.201   4.140  44.784  1.00  0.00     0.210 HD
ENDBRANCH   5  38
BRANCH   3  40
HETATM   40  O3  UNL     1     -18.960   3.339  45.597  1.00  0.00    -0.252 OA
BRANCH  40  41
HETATM   41  N3  UNL     1     -17.765   3.759  46.066  1.00  0.00    -0.308 N 
ATOM     42  H32 UNL     1     -17.643   4.248  46.952  1.00  0.00     0.184 HD
ATOM     43  H31 UNL     1     -17.019   3.518  45.415  1.00  0.00     0.184 HD
ENDBRANCH  40  41
ENDBRANCH   3  40
BRANCH   4  44
HETATM   44  O4  UNL     1     -21.650   2.384  47.741  1.00  0.00    -0.388 OA
ATOM     45  H4  UNL     1     -22.579   2.579  47.696  1.00  0.00     0.210 HD
ENDBRANCH   4  44
TORSDOF 14
ENDMDL
