MODEL 1
REMARK VINA RESULT: -8.809780108      0.000      0.000
REMARK  14 active torsions:
REMARK  status: ('A' for Active; 'I' for Inactive)
REMARK    1  A    between atoms: C2_3  and  O1_4 
REMARK    2  A    between atoms: C3_6  and  O2_7 
REMARK    3  A    between atoms: C4_9  and  N2_10 
REMARK    4  A    between atoms: C6_15  and  N3_16 
REMARK    5  A    between atoms: C7_20  and  O3_21 
REMARK    6  A    between atoms: O3_21  and  C8_22 
REMARK    7  A    between atoms: C10_24  and  S1_25 
REMARK    8  A    between atoms: S1_25  and  N4_26 
REMARK    9  A    between atoms: N4_26  and  C11_28 
REMARK   10  A    between atoms: C11_28  and  C12_29 
REMARK   11  A    between atoms: C11_28  and  C13_34 
REMARK   12  A    between atoms: N5_30  and  O4_32 
REMARK   13  A    between atoms: C15_39  and  O8_40 
REMARK   14  A    between atoms: C15_39  and  O9_42 
ROOT
HETATM    1  N1  UNL     1     -17.551   2.353  42.122  1.00  0.00    -0.194 NA
HETATM    2  C1  UNL     1     -18.361   1.717  42.678  1.00  0.00     0.103 C 
HETATM    3  C2  UNL     1     -19.380   0.914  43.350  1.00  0.00     0.202 C 
HETATM    4  C3  UNL     1     -18.905   0.507  44.724  1.00  0.00     0.200 C 
HETATM    5  C4  UNL     1     -18.812   1.689  45.619  1.00  0.00     0.218 C 
HETATM    6  C5  UNL     1     -19.506   2.913  45.148  1.00  0.00     0.071 C 
HETATM    7  C6  UNL     1     -20.816   2.640  44.442  1.00  0.00     0.218 C 
HETATM    8  C7  UNL     1     -20.729   1.605  43.377  1.00  0.00     0.204 C 
ENDROOT
BRANCH   3   9
HETATM    9  O1  UNL     1     -19.567  -0.245  42.562  1.00  0.00    -0.371 OA
ATOM     10  H1  UNL     1     -19.920  -0.913  43.139  1.00  0.00     0.212 HD
ENDBRANCH   3   9
BRANCH   4  11
HETATM   11  O2  UNL     1     -17.646  -0.100  44.531  1.00  0.00    -0.389 OA
ATOM     12  H2  UNL     1     -17.289   0.292  43.742  1.00  0.00     0.210 HD
ENDBRANCH   4  11
BRANCH   8  13
HETATM   13  O3  UNL     1     -20.957   2.075  42.103  1.00  0.00    -0.369 OA
BRANCH  13  14
HETATM   14  C8  UNL     1     -22.239   2.020  41.649  1.00  0.00     0.189 C 
HETATM   15  C9  UNL     1     -22.843   0.637  41.608  1.00  0.00     0.082 C 
HETATM   16  C10 UNL     1     -22.249  -0.211  40.506  1.00  0.00     0.206 C 
HETATM   17  O7  UNL     1     -21.107   0.323  39.959  1.00  0.00    -0.368 OA
HETATM   18  C14 UNL     1     -21.224   1.604  39.480  1.00  0.00     0.240 C 
HETATM   19  C15 UNL     1     -22.199   2.466  40.178  1.00  0.00     0.208 C 
BRANCH  16  20
HETATM   20  S1  UNL     1     -23.480  -0.649  39.247  1.00  0.00    -0.026 SA
BRANCH  20  21
HETATM   21  N4  UNL     1     -24.319  -2.116  39.612  1.00  0.00    -0.343 N 
ATOM     22  H4  UNL     1     -24.000  -3.026  39.279  1.00  0.00     0.169 HD
BRANCH  21  23
HETATM   23  C11 UNL     1     -25.495  -1.963  40.413  1.00  0.00     0.230 C 
BRANCH  23  24
HETATM   24  C12 UNL     1     -26.692  -2.257  39.558  1.00  0.00     0.123 C 
HETATM   25  N5  UNL     1     -27.714  -2.832  40.088  1.00  0.00    -0.282 N 
ATOM     26  H5  UNL     1     -27.691  -3.077  41.078  1.00  0.00     0.193 HD
BRANCH  25  27
HETATM   27  O4  UNL     1     -28.834  -3.124  39.350  1.00  0.00    -0.290 OA
ATOM     28  H4  UNL     1     -29.635  -2.621  39.445  1.00  0.00     0.244 HD
ENDBRANCH  25  27
ENDBRANCH  23  24
BRANCH  23  29
HETATM   29  C13 UNL     1     -25.515  -2.998  41.504  1.00  0.00     0.202 C 
HETATM   30  O5  UNL     1     -25.556  -2.689  42.703  1.00  0.00    -0.646 OA
HETATM   31  O6  UNL     1     -25.485  -4.318  41.117  1.00  0.00    -0.646 OA
ENDBRANCH  23  29
ENDBRANCH  21  23
ENDBRANCH  20  21
ENDBRANCH  16  20
BRANCH  19  32
HETATM   32  O8  UNL     1     -21.741   3.781  40.177  1.00  0.00    -0.362 OA
ATOM     33  H8  UNL     1     -22.272   4.250  39.545  1.00  0.00     0.213 HD
ENDBRANCH  19  32
BRANCH  19  34
HETATM   34  O9  UNL     1     -23.471   2.476  39.630  1.00  0.00    -0.362 OA
ATOM     35  H9  UNL     1     -23.521   3.081  38.900  1.00  0.00     0.213 HD
ENDBRANCH  19  34
ENDBRANCH  13  14
ENDBRANCH   8  13
BRANCH   5  36
HETATM   36  N2  UNL     1     -17.394   1.997  45.848  1.00  0.00    -0.072 N 
ATOM     37  H23 UNL     1     -16.911   2.272  44.993  1.00  0.00     0.274 HD
ATOM     38  H22 UNL     1     -17.263   2.863  46.370  1.00  0.00     0.274 HD
ATOM     39  H21 UNL     1     -16.954   1.197  46.304  1.00  0.00     0.274 HD
ENDBRANCH   5  36
BRANCH   7  40
HETATM   40  N3  UNL     1     -21.773   2.271  45.500  1.00  0.00    -0.072 N 
ATOM     41  H33 UNL     1     -21.451   2.500  46.440  1.00  0.00     0.274 HD
ATOM     42  H32 UNL     1     -22.611   2.852  45.512  1.00  0.00     0.274 HD
ATOM     43  H31 UNL     1     -21.966   1.278  45.365  1.00  0.00     0.274 HD
ENDBRANCH   7  40
TORSDOF 14
ENDMDL
MODEL 2
REMARK VINA RESULT: -8.790973516      0.877      1.647
REMARK  14 active torsions:
REMARK  status: ('A' for Active; 'I' for Inactive)
REMARK    1  A    between atoms: C2_3  and  O1_4 
REMARK    2  A    between atoms: C3_6  and  O2_7 
REMARK    3  A    between atoms: C4_9  and  N2_10 
REMARK    4  A    between atoms: C6_15  and  N3_16 
REMARK    5  A    between atoms: C7_20  and  O3_21 
REMARK    6  A    between atoms: O3_21  and  C8_22 
REMARK    7  A    between atoms: C10_24  and  S1_25 
REMARK    8  A    between atoms: S1_25  and  N4_26 
REMARK    9  A    between atoms: N4_26  and  C11_28 
REMARK   10  A    between atoms: C11_28  and  C12_29 
REMARK   11  A    between atoms: C11_28  and  C13_34 
REMARK   12  A    between atoms: N5_30  and  O4_32 
REMARK   13  A    between atoms: C15_39  and  O8_40 
REMARK   14  A    between atoms: C15_39  and  O9_42 
ROOT
HETATM    1  N1  UNL     1     -17.522   2.389  42.109  1.00  0.00    -0.194 NA
HETATM    2  C1  UNL     1     -18.323   1.718  42.638  1.00  0.00     0.103 C 
HETATM    3  C2  UNL     1     -19.329   0.871  43.275  1.00  0.00     0.202 C 
HETATM    4  C3  UNL     1     -18.848   0.416  44.631  1.00  0.00     0.200 C 
HETATM    5  C4  UNL     1     -18.775   1.562  45.574  1.00  0.00     0.218 C 
HETATM    6  C5  UNL     1     -19.489   2.794  45.153  1.00  0.00     0.071 C 
HETATM    7  C6  UNL     1     -20.793   2.528  44.435  1.00  0.00     0.218 C 
HETATM    8  C7  UNL     1     -20.689   1.538  43.328  1.00  0.00     0.204 C 
ENDROOT
BRANCH   3   9
HETATM    9  O1  UNL     1     -19.497  -0.257  42.440  1.00  0.00    -0.371 OA
ATOM     10  H1  UNL     1     -18.745  -0.820  42.587  1.00  0.00     0.212 HD
ENDBRANCH   3   9
BRANCH   4  11
HETATM   11  O2  UNL     1     -17.579  -0.161  44.415  1.00  0.00    -0.389 OA
ATOM     12  H2  UNL     1     -16.951   0.539  44.545  1.00  0.00     0.210 HD
ENDBRANCH   4  11
BRANCH   8  13
HETATM   13  O3  UNL     1     -20.924   2.056  42.074  1.00  0.00    -0.369 OA
BRANCH  13  14
HETATM   14  C8  UNL     1     -22.218   2.086  41.655  1.00  0.00     0.189 C 
HETATM   15  C9  UNL     1     -22.951   0.770  41.751  1.00  0.00     0.082 C 
HETATM   16  C10 UNL     1     -22.473  -0.224  40.717  1.00  0.00     0.206 C 
HETATM   17  O7  UNL     1     -21.303   0.148  40.099  1.00  0.00    -0.368 OA
HETATM   18  C14 UNL     1     -21.313   1.388  39.511  1.00  0.00     0.240 C 
HETATM   19  C15 UNL     1     -22.182   2.397  40.150  1.00  0.00     0.208 C 
BRANCH  16  20
HETATM   20  S1  UNL     1     -23.778  -0.649  39.529  1.00  0.00    -0.026 SA
BRANCH  20  21
HETATM   21  N4  UNL     1     -25.294  -0.985  40.289  1.00  0.00    -0.343 N 
ATOM     22  H4  UNL     1     -25.720  -0.348  40.963  1.00  0.00     0.169 HD
BRANCH  21  23
HETATM   23  C11 UNL     1     -25.908  -2.219  39.906  1.00  0.00     0.230 C 
BRANCH  23  24
HETATM   24  C12 UNL     1     -25.546  -3.262  40.923  1.00  0.00     0.123 C 
HETATM   25  N5  UNL     1     -25.409  -2.914  42.155  1.00  0.00    -0.282 N 
ATOM     26  H5  UNL     1     -25.549  -1.938  42.416  1.00  0.00     0.193 HD
BRANCH  25  27
HETATM   27  O4  UNL     1     -25.079  -3.828  43.124  1.00  0.00    -0.290 OA
ATOM     28  H4  UNL     1     -24.270  -4.325  43.082  1.00  0.00     0.244 HD
ENDBRANCH  25  27
ENDBRANCH  23  24
BRANCH  23  29
HETATM   29  C13 UNL     1     -27.405  -2.094  39.973  1.00  0.00     0.202 C 
HETATM   30  O5  UNL     1     -28.021  -1.226  39.339  1.00  0.00    -0.646 OA
HETATM   31  O6  UNL     1     -28.074  -2.989  40.775  1.00  0.00    -0.646 OA
ENDBRANCH  23  29
ENDBRANCH  21  23
ENDBRANCH  20  21
ENDBRANCH  16  20
BRANCH  19  32
HETATM   32  O8  UNL     1     -21.602   3.657  40.022  1.00  0.00    -0.362 OA
ATOM     33  H8  UNL     1     -22.272   4.225  39.661  1.00  0.00     0.213 HD
ENDBRANCH  19  32
BRANCH  19  34
HETATM   34  O9  UNL     1     -23.463   2.482  39.632  1.00  0.00    -0.362 OA
ATOM     35  H9  UNL     1     -23.634   3.352  39.291  1.00  0.00     0.213 HD
ENDBRANCH  19  34
ENDBRANCH  13  14
ENDBRANCH   8  13
BRANCH   5  36
HETATM   36  N2  UNL     1     -17.362   1.883  45.818  1.00  0.00    -0.072 N 
ATOM     37  H23 UNL     1     -17.130   1.893  46.810  1.00  0.00     0.274 HD
ATOM     38  H22 UNL     1     -16.737   1.129  45.533  1.00  0.00     0.274 HD
ATOM     39  H21 UNL     1     -17.142   2.767  45.357  1.00  0.00     0.274 HD
ENDBRANCH   5  36
BRANCH   7  40
HETATM   40  N3  UNL     1     -21.744   2.100  45.475  1.00  0.00    -0.072 N 
ATOM     41  H33 UNL     1     -21.504   1.208  45.906  1.00  0.00     0.274 HD
ATOM     42  H32 UNL     1     -21.700   2.663  46.325  1.00  0.00     0.274 HD
ATOM     43  H31 UNL     1     -22.663   2.104  45.031  1.00  0.00     0.274 HD
ENDBRANCH   7  40
TORSDOF 14
ENDMDL
MODEL 3
REMARK VINA RESULT: -8.032370040      3.510      5.923
REMARK  14 active torsions:
REMARK  status: ('A' for Active; 'I' for Inactive)
REMARK    1  A    between atoms: C2_3  and  O1_4 
REMARK    2  A    between atoms: C3_6  and  O2_7 
REMARK    3  A    between atoms: C4_9  and  N2_10 
REMARK    4  A    between atoms: C6_15  and  N3_16 
REMARK    5  A    between atoms: C7_20  and  O3_21 
REMARK    6  A    between atoms: O3_21  and  C8_22 
REMARK    7  A    between atoms: C10_24  and  S1_25 
REMARK    8  A    between atoms: S1_25  and  N4_26 
REMARK    9  A    between atoms: N4_26  and  C11_28 
REMARK   10  A    between atoms: C11_28  and  C12_29 
REMARK   11  A    between atoms: C11_28  and  C13_34 
REMARK   12  A    between atoms: N5_30  and  O4_32 
REMARK   13  A    between atoms: C15_39  and  O8_40 
REMARK   14  A    between atoms: C15_39  and  O9_42 
ROOT
HETATM    1  N1  UNL     1     -20.308  -0.087  45.059  1.00  0.00    -0.194 NA
HETATM    2  C1  UNL     1     -19.716   0.382  44.164  1.00  0.00     0.103 C 
HETATM    3  C2  UNL     1     -18.995   0.985  43.046  1.00  0.00     0.202 C 
HETATM    4  C3  UNL     1     -17.508   0.791  43.214  1.00  0.00     0.200 C 
HETATM    5  C4  UNL     1     -17.146  -0.643  43.071  1.00  0.00     0.218 C 
HETATM    6  C5  UNL     1     -18.182  -1.515  42.463  1.00  0.00     0.071 C 
HETATM    7  C6  UNL     1     -18.965  -0.850  41.352  1.00  0.00     0.218 C 
HETATM    8  C7  UNL     1     -19.502   0.492  41.705  1.00  0.00     0.204 C 
ENDROOT
BRANCH   3   9
HETATM    9  O1  UNL     1     -19.288   2.368  43.073  1.00  0.00    -0.371 OA
ATOM     10  H1  UNL     1     -19.397   2.641  42.169  1.00  0.00     0.212 HD
ENDBRANCH   3   9
BRANCH   4  11
HETATM   11  O2  UNL     1     -17.201   1.278  44.502  1.00  0.00    -0.389 OA
ATOM     12  H2  UNL     1     -17.524   2.171  44.525  1.00  0.00     0.210 HD
ENDBRANCH   4  11
BRANCH   8  13
HETATM   13  O3  UNL     1     -20.877   0.563  41.752  1.00  0.00    -0.369 OA
BRANCH  13  14
HETATM   14  C8  UNL     1     -21.528   0.657  40.562  1.00  0.00     0.189 C 
HETATM   15  C9  UNL     1     -21.061   1.778  39.665  1.00  0.00     0.082 C 
HETATM   16  C10 UNL     1     -21.485   3.134  40.183  1.00  0.00     0.206 C 
HETATM   17  O7  UNL     1     -21.945   3.107  41.478  1.00  0.00    -0.368 OA
HETATM   18  C14 UNL     1     -22.972   2.229  41.721  1.00  0.00     0.240 C 
HETATM   19  C15 UNL     1     -22.988   1.009  40.890  1.00  0.00     0.208 C 
BRANCH  16  20
HETATM   20  S1  UNL     1     -22.640   3.963  39.055  1.00  0.00    -0.026 SA
BRANCH  20  21
HETATM   21  N4  UNL     1     -22.086   5.523  38.556  1.00  0.00    -0.343 N 
ATOM     22  H4  UNL     1     -21.109   5.806  38.632  1.00  0.00     0.169 HD
BRANCH  21  23
HETATM   23  C11 UNL     1     -23.096   6.388  38.029  1.00  0.00     0.230 C 
BRANCH  23  24
HETATM   24  C12 UNL     1     -24.123   5.546  37.330  1.00  0.00     0.123 C 
HETATM   25  N5  UNL     1     -24.851   6.080  36.413  1.00  0.00    -0.282 N 
ATOM     26  H5  UNL     1     -24.717   7.064  36.179  1.00  0.00     0.193 HD
BRANCH  25  27
HETATM   27  O4  UNL     1     -25.804   5.355  35.742  1.00  0.00    -0.290 OA
ATOM     28  H4  UNL     1     -26.686   5.260  36.084  1.00  0.00     0.244 HD
ENDBRANCH  25  27
ENDBRANCH  23  24
BRANCH  23  29
HETATM   29  C13 UNL     1     -23.830   7.069  39.152  1.00  0.00     0.202 C 
HETATM   30  O5  UNL     1     -25.037   7.341  39.079  1.00  0.00    -0.646 OA
HETATM   31  O6  UNL     1     -23.103   7.383  40.277  1.00  0.00    -0.646 OA
ENDBRANCH  23  29
ENDBRANCH  21  23
ENDBRANCH  20  21
ENDBRANCH  16  20
BRANCH  19  32
HETATM   32  O8  UNL     1     -23.492  -0.054  41.635  1.00  0.00    -0.362 OA
ATOM     33  H8  UNL     1     -23.008  -0.062  42.452  1.00  0.00     0.213 HD
ENDBRANCH  19  32
BRANCH  19  34
HETATM   34  O9  UNL     1     -23.748   1.095  39.735  1.00  0.00    -0.362 OA
ATOM     35  H9  UNL     1     -24.557   0.606  39.824  1.00  0.00     0.213 HD
ENDBRANCH  19  34
ENDBRANCH  13  14
ENDBRANCH   8  13
BRANCH   5  36
HETATM   36  N2  UNL     1     -16.785  -1.173  44.393  1.00  0.00    -0.072 N 
ATOM     37  H23 UNL     1     -17.584  -1.571  44.885  1.00  0.00     0.274 HD
ATOM     38  H22 UNL     1     -16.221  -2.020  44.331  1.00  0.00     0.274 HD
ATOM     39  H21 UNL     1     -16.325  -0.436  44.928  1.00  0.00     0.274 HD
ENDBRANCH   5  36
BRANCH   7  40
HETATM   40  N3  UNL     1     -18.054  -0.798  40.195  1.00  0.00    -0.072 N 
ATOM     41  H33 UNL     1     -18.523  -0.573  39.318  1.00  0.00     0.274 HD
ATOM     42  H32 UNL     1     -17.425   0.005  40.208  1.00  0.00     0.274 HD
ATOM     43  H31 UNL     1     -17.571  -1.696  40.181  1.00  0.00     0.274 HD
ENDBRANCH   7  40
TORSDOF 14
ENDMDL
MODEL 4
REMARK VINA RESULT: -7.930184370      1.387      2.103
REMARK  14 active torsions:
REMARK  status: ('A' for Active; 'I' for Inactive)
REMARK    1  A    between atoms: C2_3  and  O1_4 
REMARK    2  A    between atoms: C3_6  and  O2_7 
REMARK    3  A    between atoms: C4_9  and  N2_10 
REMARK    4  A    between atoms: C6_15  and  N3_16 
REMARK    5  A    between atoms: C7_20  and  O3_21 
REMARK    6  A    between atoms: O3_21  and  C8_22 
REMARK    7  A    between atoms: C10_24  and  S1_25 
REMARK    8  A    between atoms: S1_25  and  N4_26 
REMARK    9  A    between atoms: N4_26  and  C11_28 
REMARK   10  A    between atoms: C11_28  and  C12_29 
REMARK   11  A    between atoms: C11_28  and  C13_34 
REMARK   12  A    between atoms: N5_30  and  O4_32 
REMARK   13  A    between atoms: C15_39  and  O8_40 
REMARK   14  A    between atoms: C15_39  and  O9_42 
ROOT
HETATM    1  N1  UNL     1     -18.239   2.331  41.875  1.00  0.00    -0.194 NA
HETATM    2  C1  UNL     1     -18.656   1.572  42.663  1.00  0.00     0.103 C 
HETATM    3  C2  UNL     1     -19.187   0.611  43.627  1.00  0.00     0.202 C 
HETATM    4  C3  UNL     1     -18.211   0.411  44.761  1.00  0.00     0.200 C 
HETATM    5  C4  UNL     1     -18.103   1.642  45.585  1.00  0.00     0.218 C 
HETATM    6  C5  UNL     1     -19.174   2.651  45.385  1.00  0.00     0.071 C 
HETATM    7  C6  UNL     1     -20.543   2.051  45.153  1.00  0.00     0.218 C 
HETATM    8  C7  UNL     1     -20.574   0.991  44.109  1.00  0.00     0.204 C 
ENDROOT
BRANCH   3   9
HETATM    9  O1  UNL     1     -19.351  -0.610  42.936  1.00  0.00    -0.371 OA
ATOM     10  H1  UNL     1     -19.810  -0.407  42.128  1.00  0.00     0.212 HD
ENDBRANCH   3   9
BRANCH   4  11
HETATM   11  O2  UNL     1     -16.980   0.083  44.153  1.00  0.00    -0.389 OA
ATOM     12  H2  UNL     1     -16.471  -0.360  44.822  1.00  0.00     0.210 HD
ENDBRANCH   4  11
BRANCH   8  13
HETATM   13  O3  UNL     1     -21.306   1.313  42.989  1.00  0.00    -0.369 OA
BRANCH  13  14
HETATM   14  C8  UNL     1     -22.518   0.709  42.853  1.00  0.00     0.189 C 
HETATM   15  C9  UNL     1     -22.562  -0.414  41.844  1.00  0.00     0.082 C 
HETATM   16  C10 UNL     1     -22.480   0.096  40.423  1.00  0.00     0.206 C 
HETATM   17  O7  UNL     1     -22.099   1.413  40.334  1.00  0.00    -0.368 OA
HETATM   18  C14 UNL     1     -22.866   2.300  41.049  1.00  0.00     0.240 C 
HETATM   19  C15 UNL     1     -23.474   1.773  42.287  1.00  0.00     0.208 C 
BRANCH  16  20
HETATM   20  S1  UNL     1     -23.995  -0.252  39.486  1.00  0.00    -0.026 SA
BRANCH  20  21
HETATM   21  N4  UNL     1     -25.250  -0.923  40.467  1.00  0.00    -0.343 N 
ATOM     22  H4  UNL     1     -25.580  -0.469  41.320  1.00  0.00     0.169 HD
BRANCH  21  23
HETATM   23  C11 UNL     1     -25.795  -2.160  39.998  1.00  0.00     0.230 C 
BRANCH  23  24
HETATM   24  C12 UNL     1     -25.442  -3.235  40.983  1.00  0.00     0.123 C 
HETATM   25  N5  UNL     1     -25.396  -2.945  42.237  1.00  0.00    -0.282 N 
ATOM     26  H5  UNL     1     -25.600  -1.992  42.536  1.00  0.00     0.193 HD
BRANCH  25  27
HETATM   27  O4  UNL     1     -25.077  -3.891  43.179  1.00  0.00    -0.290 OA
ATOM     28  H4  UNL     1     -25.114  -4.820  42.982  1.00  0.00     0.244 HD
ENDBRANCH  25  27
ENDBRANCH  23  24
BRANCH  23  29
HETATM   29  C13 UNL     1     -27.298  -2.094  39.994  1.00  0.00     0.202 C 
HETATM   30  O5  UNL     1     -27.919  -1.306  39.270  1.00  0.00    -0.646 OA
HETATM   31  O6  UNL     1     -27.965  -2.953  40.837  1.00  0.00    -0.646 OA
ENDBRANCH  23  29
ENDBRANCH  21  23
ENDBRANCH  20  21
ENDBRANCH  16  20
BRANCH  19  32
HETATM   32  O8  UNL     1     -23.542   2.787  43.238  1.00  0.00    -0.362 OA
ATOM     33  H8  UNL     1     -24.219   3.385  42.945  1.00  0.00     0.213 HD
ENDBRANCH  19  32
BRANCH  19  34
HETATM   34  O9  UNL     1     -24.753   1.261  42.142  1.00  0.00    -0.362 OA
ATOM     35  H9  UNL     1     -25.401   1.953  42.186  1.00  0.00     0.213 HD
ENDBRANCH  19  34
ENDBRANCH  13  14
ENDBRANCH   8  13
BRANCH   5  36
HETATM   36  N2  UNL     1     -16.798   2.267  45.332  1.00  0.00    -0.072 N 
ATOM     37  H23 UNL     1     -16.857   3.283  45.272  1.00  0.00     0.274 HD
ATOM     38  H22 UNL     1     -16.176   2.210  46.138  1.00  0.00     0.274 HD
ATOM     39  H21 UNL     1     -16.391   1.850  44.495  1.00  0.00     0.274 HD
ENDBRANCH   5  36
BRANCH   7  40
HETATM   40  N3  UNL     1     -20.991   1.553  46.465  1.00  0.00    -0.072 N 
ATOM     41  H33 UNL     1     -20.343   1.763  47.224  1.00  0.00     0.274 HD
ATOM     42  H32 UNL     1     -21.791   2.060  46.842  1.00  0.00     0.274 HD
ATOM     43  H31 UNL     1     -21.162   0.555  46.339  1.00  0.00     0.274 HD
ENDBRANCH   7  40
TORSDOF 14
ENDMDL
MODEL 5
REMARK VINA RESULT: -7.925265227      3.904      9.087
REMARK  14 active torsions:
REMARK  status: ('A' for Active; 'I' for Inactive)
REMARK    1  A    between atoms: C2_3  and  O1_4 
REMARK    2  A    between atoms: C3_6  and  O2_7 
REMARK    3  A    between atoms: C4_9  and  N2_10 
REMARK    4  A    between atoms: C6_15  and  N3_16 
REMARK    5  A    between atoms: C7_20  and  O3_21 
REMARK    6  A    between atoms: O3_21  and  C8_22 
REMARK    7  A    between atoms: C10_24  and  S1_25 
REMARK    8  A    between atoms: S1_25  and  N4_26 
REMARK    9  A    between atoms: N4_26  and  C11_28 
REMARK   10  A    between atoms: C11_28  and  C12_29 
REMARK   11  A    between atoms: C11_28  and  C13_34 
REMARK   12  A    between atoms: N5_30  and  O4_32 
REMARK   13  A    between atoms: C15_39  and  O8_40 
REMARK   14  A    between atoms: C15_39  and  O9_42 
ROOT
HETATM    1  N1  UNL     1     -20.029  -0.376  39.969  1.00  0.00    -0.194 NA
HETATM    2  C1  UNL     1     -20.347   0.520  40.652  1.00  0.00     0.103 C 
HETATM    3  C2  UNL     1     -20.719   1.641  41.512  1.00  0.00     0.202 C 
HETATM    4  C3  UNL     1     -21.805   2.463  40.862  1.00  0.00     0.200 C 
HETATM    5  C4  UNL     1     -23.075   1.696  40.796  1.00  0.00     0.218 C 
HETATM    6  C5  UNL     1     -23.146   0.486  41.653  1.00  0.00     0.071 C 
HETATM    7  C6  UNL     1     -22.465   0.646  42.994  1.00  0.00     0.218 C 
HETATM    8  C7  UNL     1     -21.083   1.192  42.913  1.00  0.00     0.204 C 
ENDROOT
BRANCH   3   9
HETATM    9  O1  UNL     1     -19.561   2.439  41.662  1.00  0.00    -0.371 OA
ATOM     10  H1  UNL     1     -19.615   3.124  41.006  1.00  0.00     0.212 HD
ENDBRANCH   3   9
BRANCH   4  11
HETATM   11  O2  UNL     1     -21.325   2.785  39.575  1.00  0.00    -0.389 OA
ATOM     12  H2  UNL     1     -21.819   3.547  39.297  1.00  0.00     0.210 HD
ENDBRANCH   4  11
BRANCH   8  13
HETATM   13  O3  UNL     1     -20.099   0.317  43.316  1.00  0.00    -0.369 OA
BRANCH  13  14
HETATM   14  C8  UNL     1     -19.783   0.315  44.639  1.00  0.00     0.189 C 
HETATM   15  C9  UNL     1     -19.666   1.682  45.270  1.00  0.00     0.082 C 
HETATM   16  C10 UNL     1     -18.425   2.414  44.813  1.00  0.00     0.206 C 
HETATM   17  O7  UNL     1     -17.815   1.835  43.726  1.00  0.00    -0.368 OA
HETATM   18  C14 UNL     1     -17.486   0.510  43.870  1.00  0.00     0.240 C 
HETATM   19  C15 UNL     1     -18.370  -0.282  44.749  1.00  0.00     0.208 C 
BRANCH  16  20
HETATM   20  S1  UNL     1     -17.268   2.710  46.179  1.00  0.00    -0.026 SA
BRANCH  20  21
HETATM   21  N4  UNL     1     -17.870   3.848  47.334  1.00  0.00    -0.343 N 
ATOM     22  H4  UNL     1     -18.868   3.978  47.503  1.00  0.00     0.169 HD
BRANCH  21  23
HETATM   23  C11 UNL     1     -16.870   4.594  48.034  1.00  0.00     0.230 C 
BRANCH  23  24
HETATM   24  C12 UNL     1     -15.626   3.758  48.112  1.00  0.00     0.123 C 
HETATM   25  N5  UNL     1     -15.385   3.092  49.187  1.00  0.00    -0.282 N 
ATOM     26  H5  UNL     1     -16.044   3.145  49.964  1.00  0.00     0.193 HD
BRANCH  25  27
HETATM   27  O4  UNL     1     -14.262   2.313  49.310  1.00  0.00    -0.290 OA
ATOM     28  H4  UNL     1     -14.283   1.483  49.772  1.00  0.00     0.244 HD
ENDBRANCH  25  27
ENDBRANCH  23  24
BRANCH  23  29
HETATM   29  C13 UNL     1     -16.487   5.814  47.243  1.00  0.00     0.202 C 
HETATM   30  O5  UNL     1     -15.680   5.763  46.304  1.00  0.00    -0.646 OA
HETATM   31  O6  UNL     1     -17.073   7.005  47.605  1.00  0.00    -0.646 OA
ENDBRANCH  23  29
ENDBRANCH  21  23
ENDBRANCH  20  21
ENDBRANCH  16  20
BRANCH  19  32
HETATM   32  O8  UNL     1     -18.455  -1.586  44.269  1.00  0.00    -0.362 OA
ATOM     33  H8  UNL     1     -18.245  -1.546  43.344  1.00  0.00     0.213 HD
ENDBRANCH  19  32
BRANCH  19  34
HETATM   34  O9  UNL     1     -17.967  -0.358  46.072  1.00  0.00    -0.362 OA
ATOM     35  H9  UNL     1     -18.604   0.054  46.644  1.00  0.00     0.213 HD
ENDBRANCH  19  34
ENDBRANCH  13  14
ENDBRANCH   8  13
BRANCH   5  36
HETATM   36  N2  UNL     1     -23.324   1.313  39.400  1.00  0.00    -0.072 N 
ATOM     37  H23 UNL     1     -24.026   1.902  38.952  1.00  0.00     0.274 HD
ATOM     38  H22 UNL     1     -22.539   1.539  38.789  1.00  0.00     0.274 HD
ATOM     39  H21 UNL     1     -23.570   0.323  39.369  1.00  0.00     0.274 HD
ENDBRANCH   5  36
BRANCH   7  40
HETATM   40  N3  UNL     1     -23.355   1.503  43.796  1.00  0.00    -0.072 N 
ATOM     41  H33 UNL     1     -23.756   2.280  43.271  1.00  0.00     0.274 HD
ATOM     42  H32 UNL     1     -24.237   1.055  44.046  1.00  0.00     0.274 HD
ATOM     43  H31 UNL     1     -22.804   1.797  44.603  1.00  0.00     0.274 HD
ENDBRANCH   7  40
TORSDOF 14
ENDMDL
