MODEL 1
REMARK VINA RESULT: -10.276719605      0.000      0.000
REMARK  9 active torsions:
REMARK  status: ('A' for Active; 'I' for Inactive)
REMARK    1  A    between atoms: C1_2  and  O2_7 
REMARK    2  A    between atoms: N2_3  and  O1_5 
REMARK    3  A    between atoms: O2_7  and  C2_8 
REMARK    4  A    between atoms: C2_8  and  N3_9 
REMARK    5  A    between atoms: N3_9  and  C3_12 
REMARK    6  A    between atoms: C4_15  and  N5_16 
REMARK    7  A    between atoms: N5_16  and  C5_18 
REMARK    8  A    between atoms: C5_18  and  C6_19 
REMARK    9  A    between atoms: C6_19  and  C7_20 
ROOT
HETATM    1  C3  UNL     1     -20.235   2.541  42.238  1.00  0.00     0.530 C 
HETATM    2  N4  UNL     1     -20.846   2.749  43.479  1.00  0.00    -0.319 N 
ATOM      3  H4  UNL     1     -21.258   3.674  43.600  1.00  0.00     0.165 HD
HETATM    4  C4  UNL     1     -20.976   1.969  44.493  1.00  0.00     0.141 C 
HETATM    5  S1  UNL     1     -20.253   0.356  44.271  1.00  0.00    -0.054 SA
HETATM    6  C8  UNL     1     -20.099   0.124  42.492  1.00  0.00     0.357 A 
HETATM    7  N10 UNL     1     -19.960   1.290  41.733  1.00  0.00     0.189 N 
HETATM    8  C9  UNL     1     -18.767   0.526  41.858  1.00  0.00     0.364 A 
HETATM    9  C10 UNL     1     -18.244  -0.272  40.751  1.00  0.00     0.278 C 
HETATM   10  O3  UNL     1     -18.563  -0.042  39.564  1.00  0.00    -0.269 OA
HETATM   11  N11 UNL     1     -17.349  -1.332  41.058  1.00  0.00    -0.276 N 
ATOM     12  H11 UNL     1     -17.233  -2.099  40.397  1.00  0.00     0.173 HD
HETATM   13  C11 UNL     1     -16.603  -1.338  42.290  1.00  0.00     0.329 C 
HETATM   14  O4  UNL     1     -15.808  -2.287  42.553  1.00  0.00    -0.247 OA
HETATM   15  N12 UNL     1     -16.799  -0.246  43.178  1.00  0.00    -0.276 N 
ATOM     16  H12 UNL     1     -16.294  -0.206  44.063  1.00  0.00     0.173 HD
HETATM   17  C12 UNL     1     -17.706   0.792  42.822  1.00  0.00     0.278 C 
HETATM   18  O5  UNL     1     -17.511   1.903  43.392  1.00  0.00    -0.269 OA
ENDROOT
BRANCH   1  19
HETATM   19  N3  UNL     1     -21.056   3.265  41.242  1.00  0.00    -0.004 N 
ATOM     20  H32 UNL     1     -20.868   2.936  40.295  1.00  0.00     0.284 HD
ATOM     21  H31 UNL     1     -20.749   4.231  41.138  1.00  0.00     0.284 HD
BRANCH  19  22
HETATM   22  C2  UNL     1     -22.447   3.190  41.554  1.00  0.00     0.414 C 
BRANCH  22  23
HETATM   23  O2  UNL     1     -22.986   1.966  41.076  1.00  0.00    -0.295 OA
BRANCH  23  24
HETATM   24  C1  UNL     1     -23.690   1.127  41.926  1.00  0.00     0.253 C 
HETATM   25  N1  UNL     1     -24.015   1.537  43.240  1.00  0.00    -0.054 NA
HETATM   26  N2  UNL     1     -24.055  -0.029  41.533  1.00  0.00    -0.235 N 
ATOM     27  H2  UNL     1     -23.800  -0.287  40.579  1.00  0.00     0.197 HD
BRANCH  26  28
HETATM   28  O1  UNL     1     -24.744  -0.952  42.245  1.00  0.00    -0.287 OA
ATOM     29  H1  UNL     1     -25.178  -1.727  41.907  1.00  0.00     0.244 HD
ENDBRANCH  26  28
ENDBRANCH  23  24
ENDBRANCH  22  23
ENDBRANCH  19  22
ENDBRANCH   1  19
BRANCH   4  30
HETATM   30  N5  UNL     1     -21.643   2.443  45.623  1.00  0.00    -0.370 N 
ATOM     31  H5  UNL     1     -22.657   2.530  45.565  1.00  0.00     0.161 HD
BRANCH  30  32
HETATM   32  C5  UNL     1     -21.024   2.817  46.855  1.00  0.00     0.129 C 
BRANCH  32  33
HETATM   33  C6  UNL     1     -22.023   3.376  47.839  1.00  0.00     0.098 C 
BRANCH  33  34
HETATM   34  C7  UNL     1     -22.955   2.298  48.261  1.00  0.00     0.108 C 
HETATM   35  N6  UNL     1     -24.210   2.369  48.528  1.00  0.00    -0.274 N 
HETATM   36  N7  UNL     1     -24.666   1.100  48.882  1.00  0.00    -0.007 NA
ATOM     37  H6  UNL     1     -24.779   3.214  48.488  1.00  0.00     0.185 HD
HETATM   38  N8  UNL     1     -23.541   0.324  49.195  1.00  0.00    -0.007 NA
HETATM   39  N9  UNL     1     -22.545   0.942  48.442  1.00  0.00    -0.274 N 
ATOM     40  H9  UNL     1     -21.690   0.511  48.089  1.00  0.00     0.185 HD
ENDBRANCH  33  34
ENDBRANCH  32  33
ENDBRANCH  30  32
ENDBRANCH   4  30
TORSDOF 9
ENDMDL
MODEL 2
REMARK VINA RESULT: -10.215219796      2.419      5.460
REMARK  9 active torsions:
REMARK  status: ('A' for Active; 'I' for Inactive)
REMARK    1  A    between atoms: C1_2  and  O2_7 
REMARK    2  A    between atoms: N2_3  and  O1_5 
REMARK    3  A    between atoms: O2_7  and  C2_8 
REMARK    4  A    between atoms: C2_8  and  N3_9 
REMARK    5  A    between atoms: N3_9  and  C3_12 
REMARK    6  A    between atoms: C4_15  and  N5_16 
REMARK    7  A    between atoms: N5_16  and  C5_18 
REMARK    8  A    between atoms: C5_18  and  C6_19 
REMARK    9  A    between atoms: C6_19  and  C7_20 
ROOT
HETATM    1  C3  UNL     1     -21.186   2.384  44.305  1.00  0.00     0.530 C 
HETATM    2  N4  UNL     1     -21.668   2.990  43.140  1.00  0.00    -0.319 N 
ATOM      3  H4  UNL     1     -22.576   3.442  43.242  1.00  0.00     0.165 HD
HETATM    4  C4  UNL     1     -21.158   3.073  41.963  1.00  0.00     0.141 C 
HETATM    5  S1  UNL     1     -19.571   2.279  41.797  1.00  0.00    -0.054 SA
HETATM    6  C8  UNL     1     -18.914   2.134  43.467  1.00  0.00     0.357 A 
HETATM    7  N10 UNL     1     -19.862   2.057  44.493  1.00  0.00     0.189 N 
HETATM    8  C9  UNL     1     -19.202   0.829  44.210  1.00  0.00     0.364 A 
HETATM    9  C10 UNL     1     -18.179   0.282  45.098  1.00  0.00     0.278 C 
HETATM   10  O3  UNL     1     -18.095   0.625  46.298  1.00  0.00    -0.269 OA
HETATM   11  N11 UNL     1     -17.266  -0.664  44.559  1.00  0.00    -0.276 N 
ATOM     12  H11 UNL     1     -16.364  -0.807  45.014  1.00  0.00     0.173 HD
HETATM   13  C11 UNL     1     -17.594  -1.423  43.380  1.00  0.00     0.329 C 
HETATM   14  O4  UNL     1     -16.773  -2.263  42.909  1.00  0.00    -0.247 OA
HETATM   15  N12 UNL     1     -18.863  -1.186  42.785  1.00  0.00    -0.276 N 
ATOM     16  H12 UNL     1     -19.141  -1.699  41.948  1.00  0.00     0.173 HD
HETATM   17  C12 UNL     1     -19.742  -0.229  43.364  1.00  0.00     0.278 C 
HETATM   18  O5  UNL     1     -20.967  -0.380  43.090  1.00  0.00    -0.269 OA
ENDROOT
BRANCH   1  19
HETATM   19  N3  UNL     1     -21.607   3.248  45.430  1.00  0.00    -0.004 N 
ATOM     20  H32 UNL     1     -22.592   3.503  45.356  1.00  0.00     0.284 HD
ATOM     21  H31 UNL     1     -21.196   4.178  45.358  1.00  0.00     0.284 HD
BRANCH  19  22
HETATM   22  C2  UNL     1     -21.317   2.646  46.692  1.00  0.00     0.414 C 
BRANCH  22  23
HETATM   23  O2  UNL     1     -22.235   3.110  47.671  1.00  0.00    -0.295 OA
BRANCH  23  24
HETATM   24  C1  UNL     1     -23.120   2.231  48.277  1.00  0.00     0.253 C 
HETATM   25  N1  UNL     1     -24.398   2.666  48.697  1.00  0.00    -0.054 NA
HETATM   26  N2  UNL     1     -22.791   1.013  48.465  1.00  0.00    -0.235 N 
ATOM     27  H2  UNL     1     -21.860   0.739  48.148  1.00  0.00     0.197 HD
BRANCH  26  28
HETATM   28  O1  UNL     1     -23.544   0.045  49.039  1.00  0.00    -0.287 OA
ATOM     29  H1  UNL     1     -23.230  -0.734  49.482  1.00  0.00     0.244 HD
ENDBRANCH  26  28
ENDBRANCH  23  24
ENDBRANCH  22  23
ENDBRANCH  19  22
ENDBRANCH   1  19
BRANCH   4  30
HETATM   30  N5  UNL     1     -21.868   3.748  40.970  1.00  0.00    -0.370 N 
ATOM     31  H5  UNL     1     -21.792   4.765  40.950  1.00  0.00     0.161 HD
BRANCH  30  32
HETATM   32  C5  UNL     1     -22.692   3.135  39.977  1.00  0.00     0.129 C 
BRANCH  32  33
HETATM   33  C6  UNL     1     -22.259   1.719  39.683  1.00  0.00     0.098 C 
BRANCH  33  34
HETATM   34  C7  UNL     1     -23.207   0.770  40.322  1.00  0.00     0.108 C 
HETATM   35  N6  UNL     1     -23.342   0.472  41.565  1.00  0.00    -0.274 N 
HETATM   36  N7  UNL     1     -24.362  -0.470  41.692  1.00  0.00    -0.007 NA
ATOM     37  H6  UNL     1     -22.794   0.860  42.332  1.00  0.00     0.185 HD
HETATM   38  N8  UNL     1     -24.581  -1.023  40.423  1.00  0.00    -0.007 NA
HETATM   39  N9  UNL     1     -24.160   0.006  39.582  1.00  0.00    -0.274 N 
ATOM     40  H9  UNL     1     -24.472   0.180  38.626  1.00  0.00     0.185 HD
ENDBRANCH  33  34
ENDBRANCH  32  33
ENDBRANCH  30  32
ENDBRANCH   4  30
TORSDOF 9
ENDMDL
MODEL 3
REMARK VINA RESULT: -10.098461995      3.904      5.589
REMARK  9 active torsions:
REMARK  status: ('A' for Active; 'I' for Inactive)
REMARK    1  A    between atoms: C1_2  and  O2_7 
REMARK    2  A    between atoms: N2_3  and  O1_5 
REMARK    3  A    between atoms: O2_7  and  C2_8 
REMARK    4  A    between atoms: C2_8  and  N3_9 
REMARK    5  A    between atoms: N3_9  and  C3_12 
REMARK    6  A    between atoms: C4_15  and  N5_16 
REMARK    7  A    between atoms: N5_16  and  C5_18 
REMARK    8  A    between atoms: C5_18  and  C6_19 
REMARK    9  A    between atoms: C6_19  and  C7_20 
ROOT
HETATM    1  C3  UNL     1     -21.316   2.514  41.616  1.00  0.00     0.530 C 
HETATM    2  N4  UNL     1     -22.398   1.981  40.906  1.00  0.00    -0.319 N 
ATOM      3  H4  UNL     1     -23.244   2.549  40.935  1.00  0.00     0.165 HD
HETATM    4  C4  UNL     1     -22.504   0.897  40.225  1.00  0.00     0.141 C 
HETATM    5  S1  UNL     1     -21.019  -0.087  40.182  1.00  0.00    -0.054 SA
HETATM    6  C8  UNL     1     -19.673   1.032  40.601  1.00  0.00     0.357 A 
HETATM    7  N10 UNL     1     -20.013   2.123  41.407  1.00  0.00     0.189 N 
HETATM    8  C9  UNL     1     -19.273   1.108  42.075  1.00  0.00     0.364 A 
HETATM    9  C10 UNL     1     -17.863   1.280  42.416  1.00  0.00     0.278 C 
HETATM   10  O3  UNL     1     -17.338   2.412  42.500  1.00  0.00    -0.269 OA
HETATM   11  N11 UNL     1     -17.088   0.113  42.654  1.00  0.00    -0.276 N 
ATOM     12  H11 UNL     1     -16.073   0.155  42.557  1.00  0.00     0.173 HD
HETATM   13  C11 UNL     1     -17.713  -1.128  43.029  1.00  0.00     0.329 C 
HETATM   14  O4  UNL     1     -17.013  -2.161  43.238  1.00  0.00    -0.247 OA
HETATM   15  N12 UNL     1     -19.129  -1.135  43.151  1.00  0.00    -0.276 N 
ATOM     16  H12 UNL     1     -19.618  -1.991  43.414  1.00  0.00     0.173 HD
HETATM   17  C12 UNL     1     -19.859   0.061  42.904  1.00  0.00     0.278 C 
HETATM   18  O5  UNL     1     -21.000   0.123  43.445  1.00  0.00    -0.269 OA
ENDROOT
BRANCH   1  19
HETATM   19  N3  UNL     1     -21.386   3.982  41.443  1.00  0.00    -0.004 N 
ATOM     20  H32 UNL     1     -20.565   4.338  40.953  1.00  0.00     0.284 HD
ATOM     21  H31 UNL     1     -21.263   4.467  42.331  1.00  0.00     0.284 HD
BRANCH  19  22
HETATM   22  C2  UNL     1     -22.594   4.378  40.794  1.00  0.00     0.414 C 
BRANCH  22  23
HETATM   23  O2  UNL     1     -22.317   4.786  39.462  1.00  0.00    -0.295 OA
BRANCH  23  24
HETATM   24  C1  UNL     1     -22.803   5.993  38.982  1.00  0.00     0.253 C 
HETATM   25  N1  UNL     1     -23.277   6.986  39.869  1.00  0.00    -0.054 NA
HETATM   26  N2  UNL     1     -22.828   6.223  37.728  1.00  0.00    -0.235 N 
ATOM     27  H2  UNL     1     -22.478   5.481  37.122  1.00  0.00     0.197 HD
BRANCH  26  28
HETATM   28  O1  UNL     1     -23.270   7.346  37.115  1.00  0.00    -0.287 OA
ATOM     29  H1  UNL     1     -23.058   7.638  36.236  1.00  0.00     0.244 HD
ENDBRANCH  26  28
ENDBRANCH  23  24
ENDBRANCH  22  23
ENDBRANCH  19  22
ENDBRANCH   1  19
BRANCH   4  30
HETATM   30  N5  UNL     1     -23.722   0.606  39.610  1.00  0.00    -0.370 N 
ATOM     31  H5  UNL     1     -24.114   1.316  38.991  1.00  0.00     0.161 HD
BRANCH  30  32
HETATM   32  C5  UNL     1     -24.468  -0.601  39.775  1.00  0.00     0.129 C 
BRANCH  32  33
HETATM   33  C6  UNL     1     -24.727  -0.907  41.230  1.00  0.00     0.098 C 
BRANCH  33  34
HETATM   34  C7  UNL     1     -25.187  -2.313  41.364  1.00  0.00     0.108 C 
HETATM   35  N6  UNL     1     -25.294  -3.221  40.461  1.00  0.00    -0.274 N 
HETATM   36  N7  UNL     1     -25.770  -4.390  41.054  1.00  0.00    -0.007 NA
ATOM     37  H6  UNL     1     -25.068  -3.106  39.474  1.00  0.00     0.185 HD
HETATM   38  N8  UNL     1     -26.319  -4.036  42.294  1.00  0.00    -0.007 NA
HETATM   39  N9  UNL     1     -25.606  -2.880  42.607  1.00  0.00    -0.274 N 
ATOM     40  H9  UNL     1     -25.421  -2.511  43.539  1.00  0.00     0.185 HD
ENDBRANCH  33  34
ENDBRANCH  32  33
ENDBRANCH  30  32
ENDBRANCH   4  30
TORSDOF 9
ENDMDL
MODEL 4
REMARK VINA RESULT: -9.936508759      2.784      6.437
REMARK  9 active torsions:
REMARK  status: ('A' for Active; 'I' for Inactive)
REMARK    1  A    between atoms: C1_2  and  O2_7 
REMARK    2  A    between atoms: N2_3  and  O1_5 
REMARK    3  A    between atoms: O2_7  and  C2_8 
REMARK    4  A    between atoms: C2_8  and  N3_9 
REMARK    5  A    between atoms: N3_9  and  C3_12 
REMARK    6  A    between atoms: C4_15  and  N5_16 
REMARK    7  A    between atoms: N5_16  and  C5_18 
REMARK    8  A    between atoms: C5_18  and  C6_19 
REMARK    9  A    between atoms: C6_19  and  C7_20 
ROOT
HETATM    1  C3  UNL     1     -20.277   1.150  40.861  1.00  0.00     0.530 C 
HETATM    2  N4  UNL     1     -21.514   0.823  40.296  1.00  0.00    -0.319 N 
ATOM      3  H4  UNL     1     -21.532   0.838  39.277  1.00  0.00     0.165 HD
HETATM    4  C4  UNL     1     -22.632   0.507  40.845  1.00  0.00     0.141 C 
HETATM    5  S1  UNL     1     -22.590   0.484  42.627  1.00  0.00    -0.054 SA
HETATM    6  C8  UNL     1     -20.855   0.324  43.077  1.00  0.00     0.357 A 
HETATM    7  N10 UNL     1     -19.934   0.835  42.157  1.00  0.00     0.189 N 
HETATM    8  C9  UNL     1     -20.087   1.622  43.332  1.00  0.00     0.364 A 
HETATM    9  C10 UNL     1     -19.070   1.646  44.381  1.00  0.00     0.278 C 
HETATM   10  O3  UNL     1     -17.885   1.312  44.158  1.00  0.00    -0.269 OA
HETATM   11  N11 UNL     1     -19.462   2.065  45.680  1.00  0.00    -0.276 N 
ATOM     12  H11 UNL     1     -18.907   1.783  46.488  1.00  0.00     0.173 HD
HETATM   13  C11 UNL     1     -20.633   2.881  45.874  1.00  0.00     0.329 C 
HETATM   14  O4  UNL     1     -20.973   3.248  47.036  1.00  0.00    -0.247 OA
HETATM   15  N12 UNL     1     -21.371   3.247  44.716  1.00  0.00    -0.276 N 
ATOM     16  H12 UNL     1     -22.208   3.824  44.802  1.00  0.00     0.173 HD
HETATM   17  C12 UNL     1     -20.934   2.804  43.436  1.00  0.00     0.278 C 
HETATM   18  O5  UNL     1     -21.331   3.497  42.456  1.00  0.00    -0.269 OA
ENDROOT
BRANCH   1  19
HETATM   19  N3  UNL     1     -19.246   0.583  39.965  1.00  0.00    -0.004 N 
ATOM     20  H32 UNL     1     -18.413   1.172  39.935  1.00  0.00     0.284 HD
ATOM     21  H31 UNL     1     -19.524   0.652  38.987  1.00  0.00     0.284 HD
BRANCH  19  22
HETATM   22  C2  UNL     1     -18.922  -0.761  40.321  1.00  0.00     0.414 C 
BRANCH  22  23
HETATM   23  O2  UNL     1     -17.512  -0.917  40.391  1.00  0.00    -0.295 OA
BRANCH  23  24
HETATM   24  C1  UNL     1     -16.913  -1.385  41.551  1.00  0.00     0.253 C 
HETATM   25  N1  UNL     1     -15.750  -2.186  41.492  1.00  0.00    -0.054 NA
HETATM   26  N2  UNL     1     -17.407  -1.099  42.691  1.00  0.00    -0.235 N 
ATOM     27  H2  UNL     1     -18.248  -0.520  42.691  1.00  0.00     0.197 HD
BRANCH  26  28
HETATM   28  O1  UNL     1     -16.937  -1.481  43.902  1.00  0.00    -0.287 OA
ATOM     29  H1  UNL     1     -16.197  -2.052  44.073  1.00  0.00     0.244 HD
ENDBRANCH  26  28
ENDBRANCH  23  24
ENDBRANCH  22  23
ENDBRANCH  19  22
ENDBRANCH   1  19
BRANCH   4  30
HETATM   30  N5  UNL     1     -23.727   0.225  40.027  1.00  0.00    -0.370 N 
ATOM     31  H5  UNL     1     -24.285   1.016  39.705  1.00  0.00     0.161 HD
BRANCH  30  32
HETATM   32  C5  UNL     1     -24.131  -1.077  39.602  1.00  0.00     0.129 C 
BRANCH  32  33
HETATM   33  C6  UNL     1     -25.551  -1.387  40.012  1.00  0.00     0.098 C 
BRANCH  33  34
HETATM   34  C7  UNL     1     -25.543  -2.450  41.050  1.00  0.00     0.108 C 
HETATM   35  N6  UNL     1     -25.106  -2.403  42.257  1.00  0.00    -0.274 N 
HETATM   36  N7  UNL     1     -25.310  -3.645  42.857  1.00  0.00    -0.007 NA
ATOM     37  H6  UNL     1     -24.679  -1.591  42.703  1.00  0.00     0.185 HD
HETATM   38  N8  UNL     1     -25.539  -4.572  41.832  1.00  0.00    -0.007 NA
HETATM   39  N9  UNL     1     -26.056  -3.764  40.821  1.00  0.00    -0.274 N 
ATOM     40  H9  UNL     1     -26.678  -4.053  40.066  1.00  0.00     0.185 HD
ENDBRANCH  33  34
ENDBRANCH  32  33
ENDBRANCH  30  32
ENDBRANCH   4  30
TORSDOF 9
ENDMDL
MODEL 5
REMARK VINA RESULT: -9.898534350      2.573      5.417
REMARK  9 active torsions:
REMARK  status: ('A' for Active; 'I' for Inactive)
REMARK    1  A    between atoms: C1_2  and  O2_7 
REMARK    2  A    between atoms: N2_3  and  O1_5 
REMARK    3  A    between atoms: O2_7  and  C2_8 
REMARK    4  A    between atoms: C2_8  and  N3_9 
REMARK    5  A    between atoms: N3_9  and  C3_12 
REMARK    6  A    between atoms: C4_15  and  N5_16 
REMARK    7  A    between atoms: N5_16  and  C5_18 
REMARK    8  A    between atoms: C5_18  and  C6_19 
REMARK    9  A    between atoms: C6_19  and  C7_20 
ROOT
HETATM    1  C3  UNL     1     -20.939   2.435  43.116  1.00  0.00     0.530 C 
HETATM    2  N4  UNL     1     -21.784   2.368  42.004  1.00  0.00    -0.319 N 
ATOM      3  H4  UNL     1     -22.706   2.776  42.147  1.00  0.00     0.165 HD
HETATM    4  C4  UNL     1     -21.592   1.878  40.831  1.00  0.00     0.141 C 
HETATM    5  S1  UNL     1     -19.976   1.166  40.592  1.00  0.00    -0.054 SA
HETATM    6  C8  UNL     1     -18.925   1.890  41.861  1.00  0.00     0.357 A 
HETATM    7  N10 UNL     1     -19.571   2.293  43.034  1.00  0.00     0.189 N 
HETATM    8  C9  UNL     1     -18.791   1.111  43.171  1.00  0.00     0.364 A 
HETATM    9  C10 UNL     1     -17.506   1.113  43.865  1.00  0.00     0.278 C 
HETATM   10  O3  UNL     1     -17.200   2.007  44.685  1.00  0.00    -0.269 OA
HETATM   11  N11 UNL     1     -16.595   0.060  43.583  1.00  0.00    -0.276 N 
ATOM     12  H11 UNL     1     -15.600   0.194  43.764  1.00  0.00     0.173 HD
HETATM   13  C11 UNL     1     -17.055  -1.194  43.044  1.00  0.00     0.329 C 
HETATM   14  O4  UNL     1     -16.235  -2.125  42.797  1.00  0.00    -0.247 OA
HETATM   15  N12 UNL     1     -18.451  -1.330  42.811  1.00  0.00    -0.276 N 
ATOM     16  H12 UNL     1     -18.825  -2.200  42.430  1.00  0.00     0.173 HD
HETATM   17  C12 UNL     1     -19.321  -0.246  43.112  1.00  0.00     0.278 C 
HETATM   18  O5  UNL     1     -20.530  -0.558  43.314  1.00  0.00    -0.269 OA
ENDROOT
BRANCH   1  19
HETATM   19  N3  UNL     1     -21.225   3.725  43.781  1.00  0.00    -0.004 N 
ATOM     20  H32 UNL     1     -22.173   4.044  43.582  1.00  0.00     0.284 HD
ATOM     21  H31 UNL     1     -20.706   4.489  43.349  1.00  0.00     0.284 HD
BRANCH  19  22
HETATM   22  C2  UNL     1     -20.981   3.657  45.186  1.00  0.00     0.414 C 
BRANCH  22  23
HETATM   23  O2  UNL     1     -21.722   2.588  45.755  1.00  0.00    -0.295 OA
BRANCH  23  24
HETATM   24  C1  UNL     1     -21.929   2.527  47.125  1.00  0.00     0.253 C 
HETATM   25  N1  UNL     1     -21.674   3.650  47.946  1.00  0.00    -0.054 NA
HETATM   26  N2  UNL     1     -22.354   1.453  47.665  1.00  0.00    -0.235 N 
ATOM     27  H2  UNL     1     -22.525   0.666  47.039  1.00  0.00     0.197 HD
BRANCH  26  28
HETATM   28  O1  UNL     1     -22.602   1.245  48.980  1.00  0.00    -0.287 OA
ATOM     29  H1  UNL     1     -22.008   1.401  49.705  1.00  0.00     0.244 HD
ENDBRANCH  26  28
ENDBRANCH  23  24
ENDBRANCH  22  23
ENDBRANCH  19  22
ENDBRANCH   1  19
BRANCH   4  30
HETATM   30  N5  UNL     1     -22.627   1.947  39.897  1.00  0.00    -0.370 N 
ATOM     31  H5  UNL     1     -22.534   2.634  39.148  1.00  0.00     0.161 HD
BRANCH  30  32
HETATM   32  C5  UNL     1     -23.803   1.138  39.901  1.00  0.00     0.129 C 
BRANCH  32  33
HETATM   33  C6  UNL     1     -23.514  -0.276  39.458  1.00  0.00     0.098 C 
BRANCH  33  34
HETATM   34  C7  UNL     1     -24.288  -1.225  40.301  1.00  0.00     0.108 C 
HETATM   35  N6  UNL     1     -24.618  -1.127  41.539  1.00  0.00    -0.274 N 
HETATM   36  N7  UNL     1     -25.343  -2.261  41.901  1.00  0.00    -0.007 NA
ATOM     37  H6  UNL     1     -24.387  -0.348  42.155  1.00  0.00     0.185 HD
HETATM   38  N8  UNL     1     -25.105  -3.239  40.925  1.00  0.00    -0.007 NA
HETATM   39  N9  UNL     1     -24.800  -2.463  39.807  1.00  0.00    -0.274 N 
ATOM     40  H9  UNL     1     -24.920  -2.729  38.830  1.00  0.00     0.185 HD
ENDBRANCH  33  34
ENDBRANCH  32  33
ENDBRANCH  30  32
ENDBRANCH   4  30
TORSDOF 9
ENDMDL
