MODEL 1
REMARK VINA RESULT: -4.670302363      0.000      0.000
REMARK  3 active torsions:
REMARK  status: ('A' for Active; 'I' for Inactive)
REMARK    1  A    between atoms: N1_2  and  C2_5 
REMARK    2  A    between atoms: C5_11  and  O1_12 
REMARK    3  A    between atoms: O1_12  and  C6_13 
ROOT
HETATM    1  C2  UNL     1       1.667 -15.991   7.504  1.00  0.00     0.241 C 
HETATM    2  C3  UNL     1       1.382 -17.407   7.052  1.00  0.00     0.268 C 
HETATM    3  N2  UNL     1       0.089 -17.269   6.364  1.00  0.00    -0.071 N 
ATOM      4  H21 UNL     1      -0.388 -18.145   6.151  1.00  0.00     0.277 HD
ATOM      5  H22 UNL     1       0.141 -16.956   5.394  1.00  0.00     0.277 HD
HETATM    6  C4  UNL     1      -0.625 -16.372   7.272  1.00  0.00     0.266 C 
HETATM    7  C5  UNL     1       0.357 -15.230   7.407  1.00  0.00     0.180 C 
ENDROOT
BRANCH   7   8
HETATM    8  O1  UNL     1       0.199 -14.490   8.535  1.00  0.00    -0.372 OA
BRANCH   8   9
HETATM    9  C6  UNL     1      -0.831 -13.640   8.639  1.00  0.00     0.051 C 
HETATM   10  C7  UNL     1      -1.740 -13.475   7.482  1.00  0.00     0.045 C 
HETATM   11  C8  UNL     1      -0.300 -12.281   9.047  1.00  0.00     0.045 C 
HETATM   12  C9  UNL     1      -1.698 -14.109   9.818  1.00  0.00     0.045 C 
ENDBRANCH   8   9
ENDBRANCH   7   8
BRANCH   1  13
HETATM   13  N1  UNL     1       2.184 -16.041   8.847  1.00  0.00    -0.071 N 
HETATM   14  C1  UNL     1       3.462 -16.757   8.765  1.00  0.00     0.267 C 
ATOM     15  H12 UNL     1       1.533 -16.448   9.518  1.00  0.00     0.277 HD
ATOM     16  H11 UNL     1       2.259 -15.124   9.288  1.00  0.00     0.277 HD
ENDBRANCH   1  13
TORSDOF 3
ENDMDL
MODEL 2
REMARK VINA RESULT: -4.585941238      0.758      1.242
REMARK  3 active torsions:
REMARK  status: ('A' for Active; 'I' for Inactive)
REMARK    1  A    between atoms: N1_2  and  C2_5 
REMARK    2  A    between atoms: C5_11  and  O1_12 
REMARK    3  A    between atoms: O1_12  and  C6_13 
ROOT
HETATM    1  C2  UNL     1       1.416 -15.655   7.865  1.00  0.00     0.241 C 
HETATM    2  C3  UNL     1       1.819 -16.923   7.144  1.00  0.00     0.268 C 
HETATM    3  N2  UNL     1       0.812 -17.016   6.075  1.00  0.00    -0.071 N 
ATOM      4  H21 UNL     1       0.777 -17.911   5.585  1.00  0.00     0.277 HD
ATOM      5  H22 UNL     1       1.009 -16.464   5.240  1.00  0.00     0.277 HD
HETATM    6  C4  UNL     1      -0.406 -16.649   6.795  1.00  0.00     0.266 C 
HETATM    7  C5  UNL     1      -0.002 -15.335   7.427  1.00  0.00     0.180 C 
ENDROOT
BRANCH   7   8
HETATM    8  O1  UNL     1      -0.730 -14.997   8.522  1.00  0.00    -0.372 OA
BRANCH   8   9
HETATM    9  C6  UNL     1      -1.258 -13.769   8.621  1.00  0.00     0.051 C 
HETATM   10  C7  UNL     1      -0.418 -12.600   8.274  1.00  0.00     0.045 C 
HETATM   11  C8  UNL     1      -1.802 -13.587  10.024  1.00  0.00     0.045 C 
HETATM   12  C9  UNL     1      -2.487 -13.720   7.700  1.00  0.00     0.045 C 
ENDBRANCH   8   9
ENDBRANCH   7   8
BRANCH   1  13
HETATM   13  N1  UNL     1       1.522 -15.888   9.282  1.00  0.00    -0.071 N 
HETATM   14  C1  UNL     1       2.551 -16.920   9.449  1.00  0.00     0.267 C 
ATOM     15  H12 UNL     1       0.633 -16.125   9.722  1.00  0.00     0.277 HD
ATOM     16  H11 UNL     1       1.704 -15.041   9.820  1.00  0.00     0.277 HD
ENDBRANCH   1  13
TORSDOF 3
ENDMDL
MODEL 3
REMARK VINA RESULT: -4.575632901      0.972      2.436
REMARK  3 active torsions:
REMARK  status: ('A' for Active; 'I' for Inactive)
REMARK    1  A    between atoms: N1_2  and  C2_5 
REMARK    2  A    between atoms: C5_11  and  O1_12 
REMARK    3  A    between atoms: O1_12  and  C6_13 
ROOT
HETATM    1  C2  UNL     1       0.111 -16.660   7.884  1.00  0.00     0.241 C 
HETATM    2  C3  UNL     1       1.396 -17.447   7.750  1.00  0.00     0.268 C 
HETATM    3  N2  UNL     1       2.308 -16.724   8.652  1.00  0.00    -0.071 N 
ATOM      4  H21 UNL     1       3.294 -16.970   8.563  1.00  0.00     0.277 HD
ATOM      5  H22 UNL     1       2.240 -16.978   9.637  1.00  0.00     0.277 HD
HETATM    6  C4  UNL     1       1.978 -15.335   8.339  1.00  0.00     0.266 C 
HETATM    7  C5  UNL     1       0.476 -15.330   8.518  1.00  0.00     0.180 C 
ENDROOT
BRANCH   7   8
HETATM    8  O1  UNL     1      -0.162 -14.338   7.846  1.00  0.00    -0.372 OA
BRANCH   8   9
HETATM    9  C6  UNL     1      -0.991 -13.513   8.500  1.00  0.00     0.051 C 
HETATM   10  C7  UNL     1      -0.594 -12.099   8.682  1.00  0.00     0.045 C 
HETATM   11  C8  UNL     1      -1.307 -14.116   9.854  1.00  0.00     0.045 C 
HETATM   12  C9  UNL     1      -2.326 -13.504   7.739  1.00  0.00     0.045 C 
ENDBRANCH   8   9
ENDBRANCH   7   8
BRANCH   1  13
HETATM   13  N1  UNL     1      -0.466 -16.512   6.572  1.00  0.00    -0.071 N 
HETATM   14  C1  UNL     1       0.423 -17.233   5.653  1.00  0.00     0.267 C 
ATOM     15  H12 UNL     1      -0.625 -15.541   6.305  1.00  0.00     0.277 HD
ATOM     16  H11 UNL     1      -1.438 -16.816   6.519  1.00  0.00     0.277 HD
ENDBRANCH   1  13
TORSDOF 3
ENDMDL
MODEL 4
REMARK VINA RESULT: -4.509505588      0.954      2.183
REMARK  3 active torsions:
REMARK  status: ('A' for Active; 'I' for Inactive)
REMARK    1  A    between atoms: N1_2  and  C2_5 
REMARK    2  A    between atoms: C5_11  and  O1_12 
REMARK    3  A    between atoms: O1_12  and  C6_13 
ROOT
HETATM    1  C2  UNL     1       0.163 -16.647   7.903  1.00  0.00     0.241 C 
HETATM    2  C3  UNL     1       1.388 -17.523   7.753  1.00  0.00     0.268 C 
HETATM    3  N2  UNL     1       2.341 -16.900   8.685  1.00  0.00    -0.071 N 
ATOM      4  H21 UNL     1       3.308 -17.215   8.596  1.00  0.00     0.277 HD
ATOM      5  H22 UNL     1       2.245 -17.181   9.661  1.00  0.00     0.277 HD
HETATM    6  C4  UNL     1       2.118 -15.480   8.418  1.00  0.00     0.266 C 
HETATM    7  C5  UNL     1       0.619 -15.370   8.585  1.00  0.00     0.180 C 
ENDROOT
BRANCH   7   8
HETATM    8  O1  UNL     1       0.063 -14.311   7.942  1.00  0.00    -0.372 OA
BRANCH   8   9
HETATM    9  C6  UNL     1      -0.932 -13.625   8.521  1.00  0.00     0.051 C 
HETATM   10  C7  UNL     1      -2.243 -13.554   7.835  1.00  0.00     0.045 C 
HETATM   11  C8  UNL     1      -0.449 -12.218   8.808  1.00  0.00     0.045 C 
HETATM   12  C9  UNL     1      -1.187 -14.256   9.899  1.00  0.00     0.045 C 
ENDBRANCH   8   9
ENDBRANCH   7   8
BRANCH   1  13
HETATM   13  N1  UNL     1      -0.388 -16.413   6.593  1.00  0.00    -0.071 N 
HETATM   14  C1  UNL     1       0.417 -17.213   5.664  1.00  0.00     0.267 C 
ATOM     15  H12 UNL     1      -0.435 -15.425   6.343  1.00  0.00     0.277 HD
ATOM     16  H11 UNL     1      -1.388 -16.604   6.533  1.00  0.00     0.277 HD
ENDBRANCH   1  13
TORSDOF 3
ENDMDL
MODEL 5
REMARK VINA RESULT: -4.419213402      2.940      4.884
REMARK  3 active torsions:
REMARK  status: ('A' for Active; 'I' for Inactive)
REMARK    1  A    between atoms: N1_2  and  C2_5 
REMARK    2  A    between atoms: C5_11  and  O1_12 
REMARK    3  A    between atoms: O1_12  and  C6_13 
ROOT
HETATM    1  C2  UNL     1      -0.894 -11.243   8.778  1.00  0.00     0.241 C 
HETATM    2  C3  UNL     1      -1.619 -10.227   7.922  1.00  0.00     0.268 C 
HETATM    3  N2  UNL     1      -2.665 -11.040   7.279  1.00  0.00    -0.071 N 
ATOM      4  H21 UNL     1      -3.150 -10.591   6.502  1.00  0.00     0.277 HD
ATOM      5  H22 UNL     1      -3.506 -11.190   7.836  1.00  0.00     0.277 HD
HETATM    6  C4  UNL     1      -1.918 -12.249   6.936  1.00  0.00     0.266 C 
HETATM    7  C5  UNL     1      -1.300 -12.614   8.268  1.00  0.00     0.180 C 
ENDROOT
BRANCH   7   8
HETATM    8  O1  UNL     1      -0.190 -13.389   8.174  1.00  0.00    -0.372 OA
BRANCH   8   9
HETATM    9  C6  UNL     1      -0.222 -14.658   8.603  1.00  0.00     0.051 C 
HETATM   10  C7  UNL     1       1.025 -15.270   9.115  1.00  0.00     0.045 C 
HETATM   11  C8  UNL     1      -0.782 -15.531   7.497  1.00  0.00     0.045 C 
HETATM   12  C9  UNL     1      -1.251 -14.734   9.741  1.00  0.00     0.045 C 
ENDBRANCH   8   9
ENDBRANCH   7   8
BRANCH   1  13
HETATM   13  N1  UNL     1       0.521 -11.003   8.662  1.00  0.00    -0.071 N 
HETATM   14  C1  UNL     1       0.665  -9.591   8.290  1.00  0.00     0.267 C 
ATOM     15  H12 UNL     1       0.991 -11.642   8.021  1.00  0.00     0.277 HD
ATOM     16  H11 UNL     1       1.046 -11.258   9.498  1.00  0.00     0.277 HD
ENDBRANCH   1  13
TORSDOF 3
ENDMDL
