MODEL 1
REMARK VINA RESULT: -5.585195185      0.000      0.000
REMARK  3 active torsions:
REMARK  status: ('A' for Active; 'I' for Inactive)
REMARK    1  A    between atoms: C2_3  and  S1_4 
REMARK    2  A    between atoms: S1_4  and  C3_5 
REMARK    3  A    between atoms: C5_7  and  N2_8 
ROOT
HETATM    1  N1  UNL     1       0.180 -14.422  10.099  1.00  0.00    -0.197 NA
HETATM    2  C1  UNL     1      -0.199 -14.683   9.048  1.00  0.00     0.069 C 
HETATM    3  C2  UNL     1      -0.670 -14.938   7.682  1.00  0.00     0.197 C 
ENDROOT
BRANCH   3   4
HETATM    4  S1  UNL     1      -0.058 -16.520   7.042  1.00  0.00    -0.150 SA
BRANCH   4   5
HETATM    5  C3  UNL     1       1.730 -16.610   7.088  1.00  0.00     0.054 C 
HETATM    6  C4  UNL     1       2.257 -17.751   6.208  1.00  0.00     0.048 C 
HETATM    7  C5  UNL     1       3.598 -18.101   6.855  1.00  0.00     0.189 C 
HETATM    8  C6  UNL     1       3.771 -16.975   7.787  1.00  0.00     0.022 A 
HETATM    9  C7  UNL     1       3.446 -16.737   9.140  1.00  0.00     0.013 A 
HETATM   10  C8  UNL     1       2.311 -17.072   8.366  1.00  0.00     0.006 A 
BRANCH   7  11
HETATM   11  N2  UNL     1       3.641 -19.408   7.410  1.00  0.00    -0.075 N 
ATOM     12  H23 UNL     1       4.406 -19.489   8.080  1.00  0.00     0.274 HD
ATOM     13  H22 UNL     1       2.850 -19.559   8.036  1.00  0.00     0.274 HD
ATOM     14  H21 UNL     1       3.695 -20.149   6.712  1.00  0.00     0.274 HD
ENDBRANCH   7  11
ENDBRANCH   4   5
ENDBRANCH   3   4
TORSDOF 3
ENDMDL
MODEL 2
REMARK VINA RESULT: -5.418299259      1.531      1.658
REMARK  3 active torsions:
REMARK  status: ('A' for Active; 'I' for Inactive)
REMARK    1  A    between atoms: C2_3  and  S1_4 
REMARK    2  A    between atoms: S1_4  and  C3_5 
REMARK    3  A    between atoms: C5_7  and  N2_8 
ROOT
HETATM    1  N1  UNL     1      -1.654 -11.792   8.670  1.00  0.00    -0.197 NA
HETATM    2  C1  UNL     1      -1.156 -12.795   8.922  1.00  0.00     0.069 C 
HETATM    3  C2  UNL     1      -0.568 -14.081   9.312  1.00  0.00     0.197 C 
ENDROOT
BRANCH   3   4
HETATM    4  S1  UNL     1      -0.381 -15.194   7.894  1.00  0.00    -0.150 SA
BRANCH   4   5
HETATM    5  C3  UNL     1       1.306 -15.773   7.721  1.00  0.00     0.054 C 
HETATM    6  C4  UNL     1       1.424 -16.831   6.616  1.00  0.00     0.048 C 
HETATM    7  C5  UNL     1       2.647 -17.645   7.041  1.00  0.00     0.189 C 
HETATM    8  C6  UNL     1       3.196 -16.803   8.115  1.00  0.00     0.022 A 
HETATM    9  C7  UNL     1       3.041 -16.740   9.516  1.00  0.00     0.013 A 
HETATM   10  C8  UNL     1       1.810 -16.604   8.834  1.00  0.00     0.006 A 
BRANCH   7  11
HETATM   11  N2  UNL     1       2.348 -18.995   7.372  1.00  0.00    -0.075 N 
ATOM     12  H23 UNL     1       3.041 -19.368   8.022  1.00  0.00     0.274 HD
ATOM     13  H22 UNL     1       1.518 -19.046   7.962  1.00  0.00     0.274 HD
ATOM     14  H21 UNL     1       2.251 -19.605   6.561  1.00  0.00     0.274 HD
ENDBRANCH   7  11
ENDBRANCH   4   5
ENDBRANCH   3   4
TORSDOF 3
ENDMDL
MODEL 3
REMARK VINA RESULT: -5.339050091      1.989      2.246
REMARK  3 active torsions:
REMARK  status: ('A' for Active; 'I' for Inactive)
REMARK    1  A    between atoms: C2_3  and  S1_4 
REMARK    2  A    between atoms: S1_4  and  C3_5 
REMARK    3  A    between atoms: C5_7  and  N2_8 
ROOT
HETATM    1  N1  UNL     1      -0.207 -11.261   8.176  1.00  0.00    -0.197 NA
HETATM    2  C1  UNL     1      -0.768 -12.260   8.240  1.00  0.00     0.069 C 
HETATM    3  C2  UNL     1      -1.504 -13.529   8.240  1.00  0.00     0.197 C 
ENDROOT
BRANCH   3   4
HETATM    4  S1  UNL     1      -0.637 -14.811   9.183  1.00  0.00    -0.150 SA
BRANCH   4   5
HETATM    5  C3  UNL     1       0.907 -15.280   8.405  1.00  0.00     0.054 C 
HETATM    6  C4  UNL     1       0.668 -15.955   7.047  1.00  0.00     0.048 C 
HETATM    7  C5  UNL     1       1.905 -16.836   6.873  1.00  0.00     0.189 C 
HETATM    8  C6  UNL     1       2.766 -16.344   7.960  1.00  0.00     0.022 A 
HETATM    9  C7  UNL     1       2.984 -16.708   9.306  1.00  0.00     0.013 A 
HETATM   10  C8  UNL     1       1.630 -16.397   9.047  1.00  0.00     0.006 A 
BRANCH   7  11
HETATM   11  N2  UNL     1       1.619 -18.228   6.860  1.00  0.00    -0.075 N 
ATOM     12  H23 UNL     1       0.616 -18.388   6.768  1.00  0.00     0.274 HD
ATOM     13  H22 UNL     1       1.939 -18.653   5.990  1.00  0.00     0.274 HD
ATOM     14  H21 UNL     1       1.991 -18.732   7.664  1.00  0.00     0.274 HD
ENDBRANCH   7  11
ENDBRANCH   4   5
ENDBRANCH   3   4
TORSDOF 3
ENDMDL
MODEL 4
REMARK VINA RESULT: -5.188469758      1.583      2.103
REMARK  3 active torsions:
REMARK  status: ('A' for Active; 'I' for Inactive)
REMARK    1  A    between atoms: C2_3  and  S1_4 
REMARK    2  A    between atoms: S1_4  and  C3_5 
REMARK    3  A    between atoms: C5_7  and  N2_8 
ROOT
HETATM    1  N1  UNL     1      -0.473 -12.152   8.308  1.00  0.00    -0.197 NA
HETATM    2  C1  UNL     1      -0.516 -13.287   8.472  1.00  0.00     0.069 C 
HETATM    3  C2  UNL     1      -0.650 -14.729   8.706  1.00  0.00     0.197 C 
ENDROOT
BRANCH   3   4
HETATM    4  S1  UNL     1       0.107 -15.701   7.377  1.00  0.00    -0.150 SA
BRANCH   4   5
HETATM    5  C3  UNL     1       1.378 -16.801   7.998  1.00  0.00     0.054 C 
HETATM    6  C4  UNL     1       2.653 -16.031   8.368  1.00  0.00     0.048 C 
HETATM    7  C5  UNL     1       3.752 -17.083   8.216  1.00  0.00     0.189 C 
HETATM    8  C6  UNL     1       2.958 -18.313   8.071  1.00  0.00     0.022 A 
HETATM    9  C7  UNL     1       2.432 -19.042   6.983  1.00  0.00     0.013 A 
HETATM   10  C8  UNL     1       1.984 -17.702   6.996  1.00  0.00     0.006 A 
BRANCH   7  11
HETATM   11  N2  UNL     1       4.682 -16.793   7.181  1.00  0.00    -0.075 N 
ATOM     12  H23 UNL     1       4.884 -17.629   6.634  1.00  0.00     0.274 HD
ATOM     13  H22 UNL     1       4.249 -16.217   6.459  1.00  0.00     0.274 HD
ATOM     14  H21 UNL     1       5.546 -16.364   7.513  1.00  0.00     0.274 HD
ENDBRANCH   7  11
ENDBRANCH   4   5
ENDBRANCH   3   4
TORSDOF 3
ENDMDL
MODEL 5
REMARK VINA RESULT: -5.185722184      1.554      2.168
REMARK  3 active torsions:
REMARK  status: ('A' for Active; 'I' for Inactive)
REMARK    1  A    between atoms: C2_3  and  S1_4 
REMARK    2  A    between atoms: S1_4  and  C3_5 
REMARK    3  A    between atoms: C5_7  and  N2_8 
ROOT
HETATM    1  N1  UNL     1      -2.359 -14.063   9.617  1.00  0.00    -0.197 NA
HETATM    2  C1  UNL     1      -1.255 -14.373   9.564  1.00  0.00     0.069 C 
HETATM    3  C2  UNL     1       0.149 -14.798   9.574  1.00  0.00     0.197 C 
ENDROOT
BRANCH   3   4
HETATM    4  S1  UNL     1       0.624 -15.591   8.016  1.00  0.00    -0.150 SA
BRANCH   4   5
HETATM    5  C3  UNL     1       1.868 -16.856   8.264  1.00  0.00     0.054 C 
HETATM    6  C4  UNL     1       3.240 -16.240   8.574  1.00  0.00     0.048 C 
HETATM    7  C5  UNL     1       4.220 -17.314   8.099  1.00  0.00     0.189 C 
HETATM    8  C6  UNL     1       3.314 -18.450   7.868  1.00  0.00     0.022 A 
HETATM    9  C7  UNL     1       2.595 -18.947   6.759  1.00  0.00     0.013 A 
HETATM   10  C8  UNL     1       2.265 -17.605   7.054  1.00  0.00     0.006 A 
BRANCH   7  11
HETATM   11  N2  UNL     1       5.031 -16.905   7.006  1.00  0.00    -0.075 N 
ATOM     12  H23 UNL     1       4.657 -17.263   6.127  1.00  0.00     0.274 HD
ATOM     13  H22 UNL     1       4.932 -15.904   6.839  1.00  0.00     0.274 HD
ATOM     14  H21 UNL     1       6.014 -17.158   7.107  1.00  0.00     0.274 HD
ENDBRANCH   7  11
ENDBRANCH   4   5
ENDBRANCH   3   4
TORSDOF 3
ENDMDL
