MODEL 1
REMARK VINA RESULT: -5.818107850      0.000      0.000
REMARK  5 active torsions:
REMARK  status: ('A' for Active; 'I' for Inactive)
REMARK    1  A    between atoms: C2_2  and  O2_4 
REMARK    2  A    between atoms: O2_4  and  C3_5 
REMARK    3  A    between atoms: C3_5  and  C4_6 
REMARK    4  A    between atoms: C5_7  and  C6_8 
REMARK    5  A    between atoms: N1_14  and  O3_16 
ROOT
HETATM    1  C6  UNL     1     -31.726  -8.449  14.090  1.00  0.00    -0.015 C 
HETATM    2  C7  UNL     1     -30.832  -8.798  15.051  1.00  0.00     0.003 C 
HETATM    3  C8  UNL     1     -29.837  -7.712  15.235  1.00  0.00     0.087 C 
HETATM    4  S1  UNL     1     -28.484  -7.887  14.053  1.00  0.00    -0.088 SA
HETATM    5  C9  UNL     1     -30.656  -6.491  14.781  1.00  0.00     0.080 C 
HETATM    6  C10 UNL     1     -31.343  -7.135  13.596  1.00  0.00     0.043 C 
HETATM    7  N1  UNL     1     -31.517  -6.620  12.440  1.00  0.00    -0.273 N 
ATOM      8  H1  UNL     1     -31.992  -7.192  11.742  1.00  0.00     0.194 HD
ENDROOT
BRANCH   1   9
HETATM    9  C5  UNL     1     -32.835  -9.275  13.657  1.00  0.00     0.011 C 
HETATM   10  C4  UNL     1     -34.048  -9.071  14.073  1.00  0.00     0.000 C 
BRANCH  10  11
HETATM   11  C3  UNL     1     -35.167  -9.956  13.594  1.00  0.00     0.206 C 
BRANCH  11  12
HETATM   12  O2  UNL     1     -36.379  -9.532  14.179  1.00  0.00    -0.318 OA
BRANCH  12  13
HETATM   13  C2  UNL     1     -37.438  -9.184  13.369  1.00  0.00     0.255 C 
HETATM   14  C1  UNL     1     -37.564  -9.690  11.960  1.00  0.00     0.126 C 
HETATM   15  O1  UNL     1     -38.327  -8.421  13.817  1.00  0.00    -0.266 OA
ENDBRANCH  12  13
ENDBRANCH  11  12
ENDBRANCH  10  11
ENDBRANCH   1   9
BRANCH   7  16
HETATM   16  O3  UNL     1     -31.126  -5.385  12.064  1.00  0.00    -0.290 OA
ATOM     17  H3  UNL     1     -31.004  -5.093  11.168  1.00  0.00     0.244 HD
ENDBRANCH   7  16
TORSDOF 5
ENDMDL
MODEL 2
REMARK VINA RESULT: -5.739948781      2.639      2.900
REMARK  5 active torsions:
REMARK  status: ('A' for Active; 'I' for Inactive)
REMARK    1  A    between atoms: C2_2  and  O2_4 
REMARK    2  A    between atoms: O2_4  and  C3_5 
REMARK    3  A    between atoms: C3_5  and  C4_6 
REMARK    4  A    between atoms: C5_7  and  C6_8 
REMARK    5  A    between atoms: N1_14  and  O3_16 
ROOT
HETATM    1  C6  UNL     1     -31.636  -8.819  14.121  1.00  0.00    -0.015 C 
HETATM    2  C7  UNL     1     -31.134  -7.613  13.749  1.00  0.00     0.003 C 
HETATM    3  C8  UNL     1     -29.673  -7.723  13.515  1.00  0.00     0.087 C 
HETATM    4  S1  UNL     1     -28.767  -7.510  15.062  1.00  0.00    -0.088 SA
HETATM    5  C9  UNL     1     -29.552  -9.211  13.142  1.00  0.00     0.080 C 
HETATM    6  C10 UNL     1     -30.526  -9.757  14.165  1.00  0.00     0.043 C 
HETATM    7  N1  UNL     1     -30.369 -10.798  14.889  1.00  0.00    -0.273 N 
ATOM      8  H1  UNL     1     -31.118 -11.028  15.542  1.00  0.00     0.194 HD
ENDROOT
BRANCH   1   9
HETATM    9  C5  UNL     1     -33.030  -9.074  14.427  1.00  0.00     0.011 C 
HETATM   10  C4  UNL     1     -33.875  -9.454  13.516  1.00  0.00     0.000 C 
BRANCH  10  11
HETATM   11  C3  UNL     1     -35.313  -9.706  13.883  1.00  0.00     0.206 C 
BRANCH  11  12
HETATM   12  O2  UNL     1     -35.713 -10.955  13.362  1.00  0.00    -0.318 OA
BRANCH  12  13
HETATM   13  C2  UNL     1     -36.880 -11.043  12.633  1.00  0.00     0.255 C 
HETATM   14  C1  UNL     1     -37.419  -9.882  11.848  1.00  0.00     0.126 C 
HETATM   15  O1  UNL     1     -37.516 -12.124  12.624  1.00  0.00    -0.266 OA
ENDBRANCH  12  13
ENDBRANCH  11  12
ENDBRANCH  10  11
ENDBRANCH   1   9
BRANCH   7  16
HETATM   16  O3  UNL     1     -29.299 -11.618  14.866  1.00  0.00    -0.290 OA
ATOM     17  H3  UNL     1     -28.694 -11.760  15.585  1.00  0.00     0.244 HD
ENDBRANCH   7  16
TORSDOF 5
ENDMDL
MODEL 3
REMARK VINA RESULT: -5.702596015      3.273      6.421
REMARK  5 active torsions:
REMARK  status: ('A' for Active; 'I' for Inactive)
REMARK    1  A    between atoms: C2_2  and  O2_4 
REMARK    2  A    between atoms: O2_4  and  C3_5 
REMARK    3  A    between atoms: C3_5  and  C4_6 
REMARK    4  A    between atoms: C5_7  and  C6_8 
REMARK    5  A    between atoms: N1_14  and  O3_16 
ROOT
HETATM    1  C6  UNL     1     -33.522  -8.808  12.539  1.00  0.00    -0.015 C 
HETATM    2  C7  UNL     1     -33.226  -8.380  11.284  1.00  0.00     0.003 C 
HETATM    3  C8  UNL     1     -34.094  -9.067  10.296  1.00  0.00     0.087 C 
HETATM    4  S1  UNL     1     -33.376 -10.652   9.817  1.00  0.00    -0.088 SA
HETATM    5  C9  UNL     1     -35.321  -9.390  11.167  1.00  0.00     0.080 C 
HETATM    6  C10 UNL     1     -34.578  -9.802  12.421  1.00  0.00     0.043 C 
HETATM    7  N1  UNL     1     -34.839 -10.803  13.170  1.00  0.00    -0.273 N 
ATOM      8  H1  UNL     1     -34.233 -10.951  13.977  1.00  0.00     0.194 HD
ENDROOT
BRANCH   1   9
HETATM    9  C5  UNL     1     -32.867  -8.344  13.745  1.00  0.00     0.011 C 
HETATM   10  C4  UNL     1     -31.743  -8.850  14.156  1.00  0.00     0.000 C 
BRANCH  10  11
HETATM   11  C3  UNL     1     -31.101  -8.334  15.415  1.00  0.00     0.206 C 
BRANCH  11  12
HETATM   12  O2  UNL     1     -30.481  -7.095  15.147  1.00  0.00    -0.318 OA
BRANCH  12  13
HETATM   13  C2  UNL     1     -29.126  -7.056  14.892  1.00  0.00     0.255 C 
HETATM   14  C1  UNL     1     -28.571  -6.480  13.621  1.00  0.00     0.126 C 
HETATM   15  O1  UNL     1     -28.329  -7.515  15.745  1.00  0.00    -0.266 OA
ENDBRANCH  12  13
ENDBRANCH  11  12
ENDBRANCH  10  11
ENDBRANCH   1   9
BRANCH   7  16
HETATM   16  O3  UNL     1     -35.845 -11.681  12.986  1.00  0.00    -0.290 OA
ATOM     17  H3  UNL     1     -35.760 -12.551  12.612  1.00  0.00     0.244 HD
ENDBRANCH   7  16
TORSDOF 5
ENDMDL
MODEL 4
REMARK VINA RESULT: -5.694861017      1.118      1.191
REMARK  5 active torsions:
REMARK  status: ('A' for Active; 'I' for Inactive)
REMARK    1  A    between atoms: C2_2  and  O2_4 
REMARK    2  A    between atoms: O2_4  and  C3_5 
REMARK    3  A    between atoms: C3_5  and  C4_6 
REMARK    4  A    between atoms: C5_7  and  C6_8 
REMARK    5  A    between atoms: N1_14  and  O3_16 
ROOT
HETATM    1  C6  UNL     1     -31.529  -8.515  14.010  1.00  0.00    -0.015 C 
HETATM    2  C7  UNL     1     -30.644  -8.814  14.997  1.00  0.00     0.003 C 
HETATM    3  C8  UNL     1     -29.731  -7.667  15.222  1.00  0.00     0.087 C 
HETATM    4  S1  UNL     1     -28.332  -7.738  14.083  1.00  0.00    -0.088 SA
HETATM    5  C9  UNL     1     -30.615  -6.498  14.752  1.00  0.00     0.080 C 
HETATM    6  C10 UNL     1     -31.219  -7.174  13.540  1.00  0.00     0.043 C 
HETATM    7  N1  UNL     1     -31.391  -6.659  12.384  1.00  0.00    -0.273 N 
ATOM      8  H1  UNL     1     -31.804  -7.253  11.665  1.00  0.00     0.194 HD
ENDROOT
BRANCH   1   9
HETATM    9  C5  UNL     1     -32.566  -9.409  13.534  1.00  0.00     0.011 C 
HETATM   10  C4  UNL     1     -33.786  -9.005  13.342  1.00  0.00     0.000 C 
BRANCH  10  11
HETATM   11  C3  UNL     1     -34.828  -9.972  12.846  1.00  0.00     0.206 C 
BRANCH  11  12
HETATM   12  O2  UNL     1     -35.542 -10.491  13.946  1.00  0.00    -0.318 OA
BRANCH  12  13
HETATM   13  C2  UNL     1     -36.375  -9.662  14.667  1.00  0.00     0.255 C 
HETATM   14  C1  UNL     1     -37.557  -8.980  14.041  1.00  0.00     0.126 C 
HETATM   15  O1  UNL     1     -36.141  -9.467  15.884  1.00  0.00    -0.266 OA
ENDBRANCH  12  13
ENDBRANCH  11  12
ENDBRANCH  10  11
ENDBRANCH   1   9
BRANCH   7  16
HETATM   16  O3  UNL     1     -31.072  -5.397  12.031  1.00  0.00    -0.290 OA
ATOM     17  H3  UNL     1     -30.553  -5.148  11.274  1.00  0.00     0.244 HD
ENDBRANCH   7  16
TORSDOF 5
ENDMDL
MODEL 5
REMARK VINA RESULT: -5.660012903      1.451      1.610
REMARK  5 active torsions:
REMARK  status: ('A' for Active; 'I' for Inactive)
REMARK    1  A    between atoms: C2_2  and  O2_4 
REMARK    2  A    between atoms: O2_4  and  C3_5 
REMARK    3  A    between atoms: C3_5  and  C4_6 
REMARK    4  A    between atoms: C5_7  and  C6_8 
REMARK    5  A    between atoms: N1_14  and  O3_16 
ROOT
HETATM    1  C6  UNL     1     -32.418  -8.924  13.866  1.00  0.00    -0.015 C 
HETATM    2  C7  UNL     1     -31.328  -9.677  14.168  1.00  0.00     0.003 C 
HETATM    3  C8  UNL     1     -30.123  -8.814  14.247  1.00  0.00     0.087 C 
HETATM    4  S1  UNL     1     -29.394  -8.595  12.611  1.00  0.00    -0.088 SA
HETATM    5  C9  UNL     1     -30.759  -7.465  14.625  1.00  0.00     0.080 C 
HETATM    6  C10 UNL     1     -31.968  -7.548  13.718  1.00  0.00     0.043 C 
HETATM    7  N1  UNL     1     -32.447  -6.611  12.994  1.00  0.00    -0.273 N 
ATOM      8  H1  UNL     1     -33.266  -6.831  12.427  1.00  0.00     0.194 HD
ENDROOT
BRANCH   1   9
HETATM    9  C5  UNL     1     -33.762  -9.442  13.713  1.00  0.00     0.011 C 
HETATM   10  C4  UNL     1     -34.117 -10.137  12.674  1.00  0.00     0.000 C 
BRANCH  10  11
HETATM   11  C3  UNL     1     -35.526 -10.655  12.561  1.00  0.00     0.206 C 
BRANCH  11  12
HETATM   12  O2  UNL     1     -36.221  -9.901  11.591  1.00  0.00    -0.318 OA
BRANCH  12  13
HETATM   13  C2  UNL     1     -37.525  -9.524  11.832  1.00  0.00     0.255 C 
HETATM   14  C1  UNL     1     -38.067  -9.376  13.225  1.00  0.00     0.126 C 
HETATM   15  O1  UNL     1     -38.286  -9.297  10.862  1.00  0.00    -0.266 OA
ENDBRANCH  12  13
ENDBRANCH  11  12
ENDBRANCH  10  11
ENDBRANCH   1   9
BRANCH   7  16
HETATM   16  O3  UNL     1     -31.964  -5.354  12.916  1.00  0.00    -0.290 OA
ATOM     17  H3  UNL     1     -32.318  -4.596  13.366  1.00  0.00     0.244 HD
ENDBRANCH   7  16
TORSDOF 5
ENDMDL
