MODEL 1
REMARK VINA RESULT: -6.780981200      0.000      0.000
REMARK  4 active torsions:
REMARK  status: ('A' for Active; 'I' for Inactive)
REMARK    1  A    between atoms: C5_6  and  C6_7 
REMARK    2  A    between atoms: C6_7  and  N1_8 
REMARK    3  A    between atoms: N1_8  and  C7_10 
REMARK    4  A    between atoms: C7_10  and  C8_12 
ROOT
HETATM    1  C7  UNL     1     -16.175  -9.600 -61.725  1.00  0.00     0.082 C 
HETATM    2  S1  UNL     1     -15.377  -9.620 -60.318  1.00  0.00    -0.065 SA
ENDROOT
BRANCH   1   3
HETATM    3  N1  UNL     1     -16.034  -8.539 -62.621  1.00  0.00    -0.381 N 
ATOM      4  H1  UNL     1     -15.665  -8.791 -63.537  1.00  0.00     0.160 HD
BRANCH   3   5
HETATM    5  C6  UNL     1     -16.329  -7.158 -62.445  1.00  0.00     0.152 C 
BRANCH   5   6
HETATM    6  C5  UNL     1     -17.455  -6.708 -63.298  1.00  0.00     0.142 C 
HETATM    7  C2  UNL     1     -17.162  -5.330 -63.923  1.00  0.00     0.014 C 
HETATM    8  C1  UNL     1     -17.696  -4.301 -62.972  1.00  0.00     0.012 C 
HETATM    9  C3  UNL     1     -17.869  -5.379 -65.236  1.00  0.00     0.033 C 
HETATM   10  C4  UNL     1     -18.580  -6.720 -65.229  1.00  0.00     0.168 C 
HETATM   11  O1  UNL     1     -17.811  -7.455 -64.366  1.00  0.00    -0.384 OA
ENDBRANCH   5   6
ENDBRANCH   3   5
ENDBRANCH   1   3
BRANCH   1  12
HETATM   12  C8  UNL     1     -17.100 -10.723 -62.012  1.00  0.00     0.014 C 
HETATM   13  C9  UNL     1     -17.078 -11.764 -60.916  1.00  0.00     0.021 C 
HETATM   14  C10 UNL     1     -18.083 -12.832 -61.302  1.00  0.00    -0.013 C 
HETATM   15  C11 UNL     1     -19.475 -12.244 -61.377  1.00  0.00     0.009 C 
HETATM   16  C15 UNL     1     -17.748 -13.438 -62.626  1.00  0.00     0.009 C 
HETATM   17  C12 UNL     1     -19.474 -11.183 -62.446  1.00  0.00    -0.013 C 
HETATM   18  C13 UNL     1     -19.113 -11.707 -63.798  1.00  0.00     0.009 C 
HETATM   19  C17 UNL     1     -18.500 -10.116 -62.029  1.00  0.00     0.021 C 
HETATM   20  C14 UNL     1     -17.750 -12.380 -63.707  1.00  0.00    -0.013 C 
HETATM   21  C16 UNL     1     -16.741 -11.337 -63.323  1.00  0.00     0.021 C 
ENDBRANCH   1  12
TORSDOF 4
ENDMDL
MODEL 2
REMARK VINA RESULT: -6.772298190      0.143      1.644
REMARK  4 active torsions:
REMARK  status: ('A' for Active; 'I' for Inactive)
REMARK    1  A    between atoms: C5_6  and  C6_7 
REMARK    2  A    between atoms: C6_7  and  N1_8 
REMARK    3  A    between atoms: N1_8  and  C7_10 
REMARK    4  A    between atoms: C7_10  and  C8_12 
ROOT
HETATM    1  C7  UNL     1     -16.235  -9.580 -61.774  1.00  0.00     0.082 C 
HETATM    2  S1  UNL     1     -15.460  -9.642 -60.355  1.00  0.00    -0.065 SA
ENDROOT
BRANCH   1   3
HETATM    3  N1  UNL     1     -16.047  -8.514 -62.654  1.00  0.00    -0.381 N 
ATOM      4  H1  UNL     1     -15.642  -8.762 -63.556  1.00  0.00     0.160 HD
BRANCH   3   5
HETATM    5  C6  UNL     1     -16.336  -7.131 -62.480  1.00  0.00     0.152 C 
BRANCH   5   6
HETATM    6  C5  UNL     1     -17.460  -6.677 -63.333  1.00  0.00     0.142 C 
HETATM    7  C2  UNL     1     -17.168  -5.294 -63.947  1.00  0.00     0.014 C 
HETATM    8  C1  UNL     1     -17.709  -4.274 -62.989  1.00  0.00     0.012 C 
HETATM    9  C3  UNL     1     -17.871  -5.335 -65.262  1.00  0.00     0.033 C 
HETATM   10  C4  UNL     1     -18.579  -6.677 -65.268  1.00  0.00     0.168 C 
HETATM   11  O1  UNL     1     -17.811  -7.417 -64.408  1.00  0.00    -0.384 OA
ENDBRANCH   5   6
ENDBRANCH   3   5
ENDBRANCH   1   3
BRANCH   1  12
HETATM   12  C8  UNL     1     -17.192 -10.669 -62.087  1.00  0.00     0.014 C 
HETATM   13  C9  UNL     1     -16.825 -11.391 -63.364  1.00  0.00     0.021 C 
HETATM   14  C10 UNL     1     -17.846 -12.495 -63.556  1.00  0.00    -0.013 C 
HETATM   15  C11 UNL     1     -17.777 -13.481 -62.411  1.00  0.00     0.009 C 
HETATM   16  C15 UNL     1     -19.232 -11.944 -63.630  1.00  0.00     0.009 C 
HETATM   17  C12 UNL     1     -18.109 -12.742 -61.141  1.00  0.00    -0.013 C 
HETATM   18  C13 UNL     1     -19.473 -12.131 -61.152  1.00  0.00     0.009 C 
HETATM   19  C17 UNL     1     -17.067 -11.676 -60.949  1.00  0.00     0.021 C 
HETATM   20  C14 UNL     1     -19.576 -11.205 -62.356  1.00  0.00    -0.013 C 
HETATM   21  C16 UNL     1     -18.569 -10.104 -62.185  1.00  0.00     0.021 C 
ENDBRANCH   1  12
TORSDOF 4
ENDMDL
MODEL 3
REMARK VINA RESULT: -6.770836026      0.127      1.654
REMARK  4 active torsions:
REMARK  status: ('A' for Active; 'I' for Inactive)
REMARK    1  A    between atoms: C5_6  and  C6_7 
REMARK    2  A    between atoms: C6_7  and  N1_8 
REMARK    3  A    between atoms: N1_8  and  C7_10 
REMARK    4  A    between atoms: C7_10  and  C8_12 
ROOT
HETATM    1  C7  UNL     1     -16.253  -9.575 -61.713  1.00  0.00     0.082 C 
HETATM    2  S1  UNL     1     -15.423  -9.647 -60.327  1.00  0.00    -0.065 SA
ENDROOT
BRANCH   1   3
HETATM    3  N1  UNL     1     -16.053  -8.537 -62.622  1.00  0.00    -0.381 N 
ATOM      4  H1  UNL     1     -15.660  -8.816 -63.521  1.00  0.00     0.160 HD
BRANCH   3   5
HETATM    5  C6  UNL     1     -16.315  -7.145 -62.482  1.00  0.00     0.152 C 
BRANCH   5   6
HETATM    6  C5  UNL     1     -17.449  -6.695 -63.324  1.00  0.00     0.142 C 
HETATM    7  C2  UNL     1     -17.167  -5.313 -63.945  1.00  0.00     0.014 C 
HETATM    8  C1  UNL     1     -17.700  -4.292 -62.984  1.00  0.00     0.012 C 
HETATM    9  C3  UNL     1     -17.883  -5.359 -65.253  1.00  0.00     0.033 C 
HETATM   10  C4  UNL     1     -18.588  -6.703 -65.248  1.00  0.00     0.168 C 
HETATM   11  O1  UNL     1     -17.809  -7.439 -64.394  1.00  0.00    -0.384 OA
ENDBRANCH   5   6
ENDBRANCH   3   5
ENDBRANCH   1   3
BRANCH   1  12
HETATM   12  C8  UNL     1     -17.271 -10.624 -61.965  1.00  0.00     0.014 C 
HETATM   13  C9  UNL     1     -18.666 -10.047 -62.046  1.00  0.00     0.021 C 
HETATM   14  C10 UNL     1     -19.605 -11.200 -62.341  1.00  0.00    -0.013 C 
HETATM   15  C11 UNL     1     -19.267 -11.827 -63.675  1.00  0.00     0.009 C 
HETATM   16  C15 UNL     1     -19.519 -12.251 -61.282  1.00  0.00     0.009 C 
HETATM   17  C12 UNL     1     -17.863 -12.366 -63.593  1.00  0.00    -0.013 C 
HETATM   18  C13 UNL     1     -17.689 -13.402 -62.531  1.00  0.00     0.009 C 
HETATM   19  C17 UNL     1     -16.943 -11.204 -63.337  1.00  0.00     0.021 C 
HETATM   20  C14 UNL     1     -18.113 -12.802 -61.197  1.00  0.00    -0.013 C 
HETATM   21  C16 UNL     1     -17.195 -11.655 -60.889  1.00  0.00     0.021 C 
ENDBRANCH   1  12
TORSDOF 4
ENDMDL
MODEL 4
REMARK VINA RESULT: -6.666171912      2.220      3.579
REMARK  4 active torsions:
REMARK  status: ('A' for Active; 'I' for Inactive)
REMARK    1  A    between atoms: C5_6  and  C6_7 
REMARK    2  A    between atoms: C6_7  and  N1_8 
REMARK    3  A    between atoms: N1_8  and  C7_10 
REMARK    4  A    between atoms: C7_10  and  C8_12 
ROOT
HETATM    1  C7  UNL     1     -16.611  -9.275 -61.902  1.00  0.00     0.082 C 
HETATM    2  S1  UNL     1     -17.425 -10.423 -62.700  1.00  0.00    -0.065 SA
ENDROOT
BRANCH   1   3
HETATM    3  N1  UNL     1     -15.985  -8.230 -62.580  1.00  0.00    -0.381 N 
ATOM      4  H1  UNL     1     -15.207  -8.505 -63.180  1.00  0.00     0.160 HD
BRANCH   3   5
HETATM    5  C6  UNL     1     -16.269  -6.835 -62.559  1.00  0.00     0.152 C 
BRANCH   5   6
HETATM    6  C5  UNL     1     -17.431  -6.483 -63.410  1.00  0.00     0.142 C 
HETATM    7  C2  UNL     1     -17.253  -5.089 -64.044  1.00  0.00     0.014 C 
HETATM    8  C1  UNL     1     -17.866  -4.102 -63.097  1.00  0.00     0.012 C 
HETATM    9  C3  UNL     1     -17.958  -5.204 -65.354  1.00  0.00     0.033 C 
HETATM   10  C4  UNL     1     -18.558  -6.597 -65.337  1.00  0.00     0.168 C 
HETATM   11  O1  UNL     1     -17.729  -7.263 -64.473  1.00  0.00    -0.384 OA
ENDBRANCH   5   6
ENDBRANCH   3   5
ENDBRANCH   1   3
BRANCH   1  12
HETATM   12  C8  UNL     1     -16.510  -9.397 -60.427  1.00  0.00     0.014 C 
HETATM   13  C9  UNL     1     -16.985  -8.146 -59.724  1.00  0.00     0.021 C 
HETATM   14  C10 UNL     1     -16.870  -8.405 -58.235  1.00  0.00    -0.013 C 
HETATM   15  C11 UNL     1     -17.767  -9.553 -57.828  1.00  0.00     0.009 C 
HETATM   16  C15 UNL     1     -15.465  -8.736 -57.851  1.00  0.00     0.009 C 
HETATM   17  C12 UNL     1     -17.307 -10.786 -58.563  1.00  0.00    -0.013 C 
HETATM   18  C13 UNL     1     -15.894 -11.163 -58.255  1.00  0.00     0.009 C 
HETATM   19  C17 UNL     1     -17.462 -10.523 -60.035  1.00  0.00     0.021 C 
HETATM   20  C14 UNL     1     -14.996  -9.976 -58.579  1.00  0.00    -0.013 C 
HETATM   21  C16 UNL     1     -15.099  -9.702 -60.052  1.00  0.00     0.021 C 
ENDBRANCH   1  12
TORSDOF 4
ENDMDL
MODEL 5
REMARK VINA RESULT: -6.643122330      2.246      3.547
REMARK  4 active torsions:
REMARK  status: ('A' for Active; 'I' for Inactive)
REMARK    1  A    between atoms: C5_6  and  C6_7 
REMARK    2  A    between atoms: C6_7  and  N1_8 
REMARK    3  A    between atoms: N1_8  and  C7_10 
REMARK    4  A    between atoms: C7_10  and  C8_12 
ROOT
HETATM    1  C7  UNL     1     -16.747  -9.388 -61.827  1.00  0.00     0.082 C 
HETATM    2  S1  UNL     1     -17.816 -10.365 -62.546  1.00  0.00    -0.065 SA
ENDROOT
BRANCH   1   3
HETATM    3  N1  UNL     1     -16.039  -8.431 -62.553  1.00  0.00    -0.381 N 
ATOM      4  H1  UNL     1     -15.298  -8.798 -63.150  1.00  0.00     0.160 HD
BRANCH   3   5
HETATM    5  C6  UNL     1     -16.197  -7.016 -62.587  1.00  0.00     0.152 C 
BRANCH   5   6
HETATM    6  C5  UNL     1     -17.374  -6.598 -63.385  1.00  0.00     0.142 C 
HETATM    7  C2  UNL     1     -17.189  -5.172 -63.942  1.00  0.00     0.014 C 
HETATM    8  C1  UNL     1     -17.763  -4.233 -62.923  1.00  0.00     0.012 C 
HETATM    9  C3  UNL     1     -17.928  -5.199 -65.237  1.00  0.00     0.033 C 
HETATM   10  C4  UNL     1     -18.550  -6.582 -65.286  1.00  0.00     0.168 C 
HETATM   11  O1  UNL     1     -17.710  -7.310 -64.484  1.00  0.00    -0.384 OA
ENDBRANCH   5   6
ENDBRANCH   3   5
ENDBRANCH   1   3
BRANCH   1  12
HETATM   12  C8  UNL     1     -16.505  -9.576 -60.375  1.00  0.00     0.014 C 
HETATM   13  C9  UNL     1     -15.030  -9.628 -60.051  1.00  0.00     0.021 C 
HETATM   14  C10 UNL     1     -14.913  -9.784 -58.548  1.00  0.00    -0.013 C 
HETATM   15  C11 UNL     1     -15.515  -8.588 -57.845  1.00  0.00     0.009 C 
HETATM   16  C15 UNL     1     -15.610 -11.018 -58.076  1.00  0.00     0.009 C 
HETATM   17  C12 UNL     1     -16.977  -8.526 -58.205  1.00  0.00    -0.013 C 
HETATM   18  C13 UNL     1     -17.739  -9.744 -57.794  1.00  0.00     0.009 C 
HETATM   19  C17 UNL     1     -17.072  -8.335 -59.693  1.00  0.00     0.021 C 
HETATM   20  C14 UNL     1     -17.080 -10.962 -58.427  1.00  0.00    -0.013 C 
HETATM   21  C16 UNL     1     -17.184 -10.824 -59.919  1.00  0.00     0.021 C 
ENDBRANCH   1  12
TORSDOF 4
ENDMDL
