MODEL 1
REMARK VINA RESULT: -7.648681929      0.000      0.000
REMARK  3 active torsions:
REMARK  status: ('A' for Active; 'I' for Inactive)
REMARK       I    between atoms: C1_2  and  N1_3 
REMARK    1  A    between atoms: C1_2  and  C8_11 
REMARK    2  A    between atoms: N1_3  and  C2_5 
REMARK    3  A    between atoms: N2_15  and  C12_16 
ROOT
HETATM    1  C8  UNL     1     -17.848 -11.045 -63.200  1.00  0.00     0.080 C 
HETATM    2  C9  UNL     1     -17.539 -11.809 -61.927  1.00  0.00     0.019 C 
HETATM    3  C10 UNL     1     -16.950 -13.167 -62.221  1.00  0.00     0.045 C 
HETATM    4  C11 UNL     1     -17.803 -13.935 -63.226  1.00  0.00     0.058 C 
HETATM    5  N2  UNL     1     -19.145 -13.792 -62.844  1.00  0.00    -0.389 N 
HETATM    6  C17 UNL     1     -19.832 -12.601 -63.171  1.00  0.00     0.123 C 
HETATM    7  C18 UNL     1     -19.038 -11.581 -63.923  1.00  0.00     0.034 C 
ENDROOT
BRANCH   1   8
HETATM    8  C1  UNL     1     -18.070  -9.639 -62.872  1.00  0.00     0.222 C 
HETATM    9  O1  UNL     1     -18.910  -9.328 -61.992  1.00  0.00    -0.273 OA
HETATM   10  N1  UNL     1     -17.363  -8.600 -63.519  1.00  0.00    -0.356 N 
ATOM     11  H1  UNL     1     -16.681  -8.859 -64.233  1.00  0.00     0.162 HD
BRANCH  10  12
HETATM   12  C2  UNL     1     -17.544  -7.196 -63.233  1.00  0.00     0.084 C 
HETATM   13  C3  UNL     1     -16.581  -6.702 -62.178  1.00  0.00     0.025 C 
HETATM   14  C4  UNL     1     -17.053  -5.322 -61.771  1.00  0.00     0.002 C 
HETATM   15  C5  UNL     1     -18.122  -4.780 -62.669  1.00  0.00     0.000 C 
HETATM   16  C6  UNL     1     -17.860  -4.946 -64.129  1.00  0.00     0.002 C 
HETATM   17  C7  UNL     1     -17.387  -6.341 -64.460  1.00  0.00     0.025 C 
ENDBRANCH  10  12
ENDBRANCH   1   8
BRANCH   5  18
HETATM   18  C12 UNL     1     -19.869 -14.892 -62.389  1.00  0.00     0.083 C 
HETATM   19  C13 UNL     1     -19.875 -15.122 -60.898  1.00  0.00     0.025 C 
HETATM   20  C14 UNL     1     -20.838 -16.317 -60.816  1.00  0.00     0.002 C 
HETATM   21  C15 UNL     1     -21.836 -16.088 -61.953  1.00  0.00     0.002 C 
HETATM   22  C16 UNL     1     -21.348 -14.865 -62.700  1.00  0.00     0.025 C 
ENDBRANCH   5  18
TORSDOF 3
ENDMDL
MODEL 2
REMARK VINA RESULT: -7.545582128      1.881      3.166
REMARK  3 active torsions:
REMARK  status: ('A' for Active; 'I' for Inactive)
REMARK       I    between atoms: C1_2  and  N1_3 
REMARK    1  A    between atoms: C1_2  and  C8_11 
REMARK    2  A    between atoms: N1_3  and  C2_5 
REMARK    3  A    between atoms: N2_15  and  C12_16 
ROOT
HETATM    1  C8  UNL     1     -17.741 -10.960 -62.438  1.00  0.00     0.080 C 
HETATM    2  C9  UNL     1     -18.404 -11.545 -63.671  1.00  0.00     0.019 C 
HETATM    3  C10 UNL     1     -19.303 -12.707 -63.322  1.00  0.00     0.045 C 
HETATM    4  C11 UNL     1     -18.575 -13.728 -62.453  1.00  0.00     0.058 C 
HETATM    5  N2  UNL     1     -17.304 -13.933 -63.011  1.00  0.00    -0.389 N 
HETATM    6  C17 UNL     1     -16.281 -12.991 -62.760  1.00  0.00     0.123 C 
HETATM    7  C18 UNL     1     -16.663 -11.835 -61.891  1.00  0.00     0.034 C 
ENDROOT
BRANCH   1   8
HETATM    8  C1  UNL     1     -17.184  -9.651 -62.770  1.00  0.00     0.222 C 
HETATM    9  O1  UNL     1     -15.965  -9.422 -62.572  1.00  0.00    -0.273 OA
HETATM   10  N1  UNL     1     -17.979  -8.618 -63.315  1.00  0.00    -0.356 N 
ATOM     11  H1  UNL     1     -18.969  -8.810 -63.475  1.00  0.00     0.162 HD
BRANCH  10  12
HETATM   12  C2  UNL     1     -17.479  -7.307 -63.660  1.00  0.00     0.084 C 
HETATM   13  C3  UNL     1     -18.265  -6.678 -64.787  1.00  0.00     0.025 C 
HETATM   14  C4  UNL     1     -17.483  -5.462 -65.236  1.00  0.00     0.002 C 
HETATM   15  C5  UNL     1     -16.358  -5.115 -64.311  1.00  0.00     0.000 C 
HETATM   16  C6  UNL     1     -16.709  -5.131 -62.861  1.00  0.00     0.002 C 
HETATM   17  C7  UNL     1     -17.493  -6.367 -62.487  1.00  0.00     0.025 C 
ENDBRANCH  10  12
ENDBRANCH   1   8
BRANCH   5  18
HETATM   18  C12 UNL     1     -16.972 -15.163 -63.576  1.00  0.00     0.083 C 
HETATM   19  C13 UNL     1     -18.125 -16.036 -64.005  1.00  0.00     0.025 C 
HETATM   20  C14 UNL     1     -17.354 -17.198 -64.651  1.00  0.00     0.002 C 
HETATM   21  C15 UNL     1     -16.110 -16.547 -65.259  1.00  0.00     0.002 C 
HETATM   22  C16 UNL     1     -16.155 -15.090 -64.845  1.00  0.00     0.025 C 
ENDBRANCH   5  18
TORSDOF 3
ENDMDL
MODEL 3
REMARK VINA RESULT: -7.200608353      1.392      2.286
REMARK  3 active torsions:
REMARK  status: ('A' for Active; 'I' for Inactive)
REMARK       I    between atoms: C1_2  and  N1_3 
REMARK    1  A    between atoms: C1_2  and  C8_11 
REMARK    2  A    between atoms: N1_3  and  C2_5 
REMARK    3  A    between atoms: N2_15  and  C12_16 
ROOT
HETATM    1  C8  UNL     1     -18.913 -10.681 -63.086  1.00  0.00     0.080 C 
HETATM    2  C9  UNL     1     -18.178 -11.975 -63.382  1.00  0.00     0.019 C 
HETATM    3  C10 UNL     1     -19.131 -13.088 -63.741  1.00  0.00     0.045 C 
HETATM    4  C11 UNL     1     -20.245 -13.217 -62.706  1.00  0.00     0.058 C 
HETATM    5  N2  UNL     1     -19.657 -13.145 -61.435  1.00  0.00    -0.389 N 
HETATM    6  C17 UNL     1     -19.313 -11.881 -60.905  1.00  0.00     0.123 C 
HETATM    7  C18 UNL     1     -19.626 -10.707 -61.777  1.00  0.00     0.034 C 
ENDROOT
BRANCH   1   8
HETATM    8  C1  UNL     1     -17.958  -9.575 -63.100  1.00  0.00     0.222 C 
HETATM    9  O1  UNL     1     -16.755  -9.785 -62.810  1.00  0.00    -0.273 OA
HETATM   10  N1  UNL     1     -18.347  -8.257 -63.433  1.00  0.00    -0.356 N 
ATOM     11  H1  UNL     1     -19.325  -8.093 -63.668  1.00  0.00     0.162 HD
BRANCH  10  12
HETATM   12  C2  UNL     1     -17.444  -7.130 -63.460  1.00  0.00     0.084 C 
HETATM   13  C3  UNL     1     -17.681  -6.242 -64.661  1.00  0.00     0.025 C 
HETATM   14  C4  UNL     1     -16.513  -5.281 -64.727  1.00  0.00     0.002 C 
HETATM   15  C5  UNL     1     -15.651  -5.321 -63.503  1.00  0.00     0.000 C 
HETATM   16  C6  UNL     1     -16.395  -5.313 -62.210  1.00  0.00     0.002 C 
HETATM   17  C7  UNL     1     -17.547  -6.289 -62.218  1.00  0.00     0.025 C 
ENDBRANCH  10  12
ENDBRANCH   1   8
BRANCH   5  18
HETATM   18  C12 UNL     1     -19.652 -14.258 -60.596  1.00  0.00     0.083 C 
HETATM   19  C13 UNL     1     -20.426 -15.462 -61.074  1.00  0.00     0.025 C 
HETATM   20  C14 UNL     1     -20.083 -16.460 -59.958  1.00  0.00     0.002 C 
HETATM   21  C15 UNL     1     -18.658 -16.096 -59.537  1.00  0.00     0.002 C 
HETATM   22  C16 UNL     1     -18.291 -14.857 -60.326  1.00  0.00     0.025 C 
ENDBRANCH   5  18
TORSDOF 3
ENDMDL
MODEL 4
REMARK VINA RESULT: -7.147381041      1.450      2.181
REMARK  3 active torsions:
REMARK  status: ('A' for Active; 'I' for Inactive)
REMARK       I    between atoms: C1_2  and  N1_3 
REMARK    1  A    between atoms: C1_2  and  C8_11 
REMARK    2  A    between atoms: N1_3  and  C2_5 
REMARK    3  A    between atoms: N2_15  and  C12_16 
ROOT
HETATM    1  C8  UNL     1     -17.411 -10.530 -61.482  1.00  0.00     0.080 C 
HETATM    2  C9  UNL     1     -18.924 -10.546 -61.375  1.00  0.00     0.019 C 
HETATM    3  C10 UNL     1     -19.392 -11.387 -60.212  1.00  0.00     0.045 C 
HETATM    4  C11 UNL     1     -18.747 -12.770 -60.235  1.00  0.00     0.058 C 
HETATM    5  N2  UNL     1     -18.811 -13.249 -61.552  1.00  0.00    -0.389 N 
HETATM    6  C17 UNL     1     -17.866 -12.792 -62.498  1.00  0.00     0.123 C 
HETATM    7  C18 UNL     1     -16.853 -11.819 -61.984  1.00  0.00     0.034 C 
ENDROOT
BRANCH   1   8
HETATM    8  C1  UNL     1     -17.005  -9.444 -62.370  1.00  0.00     0.222 C 
HETATM    9  O1  UNL     1     -15.941  -9.541 -63.030  1.00  0.00    -0.273 OA
HETATM   10  N1  UNL     1     -17.780  -8.271 -62.517  1.00  0.00    -0.356 N 
ATOM     11  H1  UNL     1     -18.644  -8.198 -61.979  1.00  0.00     0.162 HD
BRANCH  10  12
HETATM   12  C2  UNL     1     -17.424  -7.168 -63.380  1.00  0.00     0.084 C 
HETATM   13  C3  UNL     1     -18.452  -6.943 -64.466  1.00  0.00     0.025 C 
HETATM   14  C4  UNL     1     -17.836  -5.972 -65.451  1.00  0.00     0.002 C 
HETATM   15  C5  UNL     1     -16.566  -5.357 -64.951  1.00  0.00     0.000 C 
HETATM   16  C6  UNL     1     -16.616  -4.869 -63.541  1.00  0.00     0.002 C 
HETATM   17  C7  UNL     1     -17.246  -5.885 -62.618  1.00  0.00     0.025 C 
ENDBRANCH  10  12
ENDBRANCH   1   8
BRANCH   5  18
HETATM   18  C12 UNL     1     -19.612 -14.345 -61.865  1.00  0.00     0.083 C 
HETATM   19  C13 UNL     1     -20.306 -15.021 -60.709  1.00  0.00     0.025 C 
HETATM   20  C14 UNL     1     -21.139 -16.065 -61.470  1.00  0.00     0.002 C 
HETATM   21  C15 UNL     1     -21.496 -15.384 -62.792  1.00  0.00     0.002 C 
HETATM   22  C16 UNL     1     -20.772 -14.054 -62.790  1.00  0.00     0.025 C 
ENDBRANCH   5  18
TORSDOF 3
ENDMDL
MODEL 5
REMARK VINA RESULT: -7.115786553      3.996      5.641
REMARK  3 active torsions:
REMARK  status: ('A' for Active; 'I' for Inactive)
REMARK       I    between atoms: C1_2  and  N1_3 
REMARK    1  A    between atoms: C1_2  and  C8_11 
REMARK    2  A    between atoms: N1_3  and  C2_5 
REMARK    3  A    between atoms: N2_15  and  C12_16 
ROOT
HETATM    1  C8  UNL     1     -17.560 -10.045 -60.893  1.00  0.00     0.080 C 
HETATM    2  C9  UNL     1     -16.081 -10.348 -60.744  1.00  0.00     0.019 C 
HETATM    3  C10 UNL     1     -15.849 -11.631 -59.983  1.00  0.00     0.045 C 
HETATM    4  C11 UNL     1     -16.631 -11.647 -58.674  1.00  0.00     0.058 C 
HETATM    5  N2  UNL     1     -16.461 -10.396 -58.061  1.00  0.00    -0.389 N 
HETATM    6  C17 UNL     1     -17.231  -9.299 -58.507  1.00  0.00     0.123 C 
HETATM    7  C18 UNL     1     -18.188  -9.589 -59.619  1.00  0.00     0.034 C 
ENDROOT
BRANCH   1   8
HETATM    8  C1  UNL     1     -17.736  -9.018 -61.918  1.00  0.00     0.222 C 
HETATM    9  O1  UNL     1     -18.319  -9.303 -62.993  1.00  0.00    -0.273 OA
HETATM   10  N1  UNL     1     -17.268  -7.697 -61.740  1.00  0.00    -0.356 N 
ATOM     11  H1  UNL     1     -16.796  -7.471 -60.864  1.00  0.00     0.162 HD
BRANCH  10  12
HETATM   12  C2  UNL     1     -17.416  -6.647 -62.720  1.00  0.00     0.084 C 
HETATM   13  C3  UNL     1     -17.653  -5.299 -62.078  1.00  0.00     0.025 C 
HETATM   14  C4  UNL     1     -18.068  -4.356 -63.187  1.00  0.00     0.002 C 
HETATM   15  C5  UNL     1     -17.880  -4.940 -64.553  1.00  0.00     0.000 C 
HETATM   16  C6  UNL     1     -16.570  -5.622 -64.770  1.00  0.00     0.002 C 
HETATM   17  C7  UNL     1     -16.219  -6.540 -63.623  1.00  0.00     0.025 C 
ENDBRANCH  10  12
ENDBRANCH   1   8
BRANCH   5  18
HETATM   18  C12 UNL     1     -15.750 -10.288 -56.867  1.00  0.00     0.083 C 
HETATM   19  C13 UNL     1     -15.027  -8.985 -56.633  1.00  0.00     0.025 C 
HETATM   20  C14 UNL     1     -14.487  -9.229 -55.215  1.00  0.00     0.002 C 
HETATM   21  C15 UNL     1     -15.552 -10.097 -54.540  1.00  0.00     0.002 C 
HETATM   22  C16 UNL     1     -16.579 -10.408 -55.609  1.00  0.00     0.025 C 
ENDBRANCH   5  18
TORSDOF 3
ENDMDL
