MODEL 1
REMARK VINA RESULT: -6.504734371      0.000      0.000
REMARK  1 active torsions:
REMARK  status: ('A' for Active; 'I' for Inactive)
REMARK    1  A    between atoms: C4_4  and  C5_5 
ROOT
HETATM    1  C1  UNL     1     -10.490   7.113   4.966  1.00  0.00     0.017 C 
HETATM    2  C2  UNL     1      -9.876   7.743   5.790  1.00  0.00    -0.090 C 
HETATM    3  C3  UNL     1      -9.149   8.521   6.798  1.00  0.00     0.060 C 
HETATM    4  C4  UNL     1      -9.740   9.456   7.474  1.00  0.00    -0.013 C 
ENDROOT
BRANCH   4   5
HETATM    5  C5  UNL     1      -9.259  10.347   8.498  1.00  0.00     0.015 C 
HETATM    6  C6  UNL     1      -7.843  10.014   8.969  1.00  0.00     0.014 C 
HETATM    7  C7  UNL     1      -7.765   9.071  10.102  1.00  0.00    -0.008 C 
HETATM    8  C8  UNL     1      -6.482   9.379  10.884  1.00  0.00     0.005 C 
HETATM    9  C11 UNL     1      -8.813   9.134  11.141  1.00  0.00     0.023 C 
HETATM   10  C9  UNL     1      -6.881   9.828  12.246  1.00  0.00     0.001 C 
HETATM   11  C10 UNL     1      -8.396  10.061  12.221  1.00  0.00     0.007 C 
HETATM   12  C12 UNL     1     -10.174   9.410  10.561  1.00  0.00     0.231 C 
HETATM   13  C13 UNL     1     -10.052  10.623   9.702  1.00  0.00     0.029 C 
HETATM   14  N1  UNL     1     -11.159   9.828  11.532  1.00  0.00     0.089 N 
HETATM   15  C14 UNL     1     -11.415  11.153   9.582  1.00  0.00     0.037 C 
HETATM   16  C15 UNL     1     -12.183  10.517  10.720  1.00  0.00     0.273 C 
HETATM   17  C16 UNL     1     -11.813   8.625  12.072  1.00  0.00     0.310 C 
ENDBRANCH   4   5
TORSDOF 1
ENDMDL
MODEL 2
REMARK VINA RESULT: -6.383035766      1.733      4.839
REMARK  1 active torsions:
REMARK  status: ('A' for Active; 'I' for Inactive)
REMARK    1  A    between atoms: C4_4  and  C5_5 
ROOT
HETATM    1  C1  UNL     1      -6.580  10.830  13.884  1.00  0.00     0.017 C 
HETATM    2  C2  UNL     1      -7.044  10.472  12.832  1.00  0.00    -0.090 C 
HETATM    3  C3  UNL     1      -7.628  10.027  11.562  1.00  0.00     0.060 C 
HETATM    4  C4  UNL     1      -8.745   9.371  11.534  1.00  0.00    -0.013 C 
ENDROOT
BRANCH   4   5
HETATM    5  C5  UNL     1      -9.512   8.832  10.441  1.00  0.00     0.015 C 
HETATM    6  C6  UNL     1      -9.143   9.442   9.088  1.00  0.00     0.014 C 
HETATM    7  C7  UNL     1      -9.915  10.643   8.710  1.00  0.00    -0.008 C 
HETATM    8  C8  UNL     1      -9.978  10.699   7.180  1.00  0.00     0.005 C 
HETATM    9  C11 UNL     1     -11.336  10.717   9.107  1.00  0.00     0.023 C 
HETATM   10  C9  UNL     1     -11.407  10.564   6.783  1.00  0.00     0.001 C 
HETATM   11  C10 UNL     1     -12.188  10.150   8.035  1.00  0.00     0.007 C 
HETATM   12  C12 UNL     1     -11.575  10.140  10.477  1.00  0.00     0.231 C 
HETATM   13  C13 UNL     1     -10.978   8.774  10.493  1.00  0.00     0.029 C 
HETATM   14  N1  UNL     1     -12.963   9.864  10.770  1.00  0.00     0.089 N 
HETATM   15  C14 UNL     1     -11.649   8.070  11.592  1.00  0.00     0.037 C 
HETATM   16  C15 UNL     1     -12.901   8.874  11.865  1.00  0.00     0.273 C 
HETATM   17  C16 UNL     1     -13.561  11.075  11.354  1.00  0.00     0.310 C 
ENDBRANCH   4   5
TORSDOF 1
ENDMDL
MODEL 3
REMARK VINA RESULT: -6.292982998      1.723      4.314
REMARK  1 active torsions:
REMARK  status: ('A' for Active; 'I' for Inactive)
REMARK    1  A    between atoms: C4_4  and  C5_5 
ROOT
HETATM    1  C1  UNL     1     -14.274  11.148  11.536  1.00  0.00     0.017 C 
HETATM    2  C2  UNL     1     -13.178  10.822  11.157  1.00  0.00    -0.090 C 
HETATM    3  C3  UNL     1     -11.843  10.409  10.713  1.00  0.00     0.060 C 
HETATM    4  C4  UNL     1     -11.185   9.486  11.343  1.00  0.00    -0.013 C 
ENDROOT
BRANCH   4   5
HETATM    5  C5  UNL     1      -9.884   8.912  11.114  1.00  0.00     0.015 C 
HETATM    6  C6  UNL     1      -8.748   9.739  11.719  1.00  0.00     0.014 C 
HETATM    7  C7  UNL     1      -8.177  10.766  10.826  1.00  0.00    -0.008 C 
HETATM    8  C8  UNL     1      -6.712  10.978  11.227  1.00  0.00     0.005 C 
HETATM    9  C11 UNL     1      -8.087  10.469   9.381  1.00  0.00     0.023 C 
HETATM   10  C9  UNL     1      -5.865  10.566  10.075  1.00  0.00     0.001 C 
HETATM   11  C10 UNL     1      -6.777   9.847   9.075  1.00  0.00     0.007 C 
HETATM   12  C12 UNL     1      -9.284   9.703   8.882  1.00  0.00     0.231 C 
HETATM   13  C13 UNL     1      -9.451   8.517   9.769  1.00  0.00     0.029 C 
HETATM   14  N1  UNL     1      -9.096   9.087   7.589  1.00  0.00     0.089 N 
HETATM   15  C14 UNL     1     -10.245   7.559   8.991  1.00  0.00     0.037 C 
HETATM   16  C15 UNL     1     -10.118   8.021   7.556  1.00  0.00     0.273 C 
HETATM   17  C16 UNL     1      -9.490  10.057   6.554  1.00  0.00     0.310 C 
ENDBRANCH   4   5
TORSDOF 1
ENDMDL
MODEL 4
REMARK VINA RESULT: -6.227443642      1.869      4.997
REMARK  1 active torsions:
REMARK  status: ('A' for Active; 'I' for Inactive)
REMARK    1  A    between atoms: C4_4  and  C5_5 
ROOT
HETATM    1  C1  UNL     1      -4.902   9.273  11.711  1.00  0.00     0.017 C 
HETATM    2  C2  UNL     1      -6.095   9.422  11.783  1.00  0.00    -0.090 C 
HETATM    3  C3  UNL     1      -7.550   9.602  11.847  1.00  0.00     0.060 C 
HETATM    4  C4  UNL     1      -8.255   9.731  10.767  1.00  0.00    -0.013 C 
ENDROOT
BRANCH   4   5
HETATM    5  C5  UNL     1      -9.668   9.918  10.562  1.00  0.00     0.015 C 
HETATM    6  C6  UNL     1     -10.528   9.024  11.456  1.00  0.00     0.014 C 
HETATM    7  C7  UNL     1     -10.872   7.708  10.881  1.00  0.00    -0.008 C 
HETATM    8  C8  UNL     1     -12.214   7.270  11.479  1.00  0.00     0.005 C 
HETATM    9  C11 UNL     1     -11.110   7.619   9.426  1.00  0.00     0.023 C 
HETATM   10  C9  UNL     1     -13.198   7.186  10.366  1.00  0.00     0.001 C 
HETATM   11  C10 UNL     1     -12.549   7.831   9.137  1.00  0.00     0.007 C 
HETATM   12  C12 UNL     1     -10.171   8.496   8.641  1.00  0.00     0.231 C 
HETATM   13  C13 UNL     1     -10.257   9.867   9.219  1.00  0.00     0.029 C 
HETATM   14  N1  UNL     1     -10.575   8.721   7.272  1.00  0.00     0.089 N 
HETATM   15  C14 UNL     1      -9.769  10.764   8.166  1.00  0.00     0.037 C 
HETATM   16  C15 UNL     1      -9.854   9.953   6.891  1.00  0.00     0.273 C 
HETATM   17  C16 UNL     1     -10.007   7.647   6.441  1.00  0.00     0.310 C 
ENDBRANCH   4   5
TORSDOF 1
ENDMDL
MODEL 5
REMARK VINA RESULT: -6.212899277      1.935      5.179
REMARK  1 active torsions:
REMARK  status: ('A' for Active; 'I' for Inactive)
REMARK    1  A    between atoms: C4_4  and  C5_5 
ROOT
HETATM    1  C1  UNL     1      -5.835   9.005  11.715  1.00  0.00     0.017 C 
HETATM    2  C2  UNL     1      -6.946   9.471  11.718  1.00  0.00    -0.090 C 
HETATM    3  C3  UNL     1      -8.307  10.019  11.713  1.00  0.00     0.060 C 
HETATM    4  C4  UNL     1      -9.293   9.351  11.202  1.00  0.00    -0.013 C 
ENDROOT
BRANCH   4   5
HETATM    5  C5  UNL     1     -10.694   9.660  11.073  1.00  0.00     0.015 C 
HETATM    6  C6  UNL     1     -11.563   8.956  12.116  1.00  0.00     0.014 C 
HETATM    7  C7  UNL     1     -12.074   7.630  11.715  1.00  0.00    -0.008 C 
HETATM    8  C8  UNL     1     -13.401   7.396  12.446  1.00  0.00     0.005 C 
HETATM    9  C11 UNL     1     -12.431   7.416  10.297  1.00  0.00     0.023 C 
HETATM   10  C9  UNL     1     -14.472   7.298  11.416  1.00  0.00     0.001 C 
HETATM   11  C10 UNL     1     -13.861   7.743  10.083  1.00  0.00     0.007 C 
HETATM   12  C12 UNL     1     -11.476   8.105   9.359  1.00  0.00     0.231 C 
HETATM   13  C13 UNL     1     -11.388   9.531   9.786  1.00  0.00     0.029 C 
HETATM   14  N1  UNL     1     -11.962   8.228   8.003  1.00  0.00     0.089 N 
HETATM   15  C14 UNL     1     -10.900  10.259   8.610  1.00  0.00     0.037 C 
HETATM   16  C15 UNL     1     -11.159   9.333   7.441  1.00  0.00     0.273 C 
HETATM   17  C16 UNL     1     -11.565   7.021   7.260  1.00  0.00     0.310 C 
ENDBRANCH   4   5
TORSDOF 1
ENDMDL
