MODEL 1
REMARK VINA RESULT: -6.754827678      0.000      0.000
REMARK  3 active torsions:
REMARK  status: ('A' for Active; 'I' for Inactive)
REMARK    1  A    between atoms: C7_8  and  C8_9 
REMARK    2  A    between atoms: C10_11  and  C16_17 
REMARK    3  A    between atoms: C13_14  and  C14_15 
ROOT
HETATM    1  C8  UNL     1     -10.449   9.852  11.405  1.00  0.00    -0.003 C 
HETATM    2  C9  UNL     1     -11.121  10.575  10.238  1.00  0.00     0.010 C 
HETATM    3  C10 UNL     1     -12.435   9.915   9.895  1.00  0.00    -0.010 C 
HETATM    4  C11 UNL     1     -13.273   9.785  11.168  1.00  0.00     0.005 C 
HETATM    5  C12 UNL     1     -12.559   8.916  12.160  1.00  0.00     0.006 C 
HETATM    6  C13 UNL     1     -11.163   8.569  11.620  1.00  0.00    -0.005 C 
ENDROOT
BRANCH   1   7
HETATM    7  C7  UNL     1      -9.001   9.737  11.090  1.00  0.00     0.019 C 
HETATM    8  C3  UNL     1      -8.701  10.714   9.950  1.00  0.00     0.126 C 
HETATM    9  C2  UNL     1      -7.888  10.071   8.866  1.00  0.00     0.035 C 
HETATM   10  O1  UNL     1      -7.884  11.747  10.383  1.00  0.00    -0.380 OA
HETATM   11  C1  UNL     1      -6.481  10.174   9.395  1.00  0.00     0.034 C 
HETATM   12  C4  UNL     1      -6.654  11.122  10.571  1.00  0.00     0.122 C 
HETATM   13  C5  UNL     1      -6.696  10.343  11.851  1.00  0.00     0.032 C 
HETATM   14  C6  UNL     1      -8.088   9.927  12.251  1.00  0.00     0.010 C 
ENDBRANCH   1   7
BRANCH   6  15
HETATM   15  C14 UNL     1     -11.387   7.768  10.359  1.00  0.00    -0.005 A 
HETATM   16  C15 UNL     1     -10.287   7.073   9.675  1.00  0.00     0.011 A 
HETATM   17  C16 UNL     1     -11.177   6.315  10.587  1.00  0.00    -0.006 A 
ENDBRANCH   6  15
TORSDOF 3
ENDMDL
MODEL 2
REMARK VINA RESULT: -6.614325116      1.828      3.092
REMARK  3 active torsions:
REMARK  status: ('A' for Active; 'I' for Inactive)
REMARK    1  A    between atoms: C7_8  and  C8_9 
REMARK    2  A    between atoms: C10_11  and  C16_17 
REMARK    3  A    between atoms: C13_14  and  C14_15 
ROOT
HETATM    1  C8  UNL     1      -8.661  10.073   8.947  1.00  0.00    -0.003 C 
HETATM    2  C9  UNL     1      -7.863   9.494   7.779  1.00  0.00     0.010 C 
HETATM    3  C10 UNL     1      -8.789   8.857   6.772  1.00  0.00    -0.010 C 
HETATM    4  C11 UNL     1      -9.883   9.858   6.398  1.00  0.00     0.005 C 
HETATM    5  C12 UNL     1     -10.687  10.209   7.614  1.00  0.00     0.006 C 
HETATM    6  C13 UNL     1     -10.050   9.558   8.851  1.00  0.00    -0.005 C 
ENDROOT
BRANCH   1   7
HETATM    7  C7  UNL     1      -7.936   9.736  10.199  1.00  0.00     0.019 C 
HETATM    8  C3  UNL     1      -6.667  10.593  10.237  1.00  0.00     0.126 C 
HETATM    9  C2  UNL     1      -5.457   9.780  10.590  1.00  0.00     0.035 C 
HETATM   10  O1  UNL     1      -6.727  11.524  11.264  1.00  0.00    -0.380 OA
HETATM   11  C1  UNL     1      -5.522   9.714  12.094  1.00  0.00     0.034 C 
HETATM   12  C4  UNL     1      -6.594  10.744  12.409  1.00  0.00     0.122 C 
HETATM   13  C5  UNL     1      -7.898  10.055  12.680  1.00  0.00     0.032 C 
HETATM   14  C6  UNL     1      -8.740   9.864  11.446  1.00  0.00     0.010 C 
ENDBRANCH   1   7
BRANCH   6  15
HETATM   15  C14 UNL     1     -10.141   8.066   8.634  1.00  0.00    -0.005 A 
HETATM   16  C15 UNL     1     -10.282   7.125   9.756  1.00  0.00     0.011 A 
HETATM   17  C16 UNL     1     -11.483   7.540   8.994  1.00  0.00    -0.006 A 
ENDBRANCH   6  15
TORSDOF 3
ENDMDL
MODEL 3
REMARK VINA RESULT: -6.202593129      2.028      2.750
REMARK  3 active torsions:
REMARK  status: ('A' for Active; 'I' for Inactive)
REMARK    1  A    between atoms: C7_8  and  C8_9 
REMARK    2  A    between atoms: C10_11  and  C16_17 
REMARK    3  A    between atoms: C13_14  and  C14_15 
ROOT
HETATM    1  C8  UNL     1      -9.724   9.543   9.765  1.00  0.00    -0.003 C 
HETATM    2  C9  UNL     1     -10.166  10.973   9.452  1.00  0.00     0.010 C 
HETATM    3  C10 UNL     1     -10.840  11.033   8.103  1.00  0.00    -0.010 C 
HETATM    4  C11 UNL     1     -11.939   9.971   8.048  1.00  0.00     0.005 C 
HETATM    5  C12 UNL     1     -11.335   8.607   8.207  1.00  0.00     0.006 C 
HETATM    6  C13 UNL     1      -9.838   8.747   8.518  1.00  0.00    -0.005 C 
ENDROOT
BRANCH   1   7
HETATM    7  C7  UNL     1      -8.366   9.612  10.362  1.00  0.00     0.019 C 
HETATM    8  C3  UNL     1      -7.839  11.033  10.142  1.00  0.00     0.126 C 
HETATM    9  C2  UNL     1      -6.435  11.031   9.616  1.00  0.00     0.035 C 
HETATM   10  O1  UNL     1      -7.720  11.711  11.347  1.00  0.00    -0.380 OA
HETATM   11  C1  UNL     1      -5.607  10.862  10.863  1.00  0.00     0.034 C 
HETATM   12  C4  UNL     1      -6.638  11.084  11.958  1.00  0.00     0.122 C 
HETATM   13  C5  UNL     1      -7.089   9.765  12.508  1.00  0.00     0.032 C 
HETATM   14  C6  UNL     1      -8.284   9.195  11.790  1.00  0.00     0.010 C 
ENDBRANCH   1   7
BRANCH   6  15
HETATM   15  C14 UNL     1      -9.217   9.404   7.307  1.00  0.00    -0.005 A 
HETATM   16  C15 UNL     1      -7.857   9.072   6.855  1.00  0.00     0.011 A 
HETATM   17  C16 UNL     1      -9.024   8.437   6.196  1.00  0.00    -0.006 A 
ENDBRANCH   6  15
TORSDOF 3
ENDMDL
MODEL 4
REMARK VINA RESULT: -6.183943714      0.879      1.071
REMARK  3 active torsions:
REMARK  status: ('A' for Active; 'I' for Inactive)
REMARK    1  A    between atoms: C7_8  and  C8_9 
REMARK    2  A    between atoms: C10_11  and  C16_17 
REMARK    3  A    between atoms: C13_14  and  C14_15 
ROOT
HETATM    1  C8  UNL     1     -10.876  10.268  10.572  1.00  0.00    -0.003 C 
HETATM    2  C9  UNL     1     -11.253  10.260   9.091  1.00  0.00     0.010 C 
HETATM    3  C10 UNL     1     -12.628   9.665   8.901  1.00  0.00    -0.010 C 
HETATM    4  C11 UNL     1     -13.610  10.375   9.833  1.00  0.00     0.005 C 
HETATM    5  C12 UNL     1     -13.203  10.159  11.260  1.00  0.00     0.006 C 
HETATM    6  C13 UNL     1     -11.855   9.422  11.299  1.00  0.00    -0.005 C 
ENDROOT
BRANCH   1   7
HETATM    7  C7  UNL     1      -9.456   9.842  10.678  1.00  0.00     0.019 C 
HETATM    8  C3  UNL     1      -8.614  10.860   9.903  1.00  0.00     0.126 C 
HETATM    9  C2  UNL     1      -7.626  10.189   8.997  1.00  0.00     0.035 C 
HETATM   10  O1  UNL     1      -7.805  11.592  10.760  1.00  0.00    -0.380 OA
HETATM   11  C1  UNL     1      -6.482   9.869   9.923  1.00  0.00     0.034 C 
HETATM   12  C4  UNL     1      -6.851  10.663  11.165  1.00  0.00     0.122 C 
HETATM   13  C5  UNL     1      -7.463   9.753  12.188  1.00  0.00     0.032 C 
HETATM   14  C6  UNL     1      -8.961   9.643  12.069  1.00  0.00     0.010 C 
ENDBRANCH   1   7
BRANCH   6  15
HETATM   15  C14 UNL     1     -12.097   8.073  10.663  1.00  0.00    -0.005 A 
HETATM   16  C15 UNL     1     -11.163   6.951  10.845  1.00  0.00     0.011 A 
HETATM   17  C16 UNL     1     -12.385   7.030  11.681  1.00  0.00    -0.006 A 
ENDBRANCH   6  15
TORSDOF 3
ENDMDL
MODEL 5
REMARK VINA RESULT: -6.174384196      1.427      2.802
REMARK  3 active torsions:
REMARK  status: ('A' for Active; 'I' for Inactive)
REMARK    1  A    between atoms: C7_8  and  C8_9 
REMARK    2  A    between atoms: C10_11  and  C16_17 
REMARK    3  A    between atoms: C13_14  and  C14_15 
ROOT
HETATM    1  C8  UNL     1      -9.341   8.837  10.487  1.00  0.00    -0.003 C 
HETATM    2  C9  UNL     1     -10.204   9.303  11.660  1.00  0.00     0.010 C 
HETATM    3  C10 UNL     1     -11.668   9.107  11.348  1.00  0.00    -0.010 C 
HETATM    4  C11 UNL     1     -11.891   7.665  10.891  1.00  0.00     0.005 C 
HETATM    5  C12 UNL     1     -11.108   7.402   9.639  1.00  0.00     0.006 C 
HETATM    6  C13 UNL     1     -10.232   8.623   9.321  1.00  0.00    -0.005 C 
ENDROOT
BRANCH   1   7
HETATM    7  C7  UNL     1      -8.260   9.838  10.296  1.00  0.00     0.019 C 
HETATM    8  C3  UNL     1      -7.337   9.753  11.515  1.00  0.00     0.126 C 
HETATM    9  C2  UNL     1      -7.023  11.110  12.070  1.00  0.00     0.035 C 
HETATM   10  O1  UNL     1      -6.088   9.264  11.159  1.00  0.00    -0.380 OA
HETATM   11  C1  UNL     1      -5.899  11.585  11.186  1.00  0.00     0.034 C 
HETATM   12  C4  UNL     1      -5.531  10.315  10.436  1.00  0.00     0.122 C 
HETATM   13  C5  UNL     1      -6.140  10.338   9.066  1.00  0.00     0.032 C 
HETATM   14  C6  UNL     1      -7.513   9.720   9.013  1.00  0.00     0.010 C 
ENDBRANCH   1   7
BRANCH   6  15
HETATM   15  C14 UNL     1     -11.186   9.765   9.055  1.00  0.00    -0.005 A 
HETATM   16  C15 UNL     1     -10.796  10.929   8.245  1.00  0.00     0.011 A 
HETATM   17  C16 UNL     1     -11.576   9.833   7.623  1.00  0.00    -0.006 A 
ENDBRANCH   6  15
TORSDOF 3
ENDMDL
