MODEL 1
REMARK VINA RESULT: -5.942575674      0.000      0.000
REMARK  5 active torsions:
REMARK  status: ('A' for Active; 'I' for Inactive)
REMARK    1  A    between atoms: N1_1  and  C1_5 
REMARK    2  A    between atoms: C1_5  and  O1_6 
REMARK    3  A    between atoms: C1_5  and  N2_8 
REMARK    4  A    between atoms: C2_13  and  N6_14 
REMARK    5  A    between atoms: N6_14  and  C3_16 
ROOT
HETATM    1  N2  UNL     1      21.271 -19.205  24.179  1.00  0.00    -0.053 N 
HETATM    2  N3  UNL     1      22.526 -18.999  24.547  1.00  0.00     0.013 NA
HETATM    3  N4  UNL     1      22.571 -18.199  25.600  1.00  0.00     0.007 NA
HETATM    4  N5  UNL     1      21.308 -17.907  25.883  1.00  0.00    -0.116 N 
ATOM      5  H5  UNL     1      21.007 -17.304  26.649  1.00  0.00     0.202 HD
HETATM    6  C2  UNL     1      20.484 -18.516  25.021  1.00  0.00     0.716 A 
ENDROOT
BRANCH   1   7
HETATM    7  C1  UNL     1      20.892 -20.037  23.059  1.00  0.00     0.460 C 
BRANCH   7   8
HETATM    8  N1  UNL     1      20.798 -19.169  21.898  1.00  0.00    -0.033 N 
ATOM      9  H13 UNL     1      21.707 -18.888  21.529  1.00  0.00     0.279 HD
ATOM     10  H12 UNL     1      20.464 -19.647  21.062  1.00  0.00     0.279 HD
ATOM     11  H11 UNL     1      20.212 -18.380  22.174  1.00  0.00     0.279 HD
ENDBRANCH   7   8
BRANCH   7  12
HETATM   12  O1  UNL     1      19.604 -20.571  23.263  1.00  0.00    -0.353 OA
ATOM     13  H1  UNL     1      19.355 -20.342  24.151  1.00  0.00     0.214 HD
ENDBRANCH   7  12
ENDBRANCH   1   7
BRANCH   6  14
HETATM   14  N6  UNL     1      19.192 -18.496  24.945  1.00  0.00    -0.165 N 
ATOM     15  H6  UNL     1      18.653 -19.205  25.442  1.00  0.00     0.186 HD
BRANCH  14  16
HETATM   16  C3  UNL     1      18.505 -17.510  24.186  1.00  0.00     0.368 C 
HETATM   17  O2  UNL     1      18.206 -17.768  22.976  1.00  0.00    -0.283 OA
ENDBRANCH  14  16
ENDBRANCH   6  14
TORSDOF 5
ENDMDL
MODEL 2
REMARK VINA RESULT: -5.806461357      1.839      3.144
REMARK  5 active torsions:
REMARK  status: ('A' for Active; 'I' for Inactive)
REMARK    1  A    between atoms: N1_1  and  C1_5 
REMARK    2  A    between atoms: C1_5  and  O1_6 
REMARK    3  A    between atoms: C1_5  and  N2_8 
REMARK    4  A    between atoms: C2_13  and  N6_14 
REMARK    5  A    between atoms: N6_14  and  C3_16 
ROOT
HETATM    1  N2  UNL     1      19.730 -18.484  23.331  1.00  0.00    -0.053 N 
HETATM    2  N3  UNL     1      18.439 -18.253  23.146  1.00  0.00     0.013 NA
HETATM    3  N4  UNL     1      18.004 -17.355  24.016  1.00  0.00     0.007 NA
HETATM    4  N5  UNL     1      19.058 -17.028  24.752  1.00  0.00    -0.116 N 
ATOM      5  H5  UNL     1      19.048 -16.352  25.516  1.00  0.00     0.202 HD
HETATM    6  C2  UNL     1      20.138 -17.710  24.349  1.00  0.00     0.716 A 
ENDROOT
BRANCH   1   7
HETATM    7  C1  UNL     1      20.496 -19.417  22.537  1.00  0.00     0.460 C 
BRANCH   7   8
HETATM    8  N1  UNL     1      19.613 -19.914  21.496  1.00  0.00    -0.033 N 
ATOM      9  H13 UNL     1      18.770 -19.351  21.377  1.00  0.00     0.279 HD
ATOM     10  H12 UNL     1      19.984 -19.786  20.555  1.00  0.00     0.279 HD
ATOM     11  H11 UNL     1      19.418 -20.890  21.724  1.00  0.00     0.279 HD
ENDBRANCH   7   8
BRANCH   7  12
HETATM   12  O1  UNL     1      20.863 -20.534  23.315  1.00  0.00    -0.353 OA
ATOM     13  H1  UNL     1      20.644 -21.303  22.802  1.00  0.00     0.214 HD
ENDBRANCH   7  12
ENDBRANCH   1   7
BRANCH   6  14
HETATM   14  N6  UNL     1      21.353 -17.688  24.795  1.00  0.00    -0.165 N 
ATOM     15  H6  UNL     1      22.005 -16.995  24.429  1.00  0.00     0.186 HD
BRANCH  14  16
HETATM   16  C3  UNL     1      21.802 -18.608  25.782  1.00  0.00     0.368 C 
HETATM   17  O2  UNL     1      22.664 -19.485  25.454  1.00  0.00    -0.283 OA
ENDBRANCH  14  16
ENDBRANCH   6  14
TORSDOF 5
ENDMDL
MODEL 3
REMARK VINA RESULT: -5.801762637      1.413      2.805
REMARK  5 active torsions:
REMARK  status: ('A' for Active; 'I' for Inactive)
REMARK    1  A    between atoms: N1_1  and  C1_5 
REMARK    2  A    between atoms: C1_5  and  O1_6 
REMARK    3  A    between atoms: C1_5  and  N2_8 
REMARK    4  A    between atoms: C2_13  and  N6_14 
REMARK    5  A    between atoms: N6_14  and  C3_16 
ROOT
HETATM    1  N2  UNL     1      20.966 -18.569  24.547  1.00  0.00    -0.053 N 
HETATM    2  N3  UNL     1      22.115 -18.563  25.204  1.00  0.00     0.013 NA
HETATM    3  N4  UNL     1      22.759 -19.704  25.015  1.00  0.00     0.007 NA
HETATM    4  N5  UNL     1      21.982 -20.427  24.220  1.00  0.00    -0.116 N 
ATOM      5  H5  UNL     1      22.201 -21.367  23.887  1.00  0.00     0.202 HD
HETATM    6  C2  UNL     1      20.868 -19.750  23.915  1.00  0.00     0.716 A 
ENDROOT
BRANCH   1   7
HETATM    7  C1  UNL     1      20.034 -17.464  24.554  1.00  0.00     0.460 C 
BRANCH   7   8
HETATM    8  N1  UNL     1      18.973 -17.811  25.484  1.00  0.00    -0.033 N 
ATOM      9  H13 UNL     1      18.722 -17.048  26.114  1.00  0.00     0.279 HD
ATOM     10  H12 UNL     1      18.062 -17.911  25.038  1.00  0.00     0.279 HD
ATOM     11  H11 UNL     1      19.280 -18.653  25.972  1.00  0.00     0.279 HD
ENDBRANCH   7   8
BRANCH   7  12
HETATM   12  O1  UNL     1      19.427 -17.330  23.289  1.00  0.00    -0.353 OA
ATOM     13  H1  UNL     1      20.068 -17.623  22.651  1.00  0.00     0.214 HD
ENDBRANCH   7  12
ENDBRANCH   1   7
BRANCH   6  14
HETATM   14  N6  UNL     1      19.860 -20.090  23.175  1.00  0.00    -0.165 N 
ATOM     15  H6  UNL     1      18.964 -20.293  23.618  1.00  0.00     0.186 HD
BRANCH  14  16
HETATM   16  C3  UNL     1      19.973 -20.187  21.762  1.00  0.00     0.368 C 
HETATM   17  O2  UNL     1      20.453 -19.199  21.117  1.00  0.00    -0.283 OA
ENDBRANCH  14  16
ENDBRANCH   6  14
TORSDOF 5
ENDMDL
MODEL 4
REMARK VINA RESULT: -5.790951240      1.793      2.817
REMARK  5 active torsions:
REMARK  status: ('A' for Active; 'I' for Inactive)
REMARK    1  A    between atoms: N1_1  and  C1_5 
REMARK    2  A    between atoms: C1_5  and  O1_6 
REMARK    3  A    between atoms: C1_5  and  N2_8 
REMARK    4  A    between atoms: C2_13  and  N6_14 
REMARK    5  A    between atoms: N6_14  and  C3_16 
ROOT
HETATM    1  N2  UNL     1      20.788 -18.641  25.041  1.00  0.00    -0.053 N 
HETATM    2  N3  UNL     1      21.977 -18.477  25.600  1.00  0.00     0.013 NA
HETATM    3  N4  UNL     1      22.819 -19.403  25.171  1.00  0.00     0.007 NA
HETATM    4  N5  UNL     1      22.124 -20.155  24.326  1.00  0.00    -0.116 N 
ATOM      5  H5  UNL     1      22.495 -20.962  23.823  1.00  0.00     0.202 HD
HETATM    6  C2  UNL     1      20.867 -19.706  24.227  1.00  0.00     0.716 A 
ENDROOT
BRANCH   1   7
HETATM    7  C1  UNL     1      19.654 -17.785  25.309  1.00  0.00     0.460 C 
BRANCH   7   8
HETATM    8  N1  UNL     1      19.314 -17.128  24.058  1.00  0.00    -0.033 N 
ATOM      9  H13 UNL     1      18.505 -16.511  24.132  1.00  0.00     0.279 HD
ATOM     10  H12 UNL     1      19.989 -16.418  23.778  1.00  0.00     0.279 HD
ATOM     11  H11 UNL     1      19.195 -17.869  23.366  1.00  0.00     0.279 HD
ENDBRANCH   7   8
BRANCH   7  12
HETATM   12  O1  UNL     1      20.016 -16.763  26.210  1.00  0.00    -0.353 OA
ATOM     13  H1  UNL     1      20.907 -16.515  25.990  1.00  0.00     0.214 HD
ENDBRANCH   7  12
ENDBRANCH   1   7
BRANCH   6  14
HETATM   14  N6  UNL     1      19.875 -20.147  23.521  1.00  0.00    -0.165 N 
ATOM     15  H6  UNL     1      19.105 -20.626  23.989  1.00  0.00     0.186 HD
BRANCH  14  16
HETATM   16  C3  UNL     1      19.834 -19.982  22.110  1.00  0.00     0.368 C 
HETATM   17  O2  UNL     1      20.507 -19.038  21.585  1.00  0.00    -0.283 OA
ENDBRANCH  14  16
ENDBRANCH   6  14
TORSDOF 5
ENDMDL
MODEL 5
REMARK VINA RESULT: -5.760507239      2.145      3.258
REMARK  5 active torsions:
REMARK  status: ('A' for Active; 'I' for Inactive)
REMARK    1  A    between atoms: N1_1  and  C1_5 
REMARK    2  A    between atoms: C1_5  and  O1_6 
REMARK    3  A    between atoms: C1_5  and  N2_8 
REMARK    4  A    between atoms: C2_13  and  N6_14 
REMARK    5  A    between atoms: N6_14  and  C3_16 
ROOT
HETATM    1  N2  UNL     1      19.470 -18.788  22.677  1.00  0.00    -0.053 N 
HETATM    2  N3  UNL     1      18.359 -18.099  22.887  1.00  0.00     0.013 NA
HETATM    3  N4  UNL     1      18.443 -17.426  24.024  1.00  0.00     0.007 NA
HETATM    4  N5  UNL     1      19.639 -17.713  24.522  1.00  0.00    -0.116 N 
ATOM      5  H5  UNL     1      20.007 -17.347  25.401  1.00  0.00     0.202 HD
HETATM    6  C2  UNL     1      20.294 -18.552  23.710  1.00  0.00     0.716 A 
ENDROOT
BRANCH   1   7
HETATM    7  C1  UNL     1      19.685 -19.624  21.517  1.00  0.00     0.460 C 
BRANCH   7   8
HETATM    8  N1  UNL     1      18.374 -20.005  21.020  1.00  0.00    -0.033 N 
ATOM      9  H13 UNL     1      18.331 -20.970  20.692  1.00  0.00     0.279 HD
ATOM     10  H12 UNL     1      17.672 -20.090  21.755  1.00  0.00     0.279 HD
ATOM     11  H11 UNL     1      18.129 -19.323  20.303  1.00  0.00     0.279 HD
ENDBRANCH   7   8
BRANCH   7  12
HETATM   12  O1  UNL     1      20.333 -20.819  21.892  1.00  0.00    -0.353 OA
ATOM     13  H1  UNL     1      20.715 -21.178  21.099  1.00  0.00     0.214 HD
ENDBRANCH   7  12
ENDBRANCH   1   7
BRANCH   6  14
HETATM   14  N6  UNL     1      21.474 -19.072  23.824  1.00  0.00    -0.165 N 
ATOM     15  H6  UNL     1      21.943 -19.431  22.992  1.00  0.00     0.186 HD
BRANCH  14  16
HETATM   16  C3  UNL     1      22.133 -19.158  25.081  1.00  0.00     0.368 C 
HETATM   17  O2  UNL     1      22.599 -18.094  25.600  1.00  0.00    -0.283 OA
ENDBRANCH  14  16
ENDBRANCH   6  14
TORSDOF 5
ENDMDL
