MODEL 1
REMARK VINA RESULT: -6.200233220      0.000      0.000
REMARK  2 active torsions:
REMARK  status: ('A' for Active; 'I' for Inactive)
REMARK    1  A    between atoms: O1_2  and  C2_3 
REMARK    2  A    between atoms: C3_8  and  N3_9 
REMARK       I    between atoms: N4_12  and  C4_13 
ROOT
HETATM    1  C2  UNL     1      19.933 -18.570  23.290  1.00  0.00     0.264 A 
HETATM    2  N1  UNL     1      18.738 -17.979  23.143  1.00  0.00    -0.250 N 
ATOM      3  H1  UNL     1      18.162 -18.043  22.304  1.00  0.00     0.191 HD
HETATM    4  N2  UNL     1      18.405 -17.305  24.225  1.00  0.00    -0.129 N 
ATOM      5  H2  UNL     1      17.549 -16.769  24.368  1.00  0.00     0.205 HD
HETATM    6  C3  UNL     1      19.409 -17.459  25.103  1.00  0.00     0.704 A 
HETATM    7  N4  UNL     1      20.340 -18.234  24.525  1.00  0.00    -0.058 N 
HETATM    8  C4  UNL     1      21.565 -18.637  25.128  1.00  0.00     0.356 C 
HETATM    9  N5  UNL     1      22.513 -19.456  24.481  1.00  0.00    -0.039 NA
HETATM   10  O2  UNL     1      21.827 -18.240  26.316  1.00  0.00    -0.249 OA
ENDROOT
BRANCH   6  11
HETATM   11  N3  UNL     1      19.425 -16.934  26.281  1.00  0.00    -0.233 N 
ATOM     12  H32 UNL     1      19.307 -15.953  26.538  1.00  0.00     0.174 HD
ATOM     13  H31 UNL     1      19.568 -17.463  27.141  1.00  0.00     0.174 HD
ENDBRANCH   6  11
BRANCH   1  14
HETATM   14  O1  UNL     1      20.614 -19.371  22.350  1.00  0.00    -0.325 OA
HETATM   15  C1  UNL     1      20.268 -19.413  20.993  1.00  0.00     0.213 C 
ENDBRANCH   1  14
TORSDOF 2
ENDMDL
MODEL 2
REMARK VINA RESULT: -5.916466743      2.523      3.723
REMARK  2 active torsions:
REMARK  status: ('A' for Active; 'I' for Inactive)
REMARK    1  A    between atoms: O1_2  and  C2_3 
REMARK    2  A    between atoms: C3_8  and  N3_9 
REMARK       I    between atoms: N4_12  and  C4_13 
ROOT
HETATM    1  C2  UNL     1      19.881 -20.327  22.134  1.00  0.00     0.264 A 
HETATM    2  N1  UNL     1      20.693 -20.511  23.186  1.00  0.00    -0.250 N 
ATOM      3  H1  UNL     1      21.213 -21.368  23.370  1.00  0.00     0.191 HD
HETATM    4  N2  UNL     1      20.730 -19.438  23.950  1.00  0.00    -0.129 N 
ATOM      5  H2  UNL     1      21.270 -19.321  24.808  1.00  0.00     0.205 HD
HETATM    6  C3  UNL     1      19.922 -18.529  23.384  1.00  0.00     0.704 A 
HETATM    7  N4  UNL     1      19.406 -19.078  22.273  1.00  0.00    -0.058 N 
HETATM    8  C4  UNL     1      18.498 -18.438  21.383  1.00  0.00     0.356 C 
HETATM    9  N5  UNL     1      17.984 -19.056  20.224  1.00  0.00    -0.039 NA
HETATM   10  O2  UNL     1      18.126 -17.241  21.639  1.00  0.00    -0.249 OA
ENDROOT
BRANCH   6  11
HETATM   11  N3  UNL     1      19.713 -17.349  23.862  1.00  0.00    -0.233 N 
ATOM     12  H32 UNL     1      20.133 -16.466  23.571  1.00  0.00     0.174 HD
ATOM     13  H31 UNL     1      19.071 -17.148  24.629  1.00  0.00     0.174 HD
ENDBRANCH   6  11
BRANCH   1  14
HETATM   14  O1  UNL     1      19.591 -21.247  21.106  1.00  0.00    -0.325 OA
HETATM   15  C1  UNL     1      20.530 -21.631  20.140  1.00  0.00     0.213 C 
ENDBRANCH   1  14
TORSDOF 2
ENDMDL
MODEL 3
REMARK VINA RESULT: -5.891795383      1.683      2.911
REMARK  2 active torsions:
REMARK  status: ('A' for Active; 'I' for Inactive)
REMARK    1  A    between atoms: O1_2  and  C2_3 
REMARK    2  A    between atoms: C3_8  and  N3_9 
REMARK       I    between atoms: N4_12  and  C4_13 
ROOT
HETATM    1  C2  UNL     1      19.487 -19.371  22.913  1.00  0.00     0.264 A 
HETATM    2  N1  UNL     1      20.329 -20.354  22.561  1.00  0.00    -0.250 N 
ATOM      3  H1  UNL     1      20.221 -20.936  21.731  1.00  0.00     0.191 HD
HETATM    4  N2  UNL     1      21.315 -20.469  23.429  1.00  0.00    -0.129 N 
ATOM      5  H2  UNL     1      22.084 -21.137  23.390  1.00  0.00     0.205 HD
HETATM    6  C3  UNL     1      21.112 -19.536  24.373  1.00  0.00     0.704 A 
HETATM    7  N4  UNL     1      19.993 -18.868  24.051  1.00  0.00    -0.058 N 
HETATM    8  C4  UNL     1      19.431 -17.795  24.800  1.00  0.00     0.356 C 
HETATM    9  N5  UNL     1      18.252 -17.120  24.420  1.00  0.00    -0.039 NA
HETATM   10  O2  UNL     1      20.019 -17.417  25.871  1.00  0.00    -0.249 OA
ENDROOT
BRANCH   6  11
HETATM   11  N3  UNL     1      21.886 -19.355  25.388  1.00  0.00    -0.233 N 
ATOM     12  H32 UNL     1      22.383 -20.057  25.937  1.00  0.00     0.174 HD
ATOM     13  H31 UNL     1      22.104 -18.441  25.786  1.00  0.00     0.174 HD
ENDBRANCH   6  11
BRANCH   1  14
HETATM   14  O1  UNL     1      18.323 -18.957  22.234  1.00  0.00    -0.325 OA
HETATM   15  C1  UNL     1      18.354 -18.344  20.975  1.00  0.00     0.213 C 
ENDBRANCH   1  14
TORSDOF 2
ENDMDL
MODEL 4
REMARK VINA RESULT: -5.810798356      2.742      4.848
REMARK  2 active torsions:
REMARK  status: ('A' for Active; 'I' for Inactive)
REMARK    1  A    between atoms: O1_2  and  C2_3 
REMARK    2  A    between atoms: C3_8  and  N3_9 
REMARK       I    between atoms: N4_12  and  C4_13 
ROOT
HETATM    1  C2  UNL     1      19.127 -18.946  22.969  1.00  0.00     0.264 A 
HETATM    2  N1  UNL     1      19.871 -19.836  23.641  1.00  0.00    -0.250 N 
ATOM      3  H1  UNL     1      19.919 -19.898  24.658  1.00  0.00     0.191 HD
HETATM    4  N2  UNL     1      20.532 -20.623  22.815  1.00  0.00    -0.129 N 
ATOM      5  H2  UNL     1      21.165 -21.380  23.072  1.00  0.00     0.205 HD
HETATM    6  C3  UNL     1      20.211 -20.236  21.571  1.00  0.00     0.704 A 
HETATM    7  N4  UNL     1      19.351 -19.211  21.672  1.00  0.00    -0.058 N 
HETATM    8  C4  UNL     1      18.768 -18.514  20.575  1.00  0.00     0.356 C 
HETATM    9  N5  UNL     1      17.866 -17.441  20.731  1.00  0.00    -0.039 NA
HETATM   10  O2  UNL     1      19.073 -18.872  19.385  1.00  0.00    -0.249 OA
ENDROOT
BRANCH   6  11
HETATM   11  N3  UNL     1      20.675 -20.787  20.500  1.00  0.00    -0.233 N 
ATOM     12  H32 UNL     1      20.989 -20.334  19.642  1.00  0.00     0.174 HD
ATOM     13  H31 UNL     1      20.786 -21.793  20.378  1.00  0.00     0.174 HD
ENDBRANCH   6  11
BRANCH   1  14
HETATM   14  O1  UNL     1      18.290 -17.948  23.510  1.00  0.00    -0.325 OA
HETATM   15  C1  UNL     1      18.542 -17.327  24.740  1.00  0.00     0.213 C 
ENDBRANCH   1  14
TORSDOF 2
ENDMDL
MODEL 5
REMARK VINA RESULT: -5.731451324      2.457      3.666
REMARK  2 active torsions:
REMARK  status: ('A' for Active; 'I' for Inactive)
REMARK    1  A    between atoms: O1_2  and  C2_3 
REMARK    2  A    between atoms: C3_8  and  N3_9 
REMARK       I    between atoms: N4_12  and  C4_13 
ROOT
HETATM    1  C2  UNL     1      19.661 -20.063  21.423  1.00  0.00     0.264 A 
HETATM    2  N1  UNL     1      20.618 -20.856  21.926  1.00  0.00    -0.250 N 
ATOM      3  H1  UNL     1      21.075 -21.607  21.410  1.00  0.00     0.191 HD
HETATM    4  N2  UNL     1      20.891 -20.536  23.175  1.00  0.00    -0.129 N 
ATOM      5  H2  UNL     1      21.578 -20.985  23.781  1.00  0.00     0.205 HD
HETATM    6  C3  UNL     1      20.091 -19.507  23.497  1.00  0.00     0.704 A 
HETATM    7  N4  UNL     1      19.342 -19.222  22.421  1.00  0.00    -0.058 N 
HETATM    8  C4  UNL     1      18.364 -18.190  22.349  1.00  0.00     0.356 C 
HETATM    9  N5  UNL     1      17.600 -17.926  21.193  1.00  0.00    -0.039 NA
HETATM   10  O2  UNL     1      18.160 -17.461  23.381  1.00  0.00    -0.249 OA
ENDROOT
BRANCH   6  11
HETATM   11  N3  UNL     1      20.085 -18.930  24.651  1.00  0.00    -0.233 N 
ATOM     12  H32 UNL     1      20.155 -17.934  24.859  1.00  0.00     0.174 HD
ATOM     13  H31 UNL     1      20.007 -19.426  25.538  1.00  0.00     0.174 HD
ENDBRANCH   6  11
BRANCH   1  14
HETATM   14  O1  UNL     1      19.109 -20.103  20.126  1.00  0.00    -0.325 OA
HETATM   15  C1  UNL     1      19.863 -19.858  18.970  1.00  0.00     0.213 C 
ENDBRANCH   1  14
TORSDOF 2
ENDMDL
