MODEL 1
REMARK VINA RESULT: -6.331116246      0.000      0.000
REMARK  2 active torsions:
REMARK  status: ('A' for Active; 'I' for Inactive)
REMARK    1  A    between atoms: C3_9  and  C4_10 
REMARK    2  A    between atoms: N4_11  and  N5_13 
ROOT
HETATM    1  C1  UNL     1      17.969 -18.014  22.111  1.00  0.00     0.179 C 
HETATM    2  N1  UNL     1      18.618 -17.856  23.394  1.00  0.00    -0.276 N 
HETATM    3  N2  UNL     1      18.314 -16.933  24.283  1.00  0.00    -0.237 N 
ATOM      4  H2  UNL     1      17.588 -16.225  24.170  1.00  0.00     0.208 HD
HETATM    5  N3  UNL     1      19.088 -17.061  25.339  1.00  0.00    -0.250 N 
ATOM      6  H3  UNL     1      19.069 -16.481  26.178  1.00  0.00     0.192 HD
HETATM    7  C2  UNL     1      19.925 -18.121  25.100  1.00  0.00     0.290 A 
HETATM    8  O1  UNL     1      20.782 -18.507  25.907  1.00  0.00    -0.264 OA
HETATM    9  C3  UNL     1      19.642 -18.641  23.866  1.00  0.00     0.138 A 
ENDROOT
BRANCH   9  10
HETATM   10  C4  UNL     1      20.228 -19.765  23.128  1.00  0.00     0.143 C 
HETATM   11  N4  UNL     1      21.213 -20.443  23.410  1.00  0.00    -0.316 N 
ATOM     12  H4  UNL     1      21.375 -21.156  22.698  1.00  0.00     0.185 HD
BRANCH  11  13
HETATM   13  N5  UNL     1      22.139 -20.521  24.378  1.00  0.00    -0.345 N 
ATOM     14  H52 UNL     1      21.770 -20.098  25.229  1.00  0.00     0.176 HD
ATOM     15  H51 UNL     1      23.088 -20.875  24.504  1.00  0.00     0.176 HD
ENDBRANCH  11  13
ENDBRANCH   9  10
TORSDOF 2
ENDMDL
MODEL 2
REMARK VINA RESULT: -6.091017402      1.323      3.393
REMARK  2 active torsions:
REMARK  status: ('A' for Active; 'I' for Inactive)
REMARK    1  A    between atoms: C3_9  and  C4_10 
REMARK    2  A    between atoms: N4_11  and  N5_13 
ROOT
HETATM    1  C1  UNL     1      19.413 -20.150  22.191  1.00  0.00     0.179 C 
HETATM    2  N1  UNL     1      20.454 -19.928  23.170  1.00  0.00    -0.276 N 
HETATM    3  N2  UNL     1      21.415 -20.783  23.455  1.00  0.00    -0.237 N 
ATOM      4  H2  UNL     1      21.535 -21.698  23.019  1.00  0.00     0.208 HD
HETATM    5  N3  UNL     1      22.196 -20.280  24.387  1.00  0.00    -0.250 N 
ATOM      6  H3  UNL     1      23.017 -20.726  24.795  1.00  0.00     0.192 HD
HETATM    7  C2  UNL     1      21.698 -19.042  24.705  1.00  0.00     0.290 A 
HETATM    8  O1  UNL     1      22.211 -18.300  25.556  1.00  0.00    -0.264 OA
HETATM    9  C3  UNL     1      20.589 -18.799  23.941  1.00  0.00     0.138 A 
ENDROOT
BRANCH   9  10
HETATM   10  C4  UNL     1      19.686 -17.644  23.880  1.00  0.00     0.143 C 
HETATM   11  N4  UNL     1      19.210 -16.987  24.802  1.00  0.00    -0.316 N 
ATOM     12  H4  UNL     1      18.613 -16.242  24.443  1.00  0.00     0.185 HD
BRANCH  11  13
HETATM   13  N5  UNL     1      19.244 -16.962  26.144  1.00  0.00    -0.345 N 
ATOM     14  H52 UNL     1      18.837 -16.088  26.473  1.00  0.00     0.176 HD
ATOM     15  H51 UNL     1      19.555 -17.557  26.913  1.00  0.00     0.176 HD
ENDBRANCH  11  13
ENDBRANCH   9  10
TORSDOF 2
ENDMDL
MODEL 3
REMARK VINA RESULT: -5.945020236      1.885      2.765
REMARK  2 active torsions:
REMARK  status: ('A' for Active; 'I' for Inactive)
REMARK    1  A    between atoms: C3_9  and  C4_10 
REMARK    2  A    between atoms: N4_11  and  N5_13 
ROOT
HETATM    1  C1  UNL     1      21.418 -18.424  25.854  1.00  0.00     0.179 C 
HETATM    2  N1  UNL     1      20.260 -18.051  25.073  1.00  0.00    -0.276 N 
HETATM    3  N2  UNL     1      19.352 -17.171  25.445  1.00  0.00    -0.237 N 
ATOM      4  H2  UNL     1      19.361 -16.654  26.324  1.00  0.00     0.208 HD
HETATM    5  N3  UNL     1      18.431 -17.061  24.511  1.00  0.00    -0.250 N 
ATOM      6  H3  UNL     1      17.614 -16.453  24.536  1.00  0.00     0.192 HD
HETATM    7  C2  UNL     1      18.779 -17.918  23.498  1.00  0.00     0.290 A 
HETATM    8  O1  UNL     1      18.113 -18.053  22.462  1.00  0.00    -0.264 OA
HETATM    9  C3  UNL     1      19.941 -18.558  23.837  1.00  0.00     0.138 A 
ENDROOT
BRANCH   9  10
HETATM   10  C4  UNL     1      20.739 -19.562  23.125  1.00  0.00     0.143 C 
HETATM   11  N4  UNL     1      20.377 -20.385  22.288  1.00  0.00    -0.316 N 
ATOM     12  H4  UNL     1      21.166 -20.949  21.973  1.00  0.00     0.185 HD
BRANCH  11  13
HETATM   13  N5  UNL     1      19.248 -20.758  21.667  1.00  0.00    -0.345 N 
ATOM     14  H52 UNL     1      18.960 -21.672  22.016  1.00  0.00     0.176 HD
ATOM     15  H51 UNL     1      18.607 -20.396  20.960  1.00  0.00     0.176 HD
ENDBRANCH  11  13
ENDBRANCH   9  10
TORSDOF 2
ENDMDL
MODEL 4
REMARK VINA RESULT: -5.726160608      1.493      3.384
REMARK  2 active torsions:
REMARK  status: ('A' for Active; 'I' for Inactive)
REMARK    1  A    between atoms: C3_9  and  C4_10 
REMARK    2  A    between atoms: N4_11  and  N5_13 
ROOT
HETATM    1  C1  UNL     1      17.930 -19.677  20.904  1.00  0.00     0.179 C 
HETATM    2  N1  UNL     1      19.084 -19.781  21.772  1.00  0.00    -0.276 N 
HETATM    3  N2  UNL     1      19.983 -20.742  21.717  1.00  0.00    -0.237 N 
ATOM      4  H2  UNL     1      19.970 -21.522  21.060  1.00  0.00     0.208 HD
HETATM    5  N3  UNL     1      20.900 -20.545  22.640  1.00  0.00    -0.250 N 
ATOM      6  H3  UNL     1      21.712 -21.134  22.822  1.00  0.00     0.192 HD
HETATM    7  C2  UNL     1      20.558 -19.398  23.310  1.00  0.00     0.290 A 
HETATM    8  O1  UNL     1      21.224 -18.933  24.246  1.00  0.00    -0.264 OA
HETATM    9  C3  UNL     1      19.404 -18.896  22.772  1.00  0.00     0.138 A 
ENDROOT
BRANCH   9  10
HETATM   10  C4  UNL     1      18.614 -17.707  23.108  1.00  0.00     0.143 C 
HETATM   11  N4  UNL     1      18.541 -17.104  24.176  1.00  0.00    -0.316 N 
ATOM     12  H4  UNL     1      17.904 -16.311  24.099  1.00  0.00     0.185 HD
BRANCH  11  13
HETATM   13  N5  UNL     1      19.052 -17.184  25.414  1.00  0.00    -0.345 N 
ATOM     14  H52 UNL     1      19.799 -16.496  25.512  1.00  0.00     0.176 HD
ATOM     15  H51 UNL     1      18.911 -17.725  26.267  1.00  0.00     0.176 HD
ENDBRANCH  11  13
ENDBRANCH   9  10
TORSDOF 2
ENDMDL
MODEL 5
REMARK VINA RESULT: -5.690676540      1.948      4.013
REMARK  2 active torsions:
REMARK  status: ('A' for Active; 'I' for Inactive)
REMARK    1  A    between atoms: C3_9  and  C4_10 
REMARK    2  A    between atoms: N4_11  and  N5_13 
ROOT
HETATM    1  C1  UNL     1      21.458 -17.931  25.560  1.00  0.00     0.179 C 
HETATM    2  N1  UNL     1      21.115 -18.933  24.573  1.00  0.00    -0.276 N 
HETATM    3  N2  UNL     1      21.779 -20.053  24.375  1.00  0.00    -0.237 N 
ATOM      4  H2  UNL     1      22.609 -20.343  24.893  1.00  0.00     0.208 HD
HETATM    5  N3  UNL     1      21.210 -20.741  23.409  1.00  0.00    -0.250 N 
ATOM      6  H3  UNL     1      21.513 -21.646  23.050  1.00  0.00     0.192 HD
HETATM    7  C2  UNL     1      20.131 -20.014  22.976  1.00  0.00     0.290 A 
HETATM    8  O1  UNL     1      19.377 -20.389  22.067  1.00  0.00    -0.264 OA
HETATM    9  C3  UNL     1      20.053 -18.858  23.705  1.00  0.00     0.138 A 
ENDROOT
BRANCH   9  10
HETATM   10  C4  UNL     1      19.105 -17.740  23.655  1.00  0.00     0.143 C 
HETATM   11  N4  UNL     1      18.336 -17.420  22.751  1.00  0.00    -0.316 N 
ATOM     12  H4  UNL     1      17.800 -16.591  23.011  1.00  0.00     0.185 HD
BRANCH  11  13
HETATM   13  N5  UNL     1      17.994 -17.841  21.524  1.00  0.00    -0.345 N 
ATOM     14  H52 UNL     1      17.998 -17.047  20.884  1.00  0.00     0.176 HD
ATOM     15  H51 UNL     1      17.738 -18.711  21.057  1.00  0.00     0.176 HD
ENDBRANCH  11  13
ENDBRANCH   9  10
TORSDOF 2
ENDMDL
