MODEL 1
REMARK VINA RESULT: -6.574180598      0.000      0.000
REMARK  1 active torsions:
REMARK  status: ('A' for Active; 'I' for Inactive)
REMARK       I    between atoms: C1_4  and  N3_6 
REMARK    1  A    between atoms: N3_6  and  N4_8 
ROOT
HETATM    1  N4  UNL     1     -20.069 -19.299 -23.708  1.00  0.00    -0.135 N 
HETATM    2  N5  UNL     1     -21.234 -19.479 -24.307  1.00  0.00    -0.225 N 
ATOM      3  H5  UNL     1     -21.770 -20.347 -24.348  1.00  0.00     0.194 HD
HETATM    4  C2  UNL     1     -21.576 -18.291 -24.854  1.00  0.00     0.344 A 
HETATM    5  O1  UNL     1     -22.634 -18.054 -25.518  1.00  0.00    -0.245 OA
HETATM    6  N6  UNL     1     -20.615 -17.396 -24.583  1.00  0.00    -0.257 N 
ATOM      7  H6  UNL     1     -20.606 -16.418 -24.870  1.00  0.00     0.175 HD
HETATM    8  C3  UNL     1     -19.670 -18.019 -23.867  1.00  0.00     0.365 A 
HETATM    9  O2  UNL     1     -18.597 -17.568 -23.401  1.00  0.00    -0.243 OA
ENDROOT
BRANCH   1  10
HETATM   10  N3  UNL     1     -19.351 -20.303 -23.006  1.00  0.00    -0.248 N 
HETATM   11  C1  UNL     1     -19.594 -20.503 -21.621  1.00  0.00     0.202 C 
HETATM   12  N1  UNL     1     -20.454 -21.357 -21.193  1.00  0.00    -0.372 N 
HETATM   13  N2  UNL     1     -18.875 -19.750 -20.656  1.00  0.00    -0.062 NA
ATOM     14  H12 UNL     1     -20.629 -21.501 -20.199  1.00  0.00     0.158 HD
ATOM     15  H11 UNL     1     -20.971 -21.898 -21.887  1.00  0.00     0.158 HD
ATOM     16  H3  UNL     1     -18.664 -20.878 -23.495  1.00  0.00     0.192 HD
ENDBRANCH   1  10
TORSDOF 1
ENDMDL
MODEL 2
REMARK VINA RESULT: -6.538528028      1.223      2.376
REMARK  1 active torsions:
REMARK  status: ('A' for Active; 'I' for Inactive)
REMARK       I    between atoms: C1_4  and  N3_6 
REMARK    1  A    between atoms: N3_6  and  N4_8 
ROOT
HETATM    1  N4  UNL     1     -20.177 -19.484 -23.232  1.00  0.00    -0.135 N 
HETATM    2  N5  UNL     1     -18.957 -18.986 -23.344  1.00  0.00    -0.225 N 
ATOM      3  H5  UNL     1     -18.111 -19.338 -22.895  1.00  0.00     0.194 HD
HETATM    4  C2  UNL     1     -19.050 -17.918 -24.168  1.00  0.00     0.344 A 
HETATM    5  O1  UNL     1     -18.088 -17.168 -24.525  1.00  0.00    -0.245 OA
HETATM    6  N6  UNL     1     -20.326 -17.775 -24.552  1.00  0.00    -0.257 N 
ATOM      7  H6  UNL     1     -20.690 -17.054 -25.174  1.00  0.00     0.175 HD
HETATM    8  C3  UNL     1     -21.036 -18.751 -23.970  1.00  0.00     0.365 A 
HETATM    9  O2  UNL     1     -22.264 -18.998 -24.049  1.00  0.00    -0.243 OA
ENDROOT
BRANCH   1  10
HETATM   10  N3  UNL     1     -20.523 -20.619 -22.452  1.00  0.00    -0.248 N 
HETATM   11  C1  UNL     1     -19.945 -20.792 -21.166  1.00  0.00     0.202 C 
HETATM   12  N1  UNL     1     -20.512 -20.359 -20.096  1.00  0.00    -0.372 N 
HETATM   13  N2  UNL     1     -18.701 -21.462 -21.028  1.00  0.00    -0.062 NA
ATOM     14  H12 UNL     1     -20.097 -20.483 -19.173  1.00  0.00     0.158 HD
ATOM     15  H11 UNL     1     -21.406 -19.877 -20.195  1.00  0.00     0.158 HD
ATOM     16  H3  UNL     1     -21.184 -21.307 -22.813  1.00  0.00     0.192 HD
ENDBRANCH   1  10
TORSDOF 1
ENDMDL
MODEL 3
REMARK VINA RESULT: -6.495632685      1.098      1.118
REMARK  1 active torsions:
REMARK  status: ('A' for Active; 'I' for Inactive)
REMARK       I    between atoms: C1_4  and  N3_6 
REMARK    1  A    between atoms: N3_6  and  N4_8 
ROOT
HETATM    1  N4  UNL     1     -19.903 -18.846 -23.647  1.00  0.00    -0.135 N 
HETATM    2  N5  UNL     1     -21.096 -19.167 -24.118  1.00  0.00    -0.225 N 
ATOM      3  H5  UNL     1     -21.734 -19.865 -23.735  1.00  0.00     0.194 HD
HETATM    4  C2  UNL     1     -21.305 -18.392 -25.206  1.00  0.00     0.344 A 
HETATM    5  O1  UNL     1     -22.342 -18.403 -25.939  1.00  0.00    -0.245 OA
HETATM    6  N6  UNL     1     -20.236 -17.603 -25.388  1.00  0.00    -0.257 N 
ATOM      7  H6  UNL     1     -20.116 -16.915 -26.131  1.00  0.00     0.175 HD
HETATM    8  C3  UNL     1     -19.356 -17.881 -24.418  1.00  0.00     0.365 A 
HETATM    9  O2  UNL     1     -18.224 -17.385 -24.202  1.00  0.00    -0.243 OA
ENDROOT
BRANCH   1  10
HETATM   10  N3  UNL     1     -19.295 -19.429 -22.505  1.00  0.00    -0.248 N 
HETATM   11  C1  UNL     1     -19.665 -18.987 -21.207  1.00  0.00     0.202 C 
HETATM   12  N1  UNL     1     -20.597 -19.556 -20.530  1.00  0.00    -0.372 N 
HETATM   13  N2  UNL     1     -19.000 -17.882 -20.614  1.00  0.00    -0.062 NA
ATOM     14  H12 UNL     1     -20.864 -19.239 -19.598  1.00  0.00     0.158 HD
ATOM     15  H11 UNL     1     -21.076 -20.351 -20.955  1.00  0.00     0.158 HD
ATOM     16  H3  UNL     1     -18.594 -20.163 -22.615  1.00  0.00     0.192 HD
ENDBRANCH   1  10
TORSDOF 1
ENDMDL
MODEL 4
REMARK VINA RESULT: -6.455909574      0.954      1.393
REMARK  1 active torsions:
REMARK  status: ('A' for Active; 'I' for Inactive)
REMARK       I    between atoms: C1_4  and  N3_6 
REMARK    1  A    between atoms: N3_6  and  N4_8 
ROOT
HETATM    1  N4  UNL     1     -20.647 -19.097 -22.873  1.00  0.00    -0.135 N 
HETATM    2  N5  UNL     1     -21.799 -19.170 -23.517  1.00  0.00    -0.225 N 
ATOM      3  H5  UNL     1     -22.693 -19.480 -23.134  1.00  0.00     0.194 HD
HETATM    4  C2  UNL     1     -21.563 -18.754 -24.781  1.00  0.00     0.344 A 
HETATM    5  O1  UNL     1     -22.423 -18.678 -25.713  1.00  0.00    -0.245 OA
HETATM    6  N6  UNL     1     -20.267 -18.430 -24.896  1.00  0.00    -0.257 N 
ATOM      7  H6  UNL     1     -19.805 -18.084 -25.737  1.00  0.00     0.175 HD
HETATM    8  C3  UNL     1     -19.688 -18.642 -23.707  1.00  0.00     0.365 A 
HETATM    9  O2  UNL     1     -18.494 -18.474 -23.360  1.00  0.00    -0.243 OA
ENDROOT
BRANCH   1  10
HETATM   10  N3  UNL     1     -20.454 -19.446 -21.510  1.00  0.00    -0.248 N 
HETATM   11  C1  UNL     1     -19.660 -20.576 -21.178  1.00  0.00     0.202 C 
HETATM   12  N1  UNL     1     -18.402 -20.483 -20.937  1.00  0.00    -0.372 N 
HETATM   13  N2  UNL     1     -20.253 -21.865 -21.104  1.00  0.00    -0.062 NA
ATOM     14  H12 UNL     1     -17.832 -21.294 -20.699  1.00  0.00     0.158 HD
ATOM     15  H11 UNL     1     -17.976 -19.557 -20.991  1.00  0.00     0.158 HD
ATOM     16  H3  UNL     1     -20.883 -18.887 -20.772  1.00  0.00     0.192 HD
ENDBRANCH   1  10
TORSDOF 1
ENDMDL
MODEL 5
REMARK VINA RESULT: -6.425275746      1.900      2.036
REMARK  1 active torsions:
REMARK  status: ('A' for Active; 'I' for Inactive)
REMARK       I    between atoms: C1_4  and  N3_6 
REMARK    1  A    between atoms: N3_6  and  N4_8 
ROOT
HETATM    1  N4  UNL     1     -20.018 -18.095 -23.656  1.00  0.00    -0.135 N 
HETATM    2  N5  UNL     1     -21.132 -18.766 -23.421  1.00  0.00    -0.225 N 
ATOM      3  H5  UNL     1     -21.555 -18.946 -22.509  1.00  0.00     0.194 HD
HETATM    4  C2  UNL     1     -21.603 -19.168 -24.623  1.00  0.00     0.344 A 
HETATM    5  O1  UNL     1     -22.661 -19.843 -24.820  1.00  0.00    -0.245 OA
HETATM    6  N6  UNL     1     -20.770 -18.736 -25.581  1.00  0.00    -0.257 N 
ATOM      7  H6  UNL     1     -20.875 -18.891 -26.583  1.00  0.00     0.175 HD
HETATM    8  C3  UNL     1     -19.777 -18.065 -24.984  1.00  0.00     0.365 A 
HETATM    9  O2  UNL     1     -18.783 -17.493 -25.492  1.00  0.00    -0.243 OA
ENDROOT
BRANCH   1  10
HETATM   10  N3  UNL     1     -19.202 -17.498 -22.658  1.00  0.00    -0.248 N 
HETATM   11  C1  UNL     1     -18.903 -18.218 -21.471  1.00  0.00     0.202 C 
HETATM   12  N1  UNL     1     -17.848 -18.944 -21.358  1.00  0.00    -0.372 N 
HETATM   13  N2  UNL     1     -19.780 -18.150 -20.356  1.00  0.00    -0.062 NA
ATOM     14  H12 UNL     1     -17.633 -19.460 -20.506  1.00  0.00     0.158 HD
ATOM     15  H11 UNL     1     -17.218 -18.992 -22.159  1.00  0.00     0.158 HD
ATOM     16  H3  UNL     1     -18.833 -16.556 -22.794  1.00  0.00     0.192 HD
ENDBRANCH   1  10
TORSDOF 1
ENDMDL
