MODEL 1
REMARK VINA RESULT: -7.144035903      0.000      0.000
REMARK  3 active torsions:
REMARK  status: ('A' for Active; 'I' for Inactive)
REMARK    1  A    between atoms: N1_1  and  N2_4 
REMARK       I    between atoms: N2_4  and  C1_6 
REMARK    2  A    between atoms: C1_6  and  C2_8 
REMARK    3  A    between atoms: N3_10  and  N4_11 
ROOT
HETATM    1  C2  UNL     1     -19.758 -18.451 -22.857  1.00  0.00     0.135 A 
HETATM    2  C3  UNL     1     -20.509 -19.583 -23.084  1.00  0.00     0.157 A 
HETATM    3  N3  UNL     1     -21.418 -19.537 -24.074  1.00  0.00    -0.220 N 
HETATM    4  C4  UNL     1     -21.588 -18.429 -24.811  1.00  0.00     0.359 A 
HETATM    5  O2  UNL     1     -22.453 -18.434 -25.730  1.00  0.00    -0.243 OA
HETATM    6  N5  UNL     1     -20.856 -17.322 -24.592  1.00  0.00    -0.249 N 
ATOM      7  H5  UNL     1     -20.988 -16.482 -25.156  1.00  0.00     0.192 HD
HETATM    8  N6  UNL     1     -19.956 -17.360 -23.617  1.00  0.00    -0.290 N 
ATOM      9  H6  UNL     1     -19.394 -16.529 -23.437  1.00  0.00     0.187 HD
ENDROOT
BRANCH   1  10
HETATM   10  C1  UNL     1     -18.763 -18.446 -21.801  1.00  0.00     0.288 C 
HETATM   11  N2  UNL     1     -18.275 -19.672 -21.305  1.00  0.00    -0.271 N 
ATOM     12  H2  UNL     1     -18.619 -20.555 -21.685  1.00  0.00     0.189 HD
HETATM   13  O1  UNL     1     -18.337 -17.339 -21.330  1.00  0.00    -0.264 OA
BRANCH  11  14
HETATM   14  N1  UNL     1     -17.321 -19.668 -20.294  1.00  0.00    -0.342 N 
ATOM     15  H12 UNL     1     -17.206 -18.834 -19.718  1.00  0.00     0.176 HD
ATOM     16  H11 UNL     1     -16.748 -20.499 -20.143  1.00  0.00     0.176 HD
ENDBRANCH  11  14
ENDBRANCH   1  10
BRANCH   3  17
HETATM   17  N4  UNL     1     -22.187 -20.673 -24.318  1.00  0.00    -0.335 N 
ATOM     18  H42 UNL     1     -21.859 -21.390 -24.964  1.00  0.00     0.177 HD
ATOM     19  H41 UNL     1     -23.081 -20.765 -23.834  1.00  0.00     0.177 HD
ENDBRANCH   3  17
TORSDOF 3
ENDMDL
MODEL 2
REMARK VINA RESULT: -6.902132873      1.503      2.328
REMARK  3 active torsions:
REMARK  status: ('A' for Active; 'I' for Inactive)
REMARK    1  A    between atoms: N1_1  and  N2_4 
REMARK       I    between atoms: N2_4  and  C1_6 
REMARK    2  A    between atoms: C1_6  and  C2_8 
REMARK    3  A    between atoms: N3_10  and  N4_11 
ROOT
HETATM    1  C2  UNL     1     -19.897 -19.780 -22.961  1.00  0.00     0.135 A 
HETATM    2  C3  UNL     1     -19.555 -18.691 -23.733  1.00  0.00     0.157 A 
HETATM    3  N3  UNL     1     -20.411 -18.325 -24.703  1.00  0.00    -0.220 N 
HETATM    4  C4  UNL     1     -21.553 -18.995 -24.913  1.00  0.00     0.359 A 
HETATM    5  O2  UNL     1     -22.324 -18.614 -25.836  1.00  0.00    -0.243 OA
HETATM    6  N5  UNL     1     -21.890 -20.059 -24.162  1.00  0.00    -0.249 N 
ATOM      7  H5  UNL     1     -22.760 -20.566 -24.325  1.00  0.00     0.192 HD
HETATM    8  N6  UNL     1     -21.050 -20.427 -23.202  1.00  0.00    -0.290 N 
ATOM      9  H6  UNL     1     -21.290 -21.232 -22.624  1.00  0.00     0.187 HD
ENDROOT
BRANCH   1  10
HETATM   10  C1  UNL     1     -19.010 -20.218 -21.900  1.00  0.00     0.288 C 
HETATM   11  N2  UNL     1     -18.092 -19.304 -21.345  1.00  0.00    -0.271 N 
ATOM     12  H2  UNL     1     -18.051 -18.344 -21.686  1.00  0.00     0.189 HD
HETATM   13  O1  UNL     1     -19.065 -21.422 -21.478  1.00  0.00    -0.264 OA
BRANCH  11  14
HETATM   14  N1  UNL     1     -17.242 -19.724 -20.327  1.00  0.00    -0.342 N 
ATOM     15  H12 UNL     1     -17.559 -20.442 -19.675  1.00  0.00     0.176 HD
ATOM     16  H11 UNL     1     -16.315 -19.307 -20.246  1.00  0.00     0.176 HD
ENDBRANCH  11  14
ENDBRANCH   1  10
BRANCH   3  17
HETATM   17  N4  UNL     1     -20.081 -17.225 -25.493  1.00  0.00    -0.335 N 
ATOM     18  H42 UNL     1     -20.110 -17.292 -26.510  1.00  0.00     0.177 HD
ATOM     19  H41 UNL     1     -19.813 -16.358 -25.026  1.00  0.00     0.177 HD
ENDBRANCH   3  17
TORSDOF 3
ENDMDL
MODEL 3
REMARK VINA RESULT: -6.816964704      1.227      1.227
REMARK  3 active torsions:
REMARK  status: ('A' for Active; 'I' for Inactive)
REMARK    1  A    between atoms: N1_1  and  N2_4 
REMARK       I    between atoms: N2_4  and  C1_6 
REMARK    2  A    between atoms: C1_6  and  C2_8 
REMARK    3  A    between atoms: N3_10  and  N4_11 
ROOT
HETATM    1  C2  UNL     1     -19.682 -18.401 -23.032  1.00  0.00     0.135 A 
HETATM    2  C3  UNL     1     -20.457 -19.530 -23.185  1.00  0.00     0.157 A 
HETATM    3  N3  UNL     1     -21.411 -19.504 -24.133  1.00  0.00    -0.220 N 
HETATM    4  C4  UNL     1     -21.600 -18.420 -24.899  1.00  0.00     0.359 A 
HETATM    5  O2  UNL     1     -22.508 -18.444 -25.776  1.00  0.00    -0.243 OA
HETATM    6  N5  UNL     1     -20.845 -17.317 -24.753  1.00  0.00    -0.249 N 
ATOM      7  H5  UNL     1     -20.993 -16.495 -25.340  1.00  0.00     0.192 HD
HETATM    8  N6  UNL     1     -19.902 -17.334 -23.820  1.00  0.00    -0.290 N 
ATOM      9  H6  UNL     1     -19.321 -16.505 -23.695  1.00  0.00     0.187 HD
ENDROOT
BRANCH   1  10
HETATM   10  C1  UNL     1     -18.638 -18.375 -22.025  1.00  0.00     0.288 C 
HETATM   11  N2  UNL     1     -18.055 -17.143 -21.665  1.00  0.00    -0.271 N 
ATOM     12  H2  UNL     1     -18.364 -16.278 -22.110  1.00  0.00     0.189 HD
HETATM   13  O1  UNL     1     -18.256 -19.461 -21.473  1.00  0.00    -0.264 OA
BRANCH  11  14
HETATM   14  N1  UNL     1     -17.055 -17.118 -20.699  1.00  0.00    -0.342 N 
ATOM     15  H12 UNL     1     -17.284 -17.364 -19.736  1.00  0.00     0.176 HD
ATOM     16  H11 UNL     1     -16.107 -16.852 -20.967  1.00  0.00     0.176 HD
ENDBRANCH  11  14
ENDBRANCH   1  10
BRANCH   3  17
HETATM   17  N4  UNL     1     -22.205 -20.637 -24.300  1.00  0.00    -0.335 N 
ATOM     18  H42 UNL     1     -21.996 -21.495 -23.790  1.00  0.00     0.177 HD
ATOM     19  H41 UNL     1     -22.994 -20.582 -24.944  1.00  0.00     0.177 HD
ENDBRANCH   3  17
TORSDOF 3
ENDMDL
MODEL 4
REMARK VINA RESULT: -6.803045155      1.409      2.273
REMARK  3 active torsions:
REMARK  status: ('A' for Active; 'I' for Inactive)
REMARK    1  A    between atoms: N1_1  and  N2_4 
REMARK       I    between atoms: N2_4  and  C1_6 
REMARK    2  A    between atoms: C1_6  and  C2_8 
REMARK    3  A    between atoms: N3_10  and  N4_11 
ROOT
HETATM    1  C2  UNL     1     -19.924 -19.732 -22.986  1.00  0.00     0.135 A 
HETATM    2  C3  UNL     1     -19.550 -18.660 -23.766  1.00  0.00     0.157 A 
HETATM    3  N3  UNL     1     -20.385 -18.290 -24.752  1.00  0.00    -0.220 N 
HETATM    4  C4  UNL     1     -21.538 -18.940 -24.969  1.00  0.00     0.359 A 
HETATM    5  O2  UNL     1     -22.289 -18.555 -25.907  1.00  0.00    -0.243 OA
HETATM    6  N5  UNL     1     -21.905 -19.987 -24.210  1.00  0.00    -0.249 N 
ATOM      7  H5  UNL     1     -22.784 -20.479 -24.378  1.00  0.00     0.192 HD
HETATM    8  N6  UNL     1     -21.086 -20.360 -23.233  1.00  0.00    -0.290 N 
ATOM      9  H6  UNL     1     -21.350 -21.153 -22.649  1.00  0.00     0.187 HD
ENDROOT
BRANCH   1  10
HETATM   10  C1  UNL     1     -19.060 -20.174 -21.907  1.00  0.00     0.288 C 
HETATM   11  N2  UNL     1     -19.251 -21.454 -21.348  1.00  0.00    -0.271 N 
ATOM     12  H2  UNL     1     -19.991 -22.063 -21.697  1.00  0.00     0.189 HD
HETATM   13  O1  UNL     1     -18.136 -19.406 -21.473  1.00  0.00    -0.264 OA
BRANCH  11  14
HETATM   14  N1  UNL     1     -18.423 -21.877 -20.314  1.00  0.00    -0.342 N 
ATOM     15  H12 UNL     1     -18.800 -21.952 -19.369  1.00  0.00     0.176 HD
ATOM     16  H11 UNL     1     -17.449 -22.107 -20.516  1.00  0.00     0.176 HD
ENDBRANCH  11  14
ENDBRANCH   1  10
BRANCH   3  17
HETATM   17  N4  UNL     1     -20.023 -17.207 -25.551  1.00  0.00    -0.335 N 
ATOM     18  H42 UNL     1     -20.727 -16.704 -26.091  1.00  0.00     0.177 HD
ATOM     19  H41 UNL     1     -19.041 -16.934 -25.579  1.00  0.00     0.177 HD
ENDBRANCH   3  17
TORSDOF 3
ENDMDL
MODEL 5
REMARK VINA RESULT: -6.663778335      0.845      1.853
REMARK  3 active torsions:
REMARK  status: ('A' for Active; 'I' for Inactive)
REMARK    1  A    between atoms: N1_1  and  N2_4 
REMARK       I    between atoms: N2_4  and  C1_6 
REMARK    2  A    between atoms: C1_6  and  C2_8 
REMARK    3  A    between atoms: N3_10  and  N4_11 
ROOT
HETATM    1  C2  UNL     1     -19.928 -18.638 -22.632  1.00  0.00     0.135 A 
HETATM    2  C3  UNL     1     -19.538 -17.925 -23.744  1.00  0.00     0.157 A 
HETATM    3  N3  UNL     1     -20.382 -17.898 -24.791  1.00  0.00    -0.220 N 
HETATM    4  C4  UNL     1     -21.558 -18.543 -24.754  1.00  0.00     0.359 A 
HETATM    5  O2  UNL     1     -22.316 -18.488 -25.761  1.00  0.00    -0.243 OA
HETATM    6  N5  UNL     1     -21.941 -19.240 -23.669  1.00  0.00    -0.249 N 
ATOM      7  H5  UNL     1     -22.837 -19.728 -23.646  1.00  0.00     0.192 HD
HETATM    8  N6  UNL     1     -21.114 -19.271 -22.631  1.00  0.00    -0.290 N 
ATOM      9  H6  UNL     1     -21.389 -19.797 -21.802  1.00  0.00     0.187 HD
ENDROOT
BRANCH   1  10
HETATM   10  C1  UNL     1     -19.056 -18.700 -21.474  1.00  0.00     0.288 C 
HETATM   11  N2  UNL     1     -18.269 -19.850 -21.261  1.00  0.00    -0.271 N 
ATOM     12  H2  UNL     1     -18.313 -20.632 -21.915  1.00  0.00     0.189 HD
HETATM   13  O1  UNL     1     -19.007 -17.718 -20.659  1.00  0.00    -0.264 OA
BRANCH  11  14
HETATM   14  N1  UNL     1     -17.433 -19.909 -20.152  1.00  0.00    -0.342 N 
ATOM     15  H12 UNL     1     -17.182 -19.046 -19.667  1.00  0.00     0.176 HD
ATOM     16  H11 UNL     1     -17.081 -20.814 -19.838  1.00  0.00     0.176 HD
ENDBRANCH  11  14
ENDBRANCH   1  10
BRANCH   3  17
HETATM   17  N4  UNL     1     -20.005 -17.182 -25.925  1.00  0.00    -0.335 N 
ATOM     18  H42 UNL     1     -19.754 -16.196 -25.853  1.00  0.00     0.177 HD
ATOM     19  H41 UNL     1     -19.987 -17.669 -26.821  1.00  0.00     0.177 HD
ENDBRANCH   3  17
TORSDOF 3
ENDMDL
