MODEL 1
REMARK VINA RESULT: -7.853061079      0.000      0.000
REMARK  1 active torsions:
REMARK  status: ('A' for Active; 'I' for Inactive)
REMARK    1  A    between atoms: N1_1  and  C1_4 
ROOT
HETATM    1  C1  UNL     1      17.943 -17.929  21.752  1.00  0.00     0.680 A 
HETATM    2  N2  UNL     1      18.112 -19.223  21.410  1.00  0.00    -0.154 N 
ATOM      3  H2  UNL     1      17.500 -19.634  20.707  1.00  0.00     0.187 HD
HETATM    4  C2  UNL     1      19.069 -19.987  21.974  1.00  0.00     0.290 A 
HETATM    5  O1  UNL     1      19.204 -21.191  21.638  1.00  0.00    -0.265 OA
HETATM    6  C3  UNL     1      19.900 -19.452  22.921  1.00  0.00     0.151 A 
HETATM    7  N3  UNL     1      20.877 -20.181  23.518  1.00  0.00    -0.300 N 
ATOM      8  H3  UNL     1      21.014 -21.160  23.269  1.00  0.00     0.171 HD
HETATM    9  C4  UNL     1      21.653 -19.609  24.428  1.00  0.00     0.339 A 
HETATM   10  O2  UNL     1      22.554 -20.277  24.980  1.00  0.00    -0.245 OA
HETATM   11  N4  UNL     1      21.483 -18.321  24.767  1.00  0.00    -0.250 N 
ATOM     12  H4  UNL     1      22.098 -17.913  25.472  1.00  0.00     0.192 HD
HETATM   13  N5  UNL     1      20.544 -17.559  24.218  1.00  0.00    -0.279 N 
ATOM     14  H5  UNL     1      20.429 -16.582  24.486  1.00  0.00     0.189 HD
HETATM   15  C5  UNL     1      19.747 -18.130  23.288  1.00  0.00     0.168 A 
HETATM   16  N6  UNL     1      18.763 -17.418  22.680  1.00  0.00    -0.173 N 
ATOM     17  H6  UNL     1      18.643 -16.440  22.943  1.00  0.00     0.186 HD
ENDROOT
BRANCH   1  18
HETATM   18  N1  UNL     1      17.010 -17.249  21.177  1.00  0.00    -0.234 N 
ATOM     19  H12 UNL     1      16.312 -17.663  20.559  1.00  0.00     0.174 HD
ATOM     20  H11 UNL     1      16.960 -16.244  21.343  1.00  0.00     0.174 HD
ENDBRANCH   1  18
TORSDOF 1
ENDMDL
MODEL 2
REMARK VINA RESULT: -7.646605001      1.858      2.603
REMARK  1 active torsions:
REMARK  status: ('A' for Active; 'I' for Inactive)
REMARK    1  A    between atoms: N1_1  and  C1_4 
ROOT
HETATM    1  C1  UNL     1      18.959 -20.243  21.343  1.00  0.00     0.680 A 
HETATM    2  N2  UNL     1      18.266 -19.178  21.797  1.00  0.00    -0.154 N 
ATOM      3  H2  UNL     1      17.448 -18.860  21.277  1.00  0.00     0.187 HD
HETATM    4  C2  UNL     1      18.624 -18.523  22.920  1.00  0.00     0.290 A 
HETATM    5  O1  UNL     1      17.960 -17.533  23.320  1.00  0.00    -0.265 OA
HETATM    6  C3  UNL     1      19.719 -18.936  23.631  1.00  0.00     0.151 A 
HETATM    7  N3  UNL     1      20.120 -18.309  24.766  1.00  0.00    -0.300 N 
ATOM      8  H3  UNL     1      19.604 -17.503  25.119  1.00  0.00     0.171 HD
HETATM    9  C4  UNL     1      21.188 -18.754  25.413  1.00  0.00     0.339 A 
HETATM   10  O2  UNL     1      21.561 -18.180  26.459  1.00  0.00    -0.245 OA
HETATM   11  N4  UNL     1      21.877 -19.813  24.960  1.00  0.00    -0.250 N 
ATOM     12  H4  UNL     1      22.695 -20.128  25.482  1.00  0.00     0.192 HD
HETATM   13  N5  UNL     1      21.532 -20.466  23.855  1.00  0.00    -0.279 N 
ATOM     14  H5  UNL     1      22.066 -21.269  23.524  1.00  0.00     0.189 HD
HETATM   15  C5  UNL     1      20.445 -20.022  23.186  1.00  0.00     0.168 A 
HETATM   16  N6  UNL     1      20.028 -20.635  22.048  1.00  0.00    -0.173 N 
ATOM     17  H6  UNL     1      20.557 -21.440  21.713  1.00  0.00     0.186 HD
ENDROOT
BRANCH   1  18
HETATM   18  N1  UNL     1      18.566 -20.827  20.263  1.00  0.00    -0.234 N 
ATOM     19  H12 UNL     1      19.047 -20.736  19.367  1.00  0.00     0.174 HD
ATOM     20  H11 UNL     1      17.732 -21.413  20.296  1.00  0.00     0.174 HD
ENDBRANCH   1  18
TORSDOF 1
ENDMDL
MODEL 3
REMARK VINA RESULT: -7.618065284      1.787      2.354
REMARK  1 active torsions:
REMARK  status: ('A' for Active; 'I' for Inactive)
REMARK    1  A    between atoms: N1_1  and  C1_4 
ROOT
HETATM    1  C1  UNL     1      17.894 -17.525  22.129  1.00  0.00     0.680 A 
HETATM    2  N2  UNL     1      17.667 -17.245  23.430  1.00  0.00    -0.154 N 
ATOM      3  H2  UNL     1      16.817 -16.745  23.688  1.00  0.00     0.187 HD
HETATM    4  C2  UNL     1      18.534 -17.608  24.396  1.00  0.00     0.290 A 
HETATM    5  O1  UNL     1      18.298 -17.333  25.600  1.00  0.00    -0.265 OA
HETATM    6  C3  UNL     1      19.681 -18.279  24.067  1.00  0.00     0.151 A 
HETATM    7  N3  UNL     1      20.585 -18.664  25.004  1.00  0.00    -0.300 N 
ATOM      8  H3  UNL     1      20.425 -18.457  25.990  1.00  0.00     0.171 HD
HETATM    9  C4  UNL     1      21.678 -19.312  24.626  1.00  0.00     0.339 A 
HETATM   10  O2  UNL     1      22.513 -19.669  25.486  1.00  0.00    -0.245 OA
HETATM   11  N4  UNL     1      21.903 -19.590  23.332  1.00  0.00    -0.250 N 
ATOM     12  H4  UNL     1      22.755 -20.089  23.077  1.00  0.00     0.192 HD
HETATM   13  N5  UNL     1      21.055 -19.237  22.372  1.00  0.00    -0.279 N 
ATOM     14  H5  UNL     1      21.240 -19.456  21.394  1.00  0.00     0.189 HD
HETATM   15  C5  UNL     1      19.937 -18.576  22.744  1.00  0.00     0.168 A 
HETATM   16  N6  UNL     1      19.020 -18.182  21.822  1.00  0.00    -0.173 N 
ATOM     17  H6  UNL     1      19.199 -18.398  20.842  1.00  0.00     0.186 HD
ENDROOT
BRANCH   1  18
HETATM   18  N1  UNL     1      17.027 -17.152  21.251  1.00  0.00    -0.234 N 
ATOM     19  H12 UNL     1      16.472 -16.299  21.335  1.00  0.00     0.174 HD
ATOM     20  H11 UNL     1      16.881 -17.733  20.426  1.00  0.00     0.174 HD
ENDBRANCH   1  18
TORSDOF 1
ENDMDL
MODEL 4
REMARK VINA RESULT: -7.476814850      2.279      3.765
REMARK  1 active torsions:
REMARK  status: ('A' for Active; 'I' for Inactive)
REMARK    1  A    between atoms: N1_1  and  C1_4 
ROOT
HETATM    1  C1  UNL     1      19.362 -17.809  24.854  1.00  0.00     0.680 A 
HETATM    2  N2  UNL     1      18.354 -17.370  24.071  1.00  0.00    -0.154 N 
ATOM      3  H2  UNL     1      17.784 -16.586  24.389  1.00  0.00     0.187 HD
HETATM    4  C2  UNL     1      18.080 -17.940  22.881  1.00  0.00     0.290 A 
HETATM    5  O1  UNL     1      17.134 -17.512  22.171  1.00  0.00    -0.265 OA
HETATM    6  C3  UNL     1      18.834 -18.994  22.439  1.00  0.00     0.151 A 
HETATM    7  N3  UNL     1      18.597 -19.601  21.248  1.00  0.00    -0.300 N 
ATOM      8  H3  UNL     1      17.837 -19.279  20.648  1.00  0.00     0.171 HD
HETATM    9  C4  UNL     1      19.361 -20.617  20.872  1.00  0.00     0.339 A 
HETATM   10  O2  UNL     1      19.146 -21.179  19.776  1.00  0.00    -0.245 OA
HETATM   11  N4  UNL     1      20.363 -21.052  21.652  1.00  0.00    -0.250 N 
ATOM     12  H4  UNL     1      20.930 -21.837  21.332  1.00  0.00     0.192 HD
HETATM   13  N5  UNL     1      20.641 -20.498  22.827  1.00  0.00    -0.279 N 
ATOM     14  H5  UNL     1      21.407 -20.840  23.407  1.00  0.00     0.189 HD
HETATM   15  C5  UNL     1      19.870 -19.461  23.222  1.00  0.00     0.168 A 
HETATM   16  N6  UNL     1      20.091 -18.840  24.409  1.00  0.00    -0.173 N 
ATOM     17  H6  UNL     1      20.855 -19.177  24.994  1.00  0.00     0.186 HD
ENDROOT
BRANCH   1  18
HETATM   18  N1  UNL     1      19.574 -17.222  25.983  1.00  0.00    -0.234 N 
ATOM     19  H12 UNL     1      18.975 -17.341  26.800  1.00  0.00     0.174 HD
ATOM     20  H11 UNL     1      20.381 -16.604  26.072  1.00  0.00     0.174 HD
ENDBRANCH   1  18
TORSDOF 1
ENDMDL
MODEL 5
REMARK VINA RESULT: -7.247372147      2.544      3.459
REMARK  1 active torsions:
REMARK  status: ('A' for Active; 'I' for Inactive)
REMARK    1  A    between atoms: N1_1  and  C1_4 
ROOT
HETATM    1  C1  UNL     1      20.137 -20.570  20.269  1.00  0.00     0.680 A 
HETATM    2  N2  UNL     1      19.455 -19.507  19.795  1.00  0.00    -0.154 N 
ATOM      3  H2  UNL     1      19.355 -19.390  18.787  1.00  0.00     0.187 HD
HETATM    4  C2  UNL     1      18.901 -18.595  20.619  1.00  0.00     0.290 A 
HETATM    5  O1  UNL     1      18.270 -17.612  20.151  1.00  0.00    -0.265 OA
HETATM    6  C3  UNL     1      19.025 -18.735  21.975  1.00  0.00     0.151 A 
HETATM    7  N3  UNL     1      18.486 -17.843  22.845  1.00  0.00    -0.300 N 
ATOM      8  H3  UNL     1      17.968 -17.035  22.499  1.00  0.00     0.171 HD
HETATM    9  C4  UNL     1      18.638 -18.031  24.148  1.00  0.00     0.339 A 
HETATM   10  O2  UNL     1      18.143 -17.211  24.953  1.00  0.00    -0.245 OA
HETATM   11  N4  UNL     1      19.317 -19.089  24.617  1.00  0.00    -0.250 N 
ATOM     12  H4  UNL     1      19.416 -19.202  25.627  1.00  0.00     0.192 HD
HETATM   13  N5  UNL     1      19.867 -19.994  23.815  1.00  0.00    -0.279 N 
ATOM     14  H5  UNL     1      20.379 -20.793  24.187  1.00  0.00     0.189 HD
HETATM   15  C5  UNL     1      19.719 -19.814  22.484  1.00  0.00     0.168 A 
HETATM   16  N6  UNL     1      20.251 -20.695  21.597  1.00  0.00    -0.173 N 
ATOM     17  H6  UNL     1      20.764 -21.496  21.963  1.00  0.00     0.186 HD
ENDROOT
BRANCH   1  18
HETATM   18  N1  UNL     1      20.644 -21.408  19.430  1.00  0.00    -0.234 N 
ATOM     19  H12 UNL     1      20.258 -21.577  18.501  1.00  0.00     0.174 HD
ATOM     20  H11 UNL     1      21.474 -21.935  19.702  1.00  0.00     0.174 HD
ENDBRANCH   1  18
TORSDOF 1
ENDMDL
