MODEL 1
REMARK VINA RESULT: -7.743714266      0.000      0.000
REMARK  3 active torsions:
REMARK  status: ('A' for Active; 'I' for Inactive)
REMARK    1  A    between atoms: N1_1  and  N2_4 
REMARK    2  A    between atoms: N2_4  and  C1_6 
REMARK    3  A    between atoms: C3_15  and  N6_16 
REMARK       I    between atoms: N6_16  and  C4_18 
ROOT
HETATM    1  C1  UNL     1      20.503 -19.918  22.786  1.00  0.00     0.179 A 
HETATM    2  N3  UNL     1      21.255 -20.611  23.652  1.00  0.00    -0.277 N 
ATOM      3  H3  UNL     1      21.442 -21.595  23.463  1.00  0.00     0.189 HD
HETATM    4  N4  UNL     1      21.767 -20.063  24.746  1.00  0.00    -0.250 N 
ATOM      5  H4  UNL     1      22.333 -20.636  25.372  1.00  0.00     0.192 HD
HETATM    6  C2  UNL     1      21.558 -18.767  25.051  1.00  0.00     0.340 A 
HETATM    7  O1  UNL     1      22.048 -18.239  26.101  1.00  0.00    -0.245 OA
HETATM    8  N5  UNL     1      20.803 -18.056  24.191  1.00  0.00    -0.290 N 
ATOM      9  H5  UNL     1      20.626 -17.072  24.395  1.00  0.00     0.172 HD
HETATM   10  C3  UNL     1      20.270 -18.590  23.070  1.00  0.00     0.160 A 
ENDROOT
BRANCH   1  11
HETATM   11  N2  UNL     1      20.046 -20.526  21.751  1.00  0.00    -0.288 N 
ATOM     12  H2  UNL     1      19.225 -20.136  21.288  1.00  0.00     0.188 HD
BRANCH  11  13
HETATM   13  N1  UNL     1      20.606 -21.688  21.223  1.00  0.00    -0.343 N 
ATOM     14  H12 UNL     1      21.530 -21.605  20.798  1.00  0.00     0.176 HD
ATOM     15  H11 UNL     1      20.148 -22.599  21.241  1.00  0.00     0.176 HD
ENDBRANCH  11  13
ENDBRANCH   1  11
BRANCH  10  16
HETATM   16  N6  UNL     1      19.549 -17.904  22.253  1.00  0.00    -0.294 N 
HETATM   17  C4  UNL     1      18.139 -17.894  22.278  1.00  0.00     0.334 C 
HETATM   18  N7  UNL     1      17.414 -18.402  21.181  1.00  0.00    -0.040 NA
HETATM   19  O2  UNL     1      17.523 -17.441  23.261  1.00  0.00    -0.251 OA
ATOM     20  H6  UNL     1      20.023 -17.337  21.550  1.00  0.00     0.172 HD
ENDBRANCH  10  16
TORSDOF 3
ENDMDL
MODEL 2
REMARK VINA RESULT: -7.392383506      2.171      3.318
REMARK  3 active torsions:
REMARK  status: ('A' for Active; 'I' for Inactive)
REMARK    1  A    between atoms: N1_1  and  N2_4 
REMARK    2  A    between atoms: N2_4  and  C1_6 
REMARK    3  A    between atoms: C3_15  and  N6_16 
REMARK       I    between atoms: N6_16  and  C4_18 
ROOT
HETATM    1  C1  UNL     1      19.680 -18.438  22.714  1.00  0.00     0.179 A 
HETATM    2  N3  UNL     1      20.379 -17.727  23.609  1.00  0.00    -0.277 N 
ATOM      3  H3  UNL     1      20.197 -16.727  23.693  1.00  0.00     0.189 HD
HETATM    4  N4  UNL     1      21.300 -18.276  24.390  1.00  0.00    -0.250 N 
ATOM      5  H4  UNL     1      21.804 -17.688  25.054  1.00  0.00     0.192 HD
HETATM    6  C2  UNL     1      21.585 -19.591  24.328  1.00  0.00     0.340 A 
HETATM    7  O1  UNL     1      22.470 -20.121  25.077  1.00  0.00    -0.245 OA
HETATM    8  N5  UNL     1      20.891 -20.321  23.433  1.00  0.00    -0.290 N 
ATOM      9  H5  UNL     1      21.086 -21.320  23.362  1.00  0.00     0.172 HD
HETATM   10  C3  UNL     1      19.948 -19.786  22.625  1.00  0.00     0.160 A 
ENDROOT
BRANCH   1  11
HETATM   11  N2  UNL     1      18.806 -17.827  21.996  1.00  0.00    -0.288 N 
ATOM     12  H2  UNL     1      18.955 -17.789  20.988  1.00  0.00     0.188 HD
BRANCH  11  13
HETATM   13  N1  UNL     1      17.667 -17.214  22.515  1.00  0.00    -0.343 N 
ATOM     14  H12 UNL     1      17.057 -17.788  23.096  1.00  0.00     0.176 HD
ATOM     15  H11 UNL     1      17.420 -16.239  22.346  1.00  0.00     0.176 HD
ENDBRANCH  11  13
ENDBRANCH   1  11
BRANCH  10  16
HETATM   16  N6  UNL     1      19.289 -20.490  21.773  1.00  0.00    -0.294 N 
HETATM   17  C4  UNL     1      19.895 -21.207  20.721  1.00  0.00     0.334 C 
HETATM   18  N7  UNL     1      19.625 -20.854  19.383  1.00  0.00    -0.040 NA
HETATM   19  O2  UNL     1      20.671 -22.152  20.958  1.00  0.00    -0.251 OA
ATOM     20  H6  UNL     1      18.274 -20.531  21.863  1.00  0.00     0.172 HD
ENDBRANCH  10  16
TORSDOF 3
ENDMDL
MODEL 3
REMARK VINA RESULT: -7.272567961      2.287      4.651
REMARK  3 active torsions:
REMARK  status: ('A' for Active; 'I' for Inactive)
REMARK    1  A    between atoms: N1_1  and  N2_4 
REMARK    2  A    between atoms: N2_4  and  C1_6 
REMARK    3  A    between atoms: C3_15  and  N6_16 
REMARK       I    between atoms: N6_16  and  C4_18 
ROOT
HETATM    1  C1  UNL     1      19.253 -18.672  22.469  1.00  0.00     0.179 A 
HETATM    2  N3  UNL     1      18.201 -19.135  21.781  1.00  0.00    -0.277 N 
ATOM      3  H3  UNL     1      17.338 -18.590  21.774  1.00  0.00     0.189 HD
HETATM    4  N4  UNL     1      18.239 -20.277  21.108  1.00  0.00    -0.250 N 
ATOM      5  H4  UNL     1      17.408 -20.585  20.601  1.00  0.00     0.192 HD
HETATM    6  C2  UNL     1      19.347 -21.042  21.077  1.00  0.00     0.340 A 
HETATM    7  O1  UNL     1      19.386 -22.140  20.431  1.00  0.00    -0.245 OA
HETATM    8  N5  UNL     1      20.415 -20.591  21.764  1.00  0.00    -0.290 N 
ATOM      9  H5  UNL     1      21.269 -21.149  21.760  1.00  0.00     0.172 HD
HETATM   10  C3  UNL     1      20.402 -19.431  22.458  1.00  0.00     0.160 A 
ENDROOT
BRANCH   1  11
HETATM   11  N2  UNL     1      19.131 -17.556  23.094  1.00  0.00    -0.288 N 
ATOM     12  H2  UNL     1      19.616 -16.740  22.720  1.00  0.00     0.188 HD
BRANCH  11  13
HETATM   13  N1  UNL     1      18.373 -17.394  24.253  1.00  0.00    -0.343 N 
ATOM     14  H12 UNL     1      18.399 -16.477  24.698  1.00  0.00     0.176 HD
ATOM     15  H11 UNL     1      17.806 -18.133  24.668  1.00  0.00     0.176 HD
ENDBRANCH  11  13
ENDBRANCH   1  11
BRANCH  10  16
HETATM   16  N6  UNL     1      21.426 -19.006  23.112  1.00  0.00    -0.294 N 
HETATM   17  C4  UNL     1      21.856 -19.564  24.334  1.00  0.00     0.334 C 
HETATM   18  N7  UNL     1      21.827 -18.786  25.509  1.00  0.00    -0.040 NA
HETATM   19  O2  UNL     1      22.261 -20.740  24.389  1.00  0.00    -0.251 OA
ATOM     20  H6  UNL     1      21.955 -18.225  22.726  1.00  0.00     0.172 HD
ENDBRANCH  10  16
TORSDOF 3
ENDMDL
MODEL 4
REMARK VINA RESULT: -7.235326376      1.518      4.082
REMARK  3 active torsions:
REMARK  status: ('A' for Active; 'I' for Inactive)
REMARK    1  A    between atoms: N1_1  and  N2_4 
REMARK    2  A    between atoms: N2_4  and  C1_6 
REMARK    3  A    between atoms: C3_15  and  N6_16 
REMARK       I    between atoms: N6_16  and  C4_18 
ROOT
HETATM    1  C1  UNL     1      19.327 -19.517  23.112  1.00  0.00     0.179 A 
HETATM    2  N3  UNL     1      18.844 -19.739  21.881  1.00  0.00    -0.277 N 
ATOM      3  H3  UNL     1      19.029 -20.637  21.435  1.00  0.00     0.189 HD
HETATM    4  N4  UNL     1      18.133 -18.833  21.223  1.00  0.00    -0.250 N 
ATOM      5  H4  UNL     1      17.790 -19.053  20.288  1.00  0.00     0.192 HD
HETATM    6  C2  UNL     1      17.853 -17.629  21.759  1.00  0.00     0.340 A 
HETATM    7  O1  UNL     1      17.171 -16.757  21.128  1.00  0.00    -0.245 OA
HETATM    8  N5  UNL     1      18.331 -17.389  22.996  1.00  0.00    -0.290 N 
ATOM      9  H5  UNL     1      18.137 -16.486  23.428  1.00  0.00     0.172 HD
HETATM   10  C3  UNL     1      19.059 -18.295  23.688  1.00  0.00     0.160 A 
ENDROOT
BRANCH   1  11
HETATM   11  N2  UNL     1      20.006 -20.449  23.678  1.00  0.00    -0.288 N 
ATOM     12  H2  UNL     1      19.531 -21.046  24.354  1.00  0.00     0.188 HD
BRANCH  11  13
HETATM   13  N1  UNL     1      21.354 -20.692  23.422  1.00  0.00    -0.343 N 
ATOM     14  H12 UNL     1      21.594 -21.601  23.026  1.00  0.00     0.176 HD
ATOM     15  H11 UNL     1      22.098 -20.019  23.607  1.00  0.00     0.176 HD
ENDBRANCH  11  13
ENDBRANCH   1  11
BRANCH  10  16
HETATM   16  N6  UNL     1      19.513 -18.059  24.869  1.00  0.00    -0.294 N 
HETATM   17  C4  UNL     1      20.885 -17.924  25.163  1.00  0.00     0.334 C 
HETATM   18  N7  UNL     1      21.516 -18.855  26.012  1.00  0.00    -0.040 NA
HETATM   19  O2  UNL     1      21.551 -16.989  24.679  1.00  0.00    -0.251 OA
ATOM     20  H6  UNL     1      18.844 -17.964  25.633  1.00  0.00     0.172 HD
ENDBRANCH  10  16
TORSDOF 3
ENDMDL
MODEL 5
REMARK VINA RESULT: -7.186013971      1.540      2.920
REMARK  3 active torsions:
REMARK  status: ('A' for Active; 'I' for Inactive)
REMARK    1  A    between atoms: N1_1  and  N2_4 
REMARK    2  A    between atoms: N2_4  and  C1_6 
REMARK    3  A    between atoms: C3_15  and  N6_16 
REMARK       I    between atoms: N6_16  and  C4_18 
ROOT
HETATM    1  C1  UNL     1      19.842 -18.128  22.689  1.00  0.00     0.179 A 
HETATM    2  N3  UNL     1      20.160 -17.558  23.860  1.00  0.00    -0.277 N 
ATOM      3  H3  UNL     1      19.723 -16.671  24.110  1.00  0.00     0.189 HD
HETATM    4  N4  UNL     1      21.022 -18.106  24.706  1.00  0.00    -0.250 N 
ATOM      5  H4  UNL     1      21.229 -17.629  25.584  1.00  0.00     0.192 HD
HETATM    6  C2  UNL     1      21.631 -19.277  24.434  1.00  0.00     0.340 A 
HETATM    7  O1  UNL     1      22.459 -19.805  25.246  1.00  0.00    -0.245 OA
HETATM    8  N5  UNL     1      21.322 -19.863  23.262  1.00  0.00    -0.290 N 
ATOM      9  H5  UNL     1      21.768 -20.750  23.027  1.00  0.00     0.172 HD
HETATM   10  C3  UNL     1      20.448 -19.326  22.382  1.00  0.00     0.160 A 
ENDROOT
BRANCH   1  11
HETATM   11  N2  UNL     1      18.997 -17.529  21.928  1.00  0.00    -0.288 N 
ATOM     12  H2  UNL     1      19.325 -17.184  21.026  1.00  0.00     0.188 HD
BRANCH  11  13
HETATM   13  N1  UNL     1      17.660 -17.325  22.262  1.00  0.00    -0.343 N 
ATOM     14  H12 UNL     1      16.993 -17.270  21.493  1.00  0.00     0.176 HD
ATOM     15  H11 UNL     1      17.322 -17.231  23.220  1.00  0.00     0.176 HD
ENDBRANCH  11  13
ENDBRANCH   1  11
BRANCH  10  16
HETATM   16  N6  UNL     1      20.158 -19.892  21.262  1.00  0.00    -0.294 N 
HETATM   17  C4  UNL     1      19.008 -20.683  21.065  1.00  0.00     0.334 C 
HETATM   18  N7  UNL     1      19.141 -22.055  20.768  1.00  0.00    -0.040 NA
HETATM   19  O2  UNL     1      17.870 -20.185  21.150  1.00  0.00    -0.251 OA
ATOM     20  H6  UNL     1      20.795 -19.761  20.476  1.00  0.00     0.172 HD
ENDBRANCH  10  16
TORSDOF 3
ENDMDL
