MODEL 1
REMARK VINA RESULT: -7.657335676      0.000      0.000
REMARK  0 active torsions:
REMARK  status: ('A' for Active; 'I' for Inactive)
ROOT
HETATM    1  N1  UNL     1      18.002 -16.819  24.978  1.00  0.00    -0.233 N 
ATOM      2  H11 UNL     1      18.304 -16.372  25.843  1.00  0.00     0.174 HD
ATOM      3  H12 UNL     1      17.117 -16.781  24.472  1.00  0.00     0.174 HD
HETATM    4  C1  UNL     1      18.879 -17.573  24.399  1.00  0.00     0.693 C 
HETATM    5  N2  UNL     1      18.459 -18.195  23.197  1.00  0.00    -0.128 N 
ATOM      6  H2  UNL     1      17.554 -17.847  22.879  1.00  0.00     0.205 HD
HETATM    7  N3  UNL     1      18.988 -19.182  22.329  1.00  0.00    -0.237 N 
ATOM      8  H3  UNL     1      18.562 -19.147  21.403  1.00  0.00     0.192 HD
HETATM    9  C2  UNL     1      19.966 -20.211  22.430  1.00  0.00     0.342 C 
HETATM   10  O1  UNL     1      19.930 -21.002  21.455  1.00  0.00    -0.245 OA
HETATM   11  N4  UNL     1      20.961 -20.512  23.405  1.00  0.00    -0.270 N 
ATOM     12  H4  UNL     1      21.302 -21.471  23.341  1.00  0.00     0.174 HD
HETATM   13  C3  UNL     1      21.582 -19.771  24.448  1.00  0.00     0.318 C 
HETATM   14  O2  UNL     1      22.606 -20.334  24.917  1.00  0.00    -0.262 OA
HETATM   15  C4  UNL     1      21.265 -18.493  25.076  1.00  0.00     0.328 C 
HETATM   16  O3  UNL     1      22.216 -18.031  25.754  1.00  0.00    -0.261 OA
HETATM   17  N5  UNL     1      20.120 -17.626  25.108  1.00  0.00    -0.150 N 
ATOM     18  H5  UNL     1      20.214 -16.875  25.793  1.00  0.00     0.188 HD
ENDROOT
TORSDOF 0
ENDMDL
MODEL 2
REMARK VINA RESULT: -7.610637202      1.470      3.363
REMARK  0 active torsions:
REMARK  status: ('A' for Active; 'I' for Inactive)
ROOT
HETATM    1  N1  UNL     1      20.268 -20.575  21.058  1.00  0.00    -0.233 N 
ATOM      2  H11 UNL     1      21.146 -21.081  20.940  1.00  0.00     0.174 HD
ATOM      3  H12 UNL     1      19.489 -20.417  20.419  1.00  0.00     0.174 HD
HETATM    4  C1  UNL     1      20.085 -20.031  22.217  1.00  0.00     0.693 C 
HETATM    5  N2  UNL     1      18.865 -19.328  22.380  1.00  0.00    -0.128 N 
ATOM      6  H2  UNL     1      18.231 -19.468  21.594  1.00  0.00     0.205 HD
HETATM    7  N3  UNL     1      18.311 -18.478  23.369  1.00  0.00    -0.237 N 
ATOM      8  H3  UNL     1      17.296 -18.416  23.297  1.00  0.00     0.192 HD
HETATM    9  C2  UNL     1      18.821 -17.688  24.438  1.00  0.00     0.342 C 
HETATM   10  O1  UNL     1      17.959 -16.906  24.908  1.00  0.00    -0.245 OA
HETATM   11  N4  UNL     1      20.099 -17.616  25.067  1.00  0.00    -0.270 N 
ATOM     12  H4  UNL     1      20.231 -16.754  25.597  1.00  0.00     0.174 HD
HETATM   13  C3  UNL     1      21.228 -18.477  25.119  1.00  0.00     0.318 C 
HETATM   14  O2  UNL     1      22.061 -18.154  26.004  1.00  0.00    -0.262 OA
HETATM   15  C4  UNL     1      21.607 -19.657  24.348  1.00  0.00     0.328 C 
HETATM   16  O3  UNL     1      22.530 -20.317  24.885  1.00  0.00    -0.261 OA
HETATM   17  N5  UNL     1      21.177 -20.253  23.113  1.00  0.00    -0.150 N 
ATOM     18  H5  UNL     1      21.791 -21.007  22.805  1.00  0.00     0.188 HD
ENDROOT
TORSDOF 0
ENDMDL
MODEL 3
REMARK VINA RESULT: -7.530036290      1.992      4.013
REMARK  0 active torsions:
REMARK  status: ('A' for Active; 'I' for Inactive)
ROOT
HETATM    1  N1  UNL     1      18.880 -21.042  20.996  1.00  0.00    -0.233 N 
ATOM      2  H11 UNL     1      17.953 -20.784  20.657  1.00  0.00     0.174 HD
ATOM      3  H12 UNL     1      19.497 -21.817  20.749  1.00  0.00     0.174 HD
HETATM    4  C1  UNL     1      19.387 -20.264  21.895  1.00  0.00     0.693 C 
HETATM    5  N2  UNL     1      20.675 -20.623  22.365  1.00  0.00    -0.128 N 
ATOM      6  H2  UNL     1      21.087 -21.380  21.820  1.00  0.00     0.205 HD
HETATM    7  N3  UNL     1      21.530 -20.187  23.407  1.00  0.00    -0.237 N 
ATOM      8  H3  UNL     1      22.500 -20.457  23.245  1.00  0.00     0.192 HD
HETATM    9  C2  UNL     1      21.370 -19.467  24.625  1.00  0.00     0.342 C 
HETATM   10  O1  UNL     1      22.393 -19.523  25.350  1.00  0.00    -0.245 OA
HETATM   11  N4  UNL     1      20.293 -18.710  25.169  1.00  0.00    -0.270 N 
ATOM     12  H4  UNL     1      20.377 -18.567  26.176  1.00  0.00     0.174 HD
HETATM   13  C3  UNL     1      19.127 -18.108  24.621  1.00  0.00     0.318 C 
HETATM   14  O2  UNL     1      18.565 -17.303  25.407  1.00  0.00    -0.262 OA
HETATM   15  C4  UNL     1      18.460 -18.244  23.330  1.00  0.00     0.328 C 
HETATM   16  O3  UNL     1      17.629 -17.329  23.110  1.00  0.00    -0.261 OA
HETATM   17  N5  UNL     1      18.523 -19.178  22.240  1.00  0.00    -0.150 N 
ATOM     18  H5  UNL     1      17.781 -19.033  21.555  1.00  0.00     0.188 HD
ENDROOT
TORSDOF 0
ENDMDL
MODEL 4
REMARK VINA RESULT: -7.057600315      2.627      3.880
REMARK  0 active torsions:
REMARK  status: ('A' for Active; 'I' for Inactive)
ROOT
HETATM    1  N1  UNL     1      18.758 -17.281  25.163  1.00  0.00    -0.233 N 
ATOM      2  H11 UNL     1      18.345 -16.350  25.126  1.00  0.00     0.174 HD
ATOM      3  H12 UNL     1      19.232 -17.779  25.917  1.00  0.00     0.174 HD
HETATM    4  C1  UNL     1      18.678 -17.976  24.075  1.00  0.00     0.693 C 
HETATM    5  N2  UNL     1      19.253 -19.271  24.128  1.00  0.00    -0.128 N 
ATOM      6  H2  UNL     1      19.533 -19.529  25.075  1.00  0.00     0.205 HD
HETATM    7  N3  UNL     1      19.535 -20.292  23.188  1.00  0.00    -0.237 N 
ATOM      8  H3  UNL     1      19.657 -21.201  23.635  1.00  0.00     0.192 HD
HETATM    9  C2  UNL     1      19.689 -20.365  21.775  1.00  0.00     0.342 C 
HETATM   10  O1  UNL     1      20.173 -21.461  21.403  1.00  0.00    -0.245 OA
HETATM   11  N4  UNL     1      19.405 -19.449  20.720  1.00  0.00    -0.270 N 
ATOM     12  H4  UNL     1      19.896 -19.676  19.855  1.00  0.00     0.174 HD
HETATM   13  C3  UNL     1      18.590 -18.290  20.606  1.00  0.00     0.318 C 
HETATM   14  O2  UNL     1      18.415 -17.919  19.417  1.00  0.00    -0.262 OA
HETATM   15  C4  UNL     1      17.920 -17.452  21.596  1.00  0.00     0.328 C 
HETATM   16  O3  UNL     1      17.052 -16.698  21.092  1.00  0.00    -0.261 OA
HETATM   17  N5  UNL     1      18.013 -17.279  23.019  1.00  0.00    -0.150 N 
ATOM     18  H5  UNL     1      17.482 -16.473  23.353  1.00  0.00     0.188 HD
ENDROOT
TORSDOF 0
ENDMDL
MODEL 5
REMARK VINA RESULT: -6.953581643      1.415      3.397
REMARK  0 active torsions:
REMARK  status: ('A' for Active; 'I' for Inactive)
ROOT
HETATM    1  N1  UNL     1      17.437 -17.591  21.624  1.00  0.00    -0.233 N 
ATOM      2  H11 UNL     1      17.522 -18.135  20.765  1.00  0.00     0.174 HD
ATOM      3  H12 UNL     1      16.861 -16.782  21.855  1.00  0.00     0.174 HD
HETATM    4  C1  UNL     1      18.180 -17.978  22.609  1.00  0.00     0.693 C 
HETATM    5  N2  UNL     1      18.061 -17.221  23.803  1.00  0.00    -0.128 N 
ATOM      6  H2  UNL     1      17.293 -16.552  23.759  1.00  0.00     0.205 HD
HETATM    7  N3  UNL     1      18.749 -17.169  25.040  1.00  0.00    -0.237 N 
ATOM      8  H3  UNL     1      18.190 -16.731  25.771  1.00  0.00     0.192 HD
HETATM    9  C2  UNL     1      20.027 -17.576  25.515  1.00  0.00     0.342 C 
HETATM   10  O1  UNL     1      20.289 -17.103  26.648  1.00  0.00    -0.245 OA
HETATM   11  N4  UNL     1      21.049 -18.402  24.963  1.00  0.00    -0.270 N 
ATOM     12  H4  UNL     1      21.956 -18.263  25.409  1.00  0.00     0.174 HD
HETATM   13  C3  UNL     1      21.085 -19.377  23.929  1.00  0.00     0.318 C 
HETATM   14  O2  UNL     1      22.138 -20.067  23.931  1.00  0.00    -0.262 OA
HETATM   15  C4  UNL     1      20.144 -19.730  22.871  1.00  0.00     0.328 C 
HETATM   16  O3  UNL     1      20.398 -20.839  22.340  1.00  0.00    -0.261 OA
HETATM   17  N5  UNL     1      18.987 -19.112  22.284  1.00  0.00    -0.150 N 
ATOM     18  H5  UNL     1      18.668 -19.594  21.443  1.00  0.00     0.188 HD
ENDROOT
TORSDOF 0
ENDMDL
