MODEL 1
REMARK VINA RESULT: -7.486092681      0.000      0.000
REMARK  1 active torsions:
REMARK  status: ('A' for Active; 'I' for Inactive)
REMARK       I    between atoms: C1_4  and  N3_6 
REMARK    1  A    between atoms: N3_6  and  C2_8 
ROOT
HETATM    1  C2  UNL     1      20.050 -19.738  22.731  1.00  0.00     0.182 A 
HETATM    2  N4  UNL     1      20.998 -20.261  23.512  1.00  0.00    -0.289 N 
ATOM      3  H4  UNL     1      21.274 -21.240  23.434  1.00  0.00     0.172 HD
HETATM    4  C3  UNL     1      21.578 -19.430  24.416  1.00  0.00     0.340 A 
HETATM    5  O1  UNL     1      22.488 -19.918  25.171  1.00  0.00    -0.245 OA
HETATM    6  N5  UNL     1      21.231 -18.136  24.536  1.00  0.00    -0.248 N 
ATOM      7  H5  UNL     1      21.700 -17.556  25.231  1.00  0.00     0.192 HD
HETATM    8  N6  UNL     1      20.293 -17.600  23.770  1.00  0.00    -0.259 N 
ATOM      9  H6  UNL     1      20.027 -16.619  23.861  1.00  0.00     0.190 HD
HETATM   10  C4  UNL     1      19.700 -18.413  22.860  1.00  0.00     0.304 A 
HETATM   11  O2  UNL     1      18.797 -17.948  22.103  1.00  0.00    -0.263 OA
ENDROOT
BRANCH   1  12
HETATM   12  N3  UNL     1      19.452 -20.473  21.845  1.00  0.00    -0.312 N 
HETATM   13  C1  UNL     1      20.148 -21.040  20.739  1.00  0.00     0.187 C 
HETATM   14  N1  UNL     1      20.475 -20.334  19.715  1.00  0.00    -0.373 N 
HETATM   15  N2  UNL     1      20.475 -22.419  20.793  1.00  0.00    -0.064 NA
ATOM     16  H12 UNL     1      20.972 -20.740  18.923  1.00  0.00     0.158 HD
ATOM     17  H11 UNL     1      20.239 -19.342  19.676  1.00  0.00     0.158 HD
ATOM     18  H3  UNL     1      18.453 -20.651  21.944  1.00  0.00     0.170 HD
ENDBRANCH   1  12
TORSDOF 1
ENDMDL
MODEL 2
REMARK VINA RESULT: -7.069518899      0.956      1.014
REMARK  1 active torsions:
REMARK  status: ('A' for Active; 'I' for Inactive)
REMARK       I    between atoms: C1_4  and  N3_6 
REMARK    1  A    between atoms: N3_6  and  C2_8 
ROOT
HETATM    1  C2  UNL     1      19.609 -19.992  22.093  1.00  0.00     0.182 A 
HETATM    2  N4  UNL     1      20.757 -20.121  22.763  1.00  0.00    -0.289 N 
ATOM      3  H4  UNL     1      21.323 -20.967  22.693  1.00  0.00     0.172 HD
HETATM    4  C3  UNL     1      21.137 -19.075  23.540  1.00  0.00     0.340 A 
HETATM    5  O1  UNL     1      22.234 -19.186  24.187  1.00  0.00    -0.245 OA
HETATM    6  N5  UNL     1      20.408 -17.950  23.647  1.00  0.00    -0.248 N 
ATOM      7  H5  UNL     1      20.740 -17.194  24.244  1.00  0.00     0.192 HD
HETATM    8  N6  UNL     1      19.266 -17.803  22.991  1.00  0.00    -0.259 N 
ATOM      9  H6  UNL     1      18.711 -16.952  23.071  1.00  0.00     0.190 HD
HETATM   10  C4  UNL     1      18.868 -18.837  22.207  1.00  0.00     0.304 A 
HETATM   11  O2  UNL     1      17.784 -18.747  21.558  1.00  0.00    -0.263 OA
ENDROOT
BRANCH   1  12
HETATM   12  N3  UNL     1      19.184 -20.951  21.331  1.00  0.00    -0.312 N 
HETATM   13  C1  UNL     1      20.004 -21.538  20.325  1.00  0.00     0.187 C 
HETATM   14  N1  UNL     1      20.224 -20.946  19.205  1.00  0.00    -0.373 N 
HETATM   15  N2  UNL     1      20.580 -22.807  20.591  1.00  0.00    -0.064 NA
ATOM     16  H12 UNL     1      20.811 -21.367  18.484  1.00  0.00     0.158 HD
ATOM     17  H11 UNL     1      19.810 -20.034  19.014  1.00  0.00     0.158 HD
ATOM     18  H3  UNL     1      18.233 -21.296  21.456  1.00  0.00     0.170 HD
ENDBRANCH   1  12
TORSDOF 1
ENDMDL
MODEL 3
REMARK VINA RESULT: -6.990276803      1.498      1.876
REMARK  1 active torsions:
REMARK  status: ('A' for Active; 'I' for Inactive)
REMARK       I    between atoms: C1_4  and  N3_6 
REMARK    1  A    between atoms: N3_6  and  C2_8 
ROOT
HETATM    1  C2  UNL     1      19.879 -18.321  23.154  1.00  0.00     0.182 A 
HETATM    2  N4  UNL     1      21.021 -18.462  23.831  1.00  0.00    -0.289 N 
ATOM      3  H4  UNL     1      21.844 -18.887  23.405  1.00  0.00     0.172 HD
HETATM    4  C3  UNL     1      21.035 -18.015  25.113  1.00  0.00     0.340 A 
HETATM    5  O1  UNL     1      22.123 -18.144  25.773  1.00  0.00    -0.245 OA
HETATM    6  N5  UNL     1      19.962 -17.451  25.695  1.00  0.00    -0.248 N 
ATOM      7  H5  UNL     1      20.028 -17.130  26.661  1.00  0.00     0.192 HD
HETATM    8  N6  UNL     1      18.821 -17.302  25.039  1.00  0.00    -0.259 N 
ATOM      9  H6  UNL     1      18.006 -16.875  25.479  1.00  0.00     0.190 HD
HETATM   10  C4  UNL     1      18.785 -17.742  23.756  1.00  0.00     0.304 A 
HETATM   11  O2  UNL     1      17.717 -17.623  23.085  1.00  0.00    -0.263 OA
ENDROOT
BRANCH   1  12
HETATM   12  N3  UNL     1      19.792 -18.726  21.925  1.00  0.00    -0.312 N 
HETATM   13  C1  UNL     1      19.531 -20.087  21.594  1.00  0.00     0.187 C 
HETATM   14  N1  UNL     1      20.447 -20.986  21.670  1.00  0.00    -0.373 N 
HETATM   15  N2  UNL     1      18.221 -20.431  21.174  1.00  0.00    -0.064 NA
ATOM     16  H12 UNL     1      20.260 -21.961  21.433  1.00  0.00     0.158 HD
ATOM     17  H11 UNL     1      21.389 -20.738  21.972  1.00  0.00     0.158 HD
ATOM     18  H3  UNL     1      19.915 -18.050  21.172  1.00  0.00     0.170 HD
ENDBRANCH   1  12
TORSDOF 1
ENDMDL
MODEL 4
REMARK VINA RESULT: -6.832282097      1.159      1.169
REMARK  1 active torsions:
REMARK  status: ('A' for Active; 'I' for Inactive)
REMARK       I    between atoms: C1_4  and  N3_6 
REMARK    1  A    between atoms: N3_6  and  C2_8 
ROOT
HETATM    1  C2  UNL     1      19.623 -19.095  23.401  1.00  0.00     0.182 A 
HETATM    2  N4  UNL     1      20.773 -19.588  23.868  1.00  0.00    -0.289 N 
ATOM      3  H4  UNL     1      21.240 -20.373  23.414  1.00  0.00     0.172 HD
HETATM    4  C3  UNL     1      21.290 -18.998  24.976  1.00  0.00     0.340 A 
HETATM    5  O1  UNL     1      22.391 -19.460  25.434  1.00  0.00    -0.245 OA
HETATM    6  N5  UNL     1      20.692 -17.962  25.591  1.00  0.00    -0.248 N 
ATOM      7  H5  UNL     1      21.126 -17.555  26.419  1.00  0.00     0.192 HD
HETATM    8  N6  UNL     1      19.552 -17.459  25.142  1.00  0.00    -0.259 N 
ATOM      9  H6  UNL     1      19.096 -16.675  25.607  1.00  0.00     0.190 HD
HETATM   10  C4  UNL     1      19.017 -18.035  24.035  1.00  0.00     0.304 A 
HETATM   11  O2  UNL     1      17.927 -17.591  23.566  1.00  0.00    -0.263 OA
ENDROOT
BRANCH   1  12
HETATM   12  N3  UNL     1      19.070 -19.610  22.347  1.00  0.00    -0.312 N 
HETATM   13  C1  UNL     1      19.840 -20.132  21.268  1.00  0.00     0.187 C 
HETATM   14  N1  UNL     1      20.408 -19.360  20.410  1.00  0.00    -0.373 N 
HETATM   15  N2  UNL     1      19.966 -21.541  21.159  1.00  0.00    -0.064 NA
ATOM     16  H12 UNL     1      20.959 -19.735  19.637  1.00  0.00     0.158 HD
ATOM     17  H11 UNL     1      20.317 -18.348  20.489  1.00  0.00     0.158 HD
ATOM     18  H3  UNL     1      18.053 -19.642  22.289  1.00  0.00     0.170 HD
ENDBRANCH   1  12
TORSDOF 1
ENDMDL
MODEL 5
REMARK VINA RESULT: -6.785396790      1.601      2.950
REMARK  1 active torsions:
REMARK  status: ('A' for Active; 'I' for Inactive)
REMARK       I    between atoms: C1_4  and  N3_6 
REMARK    1  A    between atoms: N3_6  and  C2_8 
ROOT
HETATM    1  C2  UNL     1      20.600 -18.820  23.346  1.00  0.00     0.182 A 
HETATM    2  N4  UNL     1      19.478 -18.108  23.470  1.00  0.00    -0.289 N 
ATOM      3  H4  UNL     1      18.955 -17.789  22.655  1.00  0.00     0.172 HD
HETATM    4  C3  UNL     1      19.064 -17.827  24.733  1.00  0.00     0.340 A 
HETATM    5  O1  UNL     1      17.991 -17.145  24.867  1.00  0.00    -0.245 OA
HETATM    6  N5  UNL     1      19.736 -18.238  25.823  1.00  0.00    -0.248 N 
ATOM      7  H5  UNL     1      19.380 -18.001  26.748  1.00  0.00     0.192 HD
HETATM    8  N6  UNL     1      20.852 -18.945  25.719  1.00  0.00    -0.259 N 
ATOM      9  H6  UNL     1      21.364 -19.257  26.545  1.00  0.00     0.190 HD
HETATM   10  C4  UNL     1      21.283 -19.237  24.466  1.00  0.00     0.304 A 
HETATM   11  O2  UNL     1      22.344 -19.912  24.313  1.00  0.00    -0.263 OA
ENDROOT
BRANCH   1  12
HETATM   12  N3  UNL     1      21.055 -19.125  22.171  1.00  0.00    -0.312 N 
HETATM   13  C1  UNL     1      20.251 -19.783  21.196  1.00  0.00     0.187 C 
HETATM   14  N1  UNL     1      20.006 -21.044  21.264  1.00  0.00    -0.373 N 
HETATM   15  N2  UNL     1      19.721 -19.006  20.134  1.00  0.00    -0.064 NA
ATOM     16  H12 UNL     1      19.431 -21.515  20.566  1.00  0.00     0.158 HD
ATOM     17  H11 UNL     1      20.387 -21.602  22.027  1.00  0.00     0.158 HD
ATOM     18  H3  UNL     1      22.019 -18.887  21.936  1.00  0.00     0.170 HD
ENDBRANCH   1  12
TORSDOF 1
ENDMDL
