MODEL 1
REMARK VINA RESULT: -7.726869093      0.000      0.000
REMARK  2 active torsions:
REMARK  status: ('A' for Active; 'I' for Inactive)
REMARK    1  A    between atoms: N1_1  and  C1_4 
REMARK       I    between atoms: N5_14  and  C4_16 
REMARK    2  A    between atoms: C4_16  and  C5_18 
ROOT
HETATM    1  C1  UNL     1      19.705 -18.144  23.921  1.00  0.00     0.149 A 
HETATM    2  N2  UNL     1      20.486 -17.991  25.006  1.00  0.00    -0.291 N 
ATOM      3  H2  UNL     1      20.188 -17.398  25.781  1.00  0.00     0.172 HD
HETATM    4  C2  UNL     1      21.662 -18.633  25.050  1.00  0.00     0.340 A 
HETATM    5  O1  UNL     1      22.369 -18.471  26.076  1.00  0.00    -0.245 OA
HETATM    6  N3  UNL     1      22.031 -19.408  24.018  1.00  0.00    -0.250 N 
ATOM      7  H3  UNL     1      22.928 -19.890  24.067  1.00  0.00     0.192 HD
HETATM    8  N4  UNL     1      21.281 -19.574  22.940  1.00  0.00    -0.278 N 
ATOM      9  H4  UNL     1      21.598 -20.172  22.177  1.00  0.00     0.189 HD
HETATM   10  C3  UNL     1      20.095 -18.945  22.864  1.00  0.00     0.167 A 
HETATM   11  N5  UNL     1      19.295 -19.039  21.867  1.00  0.00    -0.301 N 
ATOM     12  H5  UNL     1      18.422 -18.514  21.920  1.00  0.00     0.171 HD
HETATM   13  C4  UNL     1      19.514 -19.798  20.711  1.00  0.00     0.312 C 
HETATM   14  O2  UNL     1      19.789 -19.254  19.612  1.00  0.00    -0.262 OA
ENDROOT
BRANCH   1  15
HETATM   15  N1  UNL     1      18.562 -17.502  23.910  1.00  0.00    -0.382 N 
ATOM     16  H12 UNL     1      18.438 -16.625  24.416  1.00  0.00     0.157 HD
ATOM     17  H11 UNL     1      17.799 -17.917  23.375  1.00  0.00     0.157 HD
ENDBRANCH   1  15
BRANCH  13  18
HETATM   18  C5  UNL     1      19.433 -21.252  20.730  1.00  0.00     0.322 C 
HETATM   19  N6  UNL     1      20.588 -22.076  20.649  1.00  0.00    -0.053 NA
HETATM   20  O3  UNL     1      18.290 -21.815  20.823  1.00  0.00    -0.266 OA
ENDBRANCH  13  18
TORSDOF 2
ENDMDL
MODEL 2
REMARK VINA RESULT: -7.344022228      1.383      2.594
REMARK  2 active torsions:
REMARK  status: ('A' for Active; 'I' for Inactive)
REMARK    1  A    between atoms: N1_1  and  C1_4 
REMARK       I    between atoms: N5_14  and  C4_16 
REMARK    2  A    between atoms: C4_16  and  C5_18 
ROOT
HETATM    1  C1  UNL     1      21.328 -19.688  24.144  1.00  0.00     0.149 A 
HETATM    2  N2  UNL     1      21.351 -18.785  25.142  1.00  0.00    -0.291 N 
ATOM      3  H2  UNL     1      22.014 -18.879  25.912  1.00  0.00     0.172 HD
HETATM    4  C2  UNL     1      20.488 -17.760  25.105  1.00  0.00     0.340 A 
HETATM    5  O1  UNL     1      20.534 -16.933  26.051  1.00  0.00    -0.245 OA
HETATM    6  N3  UNL     1      19.626 -17.659  24.081  1.00  0.00    -0.250 N 
ATOM      7  H3  UNL     1      18.976 -16.873  24.067  1.00  0.00     0.192 HD
HETATM    8  N4  UNL     1      19.583 -18.533  23.088  1.00  0.00    -0.278 N 
ATOM      9  H4  UNL     1      18.913 -18.420  22.328  1.00  0.00     0.189 HD
HETATM   10  C3  UNL     1      20.436 -19.573  23.094  1.00  0.00     0.167 A 
HETATM   11  N5  UNL     1      20.476 -20.474  22.183  1.00  0.00    -0.301 N 
ATOM     12  H5  UNL     1      21.166 -21.217  22.295  1.00  0.00     0.171 HD
HETATM   13  C4  UNL     1      19.657 -20.527  21.049  1.00  0.00     0.312 C 
HETATM   14  O2  UNL     1      18.738 -21.377  20.943  1.00  0.00    -0.262 OA
ENDROOT
BRANCH   1  15
HETATM   15  N1  UNL     1      22.185 -20.677  24.212  1.00  0.00    -0.382 N 
ATOM     16  H12 UNL     1      23.067 -20.586  24.715  1.00  0.00     0.157 HD
ATOM     17  H11 UNL     1      21.932 -21.545  23.739  1.00  0.00     0.157 HD
ENDBRANCH   1  15
BRANCH  13  18
HETATM   18  C5  UNL     1      19.835 -19.599  19.940  1.00  0.00     0.322 C 
HETATM   19  N6  UNL     1      19.393 -18.250  20.004  1.00  0.00    -0.053 NA
HETATM   20  O3  UNL     1      20.404 -20.003  18.870  1.00  0.00    -0.266 OA
ENDBRANCH  13  18
TORSDOF 2
ENDMDL
MODEL 3
REMARK VINA RESULT: -7.311349167      1.711      2.779
REMARK  2 active torsions:
REMARK  status: ('A' for Active; 'I' for Inactive)
REMARK    1  A    between atoms: N1_1  and  C1_4 
REMARK       I    between atoms: N5_14  and  C4_16 
REMARK    2  A    between atoms: C4_16  and  C5_18 
ROOT
HETATM    1  C1  UNL     1      20.608 -19.594  23.402  1.00  0.00     0.149 A 
HETATM    2  N2  UNL     1      20.922 -18.963  24.548  1.00  0.00    -0.291 N 
ATOM      3  H2  UNL     1      21.560 -19.392  25.219  1.00  0.00     0.172 HD
HETATM    4  C2  UNL     1      20.379 -17.762  24.794  1.00  0.00     0.340 A 
HETATM    5  O1  UNL     1      20.691 -17.198  25.873  1.00  0.00    -0.245 OA
HETATM    6  N3  UNL     1      19.542 -17.220  23.896  1.00  0.00    -0.250 N 
ATOM      7  H3  UNL     1      19.138 -16.305  24.097  1.00  0.00     0.192 HD
HETATM    8  N4  UNL     1      19.217 -17.819  22.761  1.00  0.00    -0.278 N 
ATOM      9  H4  UNL     1      18.577 -17.373  22.105  1.00  0.00     0.189 HD
HETATM   10  C3  UNL     1      19.744 -19.025  22.484  1.00  0.00     0.167 A 
HETATM   11  N5  UNL     1      19.496 -19.689  21.416  1.00  0.00    -0.301 N 
ATOM     12  H5  UNL     1      19.953 -20.596  21.315  1.00  0.00     0.171 HD
HETATM   13  C4  UNL     1      18.652 -19.280  20.377  1.00  0.00     0.312 C 
HETATM   14  O2  UNL     1      17.528 -19.813  20.197  1.00  0.00    -0.262 OA
ENDROOT
BRANCH   1  15
HETATM   15  N1  UNL     1      21.155 -20.766  23.194  1.00  0.00    -0.382 N 
ATOM     16  H12 UNL     1      21.504 -21.336  23.965  1.00  0.00     0.157 HD
ATOM     17  H11 UNL     1      21.218 -21.087  22.228  1.00  0.00     0.157 HD
ENDBRANCH   1  15
BRANCH  13  18
HETATM   18  C5  UNL     1      19.039 -18.219  19.457  1.00  0.00     0.322 C 
HETATM   19  N6  UNL     1      20.355 -18.119  18.929  1.00  0.00    -0.053 NA
HETATM   20  O3  UNL     1      18.176 -17.345  19.109  1.00  0.00    -0.266 OA
ENDBRANCH  13  18
TORSDOF 2
ENDMDL
MODEL 4
REMARK VINA RESULT: -7.297052095      1.984      3.269
REMARK  2 active torsions:
REMARK  status: ('A' for Active; 'I' for Inactive)
REMARK    1  A    between atoms: N1_1  and  C1_4 
REMARK       I    between atoms: N5_14  and  C4_16 
REMARK    2  A    between atoms: C4_16  and  C5_18 
ROOT
HETATM    1  C1  UNL     1      19.893 -19.494  23.172  1.00  0.00     0.149 A 
HETATM    2  N2  UNL     1      19.712 -18.880  24.356  1.00  0.00    -0.291 N 
ATOM      3  H2  UNL     1      20.211 -19.199  25.187  1.00  0.00     0.172 HD
HETATM    4  C2  UNL     1      18.866 -17.844  24.424  1.00  0.00     0.340 A 
HETATM    5  O1  UNL     1      18.718 -17.291  25.543  1.00  0.00    -0.245 OA
HETATM    6  N3  UNL     1      18.221 -17.444  23.316  1.00  0.00    -0.250 N 
ATOM      7  H3  UNL     1      17.581 -16.653  23.383  1.00  0.00     0.192 HD
HETATM    8  N4  UNL     1      18.381 -18.030  22.140  1.00  0.00    -0.278 N 
ATOM      9  H4  UNL     1      17.872 -17.696  21.322  1.00  0.00     0.189 HD
HETATM   10  C3  UNL     1      19.223 -19.074  22.038  1.00  0.00     0.167 A 
HETATM   11  N5  UNL     1      19.449 -19.710  20.948  1.00  0.00    -0.301 N 
ATOM     12  H5  UNL     1      20.109 -20.487  20.992  1.00  0.00     0.171 HD
HETATM   13  C4  UNL     1      18.870 -19.433  19.704  1.00  0.00     0.312 C 
HETATM   14  O2  UNL     1      17.995 -20.186  19.206  1.00  0.00    -0.262 OA
ENDROOT
BRANCH   1  15
HETATM   15  N1  UNL     1      20.726 -20.504  23.142  1.00  0.00    -0.382 N 
ATOM     16  H12 UNL     1      20.656 -21.275  23.807  1.00  0.00     0.157 HD
ATOM     17  H11 UNL     1      21.452 -20.489  22.425  1.00  0.00     0.157 HD
ENDBRANCH   1  15
BRANCH  13  18
HETATM   18  C5  UNL     1      19.255 -18.260  18.932  1.00  0.00     0.322 C 
HETATM   19  N6  UNL     1      18.295 -17.403  18.327  1.00  0.00    -0.053 NA
HETATM   20  O3  UNL     1      20.493 -17.985  18.785  1.00  0.00    -0.266 OA
ENDBRANCH  13  18
TORSDOF 2
ENDMDL
MODEL 5
REMARK VINA RESULT: -7.135291402      1.750      4.851
REMARK  2 active torsions:
REMARK  status: ('A' for Active; 'I' for Inactive)
REMARK    1  A    between atoms: N1_1  and  C1_4 
REMARK       I    between atoms: N5_14  and  C4_16 
REMARK    2  A    between atoms: C4_16  and  C5_18 
ROOT
HETATM    1  C1  UNL     1      19.917 -19.344  20.436  1.00  0.00     0.149 A 
HETATM    2  N2  UNL     1      20.058 -20.295  19.494  1.00  0.00    -0.291 N 
ATOM      3  H2  UNL     1      19.847 -20.092  18.517  1.00  0.00     0.172 HD
HETATM    4  C2  UNL     1      20.479 -21.512  19.864  1.00  0.00     0.340 A 
HETATM    5  O1  UNL     1      20.600 -22.379  18.962  1.00  0.00    -0.245 OA
HETATM    6  N3  UNL     1      20.750 -21.753  21.157  1.00  0.00    -0.250 N 
ATOM      7  H3  UNL     1      21.070 -22.685  21.422  1.00  0.00     0.192 HD
HETATM    8  N4  UNL     1      20.620 -20.836  22.102  1.00  0.00    -0.278 N 
ATOM      9  H4  UNL     1      20.836 -21.060  23.073  1.00  0.00     0.189 HD
HETATM   10  C3  UNL     1      20.199 -19.604  21.765  1.00  0.00     0.167 A 
HETATM   11  N5  UNL     1      20.041 -18.646  22.601  1.00  0.00    -0.301 N 
ATOM     12  H5  UNL     1      19.715 -17.753  22.229  1.00  0.00     0.171 HD
HETATM   13  C4  UNL     1      20.274 -18.716  23.980  1.00  0.00     0.312 C 
HETATM   14  O2  UNL     1      19.327 -18.733  24.805  1.00  0.00    -0.262 OA
ENDROOT
BRANCH   1  15
HETATM   15  N1  UNL     1      19.503 -18.165  20.041  1.00  0.00    -0.382 N 
ATOM     16  H12 UNL     1      19.801 -17.310  20.510  1.00  0.00     0.157 HD
ATOM     17  H11 UNL     1      18.868 -18.138  19.242  1.00  0.00     0.157 HD
ENDBRANCH   1  15
BRANCH  13  18
HETATM   18  C5  UNL     1      21.626 -18.773  24.519  1.00  0.00     0.322 C 
HETATM   19  N6  UNL     1      22.387 -19.974  24.530  1.00  0.00    -0.053 NA
HETATM   20  O3  UNL     1      22.154 -17.715  25.001  1.00  0.00    -0.266 OA
ENDBRANCH  13  18
TORSDOF 2
ENDMDL
