MODEL 1
REMARK VINA RESULT: -7.263455475      0.000      0.000
REMARK  3 active torsions:
REMARK  status: ('A' for Active; 'I' for Inactive)
REMARK    1  A    between atoms: N1_2  and  O1_3 
REMARK    2  A    between atoms: N1_2  and  C2_5 
REMARK    3  A    between atoms: C3_8  and  N3_9 
ROOT
HETATM    1  C2  UNL     1      19.311 -18.549  22.788  1.00  0.00     0.211 C 
HETATM    2  N2  UNL     1      19.262 -17.769  23.881  1.00  0.00    -0.169 N 
ATOM      3  H2  UNL     1      18.510 -17.080  23.890  1.00  0.00     0.186 HD
HETATM    4  C3  UNL     1      20.070 -17.762  24.979  1.00  0.00     0.681 C 
HETATM    5  N4  UNL     1      21.049 -18.641  25.260  1.00  0.00    -0.141 N 
ATOM      6  H4  UNL     1      21.449 -18.558  26.194  1.00  0.00     0.189 HD
HETATM    7  C4  UNL     1      21.590 -19.624  24.487  1.00  0.00     0.341 C 
HETATM    8  O2  UNL     1      22.708 -20.060  24.863  1.00  0.00    -0.246 OA
HETATM    9  N5  UNL     1      21.039 -20.166  23.364  1.00  0.00    -0.272 N 
ATOM     10  H5  UNL     1      21.543 -20.954  22.956  1.00  0.00     0.174 HD
HETATM   11  C5  UNL     1      19.905 -19.791  22.720  1.00  0.00     0.296 C 
HETATM   12  O3  UNL     1      19.347 -20.657  21.997  1.00  0.00    -0.264 OA
ENDROOT
BRANCH   1  13
HETATM   13  N1  UNL     1      18.744 -18.088  21.730  1.00  0.00    -0.244 N 
HETATM   14  C1  UNL     1      17.441 -17.479  21.663  1.00  0.00     0.187 C 
BRANCH  13  15
HETATM   15  O1  UNL     1      19.442 -18.168  20.520  1.00  0.00    -0.286 OA
ATOM     16  H1  UNL     1      19.610 -19.045  20.195  1.00  0.00     0.244 HD
ENDBRANCH  13  15
ENDBRANCH   1  13
BRANCH   4  17
HETATM   17  N3  UNL     1      19.859 -16.812  25.824  1.00  0.00    -0.234 N 
ATOM     18  H32 UNL     1      18.978 -16.304  25.755  1.00  0.00     0.174 HD
ATOM     19  H31 UNL     1      20.605 -16.647  26.501  1.00  0.00     0.174 HD
ENDBRANCH   4  17
TORSDOF 3
ENDMDL
MODEL 2
REMARK VINA RESULT: -6.840905552      2.132      4.605
REMARK  3 active torsions:
REMARK  status: ('A' for Active; 'I' for Inactive)
REMARK    1  A    between atoms: N1_2  and  O1_3 
REMARK    2  A    between atoms: N1_2  and  C2_5 
REMARK    3  A    between atoms: C3_8  and  N3_9 
ROOT
HETATM    1  C2  UNL     1      20.082 -18.420  24.269  1.00  0.00     0.211 C 
HETATM    2  N2  UNL     1      20.134 -19.480  23.444  1.00  0.00    -0.169 N 
ATOM      3  H2  UNL     1      20.862 -20.162  23.658  1.00  0.00     0.186 HD
HETATM    4  C3  UNL     1      19.358 -19.779  22.364  1.00  0.00     0.681 C 
HETATM    5  N4  UNL     1      18.267 -19.108  21.950  1.00  0.00    -0.141 N 
ATOM      6  H4  UNL     1      17.737 -19.563  21.208  1.00  0.00     0.189 HD
HETATM    7  C4  UNL     1      17.763 -17.914  22.370  1.00  0.00     0.341 C 
HETATM    8  O2  UNL     1      16.947 -17.362  21.590  1.00  0.00    -0.246 OA
HETATM    9  N5  UNL     1      18.060 -17.276  23.538  1.00  0.00    -0.272 N 
ATOM     10  H5  UNL     1      17.525 -16.429  23.731  1.00  0.00     0.174 HD
HETATM   11  C5  UNL     1      18.976 -17.625  24.476  1.00  0.00     0.296 C 
HETATM   12  O3  UNL     1      18.795 -17.182  25.641  1.00  0.00    -0.264 OA
ENDROOT
BRANCH   1  13
HETATM   13  N1  UNL     1      21.158 -18.145  24.917  1.00  0.00    -0.244 N 
HETATM   14  C1  UNL     1      21.960 -19.079  25.663  1.00  0.00     0.187 C 
BRANCH  13  15
HETATM   15  O1  UNL     1      21.617 -16.823  24.902  1.00  0.00    -0.286 OA
ATOM     16  H1  UNL     1      22.112 -16.566  24.133  1.00  0.00     0.244 HD
ENDBRANCH  13  15
ENDBRANCH   1  13
BRANCH   4  17
HETATM   17  N3  UNL     1      19.719 -20.811  21.681  1.00  0.00    -0.234 N 
ATOM     18  H32 UNL     1      20.111 -21.602  22.192  1.00  0.00     0.174 HD
ATOM     19  H31 UNL     1      19.580 -20.747  20.673  1.00  0.00     0.174 HD
ENDBRANCH   4  17
TORSDOF 3
ENDMDL
MODEL 3
REMARK VINA RESULT: -6.803887248      1.601      3.771
REMARK  3 active torsions:
REMARK  status: ('A' for Active; 'I' for Inactive)
REMARK    1  A    between atoms: N1_2  and  O1_3 
REMARK    2  A    between atoms: N1_2  and  C2_5 
REMARK    3  A    between atoms: C3_8  and  N3_9 
ROOT
HETATM    1  C2  UNL     1      19.796 -18.104  23.525  1.00  0.00     0.211 C 
HETATM    2  N2  UNL     1      18.898 -17.478  22.744  1.00  0.00    -0.169 N 
ATOM      3  H2  UNL     1      18.773 -16.484  22.936  1.00  0.00     0.186 HD
HETATM    4  C3  UNL     1      18.129 -17.976  21.734  1.00  0.00     0.681 C 
HETATM    5  N4  UNL     1      18.192 -19.215  21.214  1.00  0.00    -0.141 N 
ATOM      6  H4  UNL     1      17.637 -19.358  20.371  1.00  0.00     0.189 HD
HETATM    7  C4  UNL     1      18.884 -20.309  21.642  1.00  0.00     0.341 C 
HETATM    8  O2  UNL     1      18.497 -21.412  21.180  1.00  0.00    -0.246 OA
HETATM    9  N5  UNL     1      19.936 -20.313  22.509  1.00  0.00    -0.272 N 
ATOM     10  H5  UNL     1      20.389 -21.215  22.654  1.00  0.00     0.174 HD
HETATM   11  C5  UNL     1      20.456 -19.270  23.203  1.00  0.00     0.296 C 
HETATM   12  O3  UNL     1      21.650 -19.379  23.587  1.00  0.00    -0.264 OA
ENDROOT
BRANCH   1  13
HETATM   13  N1  UNL     1      20.054 -17.551  24.657  1.00  0.00    -0.244 N 
HETATM   14  C1  UNL     1      19.150 -17.436  25.771  1.00  0.00     0.187 C 
BRANCH  13  15
HETATM   15  O1  UNL     1      21.331 -17.011  24.850  1.00  0.00    -0.286 OA
ATOM     16  H1  UNL     1      21.832 -17.379  25.568  1.00  0.00     0.244 HD
ENDBRANCH  13  15
ENDBRANCH   1  13
BRANCH   4  17
HETATM   17  N3  UNL     1      17.260 -17.163  21.238  1.00  0.00    -0.234 N 
ATOM     18  H32 UNL     1      17.513 -16.176  21.183  1.00  0.00     0.174 HD
ATOM     19  H31 UNL     1      16.380 -17.583  20.940  1.00  0.00     0.174 HD
ENDBRANCH   4  17
TORSDOF 3
ENDMDL
MODEL 4
REMARK VINA RESULT: -6.675949043      1.815      3.050
REMARK  3 active torsions:
REMARK  status: ('A' for Active; 'I' for Inactive)
REMARK    1  A    between atoms: N1_2  and  O1_3 
REMARK    2  A    between atoms: N1_2  and  C2_5 
REMARK    3  A    between atoms: C3_8  and  N3_9 
ROOT
HETATM    1  C2  UNL     1      19.687 -19.495  21.977  1.00  0.00     0.211 C 
HETATM    2  N2  UNL     1      20.708 -20.066  22.639  1.00  0.00    -0.169 N 
ATOM      3  H2  UNL     1      21.177 -20.825  22.145  1.00  0.00     0.186 HD
HETATM    4  C3  UNL     1      21.210 -19.780  23.874  1.00  0.00     0.681 C 
HETATM    5  N4  UNL     1      20.849 -18.757  24.670  1.00  0.00    -0.141 N 
ATOM      6  H4  UNL     1      21.435 -18.623  25.494  1.00  0.00     0.189 HD
HETATM    7  C4  UNL     1      19.820 -17.872  24.544  1.00  0.00     0.341 C 
HETATM    8  O2  UNL     1      19.507 -17.248  25.590  1.00  0.00    -0.246 OA
HETATM    9  N5  UNL     1      19.113 -17.610  23.409  1.00  0.00    -0.272 N 
ATOM     10  H5  UNL     1      18.430 -16.855  23.474  1.00  0.00     0.174 HD
HETATM   11  C5  UNL     1      19.202 -18.225  22.202  1.00  0.00     0.296 C 
HETATM   12  O3  UNL     1      18.806 -17.574  21.201  1.00  0.00    -0.264 OA
ENDROOT
BRANCH   1  13
HETATM   13  N1  UNL     1      19.136 -20.202  21.056  1.00  0.00    -0.244 N 
HETATM   14  C1  UNL     1      19.815 -21.081  20.141  1.00  0.00     0.187 C 
BRANCH  13  15
HETATM   15  O1  UNL     1      17.745 -20.132  20.915  1.00  0.00    -0.286 OA
ATOM     16  H1  UNL     1      17.242 -20.687  21.500  1.00  0.00     0.244 HD
ENDBRANCH  13  15
ENDBRANCH   1  13
BRANCH   4  17
HETATM   17  N3  UNL     1      22.122 -20.581  24.308  1.00  0.00    -0.234 N 
ATOM     18  H32 UNL     1      22.967 -20.167  24.702  1.00  0.00     0.174 HD
ATOM     19  H31 UNL     1      21.918 -21.576  24.218  1.00  0.00     0.174 HD
ENDBRANCH   4  17
TORSDOF 3
ENDMDL
MODEL 5
REMARK VINA RESULT: -6.582729222      1.122      1.122
REMARK  3 active torsions:
REMARK  status: ('A' for Active; 'I' for Inactive)
REMARK    1  A    between atoms: N1_2  and  O1_3 
REMARK    2  A    between atoms: N1_2  and  C2_5 
REMARK    3  A    between atoms: C3_8  and  N3_9 
ROOT
HETATM    1  C2  UNL     1      19.585 -18.943  22.692  1.00  0.00     0.211 C 
HETATM    2  N2  UNL     1      18.932 -18.133  23.543  1.00  0.00    -0.169 N 
ATOM      3  H2  UNL     1      18.000 -17.849  23.243  1.00  0.00     0.186 HD
HETATM    4  C3  UNL     1      19.332 -17.637  24.748  1.00  0.00     0.681 C 
HETATM    5  N4  UNL     1      20.457 -17.954  25.413  1.00  0.00    -0.141 N 
ATOM      6  H4  UNL     1      20.515 -17.588  26.363  1.00  0.00     0.189 HD
HETATM    7  C4  UNL     1      21.533 -18.689  25.012  1.00  0.00     0.341 C 
HETATM    8  O2  UNL     1      22.579 -18.540  25.693  1.00  0.00    -0.246 OA
HETATM    9  N5  UNL     1      21.575 -19.553  23.959  1.00  0.00    -0.272 N 
ATOM     10  H5  UNL     1      22.439 -20.083  23.852  1.00  0.00     0.174 HD
HETATM   11  C5  UNL     1      20.612 -19.796  23.033  1.00  0.00     0.296 C 
HETATM   12  O3  UNL     1      20.665 -20.902  22.434  1.00  0.00    -0.264 OA
ENDROOT
BRANCH   1  13
HETATM   13  N1  UNL     1      19.202 -18.914  21.465  1.00  0.00    -0.244 N 
HETATM   14  C1  UNL     1      17.843 -18.796  21.004  1.00  0.00     0.187 C 
BRANCH  13  15
HETATM   15  O1  UNL     1      20.179 -18.994  20.467  1.00  0.00    -0.286 OA
ATOM     16  H1  UNL     1      20.866 -19.634  20.611  1.00  0.00     0.244 HD
ENDBRANCH  13  15
ENDBRANCH   1  13
BRANCH   4  17
HETATM   17  N3  UNL     1      18.539 -16.778  25.291  1.00  0.00    -0.234 N 
ATOM     18  H32 UNL     1      17.871 -16.300  24.685  1.00  0.00     0.174 HD
ATOM     19  H31 UNL     1      18.648 -16.647  26.297  1.00  0.00     0.174 HD
ENDBRANCH   4  17
TORSDOF 3
ENDMDL
