MODEL 1
REMARK VINA RESULT: -7.135076707      0.000      0.000
REMARK  7 active torsions:
REMARK  status: ('A' for Active; 'I' for Inactive)
REMARK    1  A    between atoms: C2_2  and  O1_4 
REMARK    2  A    between atoms: C2_2  and  C4_6 
REMARK    3  A    between atoms: C4_6  and  O2_9 
REMARK    4  A    between atoms: O2_9  and  C6_10 
REMARK    5  A    between atoms: C6_10  and  C7_12 
REMARK    6  A    between atoms: C10_15  and  N2_16 
REMARK    7  A    between atoms: N2_16  and  S1_18 
ROOT
HETATM    1  C4  UNL     1      -3.586   0.232  24.789  1.00  0.00     0.271 C 
HETATM    2  C5  UNL     1      -3.756   0.366  23.344  1.00  0.00     0.095 C 
HETATM    3  N1  UNL     1      -3.909   0.462  22.203  1.00  0.00    -0.194 NA
ENDROOT
BRANCH   1   4
HETATM    4  C2  UNL     1      -4.938   0.418  25.472  1.00  0.00     0.090 C 
HETATM    5  C1  UNL     1      -5.256   1.897  25.409  1.00  0.00     0.049 C 
HETATM    6  C3  UNL     1      -6.013  -0.389  24.790  1.00  0.00     0.049 C 
BRANCH   4   7
HETATM    7  O1  UNL     1      -4.853  -0.002  26.791  1.00  0.00    -0.387 OA
ATOM      8  H1  UNL     1      -4.406  -0.839  26.844  1.00  0.00     0.210 HD
ENDBRANCH   4   7
ENDBRANCH   1   4
BRANCH   1   9
HETATM    9  O2  UNL     1      -2.961  -0.951  25.165  1.00  0.00    -0.294 OA
BRANCH   9  10
HETATM   10  C6  UNL     1      -1.649  -1.209  24.805  1.00  0.00     0.294 C 
HETATM   11  O3  UNL     1      -0.779  -0.401  25.223  1.00  0.00    -0.259 OA
BRANCH  10  12
HETATM   12  C7  UNL     1      -1.298  -2.377  23.971  1.00  0.00     0.041 A 
HETATM   13  C8  UNL     1      -0.293  -3.212  24.333  1.00  0.00     0.020 A 
HETATM   14  C9  UNL     1       0.008  -4.307  23.515  1.00  0.00     0.033 A 
HETATM   15  C10 UNL     1      -0.695  -4.536  22.369  1.00  0.00     0.064 A 
HETATM   16  C12 UNL     1      -1.728  -3.659  22.018  1.00  0.00     0.062 A 
HETATM   17 CL1  UNL     1      -2.596  -3.992  20.550  1.00  0.00    -0.082 Cl
HETATM   18  C13 UNL     1      -2.012  -2.588  22.832  1.00  0.00     0.044 A 
BRANCH  15  19
HETATM   19  N2  UNL     1      -0.394  -5.654  21.532  1.00  0.00    -0.283 N 
ATOM     20  H2  UNL     1       0.093  -5.518  20.646  1.00  0.00     0.178 HD
BRANCH  19  21
HETATM   21  S1  UNL     1      -0.862  -7.229  22.034  1.00  0.00     0.227 S 
HETATM   22  C11 UNL     1      -2.288  -7.204  23.075  1.00  0.00     0.186 C 
HETATM   23  O4  UNL     1      -1.058  -8.150  20.855  1.00  0.00    -0.206 OA
HETATM   24  O5  UNL     1       0.277  -7.810  22.852  1.00  0.00    -0.206 OA
ENDBRANCH  19  21
ENDBRANCH  15  19
ENDBRANCH  10  12
ENDBRANCH   9  10
ENDBRANCH   1   9
TORSDOF 7
ENDMDL
MODEL 2
REMARK VINA RESULT: -6.985213824      2.667      3.456
REMARK  7 active torsions:
REMARK  status: ('A' for Active; 'I' for Inactive)
REMARK    1  A    between atoms: C2_2  and  O1_4 
REMARK    2  A    between atoms: C2_2  and  C4_6 
REMARK    3  A    between atoms: C4_6  and  O2_9 
REMARK    4  A    between atoms: O2_9  and  C6_10 
REMARK    5  A    between atoms: C6_10  and  C7_12 
REMARK    6  A    between atoms: C10_15  and  N2_16 
REMARK    7  A    between atoms: N2_16  and  S1_18 
ROOT
HETATM    1  C4  UNL     1      -1.438  -2.230  25.059  1.00  0.00     0.271 C 
HETATM    2  C5  UNL     1      -0.664  -1.074  25.506  1.00  0.00     0.095 C 
HETATM    3  N1  UNL     1      -0.066  -0.148  25.849  1.00  0.00    -0.194 NA
ENDROOT
BRANCH   1   4
HETATM    4  C2  UNL     1      -2.927  -1.915  25.187  1.00  0.00     0.090 C 
HETATM    5  C1  UNL     1      -3.253  -0.910  24.102  1.00  0.00     0.049 C 
HETATM    6  C3  UNL     1      -3.765  -3.158  25.034  1.00  0.00     0.049 C 
BRANCH   4   7
HETATM    7  O1  UNL     1      -3.181  -1.374  26.439  1.00  0.00    -0.387 OA
ATOM      8  H1  UNL     1      -3.440  -2.056  27.048  1.00  0.00     0.210 HD
ENDBRANCH   4   7
ENDBRANCH   1   4
BRANCH   1   9
HETATM    9  O2  UNL     1      -1.097  -2.666  23.785  1.00  0.00    -0.294 OA
BRANCH   9  10
HETATM   10  C6  UNL     1      -0.096  -3.606  23.599  1.00  0.00     0.294 C 
HETATM   11  O3  UNL     1       1.090  -3.188  23.658  1.00  0.00    -0.259 OA
BRANCH  10  12
HETATM   12  C7  UNL     1      -0.416  -5.026  23.342  1.00  0.00     0.041 A 
HETATM   13  C8  UNL     1      -0.675  -5.874  24.367  1.00  0.00     0.020 A 
HETATM   14  C9  UNL     1      -0.974  -7.212  24.082  1.00  0.00     0.033 A 
HETATM   15  C10 UNL     1      -1.004  -7.661  22.795  1.00  0.00     0.064 A 
HETATM   16  C12 UNL     1      -0.732  -6.764  21.755  1.00  0.00     0.062 A 
HETATM   17 CL1  UNL     1      -0.783  -7.382  20.132  1.00  0.00    -0.082 Cl
HETATM   18  C13 UNL     1      -0.441  -5.454  22.051  1.00  0.00     0.044 A 
BRANCH  15  19
HETATM   19  N2  UNL     1      -1.310  -9.025  22.498  1.00  0.00    -0.283 N 
ATOM     20  H2  UNL     1      -0.561  -9.700  22.342  1.00  0.00     0.178 HD
BRANCH  19  21
HETATM   21  S1  UNL     1      -2.954  -9.515  22.406  1.00  0.00     0.227 S 
HETATM   22  C11 UNL     1      -3.611  -9.956  23.984  1.00  0.00     0.186 C 
HETATM   23  O4  UNL     1      -3.805  -8.469  21.729  1.00  0.00    -0.206 OA
HETATM   24  O5  UNL     1      -3.018 -10.755  21.534  1.00  0.00    -0.206 OA
ENDBRANCH  19  21
ENDBRANCH  15  19
ENDBRANCH  10  12
ENDBRANCH   9  10
ENDBRANCH   1   9
TORSDOF 7
ENDMDL
MODEL 3
REMARK VINA RESULT: -6.956442170      3.430      4.200
REMARK  7 active torsions:
REMARK  status: ('A' for Active; 'I' for Inactive)
REMARK    1  A    between atoms: C2_2  and  O1_4 
REMARK    2  A    between atoms: C2_2  and  C4_6 
REMARK    3  A    between atoms: C4_6  and  O2_9 
REMARK    4  A    between atoms: O2_9  and  C6_10 
REMARK    5  A    between atoms: C6_10  and  C7_12 
REMARK    6  A    between atoms: C10_15  and  N2_16 
REMARK    7  A    between atoms: N2_16  and  S1_18 
ROOT
HETATM    1  C4  UNL     1      -1.370  -2.043  24.898  1.00  0.00     0.271 C 
HETATM    2  C5  UNL     1      -0.528  -0.989  25.458  1.00  0.00     0.095 C 
HETATM    3  N1  UNL     1       0.122  -0.141  25.897  1.00  0.00    -0.194 NA
ENDROOT
BRANCH   1   4
HETATM    4  C2  UNL     1      -2.827  -1.769  25.262  1.00  0.00     0.090 C 
HETATM    5  C1  UNL     1      -3.282  -0.617  24.390  1.00  0.00     0.049 C 
HETATM    6  C3  UNL     1      -3.688  -2.984  25.034  1.00  0.00     0.049 C 
BRANCH   4   7
HETATM    7  O1  UNL     1      -2.913  -1.423  26.602  1.00  0.00    -0.387 OA
ATOM      8  H1  UNL     1      -3.728  -1.740  26.974  1.00  0.00     0.210 HD
ENDBRANCH   4   7
ENDBRANCH   1   4
BRANCH   1   9
HETATM    9  O2  UNL     1      -1.191  -2.227  23.532  1.00  0.00    -0.294 OA
BRANCH   9  10
HETATM   10  C6  UNL     1      -0.750  -3.440  23.028  1.00  0.00     0.294 C 
HETATM   11  O3  UNL     1       0.300  -3.915  23.536  1.00  0.00    -0.259 OA
BRANCH  10  12
HETATM   12  C7  UNL     1      -1.483  -4.133  21.948  1.00  0.00     0.041 A 
HETATM   13  C8  UNL     1      -2.570  -3.566  21.372  1.00  0.00     0.020 A 
HETATM   14  C9  UNL     1      -3.236  -4.255  20.352  1.00  0.00     0.033 A 
HETATM   15  C10 UNL     1      -2.803  -5.481  19.940  1.00  0.00     0.064 A 
HETATM   16  C12 UNL     1      -1.677  -6.046  20.552  1.00  0.00     0.062 A 
HETATM   17 CL1  UNL     1      -1.162  -7.608  19.995  1.00  0.00    -0.082 Cl
HETATM   18  C13 UNL     1      -1.034  -5.356  21.552  1.00  0.00     0.044 A 
BRANCH  15  19
HETATM   19  N2  UNL     1      -3.477  -6.189  18.898  1.00  0.00    -0.283 N 
ATOM     20  H2  UNL     1      -4.166  -6.907  19.124  1.00  0.00     0.178 HD
BRANCH  19  21
HETATM   21  S1  UNL     1      -3.114  -5.818  17.260  1.00  0.00     0.227 S 
HETATM   22  C11 UNL     1      -3.914  -6.915  16.132  1.00  0.00     0.186 C 
HETATM   23  O4  UNL     1      -3.423  -4.377  16.939  1.00  0.00    -0.206 OA
HETATM   24  O5  UNL     1      -1.619  -5.994  17.068  1.00  0.00    -0.206 OA
ENDBRANCH  19  21
ENDBRANCH  15  19
ENDBRANCH  10  12
ENDBRANCH   9  10
ENDBRANCH   1   9
TORSDOF 7
ENDMDL
MODEL 4
REMARK VINA RESULT: -6.933354655      2.376      3.181
REMARK  7 active torsions:
REMARK  status: ('A' for Active; 'I' for Inactive)
REMARK    1  A    between atoms: C2_2  and  O1_4 
REMARK    2  A    between atoms: C2_2  and  C4_6 
REMARK    3  A    between atoms: C4_6  and  O2_9 
REMARK    4  A    between atoms: O2_9  and  C6_10 
REMARK    5  A    between atoms: C6_10  and  C7_12 
REMARK    6  A    between atoms: C10_15  and  N2_16 
REMARK    7  A    between atoms: N2_16  and  S1_18 
ROOT
HETATM    1  C4  UNL     1      -1.837  -1.751  24.429  1.00  0.00     0.271 C 
HETATM    2  C5  UNL     1      -2.218  -1.781  23.020  1.00  0.00     0.095 C 
HETATM    3  N1  UNL     1      -2.538  -1.813  21.910  1.00  0.00    -0.194 NA
ENDROOT
BRANCH   1   4
HETATM    4  C2  UNL     1      -3.053  -1.371  25.270  1.00  0.00     0.090 C 
HETATM    5  C1  UNL     1      -3.453   0.027  24.847  1.00  0.00     0.049 C 
HETATM    6  C3  UNL     1      -4.190  -2.338  25.058  1.00  0.00     0.049 C 
BRANCH   4   7
HETATM    7  O1  UNL     1      -2.713  -1.391  26.614  1.00  0.00    -0.387 OA
ATOM      8  H1  UNL     1      -2.514  -0.513  26.918  1.00  0.00     0.210 HD
ENDBRANCH   4   7
ENDBRANCH   1   4
BRANCH   1   9
HETATM    9  O2  UNL     1      -1.238  -2.927  24.866  1.00  0.00    -0.294 OA
BRANCH   9  10
HETATM   10  C6  UNL     1      -0.247  -3.541  24.119  1.00  0.00     0.294 C 
HETATM   11  O3  UNL     1       0.879  -2.978  24.103  1.00  0.00    -0.259 OA
BRANCH  10  12
HETATM   12  C7  UNL     1      -0.508  -4.794  23.381  1.00  0.00     0.041 A 
HETATM   13  C8  UNL     1      -0.411  -4.837  22.030  1.00  0.00     0.020 A 
HETATM   14  C9  UNL     1      -0.668  -6.044  21.368  1.00  0.00     0.033 A 
HETATM   15  C10 UNL     1      -1.010  -7.163  22.067  1.00  0.00     0.064 A 
HETATM   16  C12 UNL     1      -1.104  -7.093  23.462  1.00  0.00     0.062 A 
HETATM   17 CL1  UNL     1      -1.543  -8.544  24.310  1.00  0.00    -0.082 Cl
HETATM   18  C13 UNL     1      -0.849  -5.900  24.098  1.00  0.00     0.044 A 
BRANCH  15  19
HETATM   19  N2  UNL     1      -1.271  -8.399  21.398  1.00  0.00    -0.283 N 
ATOM     20  H2  UNL     1      -0.983  -9.283  21.817  1.00  0.00     0.178 HD
BRANCH  19  21
HETATM   21  S1  UNL     1      -2.074  -8.376  19.879  1.00  0.00     0.227 S 
HETATM   22  C11 UNL     1      -3.648  -7.582  19.966  1.00  0.00     0.186 C 
HETATM   23  O4  UNL     1      -1.208  -7.766  18.805  1.00  0.00    -0.206 OA
HETATM   24  O5  UNL     1      -2.323  -9.816  19.468  1.00  0.00    -0.206 OA
ENDBRANCH  19  21
ENDBRANCH  15  19
ENDBRANCH  10  12
ENDBRANCH   9  10
ENDBRANCH   1   9
TORSDOF 7
ENDMDL
MODEL 5
REMARK VINA RESULT: -6.908133448      4.583      5.426
REMARK  7 active torsions:
REMARK  status: ('A' for Active; 'I' for Inactive)
REMARK    1  A    between atoms: C2_2  and  O1_4 
REMARK    2  A    between atoms: C2_2  and  C4_6 
REMARK    3  A    between atoms: C4_6  and  O2_9 
REMARK    4  A    between atoms: O2_9  and  C6_10 
REMARK    5  A    between atoms: C6_10  and  C7_12 
REMARK    6  A    between atoms: C10_15  and  N2_16 
REMARK    7  A    between atoms: N2_16  and  S1_18 
ROOT
HETATM    1  C4  UNL     1      -2.119  -1.900  24.455  1.00  0.00     0.271 C 
HETATM    2  C5  UNL     1      -0.971  -1.191  25.014  1.00  0.00     0.095 C 
HETATM    3  N1  UNL     1      -0.075  -0.613  25.458  1.00  0.00    -0.194 NA
ENDROOT
BRANCH   1   4
HETATM    4  C2  UNL     1      -3.373  -1.521  25.239  1.00  0.00     0.090 C 
HETATM    5  C1  UNL     1      -3.846  -0.194  24.685  1.00  0.00     0.049 C 
HETATM    6  C3  UNL     1      -4.445  -2.571  25.101  1.00  0.00     0.049 C 
BRANCH   4   7
HETATM    7  O1  UNL     1      -3.059  -1.398  26.585  1.00  0.00    -0.387 OA
ATOM      8  H1  UNL     1      -2.662  -2.199  26.906  1.00  0.00     0.210 HD
ENDBRANCH   4   7
ENDBRANCH   1   4
BRANCH   1   9
HETATM    9  O2  UNL     1      -2.274  -1.713  23.086  1.00  0.00    -0.294 OA
BRANCH   9  10
HETATM   10  C6  UNL     1      -2.153  -2.774  22.204  1.00  0.00     0.294 C 
HETATM   11  O3  UNL     1      -1.508  -3.776  22.610  1.00  0.00    -0.259 OA
BRANCH  10  12
HETATM   12  C7  UNL     1      -2.755  -2.722  20.856  1.00  0.00     0.041 A 
HETATM   13  C8  UNL     1      -3.175  -1.546  20.328  1.00  0.00     0.020 A 
HETATM   14  C9  UNL     1      -3.741  -1.539  19.047  1.00  0.00     0.033 A 
HETATM   15  C10 UNL     1      -3.869  -2.695  18.336  1.00  0.00     0.064 A 
HETATM   16  C12 UNL     1      -3.427  -3.897  18.903  1.00  0.00     0.062 A 
HETATM   17 CL1  UNL     1      -3.611  -5.343  17.959  1.00  0.00    -0.082 Cl
HETATM   18  C13 UNL     1      -2.874  -3.887  20.162  1.00  0.00     0.044 A 
BRANCH  15  19
HETATM   19  N2  UNL     1      -4.443  -2.695  17.027  1.00  0.00    -0.283 N 
ATOM     20  H2  UNL     1      -3.845  -2.708  16.201  1.00  0.00     0.178 HD
BRANCH  19  21
HETATM   21  S1  UNL     1      -6.153  -2.671  16.861  1.00  0.00     0.227 S 
HETATM   22  C11 UNL     1      -6.911  -4.119  17.531  1.00  0.00     0.186 C 
HETATM   23  O4  UNL     1      -6.748  -1.417  17.450  1.00  0.00    -0.206 OA
HETATM   24  O5  UNL     1      -6.473  -2.647  15.378  1.00  0.00    -0.206 OA
ENDBRANCH  19  21
ENDBRANCH  15  19
ENDBRANCH  10  12
ENDBRANCH   9  10
ENDBRANCH   1   9
TORSDOF 7
ENDMDL
