MODEL 1
REMARK VINA RESULT: -6.870478281      0.000      0.000
REMARK  4 active torsions:
REMARK  status: ('A' for Active; 'I' for Inactive)
REMARK    1  A    between atoms: C2_2  and  O1_3 
REMARK    2  A    between atoms: O1_3  and  C3_4 
REMARK    3  A    between atoms: C4_5  and  O2_6 
REMARK    4  A    between atoms: C14_18  and  O4_20 
ROOT
HETATM    1  C3  UNL     1      -2.081  -1.813  23.232  1.00  0.00     0.174 C 
HETATM    2  C4  UNL     1      -2.408  -2.086  21.982  1.00  0.00     0.088 C 
HETATM    3  C6  UNL     1      -2.188  -3.387  21.317  1.00  0.00     0.110 C 
HETATM    4  C7  UNL     1      -1.863  -4.507  22.246  1.00  0.00     0.116 C 
HETATM    5  C8  UNL     1      -0.929  -5.456  21.526  1.00  0.00     0.121 C 
HETATM    6  C9  UNL     1      -0.835  -6.769  22.187  1.00  0.00     0.140 C 
HETATM    7  O3  UNL     1       0.165  -7.445  21.951  1.00  0.00    -0.297 OA
HETATM    8  C10 UNL     1      -1.834  -7.336  23.102  1.00  0.00     0.047 C 
HETATM    9  C11 UNL     1      -1.066  -7.881  24.314  1.00  0.00     0.026 C 
HETATM   10  C12 UNL     1      -2.518  -8.565  22.485  1.00  0.00     0.026 C 
HETATM   11  C13 UNL     1      -2.846  -6.366  23.600  1.00  0.00     0.222 C 
HETATM   12  F1  UNL     1      -4.040  -6.986  23.897  1.00  0.00    -0.245 F 
HETATM   13  C14 UNL     1      -3.136  -5.235  22.648  1.00  0.00     0.118 C 
HETATM   14  C15 UNL     1      -3.877  -5.665  21.429  1.00  0.00     0.052 C 
HETATM   15  O5  UNL     1      -1.236  -4.085  23.433  1.00  0.00    -0.300 OA
HETATM   16  C16 UNL     1      -1.455  -2.856  24.030  1.00  0.00     0.320 C 
HETATM   17  O6  UNL     1      -1.130  -2.617  25.238  1.00  0.00    -0.257 OA
ENDROOT
BRANCH  13  18
HETATM   18  O4  UNL     1      -3.919  -4.307  23.348  1.00  0.00    -0.384 OA
ATOM     19  H4  UNL     1      -4.300  -4.776  24.082  1.00  0.00     0.210 HD
ENDBRANCH  13  18
BRANCH   2  20
HETATM   20  O2  UNL     1      -3.007  -1.093  21.211  1.00  0.00    -0.357 OA
HETATM   21  C5  UNL     1      -4.362  -1.107  20.844  1.00  0.00     0.209 C 
ENDBRANCH   2  20
BRANCH   1  22
HETATM   22  O1  UNL     1      -2.329  -0.554  23.770  1.00  0.00    -0.344 OA
BRANCH  22  23
HETATM   23  C2  UNL     1      -3.439  -0.314  24.621  1.00  0.00     0.171 C 
HETATM   24  C1  UNL     1      -4.248   0.837  24.087  1.00  0.00     0.034 C 
ENDBRANCH  22  23
ENDBRANCH   1  22
TORSDOF 4
ENDMDL
MODEL 2
REMARK VINA RESULT: -6.714958279      6.274      9.001
REMARK  4 active torsions:
REMARK  status: ('A' for Active; 'I' for Inactive)
REMARK    1  A    between atoms: C2_2  and  O1_3 
REMARK    2  A    between atoms: O1_3  and  C3_4 
REMARK    3  A    between atoms: C4_5  and  O2_6 
REMARK    4  A    between atoms: C14_18  and  O4_20 
ROOT
HETATM    1  C3  UNL     1      -2.751  -6.270  14.433  1.00  0.00     0.174 C 
HETATM    2  C4  UNL     1      -2.690  -6.971  15.550  1.00  0.00     0.088 C 
HETATM    3  C6  UNL     1      -3.048  -6.459  16.889  1.00  0.00     0.110 C 
HETATM    4  C7  UNL     1      -3.809  -5.177  16.875  1.00  0.00     0.116 C 
HETATM    5  C8  UNL     1      -3.425  -4.392  18.111  1.00  0.00     0.121 C 
HETATM    6  C9  UNL     1      -4.368  -3.299  18.403  1.00  0.00     0.140 C 
HETATM    7  O3  UNL     1      -3.953  -2.372  19.098  1.00  0.00    -0.297 OA
HETATM    8  C10 UNL     1      -5.757  -3.224  17.935  1.00  0.00     0.047 C 
HETATM    9  C11 UNL     1      -5.966  -1.804  17.390  1.00  0.00     0.026 C 
HETATM   10  C12 UNL     1      -6.745  -3.344  19.104  1.00  0.00     0.026 C 
HETATM   11  C13 UNL     1      -6.104  -4.184  16.853  1.00  0.00     0.222 C 
HETATM   12  F1  UNL     1      -7.440  -4.522  16.884  1.00  0.00    -0.245 F 
HETATM   13  C14 UNL     1      -5.303  -5.459  16.881  1.00  0.00     0.118 C 
HETATM   14  C15 UNL     1      -5.644  -6.345  18.031  1.00  0.00     0.052 C 
HETATM   15  O5  UNL     1      -3.544  -4.382  15.745  1.00  0.00    -0.300 OA
HETATM   16  C16 UNL     1      -3.202  -4.889  14.503  1.00  0.00     0.320 C 
HETATM   17  O6  UNL     1      -3.270  -4.192  13.440  1.00  0.00    -0.257 OA
ENDROOT
BRANCH  13  18
HETATM   18  O4  UNL     1      -5.583  -6.141  15.689  1.00  0.00    -0.384 OA
ATOM     19  H4  UNL     1      -6.489  -6.423  15.748  1.00  0.00     0.210 HD
ENDBRANCH  13  18
BRANCH   2  20
HETATM   20  O2  UNL     1      -2.259  -8.295  15.491  1.00  0.00    -0.357 OA
HETATM   21  C5  UNL     1      -2.031  -9.088  16.626  1.00  0.00     0.209 C 
ENDBRANCH   2  20
BRANCH   1  22
HETATM   22  O1  UNL     1      -2.392  -6.843  13.217  1.00  0.00    -0.344 OA
BRANCH  22  23
HETATM   23  C2  UNL     1      -1.073  -6.737  12.704  1.00  0.00     0.171 C 
HETATM   24  C1  UNL     1      -0.737  -7.968  11.908  1.00  0.00     0.034 C 
ENDBRANCH  22  23
ENDBRANCH   1  22
TORSDOF 4
ENDMDL
MODEL 3
REMARK VINA RESULT: -6.575713930      6.238      7.869
REMARK  4 active torsions:
REMARK  status: ('A' for Active; 'I' for Inactive)
REMARK    1  A    between atoms: C2_2  and  O1_3 
REMARK    2  A    between atoms: O1_3  and  C3_4 
REMARK    3  A    between atoms: C4_5  and  O2_6 
REMARK    4  A    between atoms: C14_18  and  O4_20 
ROOT
HETATM    1  C3  UNL     1      -4.432  -3.858  14.731  1.00  0.00     0.174 C 
HETATM    2  C4  UNL     1      -5.375  -4.026  15.641  1.00  0.00     0.088 C 
HETATM    3  C6  UNL     1      -5.628  -5.286  16.370  1.00  0.00     0.110 C 
HETATM    4  C7  UNL     1      -4.533  -6.292  16.262  1.00  0.00     0.116 C 
HETATM    5  C8  UNL     1      -5.160  -7.670  16.296  1.00  0.00     0.121 C 
HETATM    6  C9  UNL     1      -4.177  -8.732  16.571  1.00  0.00     0.140 C 
HETATM    7  O3  UNL     1      -4.473  -9.873  16.220  1.00  0.00    -0.297 OA
HETATM    8  C10 UNL     1      -2.877  -8.542  17.226  1.00  0.00     0.047 C 
HETATM    9  C11 UNL     1      -1.840  -9.297  16.382  1.00  0.00     0.026 C 
HETATM   10  C12 UNL     1      -2.841  -9.229  18.598  1.00  0.00     0.026 C 
HETATM   11  C13 UNL     1      -2.434  -7.127  17.335  1.00  0.00     0.222 C 
HETATM   12  F1  UNL     1      -1.616  -6.933  18.427  1.00  0.00    -0.245 F 
HETATM   13  C14 UNL     1      -3.563  -6.133  17.422  1.00  0.00     0.118 C 
HETATM   14  C15 UNL     1      -4.306  -6.194  18.712  1.00  0.00     0.052 C 
HETATM   15  O5  UNL     1      -3.784  -6.176  15.077  1.00  0.00    -0.300 OA
HETATM   16  C16 UNL     1      -3.569  -4.983  14.409  1.00  0.00     0.320 C 
HETATM   17  O6  UNL     1      -2.653  -4.846  13.535  1.00  0.00    -0.257 OA
ENDROOT
BRANCH  13  18
HETATM   18  O4  UNL     1      -2.993  -4.859  17.289  1.00  0.00    -0.384 OA
ATOM     19  H4  UNL     1      -3.698  -4.276  17.032  1.00  0.00     0.210 HD
ENDBRANCH  13  18
BRANCH   2  20
HETATM   20  O2  UNL     1      -6.206  -2.953  15.956  1.00  0.00    -0.357 OA
HETATM   21  C5  UNL     1      -6.157  -2.267  17.179  1.00  0.00     0.209 C 
ENDBRANCH   2  20
BRANCH   1  22
HETATM   22  O1  UNL     1      -4.272  -2.630  14.097  1.00  0.00    -0.344 OA
BRANCH  22  23
HETATM   23  C2  UNL     1      -4.602  -2.449  12.729  1.00  0.00     0.171 C 
HETATM   24  C1  UNL     1      -6.053  -2.073  12.603  1.00  0.00     0.034 C 
ENDBRANCH  22  23
ENDBRANCH   1  22
TORSDOF 4
ENDMDL
MODEL 4
REMARK VINA RESULT: -6.555096565      3.610      5.751
REMARK  4 active torsions:
REMARK  status: ('A' for Active; 'I' for Inactive)
REMARK    1  A    between atoms: C2_2  and  O1_3 
REMARK    2  A    between atoms: O1_3  and  C3_4 
REMARK    3  A    between atoms: C4_5  and  O2_6 
REMARK    4  A    between atoms: C14_18  and  O4_20 
ROOT
HETATM    1  C3  UNL     1      -2.355  -6.010  17.681  1.00  0.00     0.174 C 
HETATM    2  C4  UNL     1      -3.043  -4.983  18.147  1.00  0.00     0.088 C 
HETATM    3  C6  UNL     1      -3.425  -4.795  19.562  1.00  0.00     0.110 C 
HETATM    4  C7  UNL     1      -2.701  -5.681  20.519  1.00  0.00     0.116 C 
HETATM    5  C8  UNL     1      -3.640  -5.997  21.664  1.00  0.00     0.121 C 
HETATM    6  C9  UNL     1      -2.937  -6.543  22.837  1.00  0.00     0.140 C 
HETATM    7  O3  UNL     1      -3.604  -7.203  23.633  1.00  0.00    -0.297 OA
HETATM    8  C10 UNL     1      -1.510  -6.366  23.135  1.00  0.00     0.047 C 
HETATM    9  C11 UNL     1      -0.962  -7.749  23.518  1.00  0.00     0.026 C 
HETATM   10  C12 UNL     1      -1.307  -5.503  24.388  1.00  0.00     0.026 C 
HETATM   11  C13 UNL     1      -0.696  -5.850  22.003  1.00  0.00     0.222 C 
HETATM   12  F1  UNL     1       0.396  -5.136  22.447  1.00  0.00    -0.245 F 
HETATM   13  C14 UNL     1      -1.460  -4.976  21.043  1.00  0.00     0.118 C 
HETATM   14  C15 UNL     1      -1.836  -3.654  21.619  1.00  0.00     0.052 C 
HETATM   15  O5  UNL     1      -2.277  -6.894  19.946  1.00  0.00    -0.300 OA
HETATM   16  C16 UNL     1      -1.933  -7.044  18.614  1.00  0.00     0.320 C 
HETATM   17  O6  UNL     1      -1.269  -8.044  18.190  1.00  0.00    -0.257 OA
ENDROOT
BRANCH  13  18
HETATM   18  O4  UNL     1      -0.627  -4.765  19.935  1.00  0.00    -0.384 OA
ATOM     19  H4  UNL     1      -1.083  -4.153  19.370  1.00  0.00     0.210 HD
ENDBRANCH  13  18
BRANCH   2  20
HETATM   20  O2  UNL     1      -3.451  -3.989  17.261  1.00  0.00    -0.357 OA
HETATM   21  C5  UNL     1      -4.006  -2.766  17.668  1.00  0.00     0.209 C 
ENDBRANCH   2  20
BRANCH   1  22
HETATM   22  O1  UNL     1      -2.043  -6.098  16.328  1.00  0.00    -0.344 OA
BRANCH  22  23
HETATM   23  C2  UNL     1      -2.835  -6.859  15.430  1.00  0.00     0.171 C 
HETATM   24  C1  UNL     1      -2.200  -6.855  14.066  1.00  0.00     0.034 C 
ENDBRANCH  22  23
ENDBRANCH   1  22
TORSDOF 4
ENDMDL
MODEL 5
REMARK VINA RESULT: -6.462637914      1.869      3.413
REMARK  4 active torsions:
REMARK  status: ('A' for Active; 'I' for Inactive)
REMARK    1  A    between atoms: C2_2  and  O1_3 
REMARK    2  A    between atoms: O1_3  and  C3_4 
REMARK    3  A    between atoms: C4_5  and  O2_6 
REMARK    4  A    between atoms: C14_18  and  O4_20 
ROOT
HETATM    1  C3  UNL     1      -2.574  -2.579  21.559  1.00  0.00     0.174 C 
HETATM    2  C4  UNL     1      -2.396  -2.657  22.866  1.00  0.00     0.088 C 
HETATM    3  C6  UNL     1      -2.529  -3.894  23.663  1.00  0.00     0.110 C 
HETATM    4  C7  UNL     1      -2.559  -5.148  22.856  1.00  0.00     0.116 C 
HETATM    5  C8  UNL     1      -3.447  -6.143  23.572  1.00  0.00     0.121 C 
HETATM    6  C9  UNL     1      -3.263  -7.520  23.083  1.00  0.00     0.140 C 
HETATM    7  O3  UNL     1      -4.184  -8.312  23.277  1.00  0.00    -0.297 OA
HETATM    8  C10 UNL     1      -2.074  -8.025  22.385  1.00  0.00     0.047 C 
HETATM    9  C11 UNL     1      -2.576  -8.814  21.167  1.00  0.00     0.026 C 
HETATM   10  C12 UNL     1      -1.324  -9.056  23.239  1.00  0.00     0.026 C 
HETATM   11  C13 UNL     1      -1.144  -6.972  21.895  1.00  0.00     0.222 C 
HETATM   12  F1  UNL     1       0.154  -7.430  21.834  1.00  0.00    -0.245 F 
HETATM   13  C14 UNL     1      -1.153  -5.711  22.718  1.00  0.00     0.118 C 
HETATM   14  C15 UNL     1      -0.544  -5.882  24.067  1.00  0.00     0.052 C 
HETATM   15  O5  UNL     1      -3.060  -4.962  21.554  1.00  0.00    -0.300 OA
HETATM   16  C16 UNL     1      -2.928  -3.789  20.833  1.00  0.00     0.320 C 
HETATM   17  O6  UNL     1      -3.106  -3.739  19.573  1.00  0.00    -0.257 OA
ENDROOT
BRANCH  13  18
HETATM   18  O4  UNL     1      -0.412  -4.757  22.006  1.00  0.00    -0.384 OA
ATOM     19  H4  UNL     1       0.435  -4.702  22.433  1.00  0.00     0.210 HD
ENDBRANCH  13  18
BRANCH   2  20
HETATM   20  O2  UNL     1      -2.056  -1.503  23.569  1.00  0.00    -0.357 OA
HETATM   21  C5  UNL     1      -1.247  -1.503  24.715  1.00  0.00     0.209 C 
ENDBRANCH   2  20
BRANCH   1  22
HETATM   22  O1  UNL     1      -2.426  -1.365  20.896  1.00  0.00    -0.344 OA
BRANCH  22  23
HETATM   23  C2  UNL     1      -3.475  -0.411  20.846  1.00  0.00     0.171 C 
HETATM   24  C1  UNL     1      -4.243  -0.569  19.561  1.00  0.00     0.034 C 
ENDBRANCH  22  23
ENDBRANCH   1  22
TORSDOF 4
ENDMDL
