MODEL 1
REMARK VINA RESULT: -6.891592096      0.000      0.000
REMARK  4 active torsions:
REMARK  status: ('A' for Active; 'I' for Inactive)
REMARK    1  A    between atoms: C3_3  and  O1_4 
REMARK    2  A    between atoms: O1_4  and  N1_5 
REMARK    3  A    between atoms: C4_7  and  C5_8 
REMARK    4  A    between atoms: N2_10  and  C7_11 
ROOT
HETATM    1  C1  UNL     1       0.962  -8.541  11.253  1.00  0.00     0.014 C 
HETATM    2  C2  UNL     1       0.291  -7.547  11.351  1.00  0.00    -0.089 C 
HETATM    3  C3  UNL     1      -0.534  -6.351  11.452  1.00  0.00     0.294 C 
ENDROOT
BRANCH   3   4
HETATM    4  O1  UNL     1      -1.686  -6.624  12.231  1.00  0.00    -0.269 OA
BRANCH   4   5
HETATM    5  N1  UNL     1      -1.846  -6.232  13.511  1.00  0.00    -0.276 N 
HETATM    6  C4  UNL     1      -2.378  -6.921  14.436  1.00  0.00     0.131 C 
ATOM      7  H1  UNL     1      -1.509  -5.301  13.759  1.00  0.00     0.193 HD
BRANCH   6   8
HETATM    8  C5  UNL     1      -2.515  -6.410  15.823  1.00  0.00     0.057 A 
HETATM    9  C6  UNL     1      -2.029  -7.043  16.907  1.00  0.00     0.124 A 
HETATM   10  N2  UNL     1      -2.223  -6.472  18.094  1.00  0.00    -0.274 N 
HETATM   11  S1  UNL     1      -3.069  -5.065  17.742  1.00  0.00     0.038 SA
HETATM   12  C11 UNL     1      -3.169  -5.224  16.049  1.00  0.00     0.242 A 
HETATM   13  O2  UNL     1      -3.711  -4.449  15.179  1.00  0.00    -0.278 OA
BRANCH  10  14
HETATM   14  C7  UNL     1      -1.783  -6.988  19.379  1.00  0.00     0.119 A 
HETATM   15  C8  UNL     1      -2.345  -8.062  20.034  1.00  0.00     0.070 A 
HETATM   16  C9  UNL     1      -1.675  -8.267  21.221  1.00  0.00     0.030 A 
HETATM   17 BR1  UNL     1      -2.008  -9.607  22.542  1.00  0.00    -0.050 Br
HETATM   18  C10 UNL     1      -0.705  -7.291  21.258  1.00  0.00     0.109 A 
HETATM   19  N3  UNL     1      -0.794  -6.545  20.148  1.00  0.00    -0.350 N 
ATOM     20  H3  UNL     1      -0.191  -5.753  19.927  1.00  0.00     0.166 HD
ENDBRANCH  10  14
ENDBRANCH   6   8
ENDBRANCH   4   5
ENDBRANCH   3   4
TORSDOF 4
ENDMDL
MODEL 2
REMARK VINA RESULT: -6.803996401      1.330      1.493
REMARK  4 active torsions:
REMARK  status: ('A' for Active; 'I' for Inactive)
REMARK    1  A    between atoms: C3_3  and  O1_4 
REMARK    2  A    between atoms: O1_4  and  N1_5 
REMARK    3  A    between atoms: C4_7  and  C5_8 
REMARK    4  A    between atoms: N2_10  and  C7_11 
ROOT
HETATM    1  C1  UNL     1       0.944  -8.536  11.252  1.00  0.00     0.014 C 
HETATM    2  C2  UNL     1       0.263  -7.550  11.366  1.00  0.00    -0.089 C 
HETATM    3  C3  UNL     1      -0.574  -6.365  11.486  1.00  0.00     0.294 C 
ENDROOT
BRANCH   3   4
HETATM    4  O1  UNL     1      -1.699  -6.648  12.301  1.00  0.00    -0.269 OA
BRANCH   4   5
HETATM    5  N1  UNL     1      -1.882  -6.149  13.540  1.00  0.00    -0.276 N 
HETATM    6  C4  UNL     1      -2.526  -6.713  14.478  1.00  0.00     0.131 C 
ATOM      7  H1  UNL     1      -1.469  -5.238  13.741  1.00  0.00     0.193 HD
BRANCH   6   8
HETATM    8  C5  UNL     1      -2.681  -6.090  15.816  1.00  0.00     0.057 A 
HETATM    9  C6  UNL     1      -2.045  -6.520  16.922  1.00  0.00     0.124 A 
HETATM   10  N2  UNL     1      -2.275  -5.868  18.059  1.00  0.00    -0.274 N 
HETATM   11  S1  UNL     1      -3.362  -4.661  17.630  1.00  0.00     0.038 SA
HETATM   12  C11 UNL     1      -3.513  -5.009  15.971  1.00  0.00     0.242 A 
HETATM   13  O2  UNL     1      -4.219  -4.427  15.067  1.00  0.00    -0.278 OA
BRANCH  10  14
HETATM   14  C7  UNL     1      -1.694  -6.169  19.357  1.00  0.00     0.119 A 
HETATM   15  C8  UNL     1      -1.571  -5.271  20.395  1.00  0.00     0.070 A 
HETATM   16  C9  UNL     1      -0.975  -5.901  21.467  1.00  0.00     0.030 A 
HETATM   17 BR1  UNL     1      -0.551  -5.161  23.177  1.00  0.00    -0.050 Br
HETATM   18  C10 UNL     1      -0.747  -7.191  21.042  1.00  0.00     0.109 A 
HETATM   19  N3  UNL     1      -1.184  -7.320  19.783  1.00  0.00    -0.350 N 
ATOM     20  H3  UNL     1      -1.134  -8.176  19.231  1.00  0.00     0.166 HD
ENDBRANCH  10  14
ENDBRANCH   6   8
ENDBRANCH   4   5
ENDBRANCH   3   4
TORSDOF 4
ENDMDL
MODEL 3
REMARK VINA RESULT: -6.765806488      0.983      1.122
REMARK  4 active torsions:
REMARK  status: ('A' for Active; 'I' for Inactive)
REMARK    1  A    between atoms: C3_3  and  O1_4 
REMARK    2  A    between atoms: O1_4  and  N1_5 
REMARK    3  A    between atoms: C4_7  and  C5_8 
REMARK    4  A    between atoms: N2_10  and  C7_11 
ROOT
HETATM    1  C1  UNL     1       1.037  -8.517  11.219  1.00  0.00     0.014 C 
HETATM    2  C2  UNL     1       0.360  -7.529  11.337  1.00  0.00    -0.089 C 
HETATM    3  C3  UNL     1      -0.472  -6.340  11.460  1.00  0.00     0.294 C 
ENDROOT
BRANCH   3   4
HETATM    4  O1  UNL     1      -1.634  -6.640  12.215  1.00  0.00    -0.269 OA
BRANCH   4   5
HETATM    5  N1  UNL     1      -1.815  -6.283  13.503  1.00  0.00    -0.276 N 
HETATM    6  C4  UNL     1      -2.352  -7.001  14.401  1.00  0.00     0.131 C 
ATOM      7  H1  UNL     1      -1.491  -5.355  13.779  1.00  0.00     0.193 HD
BRANCH   6   8
HETATM    8  C5  UNL     1      -2.513  -6.528  15.799  1.00  0.00     0.057 A 
HETATM    9  C6  UNL     1      -2.167  -7.250  16.881  1.00  0.00     0.124 A 
HETATM   10  N2  UNL     1      -2.366  -6.704  18.078  1.00  0.00    -0.274 N 
HETATM   11  S1  UNL     1      -3.027  -5.198  17.740  1.00  0.00     0.038 SA
HETATM   12  C11 UNL     1      -3.043  -5.284  16.039  1.00  0.00     0.242 A 
HETATM   13  O2  UNL     1      -3.442  -4.421  15.174  1.00  0.00    -0.278 OA
BRANCH  10  14
HETATM   14  C7  UNL     1      -2.063  -7.312  19.363  1.00  0.00     0.119 A 
HETATM   15  C8  UNL     1      -1.336  -6.714  20.368  1.00  0.00     0.070 A 
HETATM   16  C9  UNL     1      -1.247  -7.580  21.437  1.00  0.00     0.030 A 
HETATM   17 BR1  UNL     1      -0.364  -7.298  23.108  1.00  0.00    -0.050 Br
HETATM   18  C10 UNL     1      -1.936  -8.706  21.043  1.00  0.00     0.109 A 
HETATM   19  N3  UNL     1      -2.409  -8.517  19.805  1.00  0.00    -0.350 N 
ATOM     20  H3  UNL     1      -2.955  -9.198  19.277  1.00  0.00     0.166 HD
ENDBRANCH  10  14
ENDBRANCH   6   8
ENDBRANCH   4   5
ENDBRANCH   3   4
TORSDOF 4
ENDMDL
MODEL 4
REMARK VINA RESULT: -6.603980097      3.996      4.343
REMARK  4 active torsions:
REMARK  status: ('A' for Active; 'I' for Inactive)
REMARK    1  A    between atoms: C3_3  and  O1_4 
REMARK    2  A    between atoms: O1_4  and  N1_5 
REMARK    3  A    between atoms: C4_7  and  C5_8 
REMARK    4  A    between atoms: N2_10  and  C7_11 
ROOT
HETATM    1  C1  UNL     1       0.863  -8.471  11.234  1.00  0.00     0.014 C 
HETATM    2  C2  UNL     1      -0.224  -8.085  11.576  1.00  0.00    -0.089 C 
HETATM    3  C3  UNL     1      -1.546  -7.640  11.995  1.00  0.00     0.294 C 
ENDROOT
BRANCH   3   4
HETATM    4  O1  UNL     1      -1.531  -7.317  13.375  1.00  0.00    -0.269 OA
BRANCH   4   5
HETATM    5  N1  UNL     1      -2.067  -6.196  13.898  1.00  0.00    -0.276 N 
HETATM    6  C4  UNL     1      -2.972  -6.153  14.788  1.00  0.00     0.131 C 
ATOM      7  H1  UNL     1      -1.716  -5.305  13.548  1.00  0.00     0.193 HD
BRANCH   6   8
HETATM    8  C5  UNL     1      -3.507  -4.871  15.309  1.00  0.00     0.057 A 
HETATM    9  C6  UNL     1      -3.663  -4.598  16.618  1.00  0.00     0.124 A 
HETATM   10  N2  UNL     1      -4.155  -3.406  16.946  1.00  0.00    -0.274 N 
HETATM   11  S1  UNL     1      -4.410  -2.644  15.472  1.00  0.00     0.038 SA
HETATM   12  C11 UNL     1      -3.875  -3.881  14.431  1.00  0.00     0.242 A 
HETATM   13  O2  UNL     1      -3.818  -3.910  13.147  1.00  0.00    -0.278 OA
BRANCH  10  14
HETATM   14  C7  UNL     1      -4.400  -2.917  18.293  1.00  0.00     0.119 A 
HETATM   15  C8  UNL     1      -3.848  -1.775  18.832  1.00  0.00     0.070 A 
HETATM   16  C9  UNL     1      -4.299  -1.623  20.125  1.00  0.00     0.030 A 
HETATM   17 BR1  UNL     1      -3.875  -0.229  21.362  1.00  0.00    -0.050 Br
HETATM   18  C10 UNL     1      -5.130  -2.700  20.343  1.00  0.00     0.109 A 
HETATM   19  N3  UNL     1      -5.169  -3.452  19.236  1.00  0.00    -0.350 N 
ATOM     20  H3  UNL     1      -5.711  -4.310  19.131  1.00  0.00     0.166 HD
ENDBRANCH  10  14
ENDBRANCH   6   8
ENDBRANCH   4   5
ENDBRANCH   3   4
TORSDOF 4
ENDMDL
MODEL 5
REMARK VINA RESULT: -6.571388242      4.458      4.977
REMARK  4 active torsions:
REMARK  status: ('A' for Active; 'I' for Inactive)
REMARK    1  A    between atoms: C3_3  and  O1_4 
REMARK    2  A    between atoms: O1_4  and  N1_5 
REMARK    3  A    between atoms: C4_7  and  C5_8 
REMARK    4  A    between atoms: N2_10  and  C7_11 
ROOT
HETATM    1  C1  UNL     1      -0.963  -7.576  12.167  1.00  0.00     0.014 C 
HETATM    2  C2  UNL     1      -1.592  -7.067  13.058  1.00  0.00    -0.089 C 
HETATM    3  C3  UNL     1      -2.333  -6.439  14.143  1.00  0.00     0.294 C 
ENDROOT
BRANCH   3   4
HETATM    4  O1  UNL     1      -2.898  -5.218  13.697  1.00  0.00    -0.269 OA
BRANCH   4   5
HETATM    5  N1  UNL     1      -3.439  -4.290  14.513  1.00  0.00    -0.276 N 
HETATM    6  C4  UNL     1      -3.775  -4.474  15.724  1.00  0.00     0.131 C 
ATOM      7  H1  UNL     1      -3.591  -3.359  14.124  1.00  0.00     0.193 HD
BRANCH   6   8
HETATM    8  C5  UNL     1      -4.366  -3.394  16.553  1.00  0.00     0.057 A 
HETATM    9  C6  UNL     1      -3.871  -3.005  17.743  1.00  0.00     0.124 A 
HETATM   10  N2  UNL     1      -4.501  -2.022  18.381  1.00  0.00    -0.274 N 
HETATM   11  S1  UNL     1      -5.774  -1.618  17.364  1.00  0.00     0.038 SA
HETATM   12  C11 UNL     1      -5.484  -2.731  16.109  1.00  0.00     0.242 A 
HETATM   13  O2  UNL     1      -6.128  -2.925  15.014  1.00  0.00    -0.278 OA
BRANCH  10  14
HETATM   14  C7  UNL     1      -4.132  -1.457  19.669  1.00  0.00     0.119 A 
HETATM   15  C8  UNL     1      -3.430  -2.122  20.651  1.00  0.00     0.070 A 
HETATM   16  C9  UNL     1      -3.262  -1.282  21.731  1.00  0.00     0.030 A 
HETATM   17 BR1  UNL     1      -2.369  -1.653  23.380  1.00  0.00    -0.050 Br
HETATM   18  C10 UNL     1      -3.880  -0.106  21.370  1.00  0.00     0.109 A 
HETATM   19  N3  UNL     1      -4.389  -0.241  20.138  1.00  0.00    -0.350 N 
ATOM     20  H3  UNL     1      -4.899   0.484  19.634  1.00  0.00     0.166 HD
ENDBRANCH  10  14
ENDBRANCH   6   8
ENDBRANCH   4   5
ENDBRANCH   3   4
TORSDOF 4
ENDMDL
