MODEL 1
REMARK VINA RESULT: -7.013479886      0.000      0.000
REMARK  7 active torsions:
REMARK  status: ('A' for Active; 'I' for Inactive)
REMARK    1  A    between atoms: C2_2  and  O1_5 
REMARK    2  A    between atoms: O1_5  and  C5_6 
REMARK    3  A    between atoms: C5_6  and  O3_8 
REMARK    4  A    between atoms: O3_8  and  C6_9 
REMARK    5  A    between atoms: C6_9  and  C7_10 
REMARK    6  A    between atoms: C7_10  and  N1_11 
REMARK       I    between atoms: N1_11  and  C8_13 
REMARK    7  A    between atoms: C8_13  and  C9_15 
ROOT
HETATM    1  C7  UNL     1      -1.904  -1.805  10.993  1.00  0.00     0.149 C 
ENDROOT
BRANCH   1   2
HETATM    2  C6  UNL     1      -0.488  -2.298  11.134  1.00  0.00     0.200 C 
BRANCH   2   3
HETATM    3  O3  UNL     1      -0.511  -3.690  11.296  1.00  0.00    -0.296 OA
BRANCH   3   4
HETATM    4  C5  UNL     1      -0.321  -4.644  10.352  1.00  0.00     0.407 C 
HETATM    5  O2  UNL     1       0.440  -4.429   9.397  1.00  0.00    -0.229 OA
BRANCH   4   6
HETATM    6  O1  UNL     1      -0.943  -5.904  10.371  1.00  0.00    -0.288 OA
BRANCH   6   7
HETATM    7  C2  UNL     1      -0.576  -6.921  11.243  1.00  0.00     0.062 C 
HETATM    8  C1  UNL     1       0.910  -7.156  11.310  1.00  0.00     0.046 C 
HETATM    9  C3  UNL     1      -1.126  -6.754  12.643  1.00  0.00     0.046 C 
HETATM   10  C4  UNL     1      -1.191  -8.215  10.688  1.00  0.00     0.046 C 
ENDBRANCH   6   7
ENDBRANCH   4   6
ENDBRANCH   3   4
ENDBRANCH   2   3
ENDBRANCH   1   2
BRANCH   1  11
HETATM   11  N1  UNL     1      -2.499  -1.828  12.337  1.00  0.00    -0.353 N 
HETATM   12  C8  UNL     1      -3.769  -2.413  12.513  1.00  0.00     0.275 C 
HETATM   13  O4  UNL     1      -4.376  -2.902  11.536  1.00  0.00    -0.265 OA
ATOM     14  H1  UNL     1      -2.000  -1.427  13.131  1.00  0.00     0.162 HD
BRANCH  12  15
HETATM   15  C9  UNL     1      -4.388  -2.454  13.828  1.00  0.00     0.144 A 
HETATM   16  C10 UNL     1      -5.715  -2.791  14.083  1.00  0.00     0.046 A 
HETATM   17  C11 UNL     1      -5.886  -2.706  15.439  1.00  0.00     0.048 A 
HETATM   18  C12 UNL     1      -4.674  -2.324  15.957  1.00  0.00     0.122 A 
HETATM   19 BR1  UNL     1      -4.309  -2.046  17.788  1.00  0.00    -0.023 Br
HETATM   20  O5  UNL     1      -3.835  -2.192  14.971  1.00  0.00    -0.298 OA
ENDBRANCH  12  15
ENDBRANCH   1  11
TORSDOF 7
ENDMDL
MODEL 2
REMARK VINA RESULT: -6.426988469      5.675      6.793
REMARK  7 active torsions:
REMARK  status: ('A' for Active; 'I' for Inactive)
REMARK    1  A    between atoms: C2_2  and  O1_5 
REMARK    2  A    between atoms: O1_5  and  C5_6 
REMARK    3  A    between atoms: C5_6  and  O3_8 
REMARK    4  A    between atoms: O3_8  and  C6_9 
REMARK    5  A    between atoms: C6_9  and  C7_10 
REMARK    6  A    between atoms: C7_10  and  N1_11 
REMARK       I    between atoms: N1_11  and  C8_13 
REMARK    7  A    between atoms: C8_13  and  C9_15 
ROOT
HETATM    1  C7  UNL     1      -2.191  -8.662  16.231  1.00  0.00     0.149 C 
ENDROOT
BRANCH   1   2
HETATM    2  C6  UNL     1      -2.726  -7.732  15.174  1.00  0.00     0.200 C 
BRANCH   2   3
HETATM    3  O3  UNL     1      -1.879  -7.784  14.059  1.00  0.00    -0.296 OA
BRANCH   3   4
HETATM    4  C5  UNL     1      -1.509  -6.766  13.244  1.00  0.00     0.407 C 
HETATM    5  O2  UNL     1      -2.245  -5.778  13.112  1.00  0.00    -0.229 OA
BRANCH   4   6
HETATM    6  O1  UNL     1      -0.311  -6.743  12.509  1.00  0.00    -0.288 OA
BRANCH   6   7
HETATM    7  C2  UNL     1      -0.124  -7.466  11.337  1.00  0.00     0.062 C 
HETATM    8  C1  UNL     1       0.986  -8.479  11.420  1.00  0.00     0.046 C 
HETATM    9  C3  UNL     1      -1.381  -8.132  10.823  1.00  0.00     0.046 C 
HETATM   10  C4  UNL     1       0.300  -6.452  10.263  1.00  0.00     0.046 C 
ENDBRANCH   6   7
ENDBRANCH   4   6
ENDBRANCH   3   4
ENDBRANCH   2   3
ENDBRANCH   1   2
BRANCH   1  11
HETATM   11  N1  UNL     1      -1.838  -7.830  17.391  1.00  0.00    -0.353 N 
HETATM   12  C8  UNL     1      -1.843  -8.409  18.675  1.00  0.00     0.275 C 
HETATM   13  O4  UNL     1      -2.144  -9.613  18.820  1.00  0.00    -0.265 OA
ATOM     14  H1  UNL     1      -1.593  -6.847  17.268  1.00  0.00     0.162 HD
BRANCH  12  15
HETATM   15  C9  UNL     1      -1.499  -7.617  19.844  1.00  0.00     0.144 A 
HETATM   16  C10 UNL     1      -1.475  -6.225  19.896  1.00  0.00     0.046 A 
HETATM   17  C11 UNL     1      -1.103  -5.888  21.170  1.00  0.00     0.048 A 
HETATM   18  C12 UNL     1      -0.915  -7.070  21.842  1.00  0.00     0.122 A 
HETATM   19 BR1  UNL     1      -0.390  -7.225  23.649  1.00  0.00    -0.023 Br
HETATM   20  O5  UNL     1      -1.159  -8.048  21.019  1.00  0.00    -0.298 OA
ENDBRANCH  12  15
ENDBRANCH   1  11
TORSDOF 7
ENDMDL
MODEL 3
REMARK VINA RESULT: -6.387606331      4.925      7.452
REMARK  7 active torsions:
REMARK  status: ('A' for Active; 'I' for Inactive)
REMARK    1  A    between atoms: C2_2  and  O1_5 
REMARK    2  A    between atoms: O1_5  and  C5_6 
REMARK    3  A    between atoms: C5_6  and  O3_8 
REMARK    4  A    between atoms: O3_8  and  C6_9 
REMARK    5  A    between atoms: C6_9  and  C7_10 
REMARK    6  A    between atoms: C7_10  and  N1_11 
REMARK       I    between atoms: N1_11  and  C8_13 
REMARK    7  A    between atoms: C8_13  and  C9_15 
ROOT
HETATM    1  C7  UNL     1      -3.440  -6.315  15.167  1.00  0.00     0.149 C 
ENDROOT
BRANCH   1   2
HETATM    2  C6  UNL     1      -2.985  -5.315  16.197  1.00  0.00     0.200 C 
BRANCH   2   3
HETATM    3  O3  UNL     1      -1.875  -5.838  16.872  1.00  0.00    -0.296 OA
BRANCH   3   4
HETATM    4  C5  UNL     1      -1.809  -6.283  18.151  1.00  0.00     0.407 C 
HETATM    5  O2  UNL     1      -1.947  -5.488  19.093  1.00  0.00    -0.229 OA
BRANCH   4   6
HETATM    6  O1  UNL     1      -1.587  -7.624  18.507  1.00  0.00    -0.288 OA
BRANCH   6   7
HETATM    7  C2  UNL     1      -2.540  -8.622  18.341  1.00  0.00     0.062 C 
HETATM    8  C1  UNL     1      -3.959  -8.126  18.416  1.00  0.00     0.046 C 
HETATM    9  C3  UNL     1      -2.354  -9.441  17.082  1.00  0.00     0.046 C 
HETATM   10  C4  UNL     1      -2.362  -9.594  19.519  1.00  0.00     0.046 C 
ENDBRANCH   6   7
ENDBRANCH   4   6
ENDBRANCH   3   4
ENDBRANCH   2   3
ENDBRANCH   1   2
BRANCH   1  11
HETATM   11  N1  UNL     1      -2.664  -6.051  13.946  1.00  0.00    -0.353 N 
HETATM   12  C8  UNL     1      -1.775  -7.037  13.474  1.00  0.00     0.275 C 
HETATM   13  O4  UNL     1      -1.651  -8.117  14.090  1.00  0.00    -0.265 OA
ATOM     14  H1  UNL     1      -2.768  -5.167  13.447  1.00  0.00     0.162 HD
BRANCH  12  15
HETATM   15  C9  UNL     1      -0.992  -6.811  12.271  1.00  0.00     0.144 A 
HETATM   16  C10 UNL     1      -0.273  -7.786  11.583  1.00  0.00     0.046 A 
HETATM   17  C11 UNL     1       0.315  -7.158  10.517  1.00  0.00     0.048 A 
HETATM   18  C12 UNL     1      -0.061  -5.840  10.591  1.00  0.00     0.122 A 
HETATM   19 BR1  UNL     1       0.454  -4.490   9.376  1.00  0.00    -0.023 Br
HETATM   20  O5  UNL     1      -0.824  -5.694  11.635  1.00  0.00    -0.298 OA
ENDBRANCH  12  15
ENDBRANCH   1  11
TORSDOF 7
ENDMDL
MODEL 4
REMARK VINA RESULT: -6.362239881      2.990      4.186
REMARK  7 active torsions:
REMARK  status: ('A' for Active; 'I' for Inactive)
REMARK    1  A    between atoms: C2_2  and  O1_5 
REMARK    2  A    between atoms: O1_5  and  C5_6 
REMARK    3  A    between atoms: C5_6  and  O3_8 
REMARK    4  A    between atoms: O3_8  and  C6_9 
REMARK    5  A    between atoms: C6_9  and  C7_10 
REMARK    6  A    between atoms: C7_10  and  N1_11 
REMARK       I    between atoms: N1_11  and  C8_13 
REMARK    7  A    between atoms: C8_13  and  C9_15 
ROOT
HETATM    1  C7  UNL     1      -3.308  -6.547  16.120  1.00  0.00     0.149 C 
ENDROOT
BRANCH   1   2
HETATM    2  C6  UNL     1      -2.470  -7.612  15.463  1.00  0.00     0.200 C 
BRANCH   2   3
HETATM    3  O3  UNL     1      -2.537  -7.443  14.074  1.00  0.00    -0.296 OA
BRANCH   3   4
HETATM    4  C5  UNL     1      -1.651  -6.808  13.268  1.00  0.00     0.407 C 
HETATM    5  O2  UNL     1      -1.847  -5.630  12.937  1.00  0.00    -0.229 OA
BRANCH   4   6
HETATM    6  O1  UNL     1      -0.485  -7.404  12.757  1.00  0.00    -0.288 OA
BRANCH   6   7
HETATM    7  C2  UNL     1      -0.288  -7.653  11.404  1.00  0.00     0.062 C 
HETATM    8  C1  UNL     1      -1.452  -8.334  10.735  1.00  0.00     0.046 C 
HETATM    9  C3  UNL     1       0.107  -6.428  10.609  1.00  0.00     0.046 C 
HETATM   10  C4  UNL     1       0.894  -8.631  11.308  1.00  0.00     0.046 C 
ENDBRANCH   6   7
ENDBRANCH   4   6
ENDBRANCH   3   4
ENDBRANCH   2   3
ENDBRANCH   1   2
BRANCH   1  11
HETATM   11  N1  UNL     1      -3.947  -5.781  15.040  1.00  0.00    -0.353 N 
HETATM   12  C8  UNL     1      -4.156  -4.398  15.213  1.00  0.00     0.275 C 
HETATM   13  O4  UNL     1      -3.802  -3.837  16.272  1.00  0.00    -0.265 OA
ATOM     14  H1  UNL     1      -4.235  -6.244  14.177  1.00  0.00     0.162 HD
BRANCH  12  15
HETATM   15  C9  UNL     1      -4.784  -3.609  14.167  1.00  0.00     0.144 A 
HETATM   16  C10 UNL     1      -5.816  -2.693  14.358  1.00  0.00     0.046 A 
HETATM   17  C11 UNL     1      -6.111  -2.175  13.125  1.00  0.00     0.048 A 
HETATM   18  C12 UNL     1      -5.261  -2.784  12.237  1.00  0.00     0.122 A 
HETATM   19 BR1  UNL     1      -5.211  -2.461  10.377  1.00  0.00    -0.023 Br
HETATM   20  O5  UNL     1      -4.508  -3.613  12.900  1.00  0.00    -0.298 OA
ENDBRANCH  12  15
ENDBRANCH   1  11
TORSDOF 7
ENDMDL
MODEL 5
REMARK VINA RESULT: -6.272251410      3.290      7.587
REMARK  7 active torsions:
REMARK  status: ('A' for Active; 'I' for Inactive)
REMARK    1  A    between atoms: C2_2  and  O1_5 
REMARK    2  A    between atoms: O1_5  and  C5_6 
REMARK    3  A    between atoms: C5_6  and  O3_8 
REMARK    4  A    between atoms: O3_8  and  C6_9 
REMARK    5  A    between atoms: C6_9  and  C7_10 
REMARK    6  A    between atoms: C7_10  and  N1_11 
REMARK       I    between atoms: N1_11  and  C8_13 
REMARK    7  A    between atoms: C8_13  and  C9_15 
ROOT
HETATM    1  C7  UNL     1      -3.596  -5.881  15.502  1.00  0.00     0.149 C 
ENDROOT
BRANCH   1   2
HETATM    2  C6  UNL     1      -4.990  -5.403  15.193  1.00  0.00     0.200 C 
BRANCH   2   3
HETATM    3  O3  UNL     1      -4.905  -4.175  14.524  1.00  0.00    -0.296 OA
BRANCH   3   4
HETATM    4  C5  UNL     1      -5.379  -2.970  14.927  1.00  0.00     0.407 C 
HETATM    5  O2  UNL     1      -6.420  -2.515  14.430  1.00  0.00    -0.229 OA
BRANCH   4   6
HETATM    6  O1  UNL     1      -4.760  -2.167  15.899  1.00  0.00    -0.288 OA
BRANCH   6   7
HETATM    7  C2  UNL     1      -4.973  -2.324  17.264  1.00  0.00     0.062 C 
HETATM    8  C1  UNL     1      -6.303  -2.941  17.604  1.00  0.00     0.046 C 
HETATM    9  C3  UNL     1      -3.869  -3.076  17.972  1.00  0.00     0.046 C 
HETATM   10  C4  UNL     1      -4.990  -0.910  17.867  1.00  0.00     0.046 C 
ENDBRANCH   6   7
ENDBRANCH   4   6
ENDBRANCH   3   4
ENDBRANCH   2   3
ENDBRANCH   1   2
BRANCH   1  11
HETATM   11  N1  UNL     1      -2.832  -5.807  14.248  1.00  0.00    -0.353 N 
HETATM   12  C8  UNL     1      -2.044  -6.909  13.860  1.00  0.00     0.275 C 
HETATM   13  O4  UNL     1      -1.999  -7.932  14.577  1.00  0.00    -0.265 OA
ATOM     14  H1  UNL     1      -2.871  -4.970  13.666  1.00  0.00     0.162 HD
BRANCH  12  15
HETATM   15  C9  UNL     1      -1.276  -6.872  12.627  1.00  0.00     0.144 A 
HETATM   16  C10 UNL     1      -0.723  -7.979  11.989  1.00  0.00     0.046 A 
HETATM   17  C11 UNL     1      -0.087  -7.509  10.870  1.00  0.00     0.048 A 
HETATM   18  C12 UNL     1      -0.272  -6.149  10.866  1.00  0.00     0.122 A 
HETATM   19 BR1  UNL     1       0.388  -4.963   9.554  1.00  0.00    -0.023 Br
HETATM   20  O5  UNL     1      -0.973  -5.831  11.915  1.00  0.00    -0.298 OA
ENDBRANCH  12  15
ENDBRANCH   1  11
TORSDOF 7
ENDMDL
