MODEL 1
REMARK VINA RESULT: -8.459283210      0.000      0.000
REMARK  4 active torsions:
REMARK  status: ('A' for Active; 'I' for Inactive)
REMARK       I    between atoms: C1_2  and  N1_3 
REMARK    1  A    between atoms: C1_2  and  C12_23 
REMARK    2  A    between atoms: N1_3  and  C2_5 
REMARK    3  A    between atoms: C5_8  and  N2_9 
REMARK    4  A    between atoms: C6_14  and  C7_15 
ROOT
HETATM    1  C2  UNL     1      -3.507  -6.316  15.338  1.00  0.00     0.086 C 
HETATM    2  C3  UNL     1      -5.009  -6.262  15.256  1.00  0.00     0.027 C 
HETATM    3  C4  UNL     1      -5.382  -4.802  15.187  1.00  0.00     0.031 C 
HETATM    4  C5  UNL     1      -4.134  -4.027  15.461  1.00  0.00     0.130 C 
HETATM    5  C11 UNL     1      -3.133  -5.018  16.016  1.00  0.00     0.054 C 
ENDROOT
BRANCH   4   6
HETATM    6  N2  UNL     1      -4.320  -3.002  16.474  1.00  0.00    -0.213 N 
HETATM    7  N3  UNL     1      -4.747  -1.790  16.207  1.00  0.00    -0.224 N 
HETATM    8  N4  UNL     1      -4.814  -1.091  17.326  1.00  0.00    -0.272 N 
ATOM      9  H3  UNL     1      -4.989  -1.442  15.279  1.00  0.00     0.210 HD
HETATM   10  C6  UNL     1      -4.415  -1.892  18.327  1.00  0.00     0.117 A 
ATOM     11  H4  UNL     1      -5.115  -0.121  17.413  1.00  0.00     0.190 HD
HETATM   12  N5  UNL     1      -4.113  -3.075  17.777  1.00  0.00    -0.269 N 
ATOM     13  H5  UNL     1      -3.779  -3.896  18.281  1.00  0.00     0.190 HD
BRANCH  10  14
HETATM   14  C7  UNL     1      -4.337  -1.505  19.773  1.00  0.00     0.061 C 
HETATM   15  C8  UNL     1      -3.682  -2.578  20.613  1.00  0.00     0.049 C 
HETATM   16  C9  UNL     1      -2.765  -1.491  21.182  1.00  0.00     0.171 C 
HETATM   17  F1  UNL     1      -3.226  -1.027  22.414  1.00  0.00    -0.249 F 
HETATM   18  C10 UNL     1      -3.176  -0.577  20.027  1.00  0.00     0.049 C 
ENDBRANCH  10  14
ENDBRANCH   4   6
BRANCH   1  19
HETATM   19  N1  UNL     1      -2.890  -6.315  14.022  1.00  0.00    -0.356 N 
HETATM   20  C1  UNL     1      -1.940  -7.295  13.630  1.00  0.00     0.222 C 
HETATM   21  O1  UNL     1      -1.644  -8.181  14.473  1.00  0.00    -0.273 OA
ATOM     22  H1  UNL     1      -3.149  -5.585  13.358  1.00  0.00     0.162 HD
BRANCH  20  23
HETATM   23  C12 UNL     1      -1.332  -7.266  12.286  1.00  0.00     0.082 C 
HETATM   24  C13 UNL     1      -0.358  -6.138  12.113  1.00  0.00     0.040 C 
HETATM   25  C14 UNL     1       0.071  -6.105  10.668  1.00  0.00     0.168 C 
HETATM   26  O2  UNL     1       0.531  -7.326  10.213  1.00  0.00    -0.391 OA
HETATM   27  C15 UNL     1       0.693  -8.262  11.222  1.00  0.00     0.168 C 
HETATM   28  C16 UNL     1      -0.607  -8.553  11.953  1.00  0.00     0.040 C 
ENDBRANCH  20  23
ENDBRANCH   1  19
TORSDOF 4
ENDMDL
MODEL 2
REMARK VINA RESULT: -7.976749361      4.299      8.971
REMARK  4 active torsions:
REMARK  status: ('A' for Active; 'I' for Inactive)
REMARK       I    between atoms: C1_2  and  N1_3 
REMARK    1  A    between atoms: C1_2  and  C12_23 
REMARK    2  A    between atoms: N1_3  and  C2_5 
REMARK    3  A    between atoms: C5_8  and  N2_9 
REMARK    4  A    between atoms: C6_14  and  C7_15 
ROOT
HETATM    1  C2  UNL     1      -4.861  -3.695  16.336  1.00  0.00     0.086 C 
HETATM    2  C3  UNL     1      -5.657  -4.939  16.630  1.00  0.00     0.027 C 
HETATM    3  C4  UNL     1      -4.663  -6.069  16.728  1.00  0.00     0.031 C 
HETATM    4  C5  UNL     1      -3.348  -5.527  16.268  1.00  0.00     0.130 C 
HETATM    5  C11 UNL     1      -3.649  -4.206  15.592  1.00  0.00     0.054 C 
ENDROOT
BRANCH   4   6
HETATM    6  N2  UNL     1      -2.708  -6.373  15.275  1.00  0.00    -0.213 N 
HETATM    7  N3  UNL     1      -2.308  -7.599  15.520  1.00  0.00    -0.224 N 
HETATM    8  N4  UNL     1      -1.768  -8.111  14.428  1.00  0.00    -0.272 N 
ATOM      9  H3  UNL     1      -2.399  -8.081  16.414  1.00  0.00     0.210 HD
HETATM   10  C6  UNL     1      -1.832  -7.174  13.468  1.00  0.00     0.117 A 
ATOM     11  H4  UNL     1      -1.375  -9.047  14.332  1.00  0.00     0.190 HD
HETATM   12  N5  UNL     1      -2.420  -6.103  14.014  1.00  0.00    -0.269 N 
ATOM     13  H5  UNL     1      -2.614  -5.223  13.536  1.00  0.00     0.190 HD
BRANCH  10  14
HETATM   14  C7  UNL     1      -1.333  -7.331  12.063  1.00  0.00     0.061 C 
HETATM   15  C8  UNL     1      -0.136  -6.453  11.785  1.00  0.00     0.049 C 
HETATM   16  C9  UNL     1       0.576  -7.695  11.239  1.00  0.00     0.171 C 
HETATM   17  F1  UNL     1       0.497  -7.760   9.849  1.00  0.00    -0.249 F 
HETATM   18  C10 UNL     1      -0.480  -8.566  11.922  1.00  0.00     0.049 C 
ENDBRANCH  10  14
ENDBRANCH   4   6
BRANCH   1  19
HETATM   19  N1  UNL     1      -4.388  -3.053  17.551  1.00  0.00    -0.356 N 
HETATM   20  C1  UNL     1      -5.055  -1.940  18.129  1.00  0.00     0.222 C 
HETATM   21  O1  UNL     1      -6.088  -1.521  17.546  1.00  0.00    -0.273 OA
ATOM     22  H1  UNL     1      -3.548  -3.414  18.005  1.00  0.00     0.162 HD
BRANCH  20  23
HETATM   23  C12 UNL     1      -4.550  -1.310  19.364  1.00  0.00     0.082 C 
HETATM   24  C13 UNL     1      -5.165  -1.887  20.605  1.00  0.00     0.040 C 
HETATM   25  C14 UNL     1      -4.707  -1.066  21.783  1.00  0.00     0.168 C 
HETATM   26  O2  UNL     1      -3.334  -0.926  21.843  1.00  0.00    -0.391 OA
HETATM   27  C15 UNL     1      -2.660  -1.731  20.938  1.00  0.00     0.168 C 
HETATM   28  C16 UNL     1      -3.047  -1.430  19.500  1.00  0.00     0.040 C 
ENDBRANCH  20  23
ENDBRANCH   1  19
TORSDOF 4
ENDMDL
MODEL 3
REMARK VINA RESULT: -7.935825938      4.288      6.499
REMARK  4 active torsions:
REMARK  status: ('A' for Active; 'I' for Inactive)
REMARK       I    between atoms: C1_2  and  N1_3 
REMARK    1  A    between atoms: C1_2  and  C12_23 
REMARK    2  A    between atoms: N1_3  and  C2_5 
REMARK    3  A    between atoms: C5_8  and  N2_9 
REMARK    4  A    between atoms: C6_14  and  C7_15 
ROOT
HETATM    1  C2  UNL     1      -4.969  -2.202  19.213  1.00  0.00     0.086 C 
HETATM    2  C3  UNL     1      -4.302  -0.912  19.608  1.00  0.00     0.027 C 
HETATM    3  C4  UNL     1      -2.912  -1.273  20.069  1.00  0.00     0.031 C 
HETATM    4  C5  UNL     1      -2.861  -2.763  20.159  1.00  0.00     0.130 C 
HETATM    5  C11 UNL     1      -4.297  -3.240  20.082  1.00  0.00     0.054 C 
ENDROOT
BRANCH   4   6
HETATM    6  N2  UNL     1      -2.328  -3.233  21.426  1.00  0.00    -0.213 N 
HETATM    7  N3  UNL     1      -1.724  -2.451  22.290  1.00  0.00    -0.224 N 
HETATM    8  N4  UNL     1      -1.354  -3.161  23.341  1.00  0.00    -0.272 N 
ATOM      9  H3  UNL     1      -1.565  -1.451  22.169  1.00  0.00     0.210 HD
HETATM   10  C6  UNL     1      -1.739  -4.430  23.127  1.00  0.00     0.117 A 
ATOM     11  H4  UNL     1      -0.865  -2.810  24.164  1.00  0.00     0.190 HD
HETATM   12  N5  UNL     1      -2.342  -4.453  21.933  1.00  0.00    -0.269 N 
ATOM     13  H5  UNL     1      -2.747  -5.277  21.488  1.00  0.00     0.190 HD
BRANCH  10  14
HETATM   14  C7  UNL     1      -1.519  -5.577  24.068  1.00  0.00     0.061 C 
HETATM   15  C8  UNL     1      -2.512  -6.693  23.843  1.00  0.00     0.049 C 
HETATM   16  C9  UNL     1      -1.325  -7.659  23.788  1.00  0.00     0.171 C 
HETATM   17  F1  UNL     1      -1.125  -8.295  25.013  1.00  0.00    -0.249 F 
HETATM   18  C10 UNL     1      -0.393  -6.461  23.596  1.00  0.00     0.049 C 
ENDBRANCH  10  14
ENDBRANCH   4   6
BRANCH   1  19
HETATM   19  N1  UNL     1      -4.698  -2.552  17.828  1.00  0.00    -0.356 N 
HETATM   20  C1  UNL     1      -5.632  -2.299  16.787  1.00  0.00     0.222 C 
HETATM   21  O1  UNL     1      -6.719  -1.754  17.108  1.00  0.00    -0.273 OA
ATOM     22  H1  UNL     1      -3.808  -2.993  17.596  1.00  0.00     0.162 HD
BRANCH  20  23
HETATM   23  C12 UNL     1      -5.328  -2.666  15.391  1.00  0.00     0.082 C 
HETATM   24  C13 UNL     1      -4.172  -1.893  14.826  1.00  0.00     0.040 C 
HETATM   25  C14 UNL     1      -4.057  -2.224  13.360  1.00  0.00     0.168 C 
HETATM   26  O2  UNL     1      -4.006  -3.582  13.114  1.00  0.00    -0.391 OA
HETATM   27  C15 UNL     1      -3.864  -4.343  14.264  1.00  0.00     0.168 C 
HETATM   28  C16 UNL     1      -5.014  -4.139  15.236  1.00  0.00     0.040 C 
ENDBRANCH  20  23
ENDBRANCH   1  19
TORSDOF 4
ENDMDL
MODEL 4
REMARK VINA RESULT: -7.852154428      4.240      6.040
REMARK  4 active torsions:
REMARK  status: ('A' for Active; 'I' for Inactive)
REMARK       I    between atoms: C1_2  and  N1_3 
REMARK    1  A    between atoms: C1_2  and  C12_23 
REMARK    2  A    between atoms: N1_3  and  C2_5 
REMARK    3  A    between atoms: C5_8  and  N2_9 
REMARK    4  A    between atoms: C6_14  and  C7_15 
ROOT
HETATM    1  C2  UNL     1      -5.396  -2.676  18.215  1.00  0.00     0.086 C 
HETATM    2  C3  UNL     1      -4.949  -1.317  18.684  1.00  0.00     0.027 C 
HETATM    3  C4  UNL     1      -3.543  -1.486  19.203  1.00  0.00     0.031 C 
HETATM    4  C5  UNL     1      -3.274  -2.955  19.249  1.00  0.00     0.130 C 
HETATM    5  C11 UNL     1      -4.617  -3.636  19.084  1.00  0.00     0.054 C 
ENDROOT
BRANCH   4   6
HETATM    6  N2  UNL     1      -2.735  -3.389  20.526  1.00  0.00    -0.213 N 
HETATM    7  N3  UNL     1      -2.018  -2.616  21.308  1.00  0.00    -0.224 N 
HETATM    8  N4  UNL     1      -1.674  -3.287  22.393  1.00  0.00    -0.272 N 
ATOM      9  H3  UNL     1      -1.765  -1.649  21.108  1.00  0.00     0.210 HD
HETATM   10  C6  UNL     1      -2.193  -4.520  22.287  1.00  0.00     0.117 A 
ATOM     11  H4  UNL     1      -1.117  -2.932  23.170  1.00  0.00     0.190 HD
HETATM   12  N5  UNL     1      -2.849  -4.563  21.121  1.00  0.00    -0.269 N 
ATOM     13  H5  UNL     1      -3.353  -5.370  20.752  1.00  0.00     0.190 HD
BRANCH  10  14
HETATM   14  C7  UNL     1      -2.049  -5.617  23.300  1.00  0.00     0.061 C 
HETATM   15  C8  UNL     1      -1.594  -6.913  22.672  1.00  0.00     0.049 C 
HETATM   16  C9  UNL     1      -0.500  -6.981  23.742  1.00  0.00     0.171 C 
HETATM   17  F1  UNL     1      -0.873  -7.806  24.803  1.00  0.00    -0.249 F 
HETATM   18  C10 UNL     1      -0.743  -5.501  24.045  1.00  0.00     0.049 C 
ENDBRANCH  10  14
ENDBRANCH   4   6
BRANCH   1  19
HETATM   19  N1  UNL     1      -5.014  -2.928  16.836  1.00  0.00    -0.356 N 
HETATM   20  C1  UNL     1      -5.966  -2.975  15.782  1.00  0.00     0.222 C 
HETATM   21  O1  UNL     1      -7.172  -2.787  16.087  1.00  0.00    -0.273 OA
ATOM     22  H1  UNL     1      -4.029  -3.077  16.616  1.00  0.00     0.162 HD
BRANCH  20  23
HETATM   23  C12 UNL     1      -5.546  -3.233  14.391  1.00  0.00     0.082 C 
HETATM   24  C13 UNL     1      -6.160  -2.276  13.412  1.00  0.00     0.040 C 
HETATM   25  C14 UNL     1      -5.798  -2.731  12.021  1.00  0.00     0.168 C 
HETATM   26  O2  UNL     1      -4.441  -2.924  11.851  1.00  0.00    -0.391 OA
HETATM   27  C15 UNL     1      -3.684  -2.467  12.919  1.00  0.00     0.168 C 
HETATM   28  C16 UNL     1      -4.044  -3.163  14.220  1.00  0.00     0.040 C 
ENDBRANCH  20  23
ENDBRANCH   1  19
TORSDOF 4
ENDMDL
MODEL 5
REMARK VINA RESULT: -7.848974420      4.161      5.071
REMARK  4 active torsions:
REMARK  status: ('A' for Active; 'I' for Inactive)
REMARK       I    between atoms: C1_2  and  N1_3 
REMARK    1  A    between atoms: C1_2  and  C12_23 
REMARK    2  A    between atoms: N1_3  and  C2_5 
REMARK    3  A    between atoms: C5_8  and  N2_9 
REMARK    4  A    between atoms: C6_14  and  C7_15 
ROOT
HETATM    1  C2  UNL     1      -3.033  -7.616  15.635  1.00  0.00     0.086 C 
HETATM    2  C3  UNL     1      -2.998  -6.241  16.248  1.00  0.00     0.027 C 
HETATM    3  C4  UNL     1      -2.024  -6.311  17.398  1.00  0.00     0.031 C 
HETATM    4  C5  UNL     1      -1.684  -7.754  17.587  1.00  0.00     0.130 C 
HETATM    5  C11 UNL     1      -2.704  -8.537  16.787  1.00  0.00     0.054 C 
ENDROOT
BRANCH   4   6
HETATM    6  N2  UNL     1      -1.811  -8.185  18.969  1.00  0.00    -0.213 N 
HETATM    7  N3  UNL     1      -2.469  -9.260  19.333  1.00  0.00    -0.224 N 
HETATM    8  N4  UNL     1      -2.406  -9.391  20.646  1.00  0.00    -0.272 N 
ATOM      9  H3  UNL     1      -2.954  -9.896  18.700  1.00  0.00     0.210 HD
HETATM   10  C6  UNL     1      -1.685  -8.362  21.120  1.00  0.00     0.117 A 
ATOM     11  H4  UNL     1      -2.829 -10.137  21.199  1.00  0.00     0.190 HD
HETATM   12  N5  UNL     1      -1.324  -7.625  20.062  1.00  0.00    -0.269 N 
ATOM     13  H5  UNL     1      -0.765  -6.772  20.095  1.00  0.00     0.190 HD
BRANCH  10  14
HETATM   14  C7  UNL     1      -1.363  -8.116  22.563  1.00  0.00     0.061 C 
HETATM   15  C8  UNL     1      -0.016  -7.455  22.740  1.00  0.00     0.049 C 
HETATM   16  C9  UNL     1      -0.707  -6.417  23.629  1.00  0.00     0.171 C 
HETATM   17  F1  UNL     1      -0.559  -6.722  24.981  1.00  0.00    -0.249 F 
HETATM   18  C10 UNL     1      -2.055  -6.877  23.073  1.00  0.00     0.049 C 
ENDBRANCH  10  14
ENDBRANCH   4   6
BRANCH   1  19
HETATM   19  N1  UNL     1      -1.999  -7.789  14.629  1.00  0.00    -0.356 N 
HETATM   20  C1  UNL     1      -1.859  -6.904  13.526  1.00  0.00     0.222 C 
HETATM   21  O1  UNL     1      -2.674  -5.949  13.447  1.00  0.00    -0.273 OA
ATOM     22  H1  UNL     1      -1.351  -8.572  14.718  1.00  0.00     0.162 HD
BRANCH  20  23
HETATM   23  C12 UNL     1      -0.798  -7.107  12.521  1.00  0.00     0.082 C 
HETATM   24  C13 UNL     1      -1.227  -8.001  11.395  1.00  0.00     0.040 C 
HETATM   25  C14 UNL     1      -0.026  -8.270  10.525  1.00  0.00     0.168 C 
HETATM   26  O2  UNL     1       0.618  -7.116  10.120  1.00  0.00    -0.391 OA
HETATM   27  C15 UNL     1      -0.085  -5.961  10.423  1.00  0.00     0.168 C 
HETATM   28  C16 UNL     1      -0.320  -5.804  11.916  1.00  0.00     0.040 C 
ENDBRANCH  20  23
ENDBRANCH   1  19
TORSDOF 4
ENDMDL
