MODEL 1
REMARK VINA RESULT: -8.815517644      0.000      0.000
REMARK  5 active torsions:
REMARK  status: ('A' for Active; 'I' for Inactive)
REMARK    1  A    between atoms: C3_4  and  C4_5 
REMARK    2  A    between atoms: C4_5  and  C5_6 
REMARK       I    between atoms: N3_14  and  C10_15 
REMARK    3  A    between atoms: C10_15  and  C11_17 
REMARK    4  A    between atoms: C11_17  and  N4_18 
REMARK       I    between atoms: N4_18  and  C12_20 
REMARK    5  A    between atoms: C12_20  and  C13_22 
ROOT
HETATM    1  N1  UNL     1      22.818  10.388  40.861  1.00  0.00    -0.195 NA
HETATM    2  C1  UNL     1      23.420  11.371  41.057  1.00  0.00     0.087 C 
HETATM    3  C2  UNL     1      24.147  12.601  41.314  1.00  0.00     0.218 A 
HETATM    4  C3  UNL     1      25.202  13.090  40.510  1.00  0.00     0.131 A 
HETATM    5  N3  UNL     1      23.874  13.665  40.295  1.00  0.00    -0.323 N 
HETATM    6  C10 UNL     1      22.949  14.532  39.664  1.00  0.00     0.239 C 
HETATM    7  O1  UNL     1      23.349  15.291  38.767  1.00  0.00    -0.271 OA
ENDROOT
BRANCH   4   8
HETATM    8  C4  UNL     1      25.815  12.391  39.345  1.00  0.00     0.082 C 
BRANCH   8   9
HETATM    9  C5  UNL     1      26.612  13.252  38.448  1.00  0.00     0.003 C 
HETATM   10  N2  UNL     1      26.216  14.432  38.214  1.00  0.00    -0.395 N 
HETATM   11  C6  UNL     1      26.874  15.376  37.376  1.00  0.00     0.119 C 
ATOM     12  H2  UNL     1      25.351  14.732  38.665  1.00  0.00     0.159 HD
HETATM   13  C7  UNL     1      28.348  15.047  37.359  1.00  0.00     0.021 C 
HETATM   14  C8  UNL     1      28.463  13.637  36.819  1.00  0.00     0.027 C 
HETATM   15  C9  UNL     1      27.854  12.721  37.849  1.00  0.00     0.127 C 
HETATM   16 CL1  UNL     1      29.032  12.485  39.171  1.00  0.00    -0.119 Cl
ENDBRANCH   8   9
ENDBRANCH   4   8
BRANCH   6  17
HETATM   17  C11 UNL     1      21.541  14.517  40.079  1.00  0.00     0.225 C 
BRANCH  17  18
HETATM   18  N4  UNL     1      21.310  15.564  41.047  1.00  0.00    -0.348 N 
HETATM   19  C12 UNL     1      20.366  16.571  40.803  1.00  0.00     0.252 C 
HETATM   20  O2  UNL     1      19.715  16.568  39.718  1.00  0.00    -0.268 OA
ATOM     21  H4  UNL     1      21.840  15.571  41.918  1.00  0.00     0.163 HD
BRANCH  19  22
HETATM   22  C13 UNL     1      20.131  17.614  41.788  1.00  0.00     0.033 A 
HETATM   23  C14 UNL     1      20.691  17.452  43.049  1.00  0.00     0.019 A 
HETATM   24  C15 UNL     1      20.467  18.431  43.981  1.00  0.00     0.026 A 
HETATM   25  C16 UNL     1      19.702  19.561  43.686  1.00  0.00     0.055 A 
HETATM   26 CL2  UNL     1      19.424  20.805  44.886  1.00  0.00    -0.083 Cl
HETATM   27  C17 UNL     1      19.163  19.699  42.442  1.00  0.00     0.056 A 
HETATM   28 CL3  UNL     1      18.188  21.096  41.998  1.00  0.00    -0.083 Cl
HETATM   29  C18 UNL     1      19.378  18.721  41.488  1.00  0.00     0.042 A 
ENDBRANCH  19  22
ENDBRANCH  17  18
ENDBRANCH   6  17
TORSDOF 5
ENDMDL
MODEL 2
REMARK VINA RESULT: -8.801370447      0.837      1.461
REMARK  5 active torsions:
REMARK  status: ('A' for Active; 'I' for Inactive)
REMARK    1  A    between atoms: C3_4  and  C4_5 
REMARK    2  A    between atoms: C4_5  and  C5_6 
REMARK       I    between atoms: N3_14  and  C10_15 
REMARK    3  A    between atoms: C10_15  and  C11_17 
REMARK    4  A    between atoms: C11_17  and  N4_18 
REMARK       I    between atoms: N4_18  and  C12_20 
REMARK    5  A    between atoms: C12_20  and  C13_22 
ROOT
HETATM    1  N1  UNL     1      22.899  10.342  40.751  1.00  0.00    -0.195 NA
HETATM    2  C1  UNL     1      23.491  11.321  40.991  1.00  0.00     0.087 C 
HETATM    3  C2  UNL     1      24.205  12.545  41.304  1.00  0.00     0.218 A 
HETATM    4  C3  UNL     1      25.249  13.086  40.519  1.00  0.00     0.131 A 
HETATM    5  N3  UNL     1      23.913  13.655  40.340  1.00  0.00    -0.323 N 
HETATM    6  C10 UNL     1      22.975  14.541  39.757  1.00  0.00     0.239 C 
HETATM    7  O1  UNL     1      23.360  15.347  38.897  1.00  0.00    -0.271 OA
ENDROOT
BRANCH   4   8
HETATM    8  C4  UNL     1      25.863  12.453  39.319  1.00  0.00     0.082 C 
BRANCH   8   9
HETATM    9  C5  UNL     1      26.654  13.364  38.466  1.00  0.00     0.003 C 
HETATM   10  N2  UNL     1      26.286  14.570  38.347  1.00  0.00    -0.395 N 
HETATM   11  C6  UNL     1      26.943  15.562  37.565  1.00  0.00     0.119 C 
ATOM     12  H2  UNL     1      25.448  14.855  38.854  1.00  0.00     0.159 HD
HETATM   13  C7  UNL     1      28.405  15.195  37.465  1.00  0.00     0.021 C 
HETATM   14  C8  UNL     1      28.456  13.833  36.806  1.00  0.00     0.027 C 
HETATM   15  C9  UNL     1      27.857  12.850  37.778  1.00  0.00     0.127 C 
HETATM   16 CL1  UNL     1      29.074  12.471  39.031  1.00  0.00    -0.119 Cl
ENDBRANCH   8   9
ENDBRANCH   4   8
BRANCH   6  17
HETATM   17  C11 UNL     1      21.569  14.488  40.178  1.00  0.00     0.225 C 
BRANCH  17  18
HETATM   18  N4  UNL     1      21.105  15.822  40.484  1.00  0.00    -0.348 N 
HETATM   19  C12 UNL     1      20.710  16.163  41.785  1.00  0.00     0.252 C 
HETATM   20  O2  UNL     1      20.751  15.290  42.700  1.00  0.00    -0.268 OA
ATOM     21  H4  UNL     1      21.064  16.524  39.745  1.00  0.00     0.163 HD
BRANCH  19  22
HETATM   22  C13 UNL     1      20.255  17.511  42.087  1.00  0.00     0.033 A 
HETATM   23  C14 UNL     1      19.772  18.281  41.037  1.00  0.00     0.019 A 
HETATM   24  C15 UNL     1      19.348  19.553  41.318  1.00  0.00     0.026 A 
HETATM   25  C16 UNL     1      19.395  20.072  42.614  1.00  0.00     0.055 A 
HETATM   26 CL2  UNL     1      18.849  21.699  42.959  1.00  0.00    -0.083 Cl
HETATM   27  C17 UNL     1      19.873  19.296  43.629  1.00  0.00     0.056 A 
HETATM   28 CL3  UNL     1      19.961  19.882  45.286  1.00  0.00    -0.083 Cl
HETATM   29  C18 UNL     1      20.306  18.009  43.364  1.00  0.00     0.042 A 
ENDBRANCH  19  22
ENDBRANCH  17  18
ENDBRANCH   6  17
TORSDOF 5
ENDMDL
MODEL 3
REMARK VINA RESULT: -8.534433172      1.473      2.097
REMARK  5 active torsions:
REMARK  status: ('A' for Active; 'I' for Inactive)
REMARK    1  A    between atoms: C3_4  and  C4_5 
REMARK    2  A    between atoms: C4_5  and  C5_6 
REMARK       I    between atoms: N3_14  and  C10_15 
REMARK    3  A    between atoms: C10_15  and  C11_17 
REMARK    4  A    between atoms: C11_17  and  N4_18 
REMARK       I    between atoms: N4_18  and  C12_20 
REMARK    5  A    between atoms: C12_20  and  C13_22 
ROOT
HETATM    1  N1  UNL     1      22.975  10.314  40.733  1.00  0.00    -0.195 NA
HETATM    2  C1  UNL     1      23.597  11.292  40.884  1.00  0.00     0.087 C 
HETATM    3  C2  UNL     1      24.350  12.516  41.087  1.00  0.00     0.218 A 
HETATM    4  C3  UNL     1      25.281  13.045  40.166  1.00  0.00     0.131 A 
HETATM    5  N3  UNL     1      23.935  13.618  40.161  1.00  0.00    -0.323 N 
HETATM    6  C10 UNL     1      22.931  14.504  39.701  1.00  0.00     0.239 C 
HETATM    7  O1  UNL     1      23.200  15.301  38.790  1.00  0.00    -0.271 OA
ENDROOT
BRANCH   4   8
HETATM    8  C4  UNL     1      25.728  12.399  38.899  1.00  0.00     0.082 C 
BRANCH   8   9
HETATM    9  C5  UNL     1      27.184  12.177  38.789  1.00  0.00     0.003 C 
HETATM   10  N2  UNL     1      27.941  13.165  38.554  1.00  0.00    -0.395 N 
HETATM   11  C6  UNL     1      29.358  13.109  38.422  1.00  0.00     0.119 C 
ATOM     12  H2  UNL     1      27.498  14.079  38.451  1.00  0.00     0.159 HD
HETATM   13  C7  UNL     1      29.862  11.933  39.223  1.00  0.00     0.021 C 
HETATM   14  C8  UNL     1      29.193  10.705  38.643  1.00  0.00     0.027 C 
HETATM   15  C9  UNL     1      27.724  10.812  38.961  1.00  0.00     0.127 C 
HETATM   16 CL1  UNL     1      27.472  10.344  40.666  1.00  0.00    -0.119 Cl
ENDBRANCH   8   9
ENDBRANCH   4   8
BRANCH   6  17
HETATM   17  C11 UNL     1      21.594  14.461  40.307  1.00  0.00     0.225 C 
BRANCH  17  18
HETATM   18  N4  UNL     1      21.145  15.807  40.584  1.00  0.00    -0.348 N 
HETATM   19  C12 UNL     1      20.698  16.164  41.864  1.00  0.00     0.252 C 
HETATM   20  O2  UNL     1      20.679  15.296  42.785  1.00  0.00    -0.268 OA
ATOM     21  H4  UNL     1      21.152  16.504  39.841  1.00  0.00     0.163 HD
BRANCH  19  22
HETATM   22  C13 UNL     1      20.259  17.522  42.138  1.00  0.00     0.033 A 
HETATM   23  C14 UNL     1      19.851  18.300  41.062  1.00  0.00     0.019 A 
HETATM   24  C15 UNL     1      19.442  19.583  41.316  1.00  0.00     0.026 A 
HETATM   25  C16 UNL     1      19.430  20.104  42.612  1.00  0.00     0.055 A 
HETATM   26 CL2  UNL     1      18.904  21.744  42.923  1.00  0.00    -0.083 Cl
HETATM   27  C17 UNL     1      19.834  19.322  43.652  1.00  0.00     0.056 A 
HETATM   28 CL3  UNL     1      19.846  19.911  45.311  1.00  0.00    -0.083 Cl
HETATM   29  C18 UNL     1      20.252  18.024  43.415  1.00  0.00     0.042 A 
ENDBRANCH  19  22
ENDBRANCH  17  18
ENDBRANCH   6  17
TORSDOF 5
ENDMDL
MODEL 4
REMARK VINA RESULT: -8.421426489      7.165      9.543
REMARK  5 active torsions:
REMARK  status: ('A' for Active; 'I' for Inactive)
REMARK    1  A    between atoms: C3_4  and  C4_5 
REMARK    2  A    between atoms: C4_5  and  C5_6 
REMARK       I    between atoms: N3_14  and  C10_15 
REMARK    3  A    between atoms: C10_15  and  C11_17 
REMARK    4  A    between atoms: C11_17  and  N4_18 
REMARK       I    between atoms: N4_18  and  C12_20 
REMARK    5  A    between atoms: C12_20  and  C13_22 
ROOT
HETATM    1  N1  UNL     1      23.245  10.224  40.850  1.00  0.00    -0.195 NA
HETATM    2  C1  UNL     1      23.920  10.482  39.931  1.00  0.00     0.087 C 
HETATM    3  C2  UNL     1      24.745  10.784  38.776  1.00  0.00     0.218 A 
HETATM    4  C3  UNL     1      26.042  11.343  38.842  1.00  0.00     0.131 A 
HETATM    5  N3  UNL     1      25.945   9.894  38.666  1.00  0.00    -0.323 N 
HETATM    6  C10 UNL     1      26.481   8.592  38.507  1.00  0.00     0.239 C 
HETATM    7  O1  UNL     1      27.713   8.445  38.488  1.00  0.00    -0.271 OA
ENDROOT
BRANCH   4   8
HETATM    8  C4  UNL     1      26.733  11.814  40.075  1.00  0.00     0.082 C 
BRANCH   8   9
HETATM    9  C5  UNL     1      28.188  11.562  40.111  1.00  0.00     0.003 C 
HETATM   10  N2  UNL     1      28.625  10.564  40.757  1.00  0.00    -0.395 N 
HETATM   11  C6  UNL     1      29.994  10.194  40.883  1.00  0.00     0.119 C 
ATOM     12  H2  UNL     1      27.937   9.976  41.228  1.00  0.00     0.159 HD
HETATM   13  C7  UNL     1      30.736  10.703  39.670  1.00  0.00     0.021 C 
HETATM   14  C8  UNL     1      30.557  12.206  39.663  1.00  0.00     0.027 C 
HETATM   15  C9  UNL     1      29.100  12.475  39.390  1.00  0.00     0.127 C 
HETATM   16 CL1  UNL     1      28.798  12.267  37.641  1.00  0.00    -0.119 Cl
ENDBRANCH   8   9
ENDBRANCH   4   8
BRANCH   6  17
HETATM   17  C11 UNL     1      25.574   7.446  38.370  1.00  0.00     0.225 C 
BRANCH  17  18
HETATM   18  N4  UNL     1      24.510   7.778  37.450  1.00  0.00    -0.348 N 
HETATM   19  C12 UNL     1      24.568   7.369  36.110  1.00  0.00     0.252 C 
HETATM   20  O2  UNL     1      25.568   6.710  35.700  1.00  0.00    -0.268 OA
ATOM     21  H4  UNL     1      23.708   8.316  37.778  1.00  0.00     0.163 HD
BRANCH  19  22
HETATM   22  C13 UNL     1      23.489   7.697  35.193  1.00  0.00     0.033 A 
HETATM   23  C14 UNL     1      23.676   8.767  34.328  1.00  0.00     0.019 A 
HETATM   24  C15 UNL     1      22.659   9.081  33.466  1.00  0.00     0.026 A 
HETATM   25  C16 UNL     1      21.465   8.357  33.448  1.00  0.00     0.055 A 
HETATM   26 CL2  UNL     1      20.172   8.768  32.341  1.00  0.00    -0.083 Cl
HETATM   27  C17 UNL     1      21.303   7.310  34.306  1.00  0.00     0.056 A 
HETATM   28 CL3  UNL     1      19.827   6.352  34.340  1.00  0.00    -0.083 Cl
HETATM   29  C18 UNL     1      22.320   6.978  35.184  1.00  0.00     0.042 A 
ENDBRANCH  19  22
ENDBRANCH  17  18
ENDBRANCH   6  17
TORSDOF 5
ENDMDL
MODEL 5
REMARK VINA RESULT: -8.208963684      2.260      2.893
REMARK  5 active torsions:
REMARK  status: ('A' for Active; 'I' for Inactive)
REMARK    1  A    between atoms: C3_4  and  C4_5 
REMARK    2  A    between atoms: C4_5  and  C5_6 
REMARK       I    between atoms: N3_14  and  C10_15 
REMARK    3  A    between atoms: C10_15  and  C11_17 
REMARK    4  A    between atoms: C11_17  and  N4_18 
REMARK       I    between atoms: N4_18  and  C12_20 
REMARK    5  A    between atoms: C12_20  and  C13_22 
ROOT
HETATM    1  N1  UNL     1      24.607  10.144  37.924  1.00  0.00    -0.195 NA
HETATM    2  C1  UNL     1      24.981  10.978  38.653  1.00  0.00     0.087 C 
HETATM    3  C2  UNL     1      25.421  12.016  39.567  1.00  0.00     0.218 A 
HETATM    4  C3  UNL     1      26.565  12.822  39.373  1.00  0.00     0.131 A 
HETATM    5  N3  UNL     1      25.272  13.395  39.000  1.00  0.00    -0.323 N 
HETATM    6  C10 UNL     1      24.429  14.417  38.499  1.00  0.00     0.239 C 
HETATM    7  O1  UNL     1      24.935  15.487  38.127  1.00  0.00    -0.271 OA
ENDROOT
BRANCH   4   8
HETATM    8  C4  UNL     1      27.564  12.679  38.276  1.00  0.00     0.082 C 
BRANCH   8   9
HETATM    9  C5  UNL     1      28.876  12.142  38.691  1.00  0.00     0.003 C 
HETATM   10  N2  UNL     1      29.691  12.904  39.290  1.00  0.00    -0.395 N 
HETATM   11  C6  UNL     1      30.987  12.533  39.750  1.00  0.00     0.119 C 
ATOM     12  H2  UNL     1      29.394  13.866  39.458  1.00  0.00     0.159 HD
HETATM   13  C7  UNL     1      30.984  11.048  40.025  1.00  0.00     0.021 C 
HETATM   14  C8  UNL     1      30.636  10.373  38.716  1.00  0.00     0.027 C 
HETATM   15  C9  UNL     1      29.206  10.731  38.403  1.00  0.00     0.127 C 
HETATM   16 CL1  UNL     1      28.130   9.712  39.401  1.00  0.00    -0.119 Cl
ENDBRANCH   8   9
ENDBRANCH   4   8
BRANCH   6  17
HETATM   17  C11 UNL     1      22.980  14.192  38.427  1.00  0.00     0.225 C 
BRANCH  17  18
HETATM   18  N4  UNL     1      22.297  15.178  39.233  1.00  0.00    -0.348 N 
HETATM   19  C12 UNL     1      21.750  14.833  40.477  1.00  0.00     0.252 C 
HETATM   20  O2  UNL     1      21.848  13.642  40.894  1.00  0.00    -0.268 OA
ATOM     21  H4  UNL     1      22.211  16.136  38.894  1.00  0.00     0.163 HD
BRANCH  19  22
HETATM   22  C13 UNL     1      21.074  15.833  41.287  1.00  0.00     0.033 A 
HETATM   23  C14 UNL     1      20.734  15.489  42.589  1.00  0.00     0.019 A 
HETATM   24  C15 UNL     1      20.092  16.428  43.353  1.00  0.00     0.026 A 
HETATM   25  C16 UNL     1      19.784  17.694  42.852  1.00  0.00     0.055 A 
HETATM   26 CL2  UNL     1      18.964  18.885  43.839  1.00  0.00    -0.083 Cl
HETATM   27  C17 UNL     1      20.127  18.009  41.570  1.00  0.00     0.056 A 
HETATM   28 CL3  UNL     1      19.771  19.584  40.871  1.00  0.00    -0.083 Cl
HETATM   29  C18 UNL     1      20.776  17.074  40.784  1.00  0.00     0.042 A 
ENDBRANCH  19  22
ENDBRANCH  17  18
ENDBRANCH   6  17
TORSDOF 5
ENDMDL
