MODEL 1
REMARK VINA RESULT: -7.952510884      0.000      0.000
REMARK  7 active torsions:
REMARK  status: ('A' for Active; 'I' for Inactive)
REMARK    1  A    between atoms: C4_4  and  C5_5 
REMARK    2  A    between atoms: C5_5  and  C6_6 
REMARK       I    between atoms: C6_6  and  N1_8 
REMARK    3  A    between atoms: N1_8  and  C7_10 
REMARK    4  A    between atoms: C12_18  and  S2_19 
REMARK    5  A    between atoms: S2_19  and  C13_22 
REMARK    6  A    between atoms: C13_22  and  C14_23 
REMARK    7  A    between atoms: C14_23  and  C15_24 
ROOT
HETATM    1  C1  UNL     1      26.558  14.887  37.696  1.00  0.00     0.015 C 
HETATM    2  C2  UNL     1      26.236  14.157  38.735  1.00  0.00    -0.070 C 
HETATM    3  C3  UNL     1      25.104  14.571  39.600  1.00  0.00     0.039 C 
HETATM    4  C4  UNL     1      24.146  13.409  39.648  1.00  0.00    -0.002 C 
HETATM    5  C10 UNL     1      24.768  12.072  39.815  1.00  0.00     0.007 C 
HETATM    6  C11 UNL     1      25.948  11.792  38.920  1.00  0.00     0.025 C 
HETATM    7  C12 UNL     1      26.939  12.929  39.090  1.00  0.00     0.136 C 
ENDROOT
BRANCH   4   8
HETATM    8  C5  UNL     1      23.153  13.608  40.788  1.00  0.00     0.108 C 
BRANCH   8   9
HETATM    9  C6  UNL     1      22.055  14.523  40.334  1.00  0.00     0.224 C 
HETATM   10  O1  UNL     1      22.147  15.129  39.213  1.00  0.00    -0.273 OA
HETATM   11  N1  UNL     1      20.948  14.663  41.201  1.00  0.00    -0.307 N 
ATOM     12  H1  UNL     1      20.350  13.870  41.433  1.00  0.00     0.171 HD
BRANCH  11  13
HETATM   13  C7  UNL     1      20.720  15.861  41.698  1.00  0.00     0.150 A 
HETATM   14  N2  UNL     1      20.730  17.037  41.069  1.00  0.00    -0.346 N 
HETATM   15  C8  UNL     1      20.474  18.117  41.751  1.00  0.00     0.097 A 
ATOM     16  H2  UNL     1      20.935  17.090  40.071  1.00  0.00     0.167 HD
HETATM   17  C9  UNL     1      20.207  17.983  43.087  1.00  0.00     0.070 A 
HETATM   18  S1  UNL     1      20.337  16.298  43.308  1.00  0.00    -0.064 SA
ENDBRANCH  11  13
ENDBRANCH   8   9
ENDBRANCH   4   8
BRANCH   7  19
HETATM   19  S2  UNL     1      28.454  12.639  38.218  1.00  0.00     0.153 S 
HETATM   20  O2  UNL     1      28.630  13.453  37.004  1.00  0.00    -0.227 OA
HETATM   21  O3  UNL     1      28.319  11.181  37.742  1.00  0.00    -0.227 OA
BRANCH  19  22
HETATM   22  C13 UNL     1      29.783  12.702  39.358  1.00  0.00     0.159 C 
BRANCH  22  23
HETATM   23  C14 UNL     1      30.199  11.390  39.970  1.00  0.00     0.070 A 
HETATM   24  C16 UNL     1      31.700  11.323  40.232  1.00  0.00     0.020 A 
HETATM   25  C17 UNL     1      31.075  10.476  39.172  1.00  0.00     0.020 A 
BRANCH  23  26
HETATM   26  C15 UNL     1      29.401  10.737  41.065  1.00  0.00     0.396 C 
HETATM   27  F1  UNL     1      28.874  11.775  41.846  1.00  0.00    -0.170 F 
HETATM   28  F2  UNL     1      30.169   9.994  41.947  1.00  0.00    -0.170 F 
HETATM   29  F3  UNL     1      28.345  10.058  40.531  1.00  0.00    -0.170 F 
ENDBRANCH  23  26
ENDBRANCH  22  23
ENDBRANCH  19  22
ENDBRANCH   7  19
TORSDOF 7
ENDMDL
MODEL 2
REMARK VINA RESULT: -7.763763775      1.247      1.668
REMARK  7 active torsions:
REMARK  status: ('A' for Active; 'I' for Inactive)
REMARK    1  A    between atoms: C4_4  and  C5_5 
REMARK    2  A    between atoms: C5_5  and  C6_6 
REMARK       I    between atoms: C6_6  and  N1_8 
REMARK    3  A    between atoms: N1_8  and  C7_10 
REMARK    4  A    between atoms: C12_18  and  S2_19 
REMARK    5  A    between atoms: S2_19  and  C13_22 
REMARK    6  A    between atoms: C13_22  and  C14_23 
REMARK    7  A    between atoms: C14_23  and  C15_24 
ROOT
HETATM    1  C1  UNL     1      26.015  15.300  37.660  1.00  0.00     0.015 C 
HETATM    2  C2  UNL     1      25.806  14.548  38.713  1.00  0.00    -0.070 C 
HETATM    3  C3  UNL     1      24.698  14.881  39.642  1.00  0.00     0.039 C 
HETATM    4  C4  UNL     1      23.830  13.653  39.740  1.00  0.00    -0.002 C 
HETATM    5  C10 UNL     1      24.555  12.365  39.867  1.00  0.00     0.007 C 
HETATM    6  C11 UNL     1      25.699  12.170  38.905  1.00  0.00     0.025 C 
HETATM    7  C12 UNL     1      26.613  13.374  39.023  1.00  0.00     0.136 C 
ENDROOT
BRANCH   4   8
HETATM    8  C5  UNL     1      22.891  13.780  40.936  1.00  0.00     0.108 C 
BRANCH   8   9
HETATM    9  C6  UNL     1      21.680  14.567  40.532  1.00  0.00     0.224 C 
HETATM   10  O1  UNL     1      21.527  14.931  39.317  1.00  0.00    -0.273 OA
HETATM   11  N1  UNL     1      20.749  14.865  41.553  1.00  0.00    -0.307 N 
ATOM     12  H1  UNL     1      20.249  14.126  42.049  1.00  0.00     0.171 HD
BRANCH  11  13
HETATM   13  C7  UNL     1      20.554  16.135  41.837  1.00  0.00     0.150 A 
HETATM   14  N2  UNL     1      20.325  17.148  41.000  1.00  0.00    -0.346 N 
HETATM   15  C8  UNL     1      20.154  18.343  41.491  1.00  0.00     0.097 A 
ATOM     16  H2  UNL     1      20.285  16.990  39.993  1.00  0.00     0.167 HD
HETATM   17  C9  UNL     1      20.220  18.493  42.851  1.00  0.00     0.070 A 
HETATM   18  S1  UNL     1      20.527  16.898  43.369  1.00  0.00    -0.064 SA
ENDBRANCH  11  13
ENDBRANCH   8   9
ENDBRANCH   4   8
BRANCH   7  19
HETATM   19  S2  UNL     1      28.094  13.193  38.065  1.00  0.00     0.153 S 
HETATM   20  O2  UNL     1      29.013  14.340  38.132  1.00  0.00    -0.227 OA
HETATM   21  O3  UNL     1      27.577  13.139  36.617  1.00  0.00    -0.227 OA
BRANCH  19  22
HETATM   22  C13 UNL     1      28.814  11.638  38.428  1.00  0.00     0.159 C 
BRANCH  22  23
HETATM   23  C14 UNL     1      29.495  11.514  39.765  1.00  0.00     0.070 A 
HETATM   24  C16 UNL     1      29.181  10.191  40.456  1.00  0.00     0.020 A 
HETATM   25  C17 UNL     1      28.648  11.478  40.998  1.00  0.00     0.020 A 
BRANCH  23  26
HETATM   26  C15 UNL     1      30.925  11.936  39.969  1.00  0.00     0.396 C 
HETATM   27  F1  UNL     1      31.131  11.988  41.354  1.00  0.00    -0.170 F 
HETATM   28  F2  UNL     1      31.193  13.223  39.530  1.00  0.00    -0.170 F 
HETATM   29  F3  UNL     1      31.767  10.986  39.471  1.00  0.00    -0.170 F 
ENDBRANCH  23  26
ENDBRANCH  22  23
ENDBRANCH  19  22
ENDBRANCH   7  19
TORSDOF 7
ENDMDL
MODEL 3
REMARK VINA RESULT: -7.576791890      1.744      2.186
REMARK  7 active torsions:
REMARK  status: ('A' for Active; 'I' for Inactive)
REMARK    1  A    between atoms: C4_4  and  C5_5 
REMARK    2  A    between atoms: C5_5  and  C6_6 
REMARK       I    between atoms: C6_6  and  N1_8 
REMARK    3  A    between atoms: N1_8  and  C7_10 
REMARK    4  A    between atoms: C12_18  and  S2_19 
REMARK    5  A    between atoms: S2_19  and  C13_22 
REMARK    6  A    between atoms: C13_22  and  C14_23 
REMARK    7  A    between atoms: C14_23  and  C15_24 
ROOT
HETATM    1  C1  UNL     1      28.030  13.009  37.385  1.00  0.00     0.015 C 
HETATM    2  C2  UNL     1      27.388  12.624  38.460  1.00  0.00    -0.070 C 
HETATM    3  C3  UNL     1      26.506  13.582  39.170  1.00  0.00     0.039 C 
HETATM    4  C4  UNL     1      25.145  12.940  39.251  1.00  0.00    -0.002 C 
HETATM    5  C10 UNL     1      25.135  11.501  39.613  1.00  0.00     0.007 C 
HETATM    6  C11 UNL     1      26.120  10.640  38.863  1.00  0.00     0.025 C 
HETATM    7  C12 UNL     1      27.491  11.274  39.004  1.00  0.00     0.136 C 
ENDROOT
BRANCH   4   8
HETATM    8  C5  UNL     1      24.285  13.683  40.269  1.00  0.00     0.108 C 
BRANCH   8   9
HETATM    9  C6  UNL     1      23.106  14.292  39.571  1.00  0.00     0.224 C 
HETATM   10  O1  UNL     1      23.276  14.984  38.510  1.00  0.00    -0.273 OA
HETATM   11  N1  UNL     1      21.837  14.054  40.145  1.00  0.00    -0.307 N 
ATOM     12  H1  UNL     1      21.455  13.111  40.219  1.00  0.00     0.171 HD
BRANCH  11  13
HETATM   13  C7  UNL     1      21.168  15.101  40.582  1.00  0.00     0.150 A 
HETATM   14  N2  UNL     1      20.671  16.120  39.881  1.00  0.00    -0.346 N 
HETATM   15  C8  UNL     1      20.032  17.064  40.513  1.00  0.00     0.097 A 
ATOM     16  H2  UNL     1      20.788  16.160  38.869  1.00  0.00     0.167 HD
HETATM   17  C9  UNL     1      19.907  16.956  41.872  1.00  0.00     0.070 A 
HETATM   18  S1  UNL     1      20.719  15.491  42.187  1.00  0.00    -0.064 SA
ENDBRANCH  11  13
ENDBRANCH   8   9
ENDBRANCH   4   8
BRANCH   7  19
HETATM   19  S2  UNL     1      28.773  10.268  38.308  1.00  0.00     0.153 S 
HETATM   20  O2  UNL     1      29.273  10.725  37.002  1.00  0.00    -0.227 OA
HETATM   21  O3  UNL     1      28.072   8.922  38.053  1.00  0.00    -0.227 OA
BRANCH  19  22
HETATM   22  C13 UNL     1      30.004  10.000  39.526  1.00  0.00     0.159 C 
BRANCH  22  23
HETATM   23  C14 UNL     1      30.213  11.114  40.519  1.00  0.00     0.070 A 
HETATM   24  C16 UNL     1      30.338  10.600  41.949  1.00  0.00     0.020 A 
HETATM   25  C17 UNL     1      29.139  11.385  41.525  1.00  0.00     0.020 A 
BRANCH  23  26
HETATM   26  C15 UNL     1      31.150  12.258  40.241  1.00  0.00     0.396 C 
HETATM   27  F1  UNL     1      30.449  13.157  39.426  1.00  0.00    -0.170 F 
HETATM   28  F2  UNL     1      32.258  11.899  39.490  1.00  0.00    -0.170 F 
HETATM   29  F3  UNL     1      31.446  12.911  41.401  1.00  0.00    -0.170 F 
ENDBRANCH  23  26
ENDBRANCH  22  23
ENDBRANCH  19  22
ENDBRANCH   7  19
TORSDOF 7
ENDMDL
MODEL 4
REMARK VINA RESULT: -7.553821592      1.314      1.715
REMARK  7 active torsions:
REMARK  status: ('A' for Active; 'I' for Inactive)
REMARK    1  A    between atoms: C4_4  and  C5_5 
REMARK    2  A    between atoms: C5_5  and  C6_6 
REMARK       I    between atoms: C6_6  and  N1_8 
REMARK    3  A    between atoms: N1_8  and  C7_10 
REMARK    4  A    between atoms: C12_18  and  S2_19 
REMARK    5  A    between atoms: S2_19  and  C13_22 
REMARK    6  A    between atoms: C13_22  and  C14_23 
REMARK    7  A    between atoms: C14_23  and  C15_24 
ROOT
HETATM    1  C1  UNL     1      26.036  13.404  38.305  1.00  0.00     0.015 C 
HETATM    2  C2  UNL     1      25.602  13.047  39.489  1.00  0.00    -0.070 C 
HETATM    3  C3  UNL     1      24.662  13.930  40.222  1.00  0.00     0.039 C 
HETATM    4  C4  UNL     1      23.448  13.098  40.547  1.00  0.00    -0.002 C 
HETATM    5  C10 UNL     1      23.724  11.725  41.036  1.00  0.00     0.007 C 
HETATM    6  C11 UNL     1      24.742  10.948  40.240  1.00  0.00     0.025 C 
HETATM    7  C12 UNL     1      25.994  11.799  40.134  1.00  0.00     0.136 C 
ENDROOT
BRANCH   4   8
HETATM    8  C5  UNL     1      22.604  13.809  41.600  1.00  0.00     0.108 C 
BRANCH   8   9
HETATM    9  C6  UNL     1      21.578  14.664  40.918  1.00  0.00     0.224 C 
HETATM   10  O1  UNL     1      21.710  14.962  39.683  1.00  0.00    -0.273 OA
HETATM   11  N1  UNL     1      20.492  15.102  41.709  1.00  0.00    -0.307 N 
ATOM     12  H1  UNL     1      19.835  14.441  42.124  1.00  0.00     0.171 HD
BRANCH  11  13
HETATM   13  C7  UNL     1      20.363  16.400  41.888  1.00  0.00     0.150 A 
HETATM   14  N2  UNL     1      20.055  17.336  40.989  1.00  0.00    -0.346 N 
HETATM   15  C8  UNL     1      19.974  18.578  41.378  1.00  0.00     0.097 A 
ATOM     16  H2  UNL     1      19.885  17.085  40.015  1.00  0.00     0.167 HD
HETATM   17  C9  UNL     1      20.212  18.854  42.697  1.00  0.00     0.070 A 
HETATM   18  S1  UNL     1      20.546  17.306  43.329  1.00  0.00    -0.064 SA
ENDBRANCH  11  13
ENDBRANCH   8   9
ENDBRANCH   4   8
BRANCH   7  19
HETATM   19  S2  UNL     1      27.335  10.932  39.366  1.00  0.00     0.153 S 
HETATM   20  O2  UNL     1      27.004  10.311  38.072  1.00  0.00    -0.227 OA
HETATM   21  O3  UNL     1      27.616   9.774  40.339  1.00  0.00    -0.227 OA
BRANCH  19  22
HETATM   22  C13 UNL     1      28.746  11.969  39.356  1.00  0.00     0.159 C 
BRANCH  22  23
HETATM   23  C14 UNL     1      29.997  11.400  39.973  1.00  0.00     0.070 A 
HETATM   24  C16 UNL     1      31.264  11.925  39.306  1.00  0.00     0.020 A 
HETATM   25  C17 UNL     1      30.855  10.496  39.145  1.00  0.00     0.020 A 
BRANCH  23  26
HETATM   26  C15 UNL     1      30.153  11.263  41.463  1.00  0.00     0.396 C 
HETATM   27  F1  UNL     1      30.178   9.888  41.736  1.00  0.00    -0.170 F 
HETATM   28  F2  UNL     1      29.070  11.740  42.183  1.00  0.00    -0.170 F 
HETATM   29  F3  UNL     1      31.356  11.774  41.855  1.00  0.00    -0.170 F 
ENDBRANCH  23  26
ENDBRANCH  22  23
ENDBRANCH  19  22
ENDBRANCH   7  19
TORSDOF 7
ENDMDL
MODEL 5
REMARK VINA RESULT: -7.526508998      5.661      8.360
REMARK  7 active torsions:
REMARK  status: ('A' for Active; 'I' for Inactive)
REMARK    1  A    between atoms: C4_4  and  C5_5 
REMARK    2  A    between atoms: C5_5  and  C6_6 
REMARK       I    between atoms: C6_6  and  N1_8 
REMARK    3  A    between atoms: N1_8  and  C7_10 
REMARK    4  A    between atoms: C12_18  and  S2_19 
REMARK    5  A    between atoms: S2_19  and  C13_22 
REMARK    6  A    between atoms: C13_22  and  C14_23 
REMARK    7  A    between atoms: C14_23  and  C15_24 
ROOT
HETATM    1  C1  UNL     1      26.221  10.374  40.901  1.00  0.00     0.015 C 
HETATM    2  C2  UNL     1      26.102  10.253  39.602  1.00  0.00    -0.070 C 
HETATM    3  C3  UNL     1      26.505   8.986  38.944  1.00  0.00     0.039 C 
HETATM    4  C4  UNL     1      25.307   8.500  38.169  1.00  0.00    -0.002 C 
HETATM    5  C10 UNL     1      24.570   9.539  37.409  1.00  0.00     0.007 C 
HETATM    6  C11 UNL     1      24.272  10.806  38.170  1.00  0.00     0.025 C 
HETATM    7  C12 UNL     1      25.577  11.315  38.751  1.00  0.00     0.136 C 
ENDROOT
BRANCH   4   8
HETATM    8  C5  UNL     1      25.737   7.417  37.184  1.00  0.00     0.108 C 
BRANCH   8   9
HETATM    9  C6  UNL     1      24.530   6.905  36.455  1.00  0.00     0.224 C 
HETATM   10  O1  UNL     1      23.432   6.719  37.082  1.00  0.00    -0.273 OA
HETATM   11  N1  UNL     1      24.685   6.652  35.073  1.00  0.00    -0.307 N 
ATOM     12  H1  UNL     1      24.909   7.401  34.417  1.00  0.00     0.171 HD
BRANCH  11  13
HETATM   13  C7  UNL     1      24.529   5.409  34.667  1.00  0.00     0.150 A 
HETATM   14  N2  UNL     1      25.329   4.363  34.872  1.00  0.00    -0.346 N 
HETATM   15  C8  UNL     1      24.987   3.204  34.381  1.00  0.00     0.097 A 
ATOM     16  H2  UNL     1      26.195   4.466  35.402  1.00  0.00     0.167 HD
HETATM   17  C9  UNL     1      23.815   3.127  33.678  1.00  0.00     0.070 A 
HETATM   18  S1  UNL     1      23.251   4.734  33.751  1.00  0.00    -0.064 SA
ENDBRANCH  11  13
ENDBRANCH   8   9
ENDBRANCH   4   8
BRANCH   7  19
HETATM   19  S2  UNL     1      25.396  12.897  39.530  1.00  0.00     0.153 S 
HETATM   20  O2  UNL     1      24.695  12.868  40.825  1.00  0.00    -0.227 OA
HETATM   21  O3  UNL     1      24.481  13.668  38.563  1.00  0.00    -0.227 OA
BRANCH  19  22
HETATM   22  C13 UNL     1      26.952  13.702  39.543  1.00  0.00     0.159 C 
BRANCH  22  23
HETATM   23  C14 UNL     1      27.900  13.337  38.431  1.00  0.00     0.070 A 
HETATM   24  C16 UNL     1      28.271  14.538  37.567  1.00  0.00     0.020 A 
HETATM   25  C17 UNL     1      27.418  13.440  37.018  1.00  0.00     0.020 A 
BRANCH  23  26
HETATM   26  C15 UNL     1      29.069  12.416  38.656  1.00  0.00     0.396 C 
HETATM   27  F1  UNL     1      28.854  11.796  39.894  1.00  0.00    -0.170 F 
HETATM   28  F2  UNL     1      30.277  13.077  38.804  1.00  0.00    -0.170 F 
HETATM   29  F3  UNL     1      29.079  11.435  37.709  1.00  0.00    -0.170 F 
ENDBRANCH  23  26
ENDBRANCH  22  23
ENDBRANCH  19  22
ENDBRANCH   7  19
TORSDOF 7
ENDMDL
