MODEL 1
REMARK VINA RESULT: -7.377123172      0.000      0.000
REMARK  6 active torsions:
REMARK  status: ('A' for Active; 'I' for Inactive)
REMARK    1  A    between atoms: C2_2  and  C3_3 
REMARK    2  A    between atoms: C7_8  and  S1_9 
REMARK    3  A    between atoms: S1_9  and  N1_12 
REMARK    4  A    between atoms: C13_21  and  C14_22 
REMARK    5  A    between atoms: C14_22  and  O3_23 
REMARK    6  A    between atoms: C14_22  and  C15_25 
ROOT
HETATM    1  N1  UNL     1      26.524  12.892  39.105  1.00  0.00    -0.281 N 
HETATM    2  C8  UNL     1      25.948  14.159  38.854  1.00  0.00     0.208 C 
HETATM    3  C9  UNL     1      24.744  14.436  39.560  1.00  0.00     0.085 C 
HETATM    4  N2  UNL     1      23.774  14.697  40.144  1.00  0.00    -0.195 NA
HETATM    5  C10 UNL     1      25.904  14.458  37.359  1.00  0.00     0.120 C 
HETATM    6  C11 UNL     1      27.345  14.582  36.935  1.00  0.00     0.248 C 
HETATM    7  F1  UNL     1      27.460  14.645  35.550  1.00  0.00    -0.206 F 
HETATM    8  F2  UNL     1      27.928  15.742  37.409  1.00  0.00    -0.206 F 
HETATM    9  C12 UNL     1      28.102  13.382  37.377  1.00  0.00     0.107 C 
HETATM   10  C13 UNL     1      27.863  12.934  38.803  1.00  0.00     0.132 C 
ENDROOT
BRANCH   1  11
HETATM   11  S1  UNL     1      25.562  11.675  39.545  1.00  0.00     0.264 S 
HETATM   12  O1  UNL     1      24.083  12.079  39.416  1.00  0.00    -0.200 OA
HETATM   13  O2  UNL     1      25.657  11.266  41.025  1.00  0.00    -0.200 OA
BRANCH  11  14
HETATM   14  C7  UNL     1      25.722  10.123  38.742  1.00  0.00     0.102 A 
HETATM   15  C6  UNL     1      26.703   9.206  38.997  1.00  0.00     0.057 A 
HETATM   16  C5  UNL     1      26.769   8.014  38.290  1.00  0.00     0.026 A 
HETATM   17 CL1  UNL     1      27.865   9.485  40.269  1.00  0.00    -0.083 Cl
HETATM   18  C4  UNL     1      25.844   7.726  37.314  1.00  0.00     0.013 A 
HETATM   19  C3  UNL     1      24.820   8.635  37.021  1.00  0.00    -0.035 A 
HETATM   20  C18 UNL     1      24.817   9.795  37.758  1.00  0.00     0.038 A 
BRANCH  19  21
HETATM   21  C2  UNL     1      23.837   8.346  35.996  1.00  0.00     0.001 C 
HETATM   22  C1  UNL     1      24.153   7.868  34.830  1.00  0.00     0.012 C 
ENDBRANCH  19  21
ENDBRANCH  11  14
ENDBRANCH   1  11
BRANCH  10  23
HETATM   23  C14 UNL     1      28.788  11.819  39.122  1.00  0.00     0.146 C 
BRANCH  23  24
HETATM   24  O3  UNL     1      29.215  11.209  37.896  1.00  0.00    -0.393 OA
ATOM     25  H3  UNL     1      30.129  11.421  37.751  1.00  0.00     0.210 HD
ENDBRANCH  23  24
BRANCH  23  26
HETATM   26  C15 UNL     1      30.134  12.298  39.660  1.00  0.00     0.016 A 
HETATM   27  C16 UNL     1      30.524  11.712  41.038  1.00  0.00     0.007 A 
HETATM   28  C17 UNL     1      31.319  11.459  39.774  1.00  0.00     0.007 A 
ENDBRANCH  23  26
ENDBRANCH  10  23
TORSDOF 6
ENDMDL
MODEL 2
REMARK VINA RESULT: -7.071954799      2.729      5.562
REMARK  6 active torsions:
REMARK  status: ('A' for Active; 'I' for Inactive)
REMARK    1  A    between atoms: C2_2  and  C3_3 
REMARK    2  A    between atoms: C7_8  and  S1_9 
REMARK    3  A    between atoms: S1_9  and  N1_12 
REMARK    4  A    between atoms: C13_21  and  C14_22 
REMARK    5  A    between atoms: C14_22  and  O3_23 
REMARK    6  A    between atoms: C14_22  and  C15_25 
ROOT
HETATM    1  N1  UNL     1      27.108   9.776  39.257  1.00  0.00    -0.281 N 
HETATM    2  C8  UNL     1      28.318  10.405  39.629  1.00  0.00     0.208 C 
HETATM    3  C9  UNL     1      28.249  11.235  40.784  1.00  0.00     0.085 C 
HETATM    4  N2  UNL     1      28.226  11.897  41.738  1.00  0.00    -0.195 NA
HETATM    5  C10 UNL     1      29.006  11.035  38.422  1.00  0.00     0.120 C 
HETATM    6  C11 UNL     1      29.409   9.878  37.545  1.00  0.00     0.248 C 
HETATM    7  F1  UNL     1      29.859  10.318  36.304  1.00  0.00    -0.206 F 
HETATM    8  F2  UNL     1      30.456   9.157  38.086  1.00  0.00    -0.206 F 
HETATM    9  C12 UNL     1      28.232   9.006  37.292  1.00  0.00     0.107 C 
HETATM   10  C13 UNL     1      27.388   8.665  38.502  1.00  0.00     0.132 C 
ENDROOT
BRANCH   1  11
HETATM   11  S1  UNL     1      25.713  10.486  39.645  1.00  0.00     0.264 S 
HETATM   12  O1  UNL     1      25.407  10.300  41.142  1.00  0.00    -0.200 OA
HETATM   13  O2  UNL     1      24.463   9.882  38.983  1.00  0.00    -0.200 OA
BRANCH  11  14
HETATM   14  C7  UNL     1      25.499  12.194  39.306  1.00  0.00     0.102 A 
HETATM   15  C6  UNL     1      24.551  12.995  39.880  1.00  0.00     0.057 A 
HETATM   16  C5  UNL     1      24.436  14.331  39.527  1.00  0.00     0.026 A 
HETATM   17 CL1  UNL     1      23.501  12.368  41.124  1.00  0.00    -0.083 Cl
HETATM   18  C4  UNL     1      25.277  14.884  38.589  1.00  0.00     0.013 A 
HETATM   19  C3  UNL     1      26.263  14.102  37.977  1.00  0.00    -0.035 A 
HETATM   20  C18 UNL     1      26.319  12.787  38.372  1.00  0.00     0.038 A 
BRANCH  19  21
HETATM   21  C2  UNL     1      27.157  14.670  36.988  1.00  0.00     0.001 C 
HETATM   22  C1  UNL     1      28.434  14.807  37.186  1.00  0.00     0.012 C 
ENDBRANCH  19  21
ENDBRANCH  11  14
ENDBRANCH   1  11
BRANCH  10  23
HETATM   23  C14 UNL     1      26.345   7.687  38.104  1.00  0.00     0.146 C 
BRANCH  23  24
HETATM   24  O3  UNL     1      25.285   7.727  39.070  1.00  0.00    -0.393 OA
ATOM     25  H3  UNL     1      25.072   6.837  39.326  1.00  0.00     0.210 HD
ENDBRANCH  23  24
BRANCH  23  26
HETATM   26  C15 UNL     1      25.578   8.111  36.854  1.00  0.00     0.016 A 
HETATM   27  C16 UNL     1      25.374   6.987  35.810  1.00  0.00     0.007 A 
HETATM   28  C17 UNL     1      24.229   7.670  36.529  1.00  0.00     0.007 A 
ENDBRANCH  23  26
ENDBRANCH  10  23
TORSDOF 6
ENDMDL
MODEL 3
REMARK VINA RESULT: -7.011697271      1.077      1.135
REMARK  6 active torsions:
REMARK  status: ('A' for Active; 'I' for Inactive)
REMARK    1  A    between atoms: C2_2  and  C3_3 
REMARK    2  A    between atoms: C7_8  and  S1_9 
REMARK    3  A    between atoms: S1_9  and  N1_12 
REMARK    4  A    between atoms: C13_21  and  C14_22 
REMARK    5  A    between atoms: C14_22  and  O3_23 
REMARK    6  A    between atoms: C14_22  and  C15_25 
ROOT
HETATM    1  N1  UNL     1      25.976  12.171  39.635  1.00  0.00    -0.281 N 
HETATM    2  C8  UNL     1      25.203  13.347  39.769  1.00  0.00     0.208 C 
HETATM    3  C9  UNL     1      24.059  13.238  40.609  1.00  0.00     0.085 C 
HETATM    4  N2  UNL     1      23.135  13.183  41.311  1.00  0.00    -0.195 NA
HETATM    5  C10 UNL     1      24.948  13.997  38.413  1.00  0.00     0.120 C 
HETATM    6  C11 UNL     1      26.300  14.457  37.931  1.00  0.00     0.248 C 
HETATM    7  F1  UNL     1      26.247  14.880  36.607  1.00  0.00    -0.206 F 
HETATM    8  F2  UNL     1      26.764  15.543  38.650  1.00  0.00    -0.206 F 
HETATM    9  C12 UNL     1      27.263  13.327  37.986  1.00  0.00     0.107 C 
HETATM   10  C13 UNL     1      27.252  12.506  39.257  1.00  0.00     0.132 C 
ENDROOT
BRANCH   1  11
HETATM   11  S1  UNL     1      25.250  10.742  39.810  1.00  0.00     0.264 S 
HETATM   12  O1  UNL     1      23.732  10.921  39.988  1.00  0.00    -0.200 OA
HETATM   13  O2  UNL     1      25.634   9.961  41.079  1.00  0.00    -0.200 OA
BRANCH  11  14
HETATM   14  C7  UNL     1      25.460   9.517  38.570  1.00  0.00     0.102 A 
HETATM   15  C6  UNL     1      26.563   8.722  38.432  1.00  0.00     0.057 A 
HETATM   16  C5  UNL     1      26.653   7.799  37.400  1.00  0.00     0.026 A 
HETATM   17 CL1  UNL     1      27.862   8.804  39.593  1.00  0.00    -0.083 Cl
HETATM   18  C4  UNL     1      25.631   7.661  36.490  1.00  0.00     0.013 A 
HETATM   19  C3  UNL     1      24.482   8.453  36.595  1.00  0.00    -0.035 A 
HETATM   20  C18 UNL     1      24.460   9.347  37.638  1.00  0.00     0.038 A 
BRANCH  19  21
HETATM   21  C2  UNL     1      23.395   8.319  35.645  1.00  0.00     0.001 C 
HETATM   22  C1  UNL     1      23.432   8.833  34.453  1.00  0.00     0.012 C 
ENDBRANCH  19  21
ENDBRANCH  11  14
ENDBRANCH   1  11
BRANCH  10  23
HETATM   23  C14 UNL     1      28.354  11.515  39.204  1.00  0.00     0.146 C 
BRANCH  23  24
HETATM   24  O3  UNL     1      28.865  11.466  37.864  1.00  0.00    -0.393 OA
ATOM     25  H3  UNL     1      28.372  10.820  37.372  1.00  0.00     0.210 HD
ENDBRANCH  23  24
BRANCH  23  26
HETATM   26  C15 UNL     1      29.606  11.977  39.946  1.00  0.00     0.016 A 
HETATM   27  C16 UNL     1      29.845  11.278  41.306  1.00  0.00     0.007 A 
HETATM   28  C17 UNL     1      30.798  11.160  40.134  1.00  0.00     0.007 A 
ENDBRANCH  23  26
ENDBRANCH  10  23
TORSDOF 6
ENDMDL
MODEL 4
REMARK VINA RESULT: -6.876049020      1.939      3.939
REMARK  6 active torsions:
REMARK  status: ('A' for Active; 'I' for Inactive)
REMARK    1  A    between atoms: C2_2  and  C3_3 
REMARK    2  A    between atoms: C7_8  and  S1_9 
REMARK    3  A    between atoms: S1_9  and  N1_12 
REMARK    4  A    between atoms: C13_21  and  C14_22 
REMARK    5  A    between atoms: C14_22  and  O3_23 
REMARK    6  A    between atoms: C14_22  and  C15_25 
ROOT
HETATM    1  N1  UNL     1      27.308  12.265  38.505  1.00  0.00    -0.281 N 
HETATM    2  C8  UNL     1      28.630  12.237  38.004  1.00  0.00     0.208 C 
HETATM    3  C9  UNL     1      29.329  11.010  38.185  1.00  0.00     0.085 C 
HETATM    4  N2  UNL     1      29.913  10.011  38.297  1.00  0.00    -0.195 NA
HETATM    5  C10 UNL     1      29.402  13.486  38.414  1.00  0.00     0.120 C 
HETATM    6  C11 UNL     1      28.725  14.626  37.696  1.00  0.00     0.248 C 
HETATM    7  F1  UNL     1      29.196  15.856  38.146  1.00  0.00    -0.206 F 
HETATM    8  F2  UNL     1      28.978  14.606  36.337  1.00  0.00    -0.206 F 
HETATM    9  C12 UNL     1      27.266  14.595  37.971  1.00  0.00     0.107 C 
HETATM   10  C13 UNL     1      26.597  13.242  37.854  1.00  0.00     0.132 C 
ENDROOT
BRANCH   1  11
HETATM   11  S1  UNL     1      26.928  11.308  39.746  1.00  0.00     0.264 S 
HETATM   12  O1  UNL     1      26.283  12.122  40.882  1.00  0.00    -0.200 OA
HETATM   13  O2  UNL     1      28.123  10.651  40.458  1.00  0.00    -0.200 OA
BRANCH  11  14
HETATM   14  C7  UNL     1      25.882   9.926  39.473  1.00  0.00     0.102 A 
HETATM   15  C6  UNL     1      24.776   9.620  40.217  1.00  0.00     0.057 A 
HETATM   16  C5  UNL     1      24.024   8.487  39.945  1.00  0.00     0.026 A 
HETATM   17 CL1  UNL     1      24.246  10.687  41.491  1.00  0.00    -0.083 Cl
HETATM   18  C4  UNL     1      24.372   7.643  38.916  1.00  0.00     0.013 A 
HETATM   19  C3  UNL     1      25.495   7.919  38.127  1.00  0.00    -0.035 A 
HETATM   20  C18 UNL     1      26.195   9.055  38.453  1.00  0.00     0.038 A 
BRANCH  19  21
HETATM   21  C2  UNL     1      25.874   7.040  37.039  1.00  0.00     0.001 C 
HETATM   22  C1  UNL     1      25.211   6.970  35.924  1.00  0.00     0.012 C 
ENDBRANCH  19  21
ENDBRANCH  11  14
ENDBRANCH   1  11
BRANCH  10  23
HETATM   23  C14 UNL     1      25.133  13.409  38.024  1.00  0.00     0.146 C 
BRANCH  23  24
HETATM   24  O3  UNL     1      24.570  12.153  38.433  1.00  0.00    -0.393 OA
ATOM     25  H3  UNL     1      24.812  11.990  39.336  1.00  0.00     0.210 HD
ENDBRANCH  23  24
BRANCH  23  26
HETATM   26  C15 UNL     1      24.767  14.267  39.232  1.00  0.00     0.016 A 
HETATM   27  C16 UNL     1      23.461  15.081  39.076  1.00  0.00     0.007 A 
HETATM   28  C17 UNL     1      23.644  14.000  40.120  1.00  0.00     0.007 A 
ENDBRANCH  23  26
ENDBRANCH  10  23
TORSDOF 6
ENDMDL
MODEL 5
REMARK VINA RESULT: -6.584096869      3.078      5.922
REMARK  6 active torsions:
REMARK  status: ('A' for Active; 'I' for Inactive)
REMARK    1  A    between atoms: C2_2  and  C3_3 
REMARK    2  A    between atoms: C7_8  and  S1_9 
REMARK    3  A    between atoms: S1_9  and  N1_12 
REMARK    4  A    between atoms: C13_21  and  C14_22 
REMARK    5  A    between atoms: C14_22  and  O3_23 
REMARK    6  A    between atoms: C14_22  and  C15_25 
ROOT
HETATM    1  N1  UNL     1      25.938  10.681  39.239  1.00  0.00    -0.281 N 
HETATM    2  C8  UNL     1      25.054  11.519  39.956  1.00  0.00     0.208 C 
HETATM    3  C9  UNL     1      25.527  12.838  40.207  1.00  0.00     0.085 C 
HETATM    4  N2  UNL     1      25.877  13.929  40.402  1.00  0.00    -0.195 NA
HETATM    5  C10 UNL     1      24.473  10.800  41.169  1.00  0.00     0.120 C 
HETATM    6  C11 UNL     1      23.613   9.699  40.604  1.00  0.00     0.248 C 
HETATM    7  F1  UNL     1      23.188   8.828  41.603  1.00  0.00    -0.206 F 
HETATM    8  F2  UNL     1      22.459  10.188  40.023  1.00  0.00    -0.206 F 
HETATM    9  C12 UNL     1      24.401   8.893  39.636  1.00  0.00     0.107 C 
HETATM   10  C13 UNL     1      25.223   9.677  38.635  1.00  0.00     0.132 C 
ENDROOT
BRANCH   1  11
HETATM   11  S1  UNL     1      27.524  10.951  39.350  1.00  0.00     0.264 S 
HETATM   12  O1  UNL     1      28.319   9.775  38.754  1.00  0.00    -0.200 OA
HETATM   13  O2  UNL     1      28.080  11.022  40.783  1.00  0.00    -0.200 OA
BRANCH  11  14
HETATM   14  C7  UNL     1      28.196  12.410  38.642  1.00  0.00     0.102 A 
HETATM   15  C6  UNL     1      29.467  12.869  38.851  1.00  0.00     0.057 A 
HETATM   16  C5  UNL     1      29.903  14.052  38.272  1.00  0.00     0.026 A 
HETATM   17 CL1  UNL     1      30.597  11.942  39.803  1.00  0.00    -0.083 Cl
HETATM   18  C4  UNL     1      29.065  14.791  37.470  1.00  0.00     0.013 A 
HETATM   19  C3  UNL     1      27.756  14.357  37.227  1.00  0.00    -0.035 A 
HETATM   20  C18 UNL     1      27.391  13.180  37.833  1.00  0.00     0.038 A 
BRANCH  19  21
HETATM   21  C2  UNL     1      26.861  15.124  36.383  1.00  0.00     0.001 C 
HETATM   22  C1  UNL     1      26.433  16.308  36.702  1.00  0.00     0.012 C 
ENDBRANCH  19  21
ENDBRANCH  11  14
ENDBRANCH   1  11
BRANCH  10  23
HETATM   23  C14 UNL     1      25.834   8.735  37.666  1.00  0.00     0.146 C 
BRANCH  23  24
HETATM   24  O3  UNL     1      26.582   7.748  38.391  1.00  0.00    -0.393 OA
ATOM     25  H3  UNL     1      26.592   6.942  37.888  1.00  0.00     0.210 HD
ENDBRANCH  23  24
BRANCH  23  26
HETATM   26  C15 UNL     1      24.807   7.837  36.981  1.00  0.00     0.016 A 
HETATM   27  C16 UNL     1      24.345   8.328  35.589  1.00  0.00     0.007 A 
HETATM   28  C17 UNL     1      25.082   7.022  35.805  1.00  0.00     0.007 A 
ENDBRANCH  23  26
ENDBRANCH  10  23
TORSDOF 6
ENDMDL
