MODEL 1
REMARK VINA RESULT: -8.500243992      0.000      0.000
REMARK  8 active torsions:
REMARK  status: ('A' for Active; 'I' for Inactive)
REMARK    1  A    between atoms: C2_2  and  C3_3 
REMARK    2  A    between atoms: C3_3  and  N1_4 
REMARK    3  A    between atoms: N1_4  and  C4_6 
REMARK    4  A    between atoms: N3_9  and  C5_10 
REMARK    5  A    between atoms: N4_13  and  C8_14 
REMARK    6  A    between atoms: C8_14  and  O1_15 
REMARK    7  A    between atoms: C8_14  and  C9_17 
REMARK    8  A    between atoms: C9_17  and  C10_18 
ROOT
HETATM    1  C5  UNL     1      24.638   8.184  38.098  1.00  0.00     0.110 C 
HETATM    2  C6  UNL     1      25.866   7.476  38.564  1.00  0.00     0.047 C 
HETATM    3  C7  UNL     1      27.135   8.158  38.059  1.00  0.00     0.127 C 
HETATM    4  N4  UNL     1      27.235   9.467  38.646  1.00  0.00    -0.365 N 
HETATM    5  C16 UNL     1      25.942   9.876  39.257  1.00  0.00     0.127 C 
HETATM    6  C17 UNL     1      24.838   9.655  38.204  1.00  0.00     0.047 C 
ENDROOT
BRANCH   1   7
HETATM    7  N3  UNL     1      24.226   7.757  36.751  1.00  0.00    -0.294 N 
HETATM    8  N2  UNL     1      23.465   8.397  35.895  1.00  0.00    -0.281 N 
HETATM    9  C4  UNL     1      23.292   7.702  34.746  1.00  0.00     0.158 A 
ATOM     10  H2  UNL     1      23.052   9.313  36.074  1.00  0.00     0.189 HD
HETATM   11  C19 UNL     1      23.994   6.544  34.898  1.00  0.00     0.178 A 
HETATM   12  C18 UNL     1      24.563   6.606  36.149  1.00  0.00     0.156 A 
HETATM   13  F3  UNL     1      24.153   5.488  34.024  1.00  0.00    -0.201 F 
BRANCH   9  14
HETATM   14  N1  UNL     1      22.605   8.070  33.739  1.00  0.00    -0.356 N 
ATOM     15  H1  UNL     1      23.067   8.651  33.039  1.00  0.00     0.162 HD
BRANCH  14  16
HETATM   16  C3  UNL     1      21.228   7.728  33.516  1.00  0.00     0.098 A 
HETATM   17  C20 UNL     1      20.477   8.870  32.800  1.00  0.00     0.120 A 
HETATM   18  C21 UNL     1      20.117   8.363  34.200  1.00  0.00     0.158 A 
HETATM   19  O2  UNL     1      19.255   8.669  35.041  1.00  0.00    -0.295 OA
BRANCH  16  20
HETATM   20  C2  UNL     1      21.005   6.362  32.831  1.00  0.00     0.035 C 
HETATM   21  C1  UNL     1      20.523   5.422  33.937  1.00  0.00     0.008 C 
ENDBRANCH  16  20
ENDBRANCH  14  16
ENDBRANCH   9  14
ENDBRANCH   1   7
BRANCH   4  22
HETATM   22  C8  UNL     1      28.301  10.345  38.708  1.00  0.00     0.123 C 
BRANCH  22  23
HETATM   23  O1  UNL     1      29.458   9.797  38.425  1.00  0.00    -0.349 OA
ATOM     24  H1  UNL     1      29.866   9.357  39.162  1.00  0.00     0.219 HD
ENDBRANCH  22  23
BRANCH  22  25
HETATM   25  C9  UNL     1      28.424  11.767  39.021  1.00  0.00     0.038 C 
HETATM   26  C13 UNL     1      27.244  12.658  38.932  1.00  0.00     0.097 C 
HETATM   27  C14 UNL     1      27.885  13.541  37.850  1.00  0.00     0.246 C 
HETATM   28  F1  UNL     1      28.244  14.808  38.280  1.00  0.00    -0.206 F 
HETATM   29  F2  UNL     1      27.112  13.704  36.710  1.00  0.00    -0.206 F 
HETATM   30  C15 UNL     1      28.974  12.525  37.796  1.00  0.00     0.097 C 
BRANCH  25  31
HETATM   31  C10 UNL     1      29.316  12.004  40.224  1.00  0.00    -0.006 C 
HETATM   32  C11 UNL     1      29.227  10.891  41.235  1.00  0.00     0.011 C 
HETATM   33  C12 UNL     1      30.736  12.298  39.982  1.00  0.00     0.011 C 
ENDBRANCH  25  31
ENDBRANCH  22  25
ENDBRANCH   4  22
TORSDOF 8
ENDMDL
MODEL 2
REMARK VINA RESULT: -8.485479382      1.890      2.420
REMARK  8 active torsions:
REMARK  status: ('A' for Active; 'I' for Inactive)
REMARK    1  A    between atoms: C2_2  and  C3_3 
REMARK    2  A    between atoms: C3_3  and  N1_4 
REMARK    3  A    between atoms: N1_4  and  C4_6 
REMARK    4  A    between atoms: N3_9  and  C5_10 
REMARK    5  A    between atoms: N4_13  and  C8_14 
REMARK    6  A    between atoms: C8_14  and  O1_15 
REMARK    7  A    between atoms: C8_14  and  C9_17 
REMARK    8  A    between atoms: C9_17  and  C10_18 
ROOT
HETATM    1  C5  UNL     1      24.631   8.212  38.314  1.00  0.00     0.110 C 
HETATM    2  C6  UNL     1      25.905   7.455  38.487  1.00  0.00     0.047 C 
HETATM    3  C7  UNL     1      27.096   8.220  37.915  1.00  0.00     0.127 C 
HETATM    4  N4  UNL     1      27.293   9.426  38.673  1.00  0.00    -0.365 N 
HETATM    5  C16 UNL     1      26.105   9.723  39.518  1.00  0.00     0.127 C 
HETATM    6  C17 UNL     1      24.859   9.652  38.612  1.00  0.00     0.047 C 
ENDROOT
BRANCH   1   7
HETATM    7  N3  UNL     1      24.026   7.989  36.991  1.00  0.00    -0.294 N 
HETATM    8  N2  UNL     1      23.456   6.900  36.533  1.00  0.00    -0.281 N 
HETATM    9  C4  UNL     1      23.008   7.051  35.264  1.00  0.00     0.158 A 
ATOM     10  H2  UNL     1      23.361   6.038  37.070  1.00  0.00     0.189 HD
HETATM   11  C19 UNL     1      23.323   8.328  34.905  1.00  0.00     0.178 A 
HETATM   12  C18 UNL     1      23.953   8.885  35.994  1.00  0.00     0.156 A 
HETATM   13  F3  UNL     1      23.089   8.994  33.719  1.00  0.00    -0.201 F 
BRANCH   9  14
HETATM   14  N1  UNL     1      22.417   6.168  34.563  1.00  0.00    -0.356 N 
ATOM     15  H1  UNL     1      21.624   6.469  33.996  1.00  0.00     0.162 HD
BRANCH  14  16
HETATM   16  C3  UNL     1      22.784   4.781  34.511  1.00  0.00     0.098 A 
HETATM   17  C20 UNL     1      21.660   3.928  33.886  1.00  0.00     0.120 A 
HETATM   18  C21 UNL     1      22.163   3.750  35.322  1.00  0.00     0.158 A 
HETATM   19  O2  UNL     1      21.865   2.992  36.259  1.00  0.00    -0.295 OA
BRANCH  16  20
HETATM   20  C2  UNL     1      24.159   4.501  33.866  1.00  0.00     0.035 C 
HETATM   21  C1  UNL     1      25.060   4.030  35.008  1.00  0.00     0.008 C 
ENDBRANCH  16  20
ENDBRANCH  14  16
ENDBRANCH   9  14
ENDBRANCH   1   7
BRANCH   4  22
HETATM   22  C8  UNL     1      28.366  10.296  38.714  1.00  0.00     0.123 C 
BRANCH  22  23
HETATM   23  O1  UNL     1      29.515   9.738  38.422  1.00  0.00    -0.349 OA
ATOM     24  H1  UNL     1      30.038   9.511  39.182  1.00  0.00     0.219 HD
ENDBRANCH  22  23
BRANCH  22  25
HETATM   25  C9  UNL     1      28.503  11.721  39.014  1.00  0.00     0.038 C 
HETATM   26  C13 UNL     1      27.324  12.616  38.954  1.00  0.00     0.097 C 
HETATM   27  C14 UNL     1      27.935  13.488  37.847  1.00  0.00     0.246 C 
HETATM   28  F1  UNL     1      28.312  14.757  38.258  1.00  0.00    -0.206 F 
HETATM   29  F2  UNL     1      27.129  13.647  36.730  1.00  0.00    -0.206 F 
HETATM   30  C15 UNL     1      29.019  12.468  37.767  1.00  0.00     0.097 C 
BRANCH  25  31
HETATM   31  C10 UNL     1      29.432  11.962  40.188  1.00  0.00    -0.006 C 
HETATM   32  C11 UNL     1      29.379  10.850  41.202  1.00  0.00     0.011 C 
HETATM   33  C12 UNL     1      30.843  12.260  39.901  1.00  0.00     0.011 C 
ENDBRANCH  25  31
ENDBRANCH  22  25
ENDBRANCH   4  22
TORSDOF 8
ENDMDL
MODEL 3
REMARK VINA RESULT: -8.317730330      1.192      1.435
REMARK  8 active torsions:
REMARK  status: ('A' for Active; 'I' for Inactive)
REMARK    1  A    between atoms: C2_2  and  C3_3 
REMARK    2  A    between atoms: C3_3  and  N1_4 
REMARK    3  A    between atoms: N1_4  and  C4_6 
REMARK    4  A    between atoms: N3_9  and  C5_10 
REMARK    5  A    between atoms: N4_13  and  C8_14 
REMARK    6  A    between atoms: C8_14  and  O1_15 
REMARK    7  A    between atoms: C8_14  and  C9_17 
REMARK    8  A    between atoms: C9_17  and  C10_18 
ROOT
HETATM    1  C5  UNL     1      24.686   8.174  38.398  1.00  0.00     0.110 C 
HETATM    2  C6  UNL     1      25.978   7.433  38.478  1.00  0.00     0.047 C 
HETATM    3  C7  UNL     1      27.128   8.241  37.881  1.00  0.00     0.127 C 
HETATM    4  N4  UNL     1      27.344   9.417  38.678  1.00  0.00    -0.365 N 
HETATM    5  C16 UNL     1      26.195   9.660  39.592  1.00  0.00     0.127 C 
HETATM    6  C17 UNL     1      24.908   9.605  38.745  1.00  0.00     0.047 C 
ENDROOT
BRANCH   1   7
HETATM    7  N3  UNL     1      24.020   7.996  37.098  1.00  0.00    -0.294 N 
HETATM    8  N2  UNL     1      23.255   7.004  36.709  1.00  0.00    -0.281 N 
HETATM    9  C4  UNL     1      22.812   7.167  35.440  1.00  0.00     0.158 A 
ATOM     10  H2  UNL     1      23.021   6.201  37.294  1.00  0.00     0.189 HD
HETATM   11  C19 UNL     1      23.340   8.347  35.007  1.00  0.00     0.178 A 
HETATM   12  C18 UNL     1      24.084   8.838  36.055  1.00  0.00     0.156 A 
HETATM   13  F3  UNL     1      23.200   8.982  33.790  1.00  0.00    -0.201 F 
BRANCH   9  14
HETATM   14  N1  UNL     1      22.057   6.369  34.796  1.00  0.00    -0.356 N 
ATOM     15  H1  UNL     1      22.501   5.717  34.150  1.00  0.00     0.162 HD
BRANCH  14  16
HETATM   16  C3  UNL     1      20.626   6.320  34.912  1.00  0.00     0.098 A 
HETATM   17  C20 UNL     1      19.944   6.716  33.586  1.00  0.00     0.120 A 
HETATM   18  C21 UNL     1      19.774   7.495  34.894  1.00  0.00     0.158 A 
HETATM   19  O2  UNL     1      19.141   8.512  35.225  1.00  0.00    -0.295 OA
BRANCH  16  20
HETATM   20  C2  UNL     1      20.069   4.999  35.486  1.00  0.00     0.035 C 
HETATM   21  C1  UNL     1      20.051   5.186  37.003  1.00  0.00     0.008 C 
ENDBRANCH  16  20
ENDBRANCH  14  16
ENDBRANCH   9  14
ENDBRANCH   1   7
BRANCH   4  22
HETATM   22  C8  UNL     1      28.405  10.303  38.703  1.00  0.00     0.123 C 
BRANCH  22  23
HETATM   23  O1  UNL     1      29.557   9.763  38.386  1.00  0.00    -0.349 OA
ATOM     24  H1  UNL     1      30.306  10.318  38.569  1.00  0.00     0.219 HD
ENDBRANCH  22  23
BRANCH  22  25
HETATM   25  C9  UNL     1      28.527  11.728  39.008  1.00  0.00     0.038 C 
HETATM   26  C13 UNL     1      27.338  12.609  38.956  1.00  0.00     0.097 C 
HETATM   27  C14 UNL     1      27.935  13.493  37.851  1.00  0.00     0.246 C 
HETATM   28  F1  UNL     1      28.298  14.764  38.264  1.00  0.00    -0.206 F 
HETATM   29  F2  UNL     1      27.123  13.647  36.737  1.00  0.00    -0.206 F 
HETATM   30  C15 UNL     1      29.030  12.486  37.763  1.00  0.00     0.097 C 
BRANCH  25  31
HETATM   31  C10 UNL     1      29.458  11.975  40.180  1.00  0.00    -0.006 C 
HETATM   32  C11 UNL     1      29.410  10.866  41.198  1.00  0.00     0.011 C 
HETATM   33  C12 UNL     1      30.867  12.277  39.889  1.00  0.00     0.011 C 
ENDBRANCH  25  31
ENDBRANCH  22  25
ENDBRANCH   4  22
TORSDOF 8
ENDMDL
MODEL 4
REMARK VINA RESULT: -8.253113390      2.433      3.236
REMARK  8 active torsions:
REMARK  status: ('A' for Active; 'I' for Inactive)
REMARK    1  A    between atoms: C2_2  and  C3_3 
REMARK    2  A    between atoms: C3_3  and  N1_4 
REMARK    3  A    between atoms: N1_4  and  C4_6 
REMARK    4  A    between atoms: N3_9  and  C5_10 
REMARK    5  A    between atoms: N4_13  and  C8_14 
REMARK    6  A    between atoms: C8_14  and  O1_15 
REMARK    7  A    between atoms: C8_14  and  C9_17 
REMARK    8  A    between atoms: C9_17  and  C10_18 
ROOT
HETATM    1  C5  UNL     1      24.704   8.113  38.467  1.00  0.00     0.110 C 
HETATM    2  C6  UNL     1      26.097   7.624  38.681  1.00  0.00     0.047 C 
HETATM    3  C7  UNL     1      27.125   8.724  38.427  1.00  0.00     0.127 C 
HETATM    4  N4  UNL     1      26.959   9.763  39.406  1.00  0.00    -0.365 N 
HETATM    5  C16 UNL     1      25.658   9.624  40.115  1.00  0.00     0.127 C 
HETATM    6  C17 UNL     1      24.558   9.478  39.045  1.00  0.00     0.047 C 
ENDROOT
BRANCH   1   7
HETATM    7  N3  UNL     1      24.300   8.043  37.054  1.00  0.00    -0.294 N 
HETATM    8  N2  UNL     1      24.010   6.976  36.346  1.00  0.00    -0.281 N 
HETATM    9  C4  UNL     1      23.679   7.284  35.070  1.00  0.00     0.158 A 
ATOM     10  H2  UNL     1      24.033   6.025  36.714  1.00  0.00     0.189 HD
HETATM   11  C19 UNL     1      23.769   8.641  34.976  1.00  0.00     0.178 A 
HETATM   12  C18 UNL     1      24.156   9.084  36.220  1.00  0.00     0.156 A 
HETATM   13  F3  UNL     1      23.534   9.468  33.896  1.00  0.00    -0.201 F 
BRANCH   9  14
HETATM   14  N1  UNL     1      23.354   6.460  34.156  1.00  0.00    -0.356 N 
ATOM     15  H1  UNL     1      23.181   6.834  33.223  1.00  0.00     0.162 HD
BRANCH  14  16
HETATM   16  C3  UNL     1      23.212   5.043  34.341  1.00  0.00     0.098 A 
HETATM   17  C20 UNL     1      21.902   4.525  33.711  1.00  0.00     0.120 A 
HETATM   18  C21 UNL     1      22.217   4.437  35.207  1.00  0.00     0.158 A 
HETATM   19  O2  UNL     1      21.612   3.997  36.199  1.00  0.00    -0.295 OA
BRANCH  16  20
HETATM   20  C2  UNL     1      24.438   4.210  33.911  1.00  0.00     0.035 C 
HETATM   21  C1  UNL     1      25.038   3.662  35.207  1.00  0.00     0.008 C 
ENDBRANCH  16  20
ENDBRANCH  14  16
ENDBRANCH   9  14
ENDBRANCH   1   7
BRANCH   4  22
HETATM   22  C8  UNL     1      27.789  10.814  39.751  1.00  0.00     0.123 C 
BRANCH  22  23
HETATM   23  O1  UNL     1      27.472  11.392  40.883  1.00  0.00    -0.349 OA
ATOM     24  H1  UNL     1      27.973  12.178  41.069  1.00  0.00     0.219 HD
ENDBRANCH  22  23
BRANCH  22  25
HETATM   25  C9  UNL     1      28.958  11.429  39.123  1.00  0.00     0.038 C 
HETATM   26  C13 UNL     1      30.139  10.607  38.772  1.00  0.00     0.097 C 
HETATM   27  C14 UNL     1      31.073  11.397  39.701  1.00  0.00     0.246 C 
HETATM   28  F1  UNL     1      31.997  12.194  39.045  1.00  0.00    -0.206 F 
HETATM   29  F2  UNL     1      31.780  10.617  40.604  1.00  0.00    -0.206 F 
HETATM   30  C15 UNL     1      29.847  12.080  40.203  1.00  0.00     0.097 C 
BRANCH  25  31
HETATM   31  C10 UNL     1      28.562  12.459  38.083  1.00  0.00    -0.006 C 
HETATM   32  C11 UNL     1      27.069  12.612  37.964  1.00  0.00     0.011 C 
HETATM   33  C12 UNL     1      29.159  13.799  38.179  1.00  0.00     0.011 C 
ENDBRANCH  25  31
ENDBRANCH  22  25
ENDBRANCH   4  22
TORSDOF 8
ENDMDL
MODEL 5
REMARK VINA RESULT: -8.160526138      1.954      2.577
REMARK  8 active torsions:
REMARK  status: ('A' for Active; 'I' for Inactive)
REMARK    1  A    between atoms: C2_2  and  C3_3 
REMARK    2  A    between atoms: C3_3  and  N1_4 
REMARK    3  A    between atoms: N1_4  and  C4_6 
REMARK    4  A    between atoms: N3_9  and  C5_10 
REMARK    5  A    between atoms: N4_13  and  C8_14 
REMARK    6  A    between atoms: C8_14  and  O1_15 
REMARK    7  A    between atoms: C8_14  and  C9_17 
REMARK    8  A    between atoms: C9_17  and  C10_18 
ROOT
HETATM    1  C5  UNL     1      24.676   8.108  38.474  1.00  0.00     0.110 C 
HETATM    2  C6  UNL     1      26.079   7.614  38.589  1.00  0.00     0.047 C 
HETATM    3  C7  UNL     1      27.090   8.735  38.367  1.00  0.00     0.127 C 
HETATM    4  N4  UNL     1      26.966   9.702  39.424  1.00  0.00    -0.365 N 
HETATM    5  C16 UNL     1      25.700   9.504  40.180  1.00  0.00     0.127 C 
HETATM    6  C17 UNL     1      24.552   9.427  39.153  1.00  0.00     0.047 C 
ENDROOT
BRANCH   1   7
HETATM    7  N3  UNL     1      24.207   8.134  37.080  1.00  0.00    -0.294 N 
HETATM    8  N2  UNL     1      23.639   7.168  36.397  1.00  0.00    -0.281 N 
HETATM    9  C4  UNL     1      23.338   7.545  35.132  1.00  0.00     0.158 A 
ATOM     10  H2  UNL     1      23.447   6.241  36.775  1.00  0.00     0.189 HD
HETATM   11  C19 UNL     1      23.749   8.840  35.018  1.00  0.00     0.178 A 
HETATM   12  C18 UNL     1      24.284   9.178  36.239  1.00  0.00     0.156 A 
HETATM   13  F3  UNL     1      23.676   9.697  33.938  1.00  0.00    -0.201 F 
BRANCH   9  14
HETATM   14  N1  UNL     1      22.785   6.822  34.241  1.00  0.00    -0.356 N 
ATOM     15  H1  UNL     1      23.385   6.416  33.524  1.00  0.00     0.162 HD
BRANCH  14  16
HETATM   16  C3  UNL     1      21.379   6.538  34.172  1.00  0.00     0.098 A 
HETATM   17  C20 UNL     1      20.709   7.307  33.015  1.00  0.00     0.120 A 
HETATM   18  C21 UNL     1      20.343   7.503  34.489  1.00  0.00     0.158 A 
HETATM   19  O2  UNL     1      19.532   8.223  35.096  1.00  0.00    -0.295 OA
BRANCH  16  20
HETATM   20  C2  UNL     1      21.024   5.035  34.159  1.00  0.00     0.035 C 
HETATM   21  C1  UNL     1      21.125   4.577  35.615  1.00  0.00     0.008 C 
ENDBRANCH  16  20
ENDBRANCH  14  16
ENDBRANCH   9  14
ENDBRANCH   1   7
BRANCH   4  22
HETATM   22  C8  UNL     1      27.808  10.731  39.804  1.00  0.00     0.123 C 
BRANCH  22  23
HETATM   23  O1  UNL     1      27.554  11.211  40.997  1.00  0.00    -0.349 OA
ATOM     24  H1  UNL     1      28.195  11.845  41.301  1.00  0.00     0.219 HD
ENDBRANCH  22  23
BRANCH  22  25
HETATM   25  C9  UNL     1      28.932  11.409  39.161  1.00  0.00     0.038 C 
HETATM   26  C13 UNL     1      30.160  10.657  38.812  1.00  0.00     0.097 C 
HETATM   27  C14 UNL     1      31.049  11.515  39.725  1.00  0.00     0.246 C 
HETATM   28  F1  UNL     1      31.918  12.358  39.053  1.00  0.00    -0.206 F 
HETATM   29  F2  UNL     1      31.808  10.792  40.632  1.00  0.00    -0.206 F 
HETATM   30  C15 UNL     1      29.786  12.127  40.227  1.00  0.00     0.097 C 
BRANCH  25  31
HETATM   31  C10 UNL     1      28.467  12.400  38.111  1.00  0.00    -0.006 C 
HETATM   32  C11 UNL     1      26.967  12.512  38.050  1.00  0.00     0.011 C 
HETATM   33  C12 UNL     1      29.033  13.756  38.146  1.00  0.00     0.011 C 
ENDBRANCH  25  31
ENDBRANCH  22  25
ENDBRANCH   4  22
TORSDOF 8
ENDMDL
