MODEL 1
REMARK VINA RESULT: -4.845660001      0.000      0.000
REMARK  3 active torsions:
REMARK  status: ('A' for Active; 'I' for Inactive)
REMARK    1  A    between atoms: N2_3  and  C2_5 
REMARK    2  A    between atoms: C2_5  and  C3_6 
REMARK    3  A    between atoms: C3_6  and  C4_7 
ROOT
HETATM    1  C4  UNL     1      95.876 -22.321  53.075  1.00  0.00     0.082 A 
HETATM    2  N3  UNL     1      95.035 -23.225  52.566  1.00  0.00    -0.354 N 
ATOM      3  H3  UNL     1      94.712 -23.231  51.599  1.00  0.00     0.166 HD
HETATM    4  C5  UNL     1      94.672 -24.124  53.494  1.00  0.00     0.106 A 
HETATM    5  C6  UNL     1      95.333 -23.748  54.647  1.00  0.00     0.106 A 
HETATM    6  N4  UNL     1      96.053 -22.655  54.364  1.00  0.00    -0.354 N 
ATOM      7  H4  UNL     1      96.644 -22.154  55.026  1.00  0.00     0.166 HD
ENDROOT
BRANCH   1   8
HETATM    8  C3  UNL     1      96.538 -21.151  52.442  1.00  0.00     0.096 C 
BRANCH   8   9
HETATM    9  C2  UNL     1      96.974 -20.142  53.496  1.00  0.00     0.127 C 
BRANCH   9  10
HETATM   10  N2  UNL     1      96.125 -18.967  53.460  1.00  0.00    -0.388 N 
HETATM   11  C1  UNL     1      95.221 -18.771  54.334  1.00  0.00     0.185 C 
HETATM   12  N1  UNL     1      95.039 -19.715  55.360  1.00  0.00    -0.097 NA
ATOM     13  H2  UNL     1      96.256 -18.281  52.716  1.00  0.00     0.159 HD
ENDBRANCH   9  10
ENDBRANCH   8   9
ENDBRANCH   1   8
TORSDOF 3
ENDMDL
MODEL 2
REMARK VINA RESULT: -4.822152330      5.047      6.857
REMARK  3 active torsions:
REMARK  status: ('A' for Active; 'I' for Inactive)
REMARK    1  A    between atoms: N2_3  and  C2_5 
REMARK    2  A    between atoms: C2_5  and  C3_6 
REMARK    3  A    between atoms: C3_6  and  C4_7 
ROOT
HETATM    1  C4  UNL     1      92.522 -25.905  48.911  1.00  0.00     0.082 A 
HETATM    2  N3  UNL     1      91.983 -27.041  48.459  1.00  0.00    -0.354 N 
ATOM      3  H3  UNL     1      91.371 -27.646  49.006  1.00  0.00     0.166 HD
HETATM    4  C5  UNL     1      92.352 -27.279  47.191  1.00  0.00     0.106 A 
HETATM    5  C6  UNL     1      93.169 -26.223  46.842  1.00  0.00     0.106 A 
HETATM    6  N4  UNL     1      93.255 -25.409  47.900  1.00  0.00    -0.354 N 
ATOM      7  H4  UNL     1      93.794 -24.543  47.935  1.00  0.00     0.166 HD
ENDROOT
BRANCH   1   8
HETATM    8  C3  UNL     1      92.404 -25.238  50.233  1.00  0.00     0.096 C 
BRANCH   8   9
HETATM    9  C2  UNL     1      93.767 -25.124  50.903  1.00  0.00     0.127 C 
BRANCH   9  10
HETATM   10  N2  UNL     1      94.153 -23.733  51.041  1.00  0.00    -0.388 N 
HETATM   11  C1  UNL     1      95.057 -23.217  50.308  1.00  0.00     0.185 C 
HETATM   12  N1  UNL     1      95.698 -24.012  49.342  1.00  0.00    -0.097 NA
ATOM     13  H2  UNL     1      93.690 -23.155  51.742  1.00  0.00     0.159 HD
ENDBRANCH   9  10
ENDBRANCH   8   9
ENDBRANCH   1   8
TORSDOF 3
ENDMDL
MODEL 3
REMARK VINA RESULT: -4.782956677      0.420      1.106
REMARK  3 active torsions:
REMARK  status: ('A' for Active; 'I' for Inactive)
REMARK    1  A    between atoms: N2_3  and  C2_5 
REMARK    2  A    between atoms: C2_5  and  C3_6 
REMARK    3  A    between atoms: C3_6  and  C4_7 
ROOT
HETATM    1  C4  UNL     1      95.944 -22.357  53.294  1.00  0.00     0.082 A 
HETATM    2  N3  UNL     1      95.368 -22.441  54.495  1.00  0.00    -0.354 N 
ATOM      3  H3  UNL     1      95.450 -21.733  55.225  1.00  0.00     0.166 HD
HETATM    4  C5  UNL     1      94.666 -23.579  54.616  1.00  0.00     0.106 A 
HETATM    5  C6  UNL     1      94.821 -24.235  53.411  1.00  0.00     0.106 A 
HETATM    6  N4  UNL     1      95.599 -23.473  52.631  1.00  0.00    -0.354 N 
ATOM      7  H4  UNL     1      95.885 -23.706  51.680  1.00  0.00     0.166 HD
ENDROOT
BRANCH   1   8
HETATM    8  C3  UNL     1      96.806 -21.298  52.707  1.00  0.00     0.096 C 
BRANCH   8   9
HETATM    9  C2  UNL     1      97.062 -20.189  53.719  1.00  0.00     0.127 C 
BRANCH   9  10
HETATM   10  N2  UNL     1      96.200 -19.052  53.458  1.00  0.00    -0.388 N 
HETATM   11  C1  UNL     1      95.235 -18.757  54.233  1.00  0.00     0.185 C 
HETATM   12  N1  UNL     1      94.995 -19.551  55.368  1.00  0.00    -0.097 NA
ATOM     13  H2  UNL     1      96.372 -18.474  52.635  1.00  0.00     0.159 HD
ENDBRANCH   9  10
ENDBRANCH   8   9
ENDBRANCH   1   8
TORSDOF 3
ENDMDL
MODEL 4
REMARK VINA RESULT: -4.734587402      5.132      6.600
REMARK  3 active torsions:
REMARK  status: ('A' for Active; 'I' for Inactive)
REMARK    1  A    between atoms: N2_3  and  C2_5 
REMARK    2  A    between atoms: C2_5  and  C3_6 
REMARK    3  A    between atoms: C3_6  and  C4_7 
ROOT
HETATM    1  C4  UNL     1      92.617 -25.741  48.618  1.00  0.00     0.082 A 
HETATM    2  N3  UNL     1      91.957 -26.902  48.578  1.00  0.00    -0.354 N 
ATOM      3  H3  UNL     1      91.324 -27.230  49.307  1.00  0.00     0.166 HD
HETATM    4  C5  UNL     1      92.238 -27.579  47.454  1.00  0.00     0.106 A 
HETATM    5  C6  UNL     1      93.126 -26.783  46.758  1.00  0.00     0.106 A 
HETATM    6  N4  UNL     1      93.337 -25.679  47.485  1.00  0.00    -0.354 N 
ATOM      7  H4  UNL     1      93.951 -24.909  47.220  1.00  0.00     0.166 HD
ENDROOT
BRANCH   1   8
HETATM    8  C3  UNL     1      92.626 -24.669  49.646  1.00  0.00     0.096 C 
BRANCH   8   9
HETATM    9  C2  UNL     1      93.862 -23.790  49.497  1.00  0.00     0.127 C 
BRANCH   9  10
HETATM   10  N2  UNL     1      94.739 -23.947  50.641  1.00  0.00    -0.388 N 
HETATM   11  C1  UNL     1      95.197 -22.940  51.271  1.00  0.00     0.185 C 
HETATM   12  N1  UNL     1      94.846 -21.645  50.850  1.00  0.00    -0.097 NA
ATOM     13  H2  UNL     1      94.996 -24.885  50.948  1.00  0.00     0.159 HD
ENDBRANCH   9  10
ENDBRANCH   8   9
ENDBRANCH   1   8
TORSDOF 3
ENDMDL
MODEL 5
REMARK VINA RESULT: -4.710000343      1.481      3.902
REMARK  3 active torsions:
REMARK  status: ('A' for Active; 'I' for Inactive)
REMARK    1  A    between atoms: N2_3  and  C2_5 
REMARK    2  A    between atoms: C2_5  and  C3_6 
REMARK    3  A    between atoms: C3_6  and  C4_7 
ROOT
HETATM    1  C4  UNL     1      95.975 -21.251  52.483  1.00  0.00     0.082 A 
HETATM    2  N3  UNL     1      96.974 -20.486  52.034  1.00  0.00    -0.354 N 
ATOM      3  H3  UNL     1      97.571 -20.724  51.241  1.00  0.00     0.166 HD
HETATM    4  C5  UNL     1      97.089 -19.365  52.763  1.00  0.00     0.106 A 
HETATM    5  C6  UNL     1      96.098 -19.446  53.720  1.00  0.00     0.106 A 
HETATM    6  N4  UNL     1      95.440 -20.596  53.527  1.00  0.00    -0.354 N 
ATOM      7  H4  UNL     1      94.654 -20.925  54.087  1.00  0.00     0.166 HD
ENDROOT
BRANCH   1   8
HETATM    8  C3  UNL     1      95.474 -22.565  52.005  1.00  0.00     0.096 C 
BRANCH   8   9
HETATM    9  C2  UNL     1      95.574 -23.613  53.106  1.00  0.00     0.127 C 
BRANCH   9  10
HETATM   10  N2  UNL     1      94.255 -24.080  53.487  1.00  0.00    -0.388 N 
HETATM   11  C1  UNL     1      93.729 -23.754  54.600  1.00  0.00     0.185 C 
HETATM   12  N1  UNL     1      94.441 -22.923  55.482  1.00  0.00    -0.097 NA
ATOM     13  H2  UNL     1      93.736 -24.683  52.849  1.00  0.00     0.159 HD
ENDBRANCH   9  10
ENDBRANCH   8   9
ENDBRANCH   1   8
TORSDOF 3
ENDMDL
