MODEL 1
REMARK VINA RESULT: -4.813401870      0.000      0.000
REMARK  3 active torsions:
REMARK  status: ('A' for Active; 'I' for Inactive)
REMARK    1  A    between atoms: C2_3  and  N2_4 
REMARK    2  A    between atoms: N2_4  and  C3_7 
REMARK    3  A    between atoms: C3_7  and  C4_8 
ROOT
HETATM    1  N1  UNL     1      94.032 -23.157  55.629  1.00  0.00    -0.196 NA
HETATM    2  C1  UNL     1      94.577 -23.223  54.606  1.00  0.00     0.086 C 
HETATM    3  C2  UNL     1      95.277 -23.316  53.329  1.00  0.00     0.355 C 
ENDROOT
BRANCH   3   4
HETATM    4  N2  UNL     1      95.151 -22.108  52.551  1.00  0.00    -0.063 N 
ATOM      5  H22 UNL     1      95.302 -22.280  51.557  1.00  0.00     0.278 HD
ATOM      6  H21 UNL     1      94.185 -21.785  52.504  1.00  0.00     0.278 HD
BRANCH   4   7
HETATM    7  C3  UNL     1      96.050 -21.068  53.068  1.00  0.00     0.241 C 
BRANCH   7   8
HETATM    8  C4  UNL     1      95.273 -19.892  53.566  1.00  0.00     0.062 C 
HETATM    9  C5  UNL     1      96.001 -18.554  53.355  1.00  0.00     0.240 C 
HETATM   10  N3  UNL     1      95.352 -18.136  54.602  1.00  0.00    -0.074 N 
HETATM   11  C6  UNL     1      95.411 -19.524  55.017  1.00  0.00     0.240 C 
ATOM     12  H32 UNL     1      95.746 -17.395  55.180  1.00  0.00     0.277 HD
ATOM     13  H31 UNL     1      94.470 -17.624  54.592  1.00  0.00     0.277 HD
ENDBRANCH   7   8
ENDBRANCH   4   7
ENDBRANCH   3   4
TORSDOF 3
ENDMDL
MODEL 2
REMARK VINA RESULT: -4.712738992      1.985      2.308
REMARK  3 active torsions:
REMARK  status: ('A' for Active; 'I' for Inactive)
REMARK    1  A    between atoms: C2_3  and  N2_4 
REMARK    2  A    between atoms: N2_4  and  C3_7 
REMARK    3  A    between atoms: C3_7  and  C4_8 
ROOT
HETATM    1  N1  UNL     1      93.898 -23.203  55.548  1.00  0.00    -0.196 NA
HETATM    2  C1  UNL     1      94.568 -23.202  54.600  1.00  0.00     0.086 C 
HETATM    3  C2  UNL     1      95.427 -23.205  53.420  1.00  0.00     0.355 C 
ENDROOT
BRANCH   3   4
HETATM    4  N2  UNL     1      95.091 -22.146  52.500  1.00  0.00    -0.063 N 
ATOM      5  H22 UNL     1      94.440 -22.461  51.781  1.00  0.00     0.278 HD
ATOM      6  H21 UNL     1      94.504 -21.436  52.936  1.00  0.00     0.278 HD
BRANCH   4   7
HETATM    7  C3  UNL     1      96.308 -21.566  51.918  1.00  0.00     0.241 C 
BRANCH   7   8
HETATM    8  C4  UNL     1      97.283 -21.190  52.988  1.00  0.00     0.062 C 
HETATM    9  C5  UNL     1      97.492 -19.671  53.107  1.00  0.00     0.240 C 
HETATM   10  N3  UNL     1      98.869 -20.006  53.482  1.00  0.00    -0.074 N 
HETATM   11  C6  UNL     1      98.743 -21.174  52.631  1.00  0.00     0.240 C 
ATOM     12  H32 UNL     1      99.629 -19.338  53.353  1.00  0.00     0.277 HD
ATOM     13  H31 UNL     1      99.144 -20.092  54.460  1.00  0.00     0.277 HD
ENDBRANCH   7   8
ENDBRANCH   4   7
ENDBRANCH   3   4
TORSDOF 3
ENDMDL
MODEL 3
REMARK VINA RESULT: -4.699080709      3.698      5.574
REMARK  3 active torsions:
REMARK  status: ('A' for Active; 'I' for Inactive)
REMARK    1  A    between atoms: C2_3  and  N2_4 
REMARK    2  A    between atoms: N2_4  and  C3_7 
REMARK    3  A    between atoms: C3_7  and  C4_8 
ROOT
HETATM    1  N1  UNL     1      94.354 -22.858  55.326  1.00  0.00    -0.196 NA
HETATM    2  C1  UNL     1      94.024 -23.790  54.717  1.00  0.00     0.086 C 
HETATM    3  C2  UNL     1      93.623 -24.971  53.959  1.00  0.00     0.355 C 
ENDROOT
BRANCH   3   4
HETATM    4  N2  UNL     1      93.334 -24.661  52.580  1.00  0.00    -0.063 N 
ATOM      5  H22 UNL     1      92.349 -24.804  52.358  1.00  0.00     0.278 HD
ATOM      6  H21 UNL     1      93.387 -23.659  52.397  1.00  0.00     0.278 HD
BRANCH   4   7
HETATM    7  C3  UNL     1      94.212 -25.427  51.687  1.00  0.00     0.241 C 
BRANCH   7   8
HETATM    8  C4  UNL     1      93.700 -25.398  50.282  1.00  0.00     0.062 C 
HETATM    9  C5  UNL     1      93.733 -23.993  49.657  1.00  0.00     0.240 C 
HETATM   10  N3  UNL     1      92.526 -24.411  48.937  1.00  0.00    -0.074 N 
HETATM   11  C6  UNL     1      92.218 -25.249  50.080  1.00  0.00     0.240 C 
ATOM     12  H32 UNL     1      91.855 -23.727  48.588  1.00  0.00     0.277 HD
ATOM     13  H31 UNL     1      92.581 -24.800  47.995  1.00  0.00     0.277 HD
ENDBRANCH   7   8
ENDBRANCH   4   7
ENDBRANCH   3   4
TORSDOF 3
ENDMDL
MODEL 4
REMARK VINA RESULT: -4.699078881      3.605      5.647
REMARK  3 active torsions:
REMARK  status: ('A' for Active; 'I' for Inactive)
REMARK    1  A    between atoms: C2_3  and  N2_4 
REMARK    2  A    between atoms: N2_4  and  C3_7 
REMARK    3  A    between atoms: C3_7  and  C4_8 
ROOT
HETATM    1  N1  UNL     1      94.523 -22.714  55.281  1.00  0.00    -0.196 NA
HETATM    2  C1  UNL     1      94.141 -23.700  54.801  1.00  0.00     0.086 C 
HETATM    3  C2  UNL     1      93.676 -24.947  54.203  1.00  0.00     0.355 C 
ENDROOT
BRANCH   3   4
HETATM    4  N2  UNL     1      93.043 -24.735  52.925  1.00  0.00    -0.063 N 
ATOM      5  H22 UNL     1      92.140 -25.205  52.866  1.00  0.00     0.278 HD
ATOM      6  H21 UNL     1      92.721 -23.774  52.815  1.00  0.00     0.278 HD
BRANCH   4   7
HETATM    7  C3  UNL     1      93.940 -25.138  51.834  1.00  0.00     0.241 C 
BRANCH   7   8
HETATM    8  C4  UNL     1      93.307 -24.889  50.503  1.00  0.00     0.062 C 
HETATM    9  C5  UNL     1      93.793 -25.857  49.412  1.00  0.00     0.240 C 
HETATM   10  N3  UNL     1      93.616 -24.728  48.493  1.00  0.00    -0.074 N 
HETATM   11  C6  UNL     1      93.938 -23.859  49.608  1.00  0.00     0.240 C 
ATOM     12  H32 UNL     1      94.133 -24.675  47.615  1.00  0.00     0.277 HD
ATOM     13  H31 UNL     1      92.753 -24.610  47.962  1.00  0.00     0.277 HD
ENDBRANCH   7   8
ENDBRANCH   4   7
ENDBRANCH   3   4
TORSDOF 3
ENDMDL
MODEL 5
REMARK VINA RESULT: -4.652955861      1.910      3.041
REMARK  3 active torsions:
REMARK  status: ('A' for Active; 'I' for Inactive)
REMARK    1  A    between atoms: C2_3  and  N2_4 
REMARK    2  A    between atoms: N2_4  and  C3_7 
REMARK    3  A    between atoms: C3_7  and  C4_8 
ROOT
HETATM    1  N1  UNL     1      99.170 -19.484  53.461  1.00  0.00    -0.196 NA
HETATM    2  C1  UNL     1      98.581 -20.481  53.395  1.00  0.00     0.086 C 
HETATM    3  C2  UNL     1      97.845 -21.738  53.294  1.00  0.00     0.355 C 
ENDROOT
BRANCH   3   4
HETATM    4  N2  UNL     1      96.556 -21.667  53.936  1.00  0.00    -0.063 N 
ATOM      5  H22 UNL     1      96.233 -22.585  54.242  1.00  0.00     0.278 HD
ATOM      6  H21 UNL     1      96.609 -21.213  54.847  1.00  0.00     0.278 HD
BRANCH   4   7
HETATM    7  C3  UNL     1      95.580 -21.011  53.056  1.00  0.00     0.241 C 
BRANCH   7   8
HETATM    8  C4  UNL     1      94.980 -19.815  53.723  1.00  0.00     0.062 C 
HETATM    9  C5  UNL     1      95.679 -18.498  53.344  1.00  0.00     0.240 C 
HETATM   10  N3  UNL     1      95.358 -18.069  54.708  1.00  0.00    -0.074 N 
HETATM   11  C6  UNL     1      95.470 -19.461  55.099  1.00  0.00     0.240 C 
ATOM     12  H32 UNL     1      95.901 -17.343  55.175  1.00  0.00     0.277 HD
ATOM     13  H31 UNL     1      94.514 -17.530  54.907  1.00  0.00     0.277 HD
ENDBRANCH   7   8
ENDBRANCH   4   7
ENDBRANCH   3   4
TORSDOF 3
ENDMDL
