MODEL 1
REMARK VINA RESULT: -5.628140183      0.000      0.000
REMARK  3 active torsions:
REMARK  status: ('A' for Active; 'I' for Inactive)
REMARK    1  A    between atoms: C3_3  and  O1_4 
REMARK    2  A    between atoms: O1_4  and  C4_5 
REMARK    3  A    between atoms: C4_5  and  C5_6 
ROOT
HETATM    1  C1  UNL     1      94.360 -25.479  53.221  1.00  0.00     0.014 C 
HETATM    2  C2  UNL     1      94.296 -24.581  54.023  1.00  0.00    -0.091 C 
HETATM    3  C3  UNL     1      94.227 -23.456  55.000  1.00  0.00     0.260 C 
ENDROOT
BRANCH   3   4
HETATM    4  O1  UNL     1      94.458 -22.319  54.296  1.00  0.00    -0.373 OA
BRANCH   4   5
HETATM    5  C4  UNL     1      95.673 -21.747  54.321  1.00  0.00     0.228 C 
BRANCH   5   6
HETATM    6  C5  UNL     1      95.648 -20.284  54.170  1.00  0.00     0.064 C 
HETATM    7  C6  UNL     1      96.134 -19.563  53.201  1.00  0.00     0.133 C 
HETATM    8  N1  UNL     1      95.881 -18.162  53.459  1.00  0.00    -0.293 N 
HETATM    9  N2  UNL     1      95.518 -18.059  54.810  1.00  0.00    -0.023 NA
ATOM     10  H1  UNL     1      95.951 -17.397  52.788  1.00  0.00     0.183 HD
HETATM   11  N3  UNL     1      95.060 -19.347  55.099  1.00  0.00    -0.285 N 
ATOM     12  H3  UNL     1      94.413 -19.589  55.849  1.00  0.00     0.184 HD
ENDBRANCH   5   6
ENDBRANCH   4   5
ENDBRANCH   3   4
TORSDOF 3
ENDMDL
MODEL 2
REMARK VINA RESULT: -5.473145970      0.638      1.179
REMARK  3 active torsions:
REMARK  status: ('A' for Active; 'I' for Inactive)
REMARK    1  A    between atoms: C3_3  and  O1_4 
REMARK    2  A    between atoms: O1_4  and  C4_5 
REMARK    3  A    between atoms: C4_5  and  C5_6 
ROOT
HETATM    1  C1  UNL     1      94.191 -25.462  53.104  1.00  0.00     0.014 C 
HETATM    2  C2  UNL     1      94.210 -24.578  53.925  1.00  0.00    -0.091 C 
HETATM    3  C3  UNL     1      94.244 -23.471  54.922  1.00  0.00     0.260 C 
ENDROOT
BRANCH   3   4
HETATM    4  O1  UNL     1      94.492 -22.331  54.227  1.00  0.00    -0.373 OA
BRANCH   4   5
HETATM    5  C4  UNL     1      95.711 -21.770  54.267  1.00  0.00     0.228 C 
BRANCH   5   6
HETATM    6  C5  UNL     1      95.697 -20.303  54.161  1.00  0.00     0.064 C 
HETATM    7  C6  UNL     1      95.168 -19.438  54.977  1.00  0.00     0.133 C 
HETATM    8  N1  UNL     1      95.395 -18.097  54.484  1.00  0.00    -0.293 N 
HETATM    9  N2  UNL     1      95.790 -18.220  53.144  1.00  0.00    -0.023 NA
ATOM     10  H1  UNL     1      95.288 -17.229  55.009  1.00  0.00     0.183 HD
HETATM   11  N3  UNL     1      96.287 -19.526  53.095  1.00  0.00    -0.285 N 
ATOM     12  H3  UNL     1      96.959 -19.876  52.413  1.00  0.00     0.184 HD
ENDBRANCH   5   6
ENDBRANCH   4   5
ENDBRANCH   3   4
TORSDOF 3
ENDMDL
MODEL 3
REMARK VINA RESULT: -5.434270153      2.566      3.038
REMARK  3 active torsions:
REMARK  status: ('A' for Active; 'I' for Inactive)
REMARK    1  A    between atoms: C3_3  and  O1_4 
REMARK    2  A    between atoms: O1_4  and  C4_5 
REMARK    3  A    between atoms: C4_5  and  C5_6 
ROOT
HETATM    1  C1  UNL     1      94.889 -22.802  50.176  1.00  0.00     0.014 C 
HETATM    2  C2  UNL     1      95.552 -22.636  51.170  1.00  0.00    -0.091 C 
HETATM    3  C3  UNL     1      96.391 -22.423  52.384  1.00  0.00     0.260 C 
ENDROOT
BRANCH   3   4
HETATM    4  O1  UNL     1      97.444 -21.657  51.997  1.00  0.00    -0.373 OA
BRANCH   4   5
HETATM    5  C4  UNL     1      97.918 -20.702  52.814  1.00  0.00     0.228 C 
BRANCH   5   6
HETATM    6  C5  UNL     1      97.054 -19.515  52.910  1.00  0.00     0.064 C 
HETATM    7  C6  UNL     1      96.136 -19.253  53.794  1.00  0.00     0.133 C 
HETATM    8  N1  UNL     1      95.535 -17.968  53.508  1.00  0.00    -0.293 N 
HETATM    9  N2  UNL     1      95.906 -17.630  52.199  1.00  0.00    -0.023 NA
ATOM     10  H1  UNL     1      94.953 -17.414  54.137  1.00  0.00     0.183 HD
HETATM   11  N3  UNL     1      97.066 -18.386  52.009  1.00  0.00    -0.285 N 
ATOM     12  H3  UNL     1      97.805 -18.174  51.339  1.00  0.00     0.184 HD
ENDBRANCH   5   6
ENDBRANCH   4   5
ENDBRANCH   3   4
TORSDOF 3
ENDMDL
MODEL 4
REMARK VINA RESULT: -5.421228555      2.442      2.584
REMARK  3 active torsions:
REMARK  status: ('A' for Active; 'I' for Inactive)
REMARK    1  A    between atoms: C3_3  and  O1_4 
REMARK    2  A    between atoms: O1_4  and  C4_5 
REMARK    3  A    between atoms: C4_5  and  C5_6 
ROOT
HETATM    1  C1  UNL     1      95.998 -24.472  50.864  1.00  0.00     0.014 C 
HETATM    2  C2  UNL     1      95.616 -23.335  50.993  1.00  0.00    -0.091 C 
HETATM    3  C3  UNL     1      95.166 -21.923  51.159  1.00  0.00     0.260 C 
ENDROOT
BRANCH   3   4
HETATM    4  O1  UNL     1      96.290 -21.169  51.265  1.00  0.00    -0.373 OA
BRANCH   4   5
HETATM    5  C4  UNL     1      96.900 -21.033  52.454  1.00  0.00     0.228 C 
BRANCH   5   6
HETATM    6  C5  UNL     1      96.181 -20.162  53.397  1.00  0.00     0.064 C 
HETATM    7  C6  UNL     1      96.167 -18.861  53.447  1.00  0.00     0.133 C 
HETATM    8  N1  UNL     1      95.321 -18.422  54.535  1.00  0.00    -0.293 N 
HETATM    9  N2  UNL     1      95.102 -19.540  55.353  1.00  0.00    -0.023 NA
ATOM     10  H1  UNL     1      94.954 -17.482  54.680  1.00  0.00     0.183 HD
HETATM   11  N3  UNL     1      95.330 -20.605  54.477  1.00  0.00    -0.285 N 
ATOM     12  H3  UNL     1      94.955 -21.547  54.584  1.00  0.00     0.184 HD
ENDBRANCH   5   6
ENDBRANCH   4   5
ENDBRANCH   3   4
TORSDOF 3
ENDMDL
MODEL 5
REMARK VINA RESULT: -5.244321378      2.243      2.432
REMARK  3 active torsions:
REMARK  status: ('A' for Active; 'I' for Inactive)
REMARK    1  A    between atoms: C3_3  and  O1_4 
REMARK    2  A    between atoms: O1_4  and  C4_5 
REMARK    3  A    between atoms: C4_5  and  C5_6 
ROOT
HETATM    1  C1  UNL     1      94.581 -25.903  53.071  1.00  0.00     0.014 C 
HETATM    2  C2  UNL     1      94.166 -25.099  53.868  1.00  0.00    -0.091 C 
HETATM    3  C3  UNL     1      93.667 -24.087  54.843  1.00  0.00     0.260 C 
ENDROOT
BRANCH   3   4
HETATM    4  O1  UNL     1      94.016 -22.870  54.350  1.00  0.00    -0.373 OA
BRANCH   4   5
HETATM    5  C4  UNL     1      95.261 -22.402  54.536  1.00  0.00     0.228 C 
BRANCH   5   6
HETATM    6  C5  UNL     1      95.861 -21.807  53.332  1.00  0.00     0.064 C 
HETATM    7  C6  UNL     1      96.763 -20.871  53.256  1.00  0.00     0.133 C 
HETATM    8  N1  UNL     1      97.065 -20.595  51.868  1.00  0.00    -0.293 N 
HETATM    9  N2  UNL     1      96.040 -21.176  51.107  1.00  0.00    -0.023 NA
ATOM     10  H1  UNL     1      97.868 -20.077  51.511  1.00  0.00     0.183 HD
HETATM   11  N3  UNL     1      95.548 -22.162  51.967  1.00  0.00    -0.285 N 
ATOM     12  H3  UNL     1      95.046 -23.001  51.677  1.00  0.00     0.184 HD
ENDBRANCH   5   6
ENDBRANCH   4   5
ENDBRANCH   3   4
TORSDOF 3
ENDMDL
