MODEL 1
REMARK VINA RESULT: -4.789990542      0.000      0.000
REMARK  3 active torsions:
REMARK  status: ('A' for Active; 'I' for Inactive)
REMARK    1  A    between atoms: N1_2  and  N2_3 
REMARK    2  A    between atoms: N1_2  and  N3_6 
REMARK    3  A    between atoms: N3_6  and  C2_8 
ROOT
HETATM    1  C2  UNL     1      93.493 -25.047  48.645  1.00  0.00     0.693 A 
HETATM    2  N4  UNL     1      92.770 -25.956  49.355  1.00  0.00    -0.199 N 
ATOM      3  H4  UNL     1      92.567 -25.888  50.353  1.00  0.00     0.183 HD
HETATM    4  C3  UNL     1      92.361 -26.956  48.554  1.00  0.00     0.123 A 
HETATM    5  C4  UNL     1      92.833 -26.687  47.294  1.00  0.00     0.123 A 
HETATM    6  N5  UNL     1      93.504 -25.544  47.375  1.00  0.00    -0.199 N 
ATOM      7  H5  UNL     1      93.969 -25.094  46.587  1.00  0.00     0.183 HD
ENDROOT
BRANCH   1   8
HETATM    8  N3  UNL     1      94.098 -23.858  49.114  1.00  0.00    -0.135 N 
ATOM      9  H3  UNL     1      93.539 -23.018  49.265  1.00  0.00     0.201 HD
BRANCH   8  10
HETATM   10  N1  UNL     1      95.459 -23.851  49.364  1.00  0.00    -0.136 NA
HETATM   11  C1  UNL     1      95.840 -24.460  50.593  1.00  0.00     0.163 C 
BRANCH  10  12
HETATM   12  N2  UNL     1      96.190 -24.448  48.332  1.00  0.00    -0.346 NA
ATOM     13  H22 UNL     1      97.159 -24.132  48.312  1.00  0.00     0.172 HD
ATOM     14  H21 UNL     1      95.680 -24.313  47.458  1.00  0.00     0.172 HD
ENDBRANCH  10  12
ENDBRANCH   8  10
ENDBRANCH   1   8
TORSDOF 3
ENDMDL
MODEL 2
REMARK VINA RESULT: -4.780429106      0.019      1.203
REMARK  3 active torsions:
REMARK  status: ('A' for Active; 'I' for Inactive)
REMARK    1  A    between atoms: N1_2  and  N2_3 
REMARK    2  A    between atoms: N1_2  and  N3_6 
REMARK    3  A    between atoms: N3_6  and  C2_8 
ROOT
HETATM    1  C2  UNL     1      93.490 -25.053  48.634  1.00  0.00     0.693 A 
HETATM    2  N4  UNL     1      93.488 -25.533  47.360  1.00  0.00    -0.199 N 
ATOM      3  H4  UNL     1      93.937 -25.078  46.565  1.00  0.00     0.183 HD
HETATM    4  C3  UNL     1      92.810 -26.693  47.300  1.00  0.00     0.123 A 
HETATM    5  C4  UNL     1      92.362 -26.969  48.567  1.00  0.00     0.123 A 
HETATM    6  N5  UNL     1      92.781 -25.976  49.343  1.00  0.00    -0.199 N 
ATOM      7  H5  UNL     1      92.596 -25.912  50.344  1.00  0.00     0.183 HD
ENDROOT
BRANCH   1   8
HETATM    8  N3  UNL     1      94.090 -23.866  49.116  1.00  0.00    -0.135 N 
ATOM      9  H3  UNL     1      93.528 -23.031  49.280  1.00  0.00     0.201 HD
BRANCH   8  10
HETATM   10  N1  UNL     1      95.452 -23.856  49.363  1.00  0.00    -0.136 NA
HETATM   11  C1  UNL     1      95.837 -24.449  50.599  1.00  0.00     0.163 C 
BRANCH  10  12
HETATM   12  N2  UNL     1      96.180 -24.466  48.336  1.00  0.00    -0.346 NA
ATOM     13  H22 UNL     1      96.754 -25.237  48.677  1.00  0.00     0.172 HD
ATOM     14  H21 UNL     1      96.695 -23.742  47.833  1.00  0.00     0.172 HD
ENDBRANCH  10  12
ENDBRANCH   8  10
ENDBRANCH   1   8
TORSDOF 3
ENDMDL
MODEL 3
REMARK VINA RESULT: -4.776673588      5.561      7.274
REMARK  3 active torsions:
REMARK  status: ('A' for Active; 'I' for Inactive)
REMARK    1  A    between atoms: N1_2  and  N2_3 
REMARK    2  A    between atoms: N1_2  and  N3_6 
REMARK    3  A    between atoms: N3_6  and  C2_8 
ROOT
HETATM    1  C2  UNL     1      95.554 -21.574  53.337  1.00  0.00     0.693 A 
HETATM    2  N4  UNL     1      96.914 -21.542  53.391  1.00  0.00    -0.199 N 
ATOM      3  H4  UNL     1      97.520 -22.357  53.301  1.00  0.00     0.183 HD
HETATM    4  C3  UNL     1      97.343 -20.281  53.581  1.00  0.00     0.123 A 
HETATM    5  C4  UNL     1      96.232 -19.479  53.653  1.00  0.00     0.123 A 
HETATM    6  N5  UNL     1      95.179 -20.274  53.504  1.00  0.00    -0.199 N 
ATOM      7  H5  UNL     1      94.211 -19.953  53.513  1.00  0.00     0.183 HD
ENDROOT
BRANCH   1   8
HETATM    8  N3  UNL     1      94.716 -22.699  53.151  1.00  0.00    -0.135 N 
ATOM      9  H3  UNL     1      94.643 -23.143  52.236  1.00  0.00     0.201 HD
BRANCH   8  10
HETATM   10  N1  UNL     1      94.000 -23.187  54.229  1.00  0.00    -0.136 NA
HETATM   11  C1  UNL     1      93.924 -24.607  54.299  1.00  0.00     0.163 C 
BRANCH  10  12
HETATM   12  N2  UNL     1      94.491 -22.712  55.450  1.00  0.00    -0.346 NA
ATOM     13  H22 UNL     1      93.742 -22.435  56.085  1.00  0.00     0.172 HD
ATOM     14  H21 UNL     1      95.178 -21.983  55.258  1.00  0.00     0.172 HD
ENDBRANCH  10  12
ENDBRANCH   8  10
ENDBRANCH   1   8
TORSDOF 3
ENDMDL
MODEL 4
REMARK VINA RESULT: -4.773352013      4.435      5.834
REMARK  3 active torsions:
REMARK  status: ('A' for Active; 'I' for Inactive)
REMARK    1  A    between atoms: N1_2  and  N2_3 
REMARK    2  A    between atoms: N1_2  and  N3_6 
REMARK    3  A    between atoms: N3_6  and  C2_8 
ROOT
HETATM    1  C2  UNL     1      95.443 -22.715  53.348  1.00  0.00     0.693 A 
HETATM    2  N4  UNL     1      94.502 -23.696  53.264  1.00  0.00    -0.199 N 
ATOM      3  H4  UNL     1      93.800 -23.892  53.978  1.00  0.00     0.183 HD
HETATM    4  C3  UNL     1      94.630 -24.368  52.107  1.00  0.00     0.123 A 
HETATM    5  C4  UNL     1      95.682 -23.809  51.426  1.00  0.00     0.123 A 
HETATM    6  N5  UNL     1      96.148 -22.825  52.187  1.00  0.00    -0.199 N 
ATOM      7  H5  UNL     1      96.935 -22.228  51.934  1.00  0.00     0.183 HD
ENDROOT
BRANCH   1   8
HETATM    8  N3  UNL     1      95.645 -21.791  54.399  1.00  0.00    -0.135 N 
ATOM      9  H3  UNL     1      96.281 -22.011  55.166  1.00  0.00     0.201 HD
BRANCH   8  10
HETATM   10  N1  UNL     1      94.969 -20.584  54.371  1.00  0.00    -0.136 NA
HETATM   11  C1  UNL     1      95.745 -19.458  54.768  1.00  0.00     0.163 C 
BRANCH  10  12
HETATM   12  N2  UNL     1      94.417 -20.316  53.114  1.00  0.00    -0.346 NA
ATOM     13  H22 UNL     1      93.458 -20.654  53.034  1.00  0.00     0.172 HD
ATOM     14  H21 UNL     1      95.054 -20.673  52.401  1.00  0.00     0.172 HD
ENDBRANCH  10  12
ENDBRANCH   8  10
ENDBRANCH   1   8
TORSDOF 3
ENDMDL
MODEL 5
REMARK VINA RESULT: -4.767105952      4.385      5.891
REMARK  3 active torsions:
REMARK  status: ('A' for Active; 'I' for Inactive)
REMARK    1  A    between atoms: N1_2  and  N2_3 
REMARK    2  A    between atoms: N1_2  and  N3_6 
REMARK    3  A    between atoms: N3_6  and  C2_8 
ROOT
HETATM    1  C2  UNL     1      95.484 -22.726  53.284  1.00  0.00     0.693 A 
HETATM    2  N4  UNL     1      96.203 -22.810  52.131  1.00  0.00    -0.199 N 
ATOM      3  H4  UNL     1      96.995 -22.212  51.893  1.00  0.00     0.183 HD
HETATM    4  C3  UNL     1      95.720 -23.793  51.350  1.00  0.00     0.123 A 
HETATM    5  C4  UNL     1      94.661 -24.358  52.015  1.00  0.00     0.123 A 
HETATM    6  N5  UNL     1      94.542 -23.704  53.165  1.00  0.00    -0.199 N 
ATOM      7  H5  UNL     1      93.834 -23.909  53.870  1.00  0.00     0.183 HD
ENDROOT
BRANCH   1   8
HETATM    8  N3  UNL     1      95.669 -21.830  54.362  1.00  0.00    -0.135 N 
ATOM      9  H3  UNL     1      96.277 -22.077  55.142  1.00  0.00     0.201 HD
BRANCH   8  10
HETATM   10  N1  UNL     1      95.011 -20.612  54.342  1.00  0.00    -0.136 NA
HETATM   11  C1  UNL     1      95.810 -19.499  54.730  1.00  0.00     0.163 C 
BRANCH  10  12
HETATM   12  N2  UNL     1      94.448 -20.336  53.092  1.00  0.00    -0.346 NA
ATOM     13  H22 UNL     1      94.521 -21.126  52.453  1.00  0.00     0.172 HD
ATOM     14  H21 UNL     1      94.853 -19.467  52.743  1.00  0.00     0.172 HD
ENDBRANCH  10  12
ENDBRANCH   8  10
ENDBRANCH   1   8
TORSDOF 3
ENDMDL
