MODEL 1
REMARK VINA RESULT: -4.280656760      0.000      0.000
REMARK  4 active torsions:
REMARK  status: ('A' for Active; 'I' for Inactive)
REMARK    1  A    between atoms: N1_2  and  C2_4 
REMARK    2  A    between atoms: C2_4  and  C3_5 
REMARK    3  A    between atoms: C5_7  and  C6_8 
REMARK    4  A    between atoms: C6_8  and  N2_9 
ROOT
HETATM    1  C3  UNL     1      95.944 -22.474  53.518  1.00  0.00     0.226 C 
HETATM    2  C4  UNL     1      97.003 -21.520  53.910  1.00  0.00     0.073 C 
HETATM    3  C5  UNL     1      95.852 -20.540  54.086  1.00  0.00     0.214 C 
HETATM    4  N3  UNL     1      95.063 -21.342  53.228  1.00  0.00    -0.060 N 
ATOM      5  H31 UNL     1      94.056 -21.419  53.373  1.00  0.00     0.278 HD
ATOM      6  H32 UNL     1      94.892 -21.053  52.264  1.00  0.00     0.278 HD
ENDROOT
BRANCH   3   7
HETATM    7  C6  UNL     1      96.220 -19.158  53.660  1.00  0.00     0.262 C 
BRANCH   7   8
HETATM    8  N2  UNL     1      95.848 -18.128  54.598  1.00  0.00    -0.077 N 
ATOM      9  H23 UNL     1      95.342 -17.380  54.123  1.00  0.00     0.274 HD
ATOM     10  H22 UNL     1      95.116 -18.464  55.224  1.00  0.00     0.274 HD
ATOM     11  H21 UNL     1      96.627 -17.747  55.134  1.00  0.00     0.274 HD
ENDBRANCH   7   8
ENDBRANCH   3   7
BRANCH   1  12
HETATM   12  C2  UNL     1      95.322 -23.379  54.511  1.00  0.00     0.088 C 
BRANCH  12  13
HETATM   13  N1  UNL     1      94.033 -23.886  54.274  1.00  0.00    -0.405 N 
HETATM   14  C1  UNL     1      93.876 -25.254  53.927  1.00  0.00     0.145 C 
ATOM     15  H1  UNL     1      93.218 -23.277  54.350  1.00  0.00     0.158 HD
ENDBRANCH  12  13
ENDBRANCH   1  12
TORSDOF 4
ENDMDL
MODEL 2
REMARK VINA RESULT: -4.169128748      5.174      7.128
REMARK  4 active torsions:
REMARK  status: ('A' for Active; 'I' for Inactive)
REMARK    1  A    between atoms: N1_2  and  C2_4 
REMARK    2  A    between atoms: C2_4  and  C3_5 
REMARK    3  A    between atoms: C5_7  and  C6_8 
REMARK    4  A    between atoms: C6_8  and  N2_9 
ROOT
HETATM    1  C3  UNL     1      93.544 -24.254  49.723  1.00  0.00     0.226 C 
HETATM    2  C4  UNL     1      92.499 -25.187  49.250  1.00  0.00     0.073 C 
HETATM    3  C5  UNL     1      93.628 -25.810  48.443  1.00  0.00     0.214 C 
HETATM    4  N3  UNL     1      94.351 -24.598  48.552  1.00  0.00    -0.060 N 
ATOM      5  H31 UNL     1      95.370 -24.608  48.609  1.00  0.00     0.278 HD
ATOM      6  H32 UNL     1      94.411 -23.960  47.759  1.00  0.00     0.278 HD
ENDROOT
BRANCH   3   7
HETATM    7  C6  UNL     1      93.172 -26.268  47.097  1.00  0.00     0.262 C 
BRANCH   7   8
HETATM    8  N2  UNL     1      93.590 -27.604  46.750  1.00  0.00    -0.077 N 
ATOM      9  H23 UNL     1      93.333 -27.818  45.787  1.00  0.00     0.274 HD
ATOM     10  H22 UNL     1      94.606 -27.650  46.675  1.00  0.00     0.274 HD
ATOM     11  H21 UNL     1      93.247 -28.329  47.380  1.00  0.00     0.274 HD
ENDBRANCH   7   8
ENDBRANCH   3   7
BRANCH   1  12
HETATM   12  C2  UNL     1      94.297 -24.515  50.971  1.00  0.00     0.088 C 
BRANCH  12  13
HETATM   13  N1  UNL     1      93.610 -24.960  52.113  1.00  0.00    -0.405 N 
HETATM   14  C1  UNL     1      94.348 -25.338  53.266  1.00  0.00     0.145 C 
ATOM     15  H1  UNL     1      92.591 -25.011  52.114  1.00  0.00     0.158 HD
ENDBRANCH  12  13
ENDBRANCH   1  12
TORSDOF 4
ENDMDL
MODEL 3
REMARK VINA RESULT: -4.148168074      1.603      4.574
REMARK  4 active torsions:
REMARK  status: ('A' for Active; 'I' for Inactive)
REMARK    1  A    between atoms: N1_2  and  C2_4 
REMARK    2  A    between atoms: C2_4  and  C3_5 
REMARK    3  A    between atoms: C5_7  and  C6_8 
REMARK    4  A    between atoms: C6_8  and  N2_9 
ROOT
HETATM    1  C3  UNL     1      96.535 -21.796  53.788  1.00  0.00     0.226 C 
HETATM    2  C4  UNL     1      96.602 -23.084  54.511  1.00  0.00     0.073 C 
HETATM    3  C5  UNL     1      95.421 -23.471  53.633  1.00  0.00     0.214 C 
HETATM    4  N3  UNL     1      95.149 -22.097  53.425  1.00  0.00    -0.060 N 
ATOM      5  H31 UNL     1      94.765 -21.775  52.537  1.00  0.00     0.278 HD
ATOM      6  H32 UNL     1      94.376 -21.644  53.913  1.00  0.00     0.278 HD
ENDROOT
BRANCH   3   7
HETATM    7  C6  UNL     1      94.425 -24.308  54.365  1.00  0.00     0.262 C 
BRANCH   7   8
HETATM    8  N2  UNL     1      93.476 -24.983  53.515  1.00  0.00    -0.077 N 
ATOM      9  H23 UNL     1      92.537 -24.614  53.666  1.00  0.00     0.274 HD
ATOM     10  H22 UNL     1      93.615 -24.713  52.541  1.00  0.00     0.274 HD
ATOM     11  H21 UNL     1      93.479 -25.999  53.606  1.00  0.00     0.274 HD
ENDBRANCH   7   8
ENDBRANCH   3   7
BRANCH   1  12
HETATM   12  C2  UNL     1      97.351 -21.553  52.578  1.00  0.00     0.088 C 
BRANCH  12  13
HETATM   13  N1  UNL     1      97.536 -20.238  52.120  1.00  0.00    -0.405 N 
HETATM   14  C1  UNL     1      97.225 -19.150  52.980  1.00  0.00     0.145 C 
ATOM     15  H1  UNL     1      97.890 -20.065  51.179  1.00  0.00     0.158 HD
ENDBRANCH  12  13
ENDBRANCH   1  12
TORSDOF 4
ENDMDL
MODEL 4
REMARK VINA RESULT: -4.144280927      5.275      7.288
REMARK  4 active torsions:
REMARK  status: ('A' for Active; 'I' for Inactive)
REMARK    1  A    between atoms: N1_2  and  C2_4 
REMARK    2  A    between atoms: C2_4  and  C3_5 
REMARK    3  A    between atoms: C5_7  and  C6_8 
REMARK    4  A    between atoms: C6_8  and  N2_9 
ROOT
HETATM    1  C3  UNL     1      93.701 -24.110  49.587  1.00  0.00     0.226 C 
HETATM    2  C4  UNL     1      92.565 -24.954  49.159  1.00  0.00     0.073 C 
HETATM    3  C5  UNL     1      93.630 -25.766  48.437  1.00  0.00     0.214 C 
HETATM    4  N3  UNL     1      94.485 -24.639  48.470  1.00  0.00    -0.060 N 
ATOM      5  H31 UNL     1      95.495 -24.759  48.557  1.00  0.00     0.278 HD
ATOM      6  H32 UNL     1      94.634 -24.078  47.631  1.00  0.00     0.278 HD
ENDROOT
BRANCH   3   7
HETATM    7  C6  UNL     1      93.150 -26.277  47.119  1.00  0.00     0.262 C 
BRANCH   7   8
HETATM    8  N2  UNL     1      93.579 -27.619  46.811  1.00  0.00    -0.077 N 
ATOM      9  H23 UNL     1      92.894 -28.297  47.144  1.00  0.00     0.274 HD
ATOM     10  H22 UNL     1      93.519 -27.790  45.807  1.00  0.00     0.274 HD
ATOM     11  H21 UNL     1      94.509 -27.853  47.156  1.00  0.00     0.274 HD
ENDBRANCH   7   8
ENDBRANCH   3   7
BRANCH   1  12
HETATM   12  C2  UNL     1      94.394 -24.351  50.873  1.00  0.00     0.088 C 
BRANCH  12  13
HETATM   13  N1  UNL     1      94.862 -23.260  51.623  1.00  0.00    -0.405 N 
HETATM   14  C1  UNL     1      95.432 -22.145  50.951  1.00  0.00     0.145 C 
ATOM     15  H1  UNL     1      94.792 -23.266  52.641  1.00  0.00     0.158 HD
ENDBRANCH  12  13
ENDBRANCH   1  12
TORSDOF 4
ENDMDL
MODEL 5
REMARK VINA RESULT: -4.143217073      2.686      4.968
REMARK  4 active torsions:
REMARK  status: ('A' for Active; 'I' for Inactive)
REMARK    1  A    between atoms: N1_2  and  C2_4 
REMARK    2  A    between atoms: C2_4  and  C3_5 
REMARK    3  A    between atoms: C5_7  and  C6_8 
REMARK    4  A    between atoms: C6_8  and  N2_9 
ROOT
HETATM    1  C3  UNL     1      96.275 -22.462  52.668  1.00  0.00     0.226 C 
HETATM    2  C4  UNL     1      96.161 -23.831  52.121  1.00  0.00     0.073 C 
HETATM    3  C5  UNL     1      95.448 -23.151  50.962  1.00  0.00     0.214 C 
HETATM    4  N3  UNL     1      95.168 -22.049  51.804  1.00  0.00    -0.060 N 
ATOM      5  H31 UNL     1      95.134 -21.103  51.423  1.00  0.00     0.278 HD
ATOM      6  H32 UNL     1      94.233 -21.917  52.190  1.00  0.00     0.278 HD
ENDROOT
BRANCH   3   7
HETATM    7  C6  UNL     1      94.317 -23.972  50.437  1.00  0.00     0.262 C 
BRANCH   7   8
HETATM    8  N2  UNL     1      94.063 -23.803  49.028  1.00  0.00    -0.077 N 
ATOM      9  H23 UNL     1      93.568 -22.927  48.858  1.00  0.00     0.274 HD
ATOM     10  H22 UNL     1      94.933 -23.611  48.530  1.00  0.00     0.274 HD
ATOM     11  H21 UNL     1      93.569 -24.581  48.593  1.00  0.00     0.274 HD
ENDBRANCH   7   8
ENDBRANCH   3   7
BRANCH   1  12
HETATM   12  C2  UNL     1      97.475 -21.633  52.412  1.00  0.00     0.088 C 
BRANCH  12  13
HETATM   13  N1  UNL     1      97.320 -20.297  52.008  1.00  0.00    -0.405 N 
HETATM   14  C1  UNL     1      97.285 -19.271  52.991  1.00  0.00     0.145 C 
ATOM     15  H1  UNL     1      97.234 -20.064  51.019  1.00  0.00     0.158 HD
ENDBRANCH  12  13
ENDBRANCH   1  12
TORSDOF 4
ENDMDL
