MODEL 1
REMARK VINA RESULT: -4.958011548      0.000      0.000
REMARK  3 active torsions:
REMARK  status: ('A' for Active; 'I' for Inactive)
REMARK    1  A    between atoms: C2_5  and  N2_6 
REMARK    2  A    between atoms: N2_6  and  O1_8 
REMARK    3  A    between atoms: O1_8  and  C3_9 
ROOT
HETATM    1  N2  UNL     1      95.064 -21.760  52.550  1.00  0.00    -0.269 N 
ATOM      2  H2  UNL     1      95.037 -21.962  51.551  1.00  0.00     0.190 HD
ENDROOT
BRANCH   1   3
HETATM    3  C2  UNL     1      95.449 -22.740  53.521  1.00  0.00     0.330 A 
HETATM    4  C1  UNL     1      95.466 -24.165  52.970  1.00  0.00     0.290 A 
HETATM    5  N1  UNL     1      94.513 -23.738  53.975  1.00  0.00    -0.047 N 
ATOM      6  H12 UNL     1      93.494 -23.764  54.020  1.00  0.00     0.279 HD
ATOM      7  H11 UNL     1      94.274 -24.094  54.901  1.00  0.00     0.279 HD
ENDBRANCH   1   3
BRANCH   1   8
HETATM    8  O1  UNL     1      94.747 -20.571  53.046  1.00  0.00    -0.274 OA
BRANCH   8   9
HETATM    9  C3  UNL     1      95.829 -20.158  53.852  1.00  0.00     0.203 C 
HETATM   10  C4  UNL     1      95.453 -18.890  54.547  1.00  0.00     0.268 C 
HETATM   11  N3  UNL     1      96.173 -18.158  53.502  1.00  0.00    -0.070 N 
HETATM   12  C5  UNL     1      96.863 -19.372  53.054  1.00  0.00     0.268 C 
ATOM     13  H32 UNL     1      95.642 -17.610  52.825  1.00  0.00     0.277 HD
ATOM     14  H31 UNL     1      96.724 -17.340  53.759  1.00  0.00     0.277 HD
ENDBRANCH   8   9
ENDBRANCH   1   8
TORSDOF 3
ENDMDL
MODEL 2
REMARK VINA RESULT: -4.647560135      1.152      1.312
REMARK  3 active torsions:
REMARK  status: ('A' for Active; 'I' for Inactive)
REMARK    1  A    between atoms: C2_5  and  N2_6 
REMARK    2  A    between atoms: N2_6  and  O1_8 
REMARK    3  A    between atoms: O1_8  and  C3_9 
ROOT
HETATM    1  N2  UNL     1      95.037 -21.990  53.003  1.00  0.00    -0.269 N 
ATOM      2  H2  UNL     1      94.849 -22.617  53.784  1.00  0.00     0.190 HD
ENDROOT
BRANCH   1   3
HETATM    3  C2  UNL     1      95.502 -22.461  51.733  1.00  0.00     0.330 A 
HETATM    4  C1  UNL     1      95.129 -23.916  51.454  1.00  0.00     0.290 A 
HETATM    5  N1  UNL     1      96.503 -23.496  51.650  1.00  0.00    -0.047 N 
ATOM      6  H12 UNL     1      97.238 -23.802  52.287  1.00  0.00     0.279 HD
ATOM      7  H11 UNL     1      97.347 -23.600  51.087  1.00  0.00     0.279 HD
ENDBRANCH   1   3
BRANCH   1   8
HETATM    8  O1  UNL     1      94.869 -20.676  53.087  1.00  0.00    -0.274 OA
BRANCH   8   9
HETATM    9  C3  UNL     1      95.901 -20.180  53.911  1.00  0.00     0.203 C 
HETATM   10  C4  UNL     1      95.432 -18.920  54.562  1.00  0.00     0.268 C 
HETATM   11  N3  UNL     1      96.137 -18.173  53.518  1.00  0.00    -0.070 N 
HETATM   12  C5  UNL     1      96.910 -19.354  53.121  1.00  0.00     0.268 C 
ATOM     13  H32 UNL     1      95.595 -17.674  52.813  1.00  0.00     0.277 HD
ATOM     14  H31 UNL     1      96.633 -17.317  53.769  1.00  0.00     0.277 HD
ENDBRANCH   8   9
ENDBRANCH   1   8
TORSDOF 3
ENDMDL
MODEL 3
REMARK VINA RESULT: -4.583344006      1.532      4.469
REMARK  3 active torsions:
REMARK  status: ('A' for Active; 'I' for Inactive)
REMARK    1  A    between atoms: C2_5  and  N2_6 
REMARK    2  A    between atoms: N2_6  and  O1_8 
REMARK    3  A    between atoms: O1_8  and  C3_9 
ROOT
HETATM    1  N2  UNL     1      96.025 -20.760  54.560  1.00  0.00    -0.269 N 
ATOM      2  H2  UNL     1      97.013 -20.993  54.458  1.00  0.00     0.190 HD
ENDROOT
BRANCH   1   3
HETATM    3  C2  UNL     1      95.476 -19.521  54.096  1.00  0.00     0.330 A 
HETATM    4  C1  UNL     1      96.476 -18.670  53.315  1.00  0.00     0.290 A 
HETATM    5  N1  UNL     1      95.957 -18.261  54.606  1.00  0.00    -0.047 N 
ATOM      6  H12 UNL     1      96.408 -17.994  55.481  1.00  0.00     0.279 HD
ATOM      7  H11 UNL     1      95.484 -17.417  54.927  1.00  0.00     0.279 HD
ENDBRANCH   1   3
BRANCH   1   8
HETATM    8  O1  UNL     1      95.154 -21.581  55.132  1.00  0.00    -0.274 OA
BRANCH   8   9
HETATM    9  C3  UNL     1      95.634 -22.894  54.937  1.00  0.00     0.203 C 
HETATM   10  C4  UNL     1      95.709 -23.165  53.470  1.00  0.00     0.268 C 
HETATM   11  N3  UNL     1      94.412 -23.837  53.575  1.00  0.00    -0.070 N 
HETATM   12  C5  UNL     1      94.518 -23.927  55.035  1.00  0.00     0.268 C 
ATOM     13  H32 UNL     1      93.590 -23.396  53.163  1.00  0.00     0.277 HD
ATOM     14  H31 UNL     1      94.248 -24.687  53.036  1.00  0.00     0.277 HD
ENDBRANCH   8   9
ENDBRANCH   1   8
TORSDOF 3
ENDMDL
MODEL 4
REMARK VINA RESULT: -4.541093333      5.552      7.793
REMARK  3 active torsions:
REMARK  status: ('A' for Active; 'I' for Inactive)
REMARK    1  A    between atoms: C2_5  and  N2_6 
REMARK    2  A    between atoms: N2_6  and  O1_8 
REMARK    3  A    between atoms: O1_8  and  C3_9 
ROOT
HETATM    1  N2  UNL     1      92.884 -23.883  48.920  1.00  0.00    -0.269 N 
ATOM      2  H2  UNL     1      92.574 -23.051  48.419  1.00  0.00     0.190 HD
ENDROOT
BRANCH   1   3
HETATM    3  C2  UNL     1      94.092 -23.910  49.691  1.00  0.00     0.330 A 
HETATM    4  C1  UNL     1      94.632 -22.519  50.019  1.00  0.00     0.290 A 
HETATM    5  N1  UNL     1      95.333 -23.431  49.137  1.00  0.00    -0.047 N 
ATOM      6  H12 UNL     1      95.679 -23.344  48.181  1.00  0.00     0.279 HD
ATOM      7  H11 UNL     1      96.283 -23.805  49.138  1.00  0.00     0.279 HD
ENDBRANCH   1   3
BRANCH   1   8
HETATM    8  O1  UNL     1      92.202 -25.020  48.906  1.00  0.00    -0.274 OA
BRANCH   8   9
HETATM    9  C3  UNL     1      93.116 -26.048  48.590  1.00  0.00     0.203 C 
HETATM   10  C4  UNL     1      93.086 -26.281  47.115  1.00  0.00     0.268 C 
HETATM   11  N3  UNL     1      92.173 -27.401  47.358  1.00  0.00    -0.070 N 
HETATM   12  C5  UNL     1      92.506 -27.430  48.786  1.00  0.00     0.268 C 
ATOM     13  H32 UNL     1      91.197 -27.315  47.077  1.00  0.00     0.277 HD
ATOM     14  H31 UNL     1      92.275 -28.253  46.807  1.00  0.00     0.277 HD
ENDBRANCH   8   9
ENDBRANCH   1   8
TORSDOF 3
ENDMDL
MODEL 5
REMARK VINA RESULT: -4.524657524      1.623      4.291
REMARK  3 active torsions:
REMARK  status: ('A' for Active; 'I' for Inactive)
REMARK    1  A    between atoms: C2_5  and  N2_6 
REMARK    2  A    between atoms: N2_6  and  O1_8 
REMARK    3  A    between atoms: O1_8  and  C3_9 
ROOT
HETATM    1  N2  UNL     1      95.051 -20.869  53.506  1.00  0.00    -0.269 N 
ATOM      2  H2  UNL     1      94.621 -21.396  54.266  1.00  0.00     0.190 HD
ENDROOT
BRANCH   1   3
HETATM    3  C2  UNL     1      96.076 -19.893  53.732  1.00  0.00     0.330 A 
HETATM    4  C1  UNL     1      95.836 -19.041  54.977  1.00  0.00     0.290 A 
HETATM    5  N1  UNL     1      95.788 -18.484  53.639  1.00  0.00    -0.047 N 
ATOM      6  H12 UNL     1      95.078 -17.953  53.135  1.00  0.00     0.279 HD
ATOM      7  H11 UNL     1      96.273 -17.705  53.194  1.00  0.00     0.279 HD
ENDBRANCH   1   3
BRANCH   1   8
HETATM    8  O1  UNL     1      94.703 -21.035  52.237  1.00  0.00    -0.274 OA
BRANCH   8   9
HETATM    9  C3  UNL     1      95.612 -21.957  51.676  1.00  0.00     0.203 C 
HETATM   10  C4  UNL     1      95.024 -22.508  50.418  1.00  0.00     0.268 C 
HETATM   11  N3  UNL     1      94.583 -23.671  51.190  1.00  0.00    -0.070 N 
HETATM   12  C5  UNL     1      95.478 -23.339  52.303  1.00  0.00     0.268 C 
ATOM     13  H32 UNL     1      93.587 -23.797  51.374  1.00  0.00     0.277 HD
ATOM     14  H31 UNL     1      94.639 -24.598  50.767  1.00  0.00     0.277 HD
ENDBRANCH   8   9
ENDBRANCH   1   8
TORSDOF 3
ENDMDL
