MODEL 1
REMARK VINA RESULT: -7.997948988      0.000      0.000
REMARK  11 active torsions:
REMARK  status: ('A' for Active; 'I' for Inactive)
REMARK    1  A    between atoms: C4_12  and  N5_13 
REMARK       I    between atoms: N5_13  and  C5_15 
REMARK    2  A    between atoms: C5_15  and  C6_17 
REMARK    3  A    between atoms: C6_17  and  O2_18 
REMARK    4  A    between atoms: C6_17  and  C7_20 
REMARK    5  A    between atoms: C7_20  and  O3_21 
REMARK    6  A    between atoms: C7_20  and  C8_23 
REMARK    7  A    between atoms: C8_23  and  N6_24 
REMARK    8  A    between atoms: C8_23  and  N7_28 
REMARK    9  A    between atoms: C9_32  and  O4_33 
REMARK   10  A    between atoms: N8_36  and  C11_37 
REMARK   11  A    between atoms: C14_40  and  N9_41 
ROOT
HETATM    1  N1  UNL     1      21.694  -4.543  15.167  1.00  0.00    -0.062 NA
HETATM    2  C1  UNL     1      22.481  -3.974  16.208  1.00  0.00     0.211 C 
HETATM    3  N2  UNL     1      23.147  -4.730  17.046  1.00  0.00    -0.277 N 
ATOM      4  H2  UNL     1      23.112  -5.746  16.966  1.00  0.00     0.189 HD
HETATM    5  N3  UNL     1      23.902  -4.126  18.047  1.00  0.00    -0.326 N 
ATOM      6  H3  UNL     1      24.648  -4.637  18.518  1.00  0.00     0.180 HD
HETATM    7  C2  UNL     1      23.605  -2.769  18.400  1.00  0.00     0.151 C 
HETATM    8  C3  UNL     1      24.573  -2.148  19.350  1.00  0.00     0.263 C 
HETATM    9  N4  UNL     1      25.528  -1.324  18.668  1.00  0.00    -0.050 N 
ATOM     10  H41 UNL     1      26.313  -1.073  19.269  1.00  0.00     0.279 HD
ATOM     11  H42 UNL     1      25.167  -0.386  18.493  1.00  0.00     0.279 HD
HETATM   12  C4  UNL     1      25.972  -1.982  17.430  1.00  0.00     0.317 C 
HETATM   13  C9  UNL     1      24.839  -1.791  16.437  1.00  0.00     0.193 C 
HETATM   14  C10 UNL     1      23.525  -1.940  17.128  1.00  0.00     0.153 C 
HETATM   15  N8  UNL     1      22.512  -2.558  16.299  1.00  0.00    -0.291 N 
ENDROOT
BRANCH  12  16
HETATM   16  N5  UNL     1      27.164  -1.275  17.013  1.00  0.00    -0.329 N 
HETATM   17  C5  UNL     1      27.060  -0.041  16.338  1.00  0.00     0.250 C 
HETATM   18  O1  UNL     1      25.890   0.419  16.111  1.00  0.00    -0.271 OA
ATOM     19  H5  UNL     1      28.084  -1.671  17.208  1.00  0.00     0.164 HD
BRANCH  17  20
HETATM   20  C6  UNL     1      28.231   0.746  15.879  1.00  0.00     0.242 C 
BRANCH  20  21
HETATM   21  O2  UNL     1      29.099   0.888  16.974  1.00  0.00    -0.383 OA
ATOM     22  H2  UNL     1      29.956   0.586  16.699  1.00  0.00     0.210 HD
ENDBRANCH  20  21
BRANCH  20  23
HETATM   23  C7  UNL     1      28.957  -0.026  14.794  1.00  0.00     0.213 C 
BRANCH  23  24
HETATM   24  O3  UNL     1      29.295  -1.283  15.241  1.00  0.00    -0.389 OA
ATOM     25  H3  UNL     1      28.554  -1.873  15.168  1.00  0.00     0.210 HD
ENDBRANCH  23  24
BRANCH  23  26
HETATM   26  C8  UNL     1      28.189  -0.076  13.501  1.00  0.00     0.409 C 
BRANCH  26  27
HETATM   27  N6  UNL     1      27.052  -0.932  13.547  1.00  0.00    -0.048 N 
ATOM     28  H63 UNL     1      27.318  -1.869  13.850  1.00  0.00     0.276 HD
ATOM     29  H62 UNL     1      26.437  -0.673  14.317  1.00  0.00     0.276 HD
ATOM     30  H61 UNL     1      26.535  -0.970  12.668  1.00  0.00     0.276 HD
ENDBRANCH  26  27
BRANCH  26  31
HETATM   31  N7  UNL     1      29.028  -0.442  12.378  1.00  0.00    -0.048 N 
ATOM     32  H73 UNL     1      29.276   0.376  11.821  1.00  0.00     0.276 HD
ATOM     33  H72 UNL     1      29.960  -0.716  12.688  1.00  0.00     0.276 HD
ATOM     34  H71 UNL     1      28.605  -1.167  11.798  1.00  0.00     0.276 HD
ENDBRANCH  26  31
ENDBRANCH  23  26
ENDBRANCH  20  23
ENDBRANCH  17  20
ENDBRANCH  12  16
BRANCH  13  35
HETATM   35  O4  UNL     1      24.993  -2.637  15.344  1.00  0.00    -0.390 OA
ATOM     36  H4  UNL     1      24.271  -3.252  15.290  1.00  0.00     0.210 HD
ENDBRANCH  13  35
BRANCH  15  37
HETATM   37  C11 UNL     1      21.558  -1.775  15.581  1.00  0.00     0.155 A 
HETATM   38  C12 UNL     1      21.769  -1.154  14.368  1.00  0.00     0.061 A 
HETATM   39  C13 UNL     1      20.611  -0.503  14.014  1.00  0.00     0.067 A 
HETATM   40  C14 UNL     1      19.713  -0.754  15.044  1.00  0.00     0.216 A 
HETATM   41  O7  UNL     1      20.327  -1.488  15.902  1.00  0.00    -0.271 OA
BRANCH  40  42
HETATM   42  N9  UNL     1      18.370  -0.300  15.153  1.00  0.00    -0.090 N 
HETATM   43  O5  UNL     1      17.447  -0.819  14.475  1.00  0.00    -0.530 OA
HETATM   44  O6  UNL     1      18.093   0.725  16.019  1.00  0.00    -0.530 OA
ENDBRANCH  40  42
ENDBRANCH  15  37
TORSDOF 11
ENDMDL
MODEL 2
REMARK VINA RESULT: -7.567954898      2.314      3.509
REMARK  11 active torsions:
REMARK  status: ('A' for Active; 'I' for Inactive)
REMARK    1  A    between atoms: C4_12  and  N5_13 
REMARK       I    between atoms: N5_13  and  C5_15 
REMARK    2  A    between atoms: C5_15  and  C6_17 
REMARK    3  A    between atoms: C6_17  and  O2_18 
REMARK    4  A    between atoms: C6_17  and  C7_20 
REMARK    5  A    between atoms: C7_20  and  O3_21 
REMARK    6  A    between atoms: C7_20  and  C8_23 
REMARK    7  A    between atoms: C8_23  and  N6_24 
REMARK    8  A    between atoms: C8_23  and  N7_28 
REMARK    9  A    between atoms: C9_32  and  O4_33 
REMARK   10  A    between atoms: N8_36  and  C11_37 
REMARK   11  A    between atoms: C14_40  and  N9_41 
ROOT
HETATM    1  N1  UNL     1      22.906  -3.336  17.079  1.00  0.00    -0.062 NA
HETATM    2  C1  UNL     1      23.821  -2.301  16.733  1.00  0.00     0.211 C 
HETATM    3  N2  UNL     1      24.935  -2.128  17.402  1.00  0.00    -0.277 N 
ATOM      4  H2  UNL     1      25.167  -2.737  18.187  1.00  0.00     0.189 HD
HETATM    5  N3  UNL     1      25.797  -1.103  17.025  1.00  0.00    -0.326 N 
ATOM      6  H3  UNL     1      26.777  -1.114  17.307  1.00  0.00     0.180 HD
HETATM    7  C2  UNL     1      25.273  -0.031  16.231  1.00  0.00     0.151 C 
HETATM    8  C3  UNL     1      26.300   0.927  15.726  1.00  0.00     0.263 C 
HETATM    9  N4  UNL     1      26.659   0.648  14.365  1.00  0.00    -0.050 N 
ATOM     10  H41 UNL     1      27.501   1.148  14.083  1.00  0.00     0.279 HD
ATOM     11  H42 UNL     1      26.005   1.069  13.704  1.00  0.00     0.279 HD
HETATM   12  C4  UNL     1      26.786  -0.803  14.163  1.00  0.00     0.317 C 
HETATM   13  C9  UNL     1      25.364  -1.330  14.078  1.00  0.00     0.193 C 
HETATM   14  C10 UNL     1      24.498  -0.621  15.064  1.00  0.00     0.153 C 
HETATM   15  N8  UNL     1      23.475  -1.468  15.638  1.00  0.00    -0.291 N 
ENDROOT
BRANCH  12  16
HETATM   16  N5  UNL     1      27.485  -0.965  12.905  1.00  0.00    -0.329 N 
HETATM   17  C5  UNL     1      28.798  -0.470  12.752  1.00  0.00     0.250 C 
HETATM   18  O1  UNL     1      29.334   0.118  13.750  1.00  0.00    -0.271 OA
ATOM     19  H5  UNL     1      27.028  -1.439  12.127  1.00  0.00     0.164 HD
BRANCH  17  20
HETATM   20  C6  UNL     1      29.582  -0.597  11.499  1.00  0.00     0.242 C 
BRANCH  20  21
HETATM   21  O2  UNL     1      30.750  -1.315  11.803  1.00  0.00    -0.383 OA
ATOM     22  H2  UNL     1      31.403  -1.086  11.153  1.00  0.00     0.210 HD
ENDBRANCH  20  21
BRANCH  20  23
HETATM   23  C7  UNL     1      28.782  -1.397  10.489  1.00  0.00     0.213 C 
BRANCH  23  24
HETATM   24  O3  UNL     1      27.641  -0.717  10.132  1.00  0.00    -0.389 OA
ATOM     25  H3  UNL     1      26.901  -1.311  10.084  1.00  0.00     0.210 HD
ENDBRANCH  23  24
BRANCH  23  26
HETATM   26  C8  UNL     1      29.596  -1.802   9.290  1.00  0.00     0.409 C 
BRANCH  26  27
HETATM   27  N6  UNL     1      30.693  -0.933   9.027  1.00  0.00    -0.048 N 
ATOM     28  H63 UNL     1      30.785  -0.235   9.765  1.00  0.00     0.276 HD
ATOM     29  H62 UNL     1      31.578  -1.425   9.147  1.00  0.00     0.276 HD
ATOM     30  H61 UNL     1      30.649  -0.487   8.111  1.00  0.00     0.276 HD
ENDBRANCH  26  27
BRANCH  26  31
HETATM   31  N7  UNL     1      28.785  -1.937   8.097  1.00  0.00    -0.048 N 
ATOM     32  H73 UNL     1      28.607  -2.918   7.881  1.00  0.00     0.276 HD
ATOM     33  H72 UNL     1      27.827  -1.631   8.265  1.00  0.00     0.276 HD
ATOM     34  H71 UNL     1      29.191  -1.452   7.296  1.00  0.00     0.276 HD
ENDBRANCH  26  31
ENDBRANCH  23  26
ENDBRANCH  20  23
ENDBRANCH  17  20
ENDBRANCH  12  16
BRANCH  13  35
HETATM   35  O4  UNL     1      25.342  -2.714  14.212  1.00  0.00    -0.390 OA
ATOM     36  H4  UNL     1      24.951  -3.121  13.447  1.00  0.00     0.210 HD
ENDBRANCH  13  35
BRANCH  15  37
HETATM   37  C11 UNL     1      22.143  -1.480  15.125  1.00  0.00     0.155 A 
HETATM   38  C12 UNL     1      21.713  -2.159  14.005  1.00  0.00     0.061 A 
HETATM   39  C13 UNL     1      20.368  -1.915  13.847  1.00  0.00     0.067 A 
HETATM   40  C14 UNL     1      20.017  -1.078  14.898  1.00  0.00     0.216 A 
HETATM   41  O7  UNL     1      21.083  -0.874  15.585  1.00  0.00    -0.271 OA
BRANCH  40  42
HETATM   42  N9  UNL     1      18.732  -0.537  15.182  1.00  0.00    -0.090 N 
HETATM   43  O5  UNL     1      17.699  -0.972  14.615  1.00  0.00    -0.530 OA
HETATM   44  O6  UNL     1      18.637   0.479  16.097  1.00  0.00    -0.530 OA
ENDBRANCH  40  42
ENDBRANCH  15  37
TORSDOF 11
ENDMDL
MODEL 3
REMARK VINA RESULT: -7.554623701      3.658      5.394
REMARK  11 active torsions:
REMARK  status: ('A' for Active; 'I' for Inactive)
REMARK    1  A    between atoms: C4_12  and  N5_13 
REMARK       I    between atoms: N5_13  and  C5_15 
REMARK    2  A    between atoms: C5_15  and  C6_17 
REMARK    3  A    between atoms: C6_17  and  O2_18 
REMARK    4  A    between atoms: C6_17  and  C7_20 
REMARK    5  A    between atoms: C7_20  and  O3_21 
REMARK    6  A    between atoms: C7_20  and  C8_23 
REMARK    7  A    between atoms: C8_23  and  N6_24 
REMARK    8  A    between atoms: C8_23  and  N7_28 
REMARK    9  A    between atoms: C9_32  and  O4_33 
REMARK   10  A    between atoms: N8_36  and  C11_37 
REMARK   11  A    between atoms: C14_40  and  N9_41 
ROOT
HETATM    1  N1  UNL     1      26.619  -2.229  19.741  1.00  0.00    -0.062 NA
HETATM    2  C1  UNL     1      26.597  -1.324  18.643  1.00  0.00     0.211 C 
HETATM    3  N2  UNL     1      27.348  -0.251  18.633  1.00  0.00    -0.277 N 
ATOM      4  H2  UNL     1      27.966  -0.045  19.419  1.00  0.00     0.189 HD
HETATM    5  N3  UNL     1      27.291   0.604  17.536  1.00  0.00    -0.326 N 
ATOM      6  H3  UNL     1      28.045   1.265  17.350  1.00  0.00     0.180 HD
HETATM    7  C2  UNL     1      26.148   0.532  16.676  1.00  0.00     0.151 C 
HETATM    8  C3  UNL     1      26.252   1.353  15.434  1.00  0.00     0.263 C 
HETATM    9  N4  UNL     1      26.634   0.555  14.304  1.00  0.00    -0.050 N 
ATOM     10  H41 UNL     1      26.916   1.130  13.510  1.00  0.00     0.279 HD
ATOM     11  H42 UNL     1      25.832   0.091  13.876  1.00  0.00     0.279 HD
HETATM   12  C4  UNL     1      27.681  -0.402  14.691  1.00  0.00     0.317 C 
HETATM   13  C9  UNL     1      26.965  -1.507  15.448  1.00  0.00     0.193 C 
HETATM   14  C10 UNL     1      25.900  -0.924  16.314  1.00  0.00     0.153 C 
HETATM   15  N8  UNL     1      25.729  -1.633  17.564  1.00  0.00    -0.291 N 
ENDROOT
BRANCH  12  16
HETATM   16  N5  UNL     1      28.245  -0.891  13.451  1.00  0.00    -0.329 N 
HETATM   17  C5  UNL     1      29.133  -0.086  12.707  1.00  0.00     0.250 C 
HETATM   18  O1  UNL     1      29.414   1.073  13.163  1.00  0.00    -0.271 OA
ATOM     19  H5  UNL     1      27.999  -1.821  13.112  1.00  0.00     0.164 HD
BRANCH  17  20
HETATM   20  C6  UNL     1      29.754  -0.513  11.428  1.00  0.00     0.242 C 
BRANCH  20  21
HETATM   21  O2  UNL     1      30.821  -1.371  11.744  1.00  0.00    -0.383 OA
ATOM     22  H2  UNL     1      30.705  -2.167  11.239  1.00  0.00     0.210 HD
ENDBRANCH  20  21
BRANCH  20  23
HETATM   23  C7  UNL     1      28.739  -1.295  10.618  1.00  0.00     0.213 C 
BRANCH  23  24
HETATM   24  O3  UNL     1      27.484  -0.751  10.763  1.00  0.00    -0.389 OA
ATOM     25  H3  UNL     1      26.826  -1.329  10.396  1.00  0.00     0.210 HD
ENDBRANCH  23  24
BRANCH  23  26
HETATM   26  C8  UNL     1      29.129  -1.434   9.171  1.00  0.00     0.409 C 
BRANCH  26  27
HETATM   27  N6  UNL     1      28.872  -2.728   8.635  1.00  0.00    -0.048 N 
ATOM     28  H63 UNL     1      28.421  -3.324   9.329  1.00  0.00     0.276 HD
ATOM     29  H62 UNL     1      28.129  -2.688   7.938  1.00  0.00     0.276 HD
ATOM     30  H61 UNL     1      29.702  -3.183   8.253  1.00  0.00     0.276 HD
ENDBRANCH  26  27
BRANCH  26  31
HETATM   31  N7  UNL     1      30.514  -1.078   8.940  1.00  0.00    -0.048 N 
ATOM     32  H73 UNL     1      30.940  -0.686   9.780  1.00  0.00     0.276 HD
ATOM     33  H72 UNL     1      31.096  -1.909   8.835  1.00  0.00     0.276 HD
ATOM     34  H71 UNL     1      30.624  -0.449   8.144  1.00  0.00     0.276 HD
ENDBRANCH  26  31
ENDBRANCH  23  26
ENDBRANCH  20  23
ENDBRANCH  17  20
ENDBRANCH  12  16
BRANCH  13  35
HETATM   35  O4  UNL     1      27.874  -2.299  16.141  1.00  0.00    -0.390 OA
ATOM     36  H4  UNL     1      28.253  -1.820  16.868  1.00  0.00     0.210 HD
ENDBRANCH  13  35
BRANCH  15  37
HETATM   37  C11 UNL     1      24.715  -2.625  17.724  1.00  0.00     0.155 A 
HETATM   38  C12 UNL     1      23.355  -2.410  17.665  1.00  0.00     0.061 A 
HETATM   39  C13 UNL     1      22.721  -3.613  17.869  1.00  0.00     0.067 A 
HETATM   40  C14 UNL     1      23.738  -4.542  18.049  1.00  0.00     0.216 A 
HETATM   41  O7  UNL     1      24.849  -3.903  17.952  1.00  0.00    -0.271 OA
BRANCH  40  42
HETATM   42  N9  UNL     1      23.604  -5.937  18.295  1.00  0.00    -0.090 N 
HETATM   43  O5  UNL     1      22.572  -6.566  17.950  1.00  0.00    -0.530 OA
HETATM   44  O6  UNL     1      24.631  -6.593  18.921  1.00  0.00    -0.530 OA
ENDBRANCH  40  42
ENDBRANCH  15  37
TORSDOF 11
ENDMDL
MODEL 4
REMARK VINA RESULT: -7.467631449      2.439      4.139
REMARK  11 active torsions:
REMARK  status: ('A' for Active; 'I' for Inactive)
REMARK    1  A    between atoms: C4_12  and  N5_13 
REMARK       I    between atoms: N5_13  and  C5_15 
REMARK    2  A    between atoms: C5_15  and  C6_17 
REMARK    3  A    between atoms: C6_17  and  O2_18 
REMARK    4  A    between atoms: C6_17  and  C7_20 
REMARK    5  A    between atoms: C7_20  and  O3_21 
REMARK    6  A    between atoms: C7_20  and  C8_23 
REMARK    7  A    between atoms: C8_23  and  N6_24 
REMARK    8  A    between atoms: C8_23  and  N7_28 
REMARK    9  A    between atoms: C9_32  and  O4_33 
REMARK   10  A    between atoms: N8_36  and  C11_37 
REMARK   11  A    between atoms: C14_40  and  N9_41 
ROOT
HETATM    1  N1  UNL     1      24.939  -3.016  18.818  1.00  0.00    -0.062 NA
HETATM    2  C1  UNL     1      25.648  -1.977  18.152  1.00  0.00     0.211 C 
HETATM    3  N2  UNL     1      26.904  -1.726  18.431  1.00  0.00    -0.277 N 
ATOM      4  H2  UNL     1      27.398  -2.275  19.135  1.00  0.00     0.189 HD
HETATM    5  N3  UNL     1      27.555  -0.699  17.753  1.00  0.00    -0.326 N 
ATOM      6  H3  UNL     1      28.573  -0.661  17.716  1.00  0.00     0.180 HD
HETATM    7  C2  UNL     1      26.758   0.303  17.108  1.00  0.00     0.151 C 
HETATM    8  C3  UNL     1      27.529   1.259  16.261  1.00  0.00     0.263 C 
HETATM    9  N4  UNL     1      27.463   0.905  14.872  1.00  0.00    -0.050 N 
ATOM     10  H41 UNL     1      28.151   1.414  14.316  1.00  0.00     0.279 HD
ATOM     11  H42 UNL     1      26.617   1.263  14.427  1.00  0.00     0.279 HD
HETATM   12  C4  UNL     1      27.595  -0.551  14.713  1.00  0.00     0.317 C 
HETATM   13  C9  UNL     1      26.245  -1.128  15.102  1.00  0.00     0.193 C 
HETATM   14  C10 UNL     1      25.691  -0.385  16.272  1.00  0.00     0.153 C 
HETATM   15  N8  UNL     1      24.939  -1.227  17.178  1.00  0.00    -0.291 N 
ENDROOT
BRANCH  12  16
HETATM   16  N5  UNL     1      27.879  -0.770  13.311  1.00  0.00    -0.329 N 
HETATM   17  C5  UNL     1      29.058  -0.252  12.734  1.00  0.00     0.250 C 
HETATM   18  O1  UNL     1      29.850   0.408  13.486  1.00  0.00    -0.271 OA
ATOM     19  H5  UNL     1      27.224  -1.301  12.737  1.00  0.00     0.164 HD
BRANCH  17  20
HETATM   20  C6  UNL     1      29.422  -0.434  11.307  1.00  0.00     0.242 C 
BRANCH  20  21
HETATM   21  O2  UNL     1      30.737  -0.924  11.267  1.00  0.00    -0.383 OA
ATOM     22  H2  UNL     1      31.138  -0.602  10.468  1.00  0.00     0.210 HD
ENDBRANCH  20  21
BRANCH  20  23
HETATM   23  C7  UNL     1      28.508  -1.473  10.688  1.00  0.00     0.213 C 
BRANCH  23  24
HETATM   24  O3  UNL     1      27.310  -0.904  10.322  1.00  0.00    -0.389 OA
ATOM     25  H3  UNL     1      26.736  -1.555   9.937  1.00  0.00     0.210 HD
ENDBRANCH  23  24
BRANCH  23  26
HETATM   26  C8  UNL     1      29.153  -2.211   9.546  1.00  0.00     0.409 C 
BRANCH  26  27
HETATM   27  N6  UNL     1      29.570  -1.361   8.483  1.00  0.00    -0.048 N 
ATOM     28  H63 UNL     1      28.815  -1.228   7.810  1.00  0.00     0.276 HD
ATOM     29  H62 UNL     1      29.678  -0.401   8.809  1.00  0.00     0.276 HD
ATOM     30  H61 UNL     1      30.419  -1.681   8.015  1.00  0.00     0.276 HD
ENDBRANCH  26  27
BRANCH  26  31
HETATM   31  N7  UNL     1      28.305  -3.263   9.024  1.00  0.00    -0.048 N 
ATOM     32  H73 UNL     1      28.298  -4.073   9.644  1.00  0.00     0.276 HD
ATOM     33  H72 UNL     1      27.320  -3.006   9.082  1.00  0.00     0.276 HD
ATOM     34  H71 UNL     1      28.560  -3.530   8.073  1.00  0.00     0.276 HD
ENDBRANCH  26  31
ENDBRANCH  23  26
ENDBRANCH  20  23
ENDBRANCH  17  20
ENDBRANCH  12  16
BRANCH  13  35
HETATM   35  O4  UNL     1      26.335  -2.501  15.306  1.00  0.00    -0.390 OA
ATOM     36  H4  UNL     1      26.118  -2.974  14.512  1.00  0.00     0.210 HD
ENDBRANCH  13  35
BRANCH  15  37
HETATM   37  C11 UNL     1      23.517  -1.314  17.107  1.00  0.00     0.155 A 
HETATM   38  C12 UNL     1      22.638  -1.063  18.139  1.00  0.00     0.061 A 
HETATM   39  C13 UNL     1      21.360  -1.256  17.669  1.00  0.00     0.067 A 
HETATM   40  C14 UNL     1      21.505  -1.626  16.338  1.00  0.00     0.216 A 
HETATM   41  O7  UNL     1      22.766  -1.636  16.090  1.00  0.00    -0.271 OA
BRANCH  40  42
HETATM   42  N9  UNL     1      20.475  -1.937  15.408  1.00  0.00    -0.090 N 
HETATM   43  O5  UNL     1      20.401  -3.070  14.869  1.00  0.00    -0.530 OA
HETATM   44  O6  UNL     1      19.552  -0.971  15.105  1.00  0.00    -0.530 OA
ENDBRANCH  40  42
ENDBRANCH  15  37
TORSDOF 11
ENDMDL
MODEL 5
REMARK VINA RESULT: -7.401422248      4.494      8.844
REMARK  11 active torsions:
REMARK  status: ('A' for Active; 'I' for Inactive)
REMARK    1  A    between atoms: C4_12  and  N5_13 
REMARK       I    between atoms: N5_13  and  C5_15 
REMARK    2  A    between atoms: C5_15  and  C6_17 
REMARK    3  A    between atoms: C6_17  and  O2_18 
REMARK    4  A    between atoms: C6_17  and  C7_20 
REMARK    5  A    between atoms: C7_20  and  O3_21 
REMARK    6  A    between atoms: C7_20  and  C8_23 
REMARK    7  A    between atoms: C8_23  and  N6_24 
REMARK    8  A    between atoms: C8_23  and  N7_28 
REMARK    9  A    between atoms: C9_32  and  O4_33 
REMARK   10  A    between atoms: N8_36  and  C11_37 
REMARK   11  A    between atoms: C14_40  and  N9_41 
ROOT
HETATM    1  N1  UNL     1      24.684  -2.132  19.082  1.00  0.00    -0.062 NA
HETATM    2  C1  UNL     1      24.464  -3.422  18.521  1.00  0.00     0.211 C 
HETATM    3  N2  UNL     1      24.669  -4.511  19.221  1.00  0.00    -0.277 N 
ATOM      4  H2  UNL     1      24.991  -4.451  20.187  1.00  0.00     0.189 HD
HETATM    5  N3  UNL     1      24.440  -5.749  18.627  1.00  0.00    -0.326 N 
ATOM      6  H3  UNL     1      24.300  -6.583  19.197  1.00  0.00     0.180 HD
HETATM    7  C2  UNL     1      24.408  -5.822  17.197  1.00  0.00     0.151 C 
HETATM    8  C3  UNL     1      23.983  -7.145  16.652  1.00  0.00     0.263 C 
HETATM    9  N4  UNL     1      22.600  -7.138  16.269  1.00  0.00    -0.050 N 
ATOM     10  H41 UNL     1      22.247  -8.080  16.102  1.00  0.00     0.279 HD
ATOM     11  H42 UNL     1      22.466  -6.759  15.330  1.00  0.00     0.279 HD
HETATM   12  C4  UNL     1      21.800  -6.419  17.271  1.00  0.00     0.317 C 
HETATM   13  C9  UNL     1      22.056  -4.944  17.017  1.00  0.00     0.193 C 
HETATM   14  C10 UNL     1      23.492  -4.728  16.672  1.00  0.00     0.153 C 
HETATM   15  N8  UNL     1      24.017  -3.477  17.175  1.00  0.00    -0.291 N 
ENDROOT
BRANCH  12  16
HETATM   16  N5  UNL     1      20.422  -6.770  17.000  1.00  0.00    -0.329 N 
HETATM   17  C5  UNL     1      19.974  -8.094  17.193  1.00  0.00     0.250 C 
HETATM   18  O1  UNL     1      20.820  -8.956  17.607  1.00  0.00    -0.271 OA
ATOM     19  H5  UNL     1      19.772  -6.058  16.668  1.00  0.00     0.164 HD
BRANCH  17  20
HETATM   20  C6  UNL     1      18.580  -8.535  16.940  1.00  0.00     0.242 C 
BRANCH  20  21
HETATM   21  O2  UNL     1      18.399  -8.584  15.548  1.00  0.00    -0.383 OA
ATOM     22  H2  UNL     1      17.552  -8.201  15.356  1.00  0.00     0.210 HD
ENDBRANCH  20  21
BRANCH  20  23
HETATM   23  C7  UNL     1      18.391  -9.934  17.494  1.00  0.00     0.213 C 
BRANCH  23  24
HETATM   24  O3  UNL     1      18.497  -9.927  18.865  1.00  0.00    -0.389 OA
ATOM     25  H3  UNL     1      19.015 -10.666  19.162  1.00  0.00     0.210 HD
ENDBRANCH  23  24
BRANCH  23  26
HETATM   26  C8  UNL     1      17.111 -10.576  17.031  1.00  0.00     0.409 C 
BRANCH  26  27
HETATM   27  N6  UNL     1      17.247 -11.301  15.812  1.00  0.00    -0.048 N 
ATOM     28  H63 UNL     1      16.412 -11.197  15.236  1.00  0.00     0.276 HD
ATOM     29  H62 UNL     1      17.931 -10.854  15.202  1.00  0.00     0.276 HD
ATOM     30  H61 UNL     1      17.472 -12.286  15.947  1.00  0.00     0.276 HD
ENDBRANCH  26  27
BRANCH  26  31
HETATM   31  N7  UNL     1      16.029  -9.621  16.911  1.00  0.00    -0.048 N 
ATOM     32  H73 UNL     1      16.368  -8.665  17.011  1.00  0.00     0.276 HD
ATOM     33  H72 UNL     1      15.685  -9.572  15.952  1.00  0.00     0.276 HD
ATOM     34  H71 UNL     1      15.269  -9.812  17.565  1.00  0.00     0.276 HD
ENDBRANCH  26  31
ENDBRANCH  23  26
ENDBRANCH  20  23
ENDBRANCH  17  20
ENDBRANCH  12  16
BRANCH  13  35
HETATM   35  O4  UNL     1      21.620  -4.176  18.091  1.00  0.00    -0.390 OA
ATOM     36  H4  UNL     1      22.202  -3.440  18.237  1.00  0.00     0.210 HD
ENDBRANCH  13  35
BRANCH  15  37
HETATM   37  C11 UNL     1      24.090  -2.315  16.351  1.00  0.00     0.155 A 
HETATM   38  C12 UNL     1      23.044  -1.752  15.650  1.00  0.00     0.061 A 
HETATM   39  C13 UNL     1      23.521  -0.649  14.981  1.00  0.00     0.067 A 
HETATM   40  C14 UNL     1      24.870  -0.574  15.303  1.00  0.00     0.216 A 
HETATM   41  O7  UNL     1      25.120  -1.559  16.090  1.00  0.00    -0.271 OA
BRANCH  40  42
HETATM   42  N9  UNL     1      25.813   0.395  14.862  1.00  0.00    -0.090 N 
HETATM   43  O5  UNL     1      26.305   0.350  13.706  1.00  0.00    -0.530 OA
HETATM   44  O6  UNL     1      26.182   1.391  15.727  1.00  0.00    -0.530 OA
ENDBRANCH  40  42
ENDBRANCH  15  37
TORSDOF 11
ENDMDL
