MODEL 1
REMARK VINA RESULT: -7.653028560      0.000      0.000
REMARK  9 active torsions:
REMARK  status: ('A' for Active; 'I' for Inactive)
REMARK    1  A    between atoms: C2_2  and  C3_3 
REMARK    2  A    between atoms: C3_3  and  O1_4 
REMARK    3  A    between atoms: C3_3  and  N1_6 
REMARK    4  A    between atoms: N1_6  and  C4_8 
REMARK    5  A    between atoms: C6_18  and  O5_19 
REMARK    6  A    between atoms: C6_18  and  C7_21 
REMARK    7  A    between atoms: N8_32  and  C10_33 
REMARK    8  A    between atoms: C11_34  and  C12_35 
REMARK    9  A    between atoms: C12_35  and  O8_36 
ROOT
HETATM    1  C3  UNL     1      25.691  -0.301  16.335  1.00  0.00     0.267 C 
ENDROOT
BRANCH   1   2
HETATM    2  C2  UNL     1      27.110  -0.546  15.933  1.00  0.00     0.155 C 
HETATM    3  C1  UNL     1      27.406  -2.065  15.886  1.00  0.00     0.068 C 
HETATM    4  N4  UNL     1      27.410  -0.061  14.631  1.00  0.00    -0.334 N 
HETATM    5  C8  UNL     1      28.549   0.458  14.346  1.00  0.00     0.192 C 
ATOM      6  H4  UNL     1      26.700  -0.127  13.902  1.00  0.00     0.164 HD
HETATM    7  N5  UNL     1      28.881   0.942  13.059  1.00  0.00    -0.063 NA
HETATM    8  N6  UNL     1      29.558   0.688  15.358  1.00  0.00    -0.304 N 
HETATM    9  C9  UNL     1      29.321   0.384  16.589  1.00  0.00     0.199 C 
ATOM     10  H6  UNL     1      30.458   1.091  15.096  1.00  0.00     0.171 HD
HETATM   11  N7  UNL     1      30.322   0.592  17.604  1.00  0.00    -0.063 NA
HETATM   12  N8  UNL     1      28.030  -0.071  16.937  1.00  0.00    -0.300 N 
BRANCH  12  13
HETATM   13  C10 UNL     1      27.709  -0.049  18.343  1.00  0.00     0.094 C 
HETATM   14  C11 UNL     1      27.718  -1.127  19.090  1.00  0.00     0.016 C 
BRANCH  14  15
HETATM   15  C12 UNL     1      27.389  -1.098  20.536  1.00  0.00     0.192 C 
BRANCH  15  16
HETATM   16  O8  UNL     1      26.129  -1.651  20.772  1.00  0.00    -0.397 OA
ATOM     17  H8  UNL     1      25.476  -0.971  20.889  1.00  0.00     0.209 HD
ENDBRANCH  15  16
ENDBRANCH  14  15
ENDBRANCH  12  13
ENDBRANCH   1   2
BRANCH   1  18
HETATM   18  O1  UNL     1      24.996   0.171  15.209  1.00  0.00    -0.372 OA
ATOM     19  H1  UNL     1      24.468   0.913  15.480  1.00  0.00     0.212 HD
ENDBRANCH   1  18
BRANCH   1  20
HETATM   20  N1  UNL     1      24.987  -1.221  17.100  1.00  0.00    -0.355 N 
ATOM     21  H1  UNL     1      25.343  -1.486  18.018  1.00  0.00     0.162 HD
BRANCH  20  22
HETATM   22  C4  UNL     1      23.759  -1.811  16.620  1.00  0.00     0.144 C 
HETATM   23  C5  UNL     1      23.910  -2.936  15.721  1.00  0.00     0.284 C 
HETATM   24  O2  UNL     1      23.906  -2.855  14.455  1.00  0.00    -0.265 OA
HETATM   25  N2  UNL     1      24.070  -4.243  16.296  1.00  0.00    -0.232 N 
HETATM   26  S1  UNL     1      23.601  -4.394  17.945  1.00  0.00     0.324 S 
ATOM     27  H2  UNL     1      24.438  -5.030  15.762  1.00  0.00     0.183 HD
HETATM   28  O3  UNL     1      22.757  -5.667  18.038  1.00  0.00    -0.182 OA
HETATM   29  O4  UNL     1      24.756  -4.540  18.880  1.00  0.00    -0.182 OA
HETATM   30  N3  UNL     1      22.579  -3.116  18.383  1.00  0.00    -0.254 N 
HETATM   31  C6  UNL     1      22.761  -1.897  17.722  1.00  0.00     0.282 C 
ATOM     32  H3  UNL     1      21.860  -3.231  19.098  1.00  0.00     0.178 HD
BRANCH  31  33
HETATM   33  O5  UNL     1      23.172  -0.949  18.689  1.00  0.00    -0.357 OA
ATOM     34  H5  UNL     1      23.037  -1.365  19.532  1.00  0.00     0.213 HD
ENDBRANCH  31  33
BRANCH  31  35
HETATM   35  C7  UNL     1      21.437  -1.444  17.232  1.00  0.00     0.239 C 
HETATM   36  O6  UNL     1      20.839  -0.561  17.909  1.00  0.00    -0.644 OA
HETATM   37  O7  UNL     1      20.858  -1.945  16.099  1.00  0.00    -0.644 OA
ENDBRANCH  31  35
ENDBRANCH  20  22
ENDBRANCH   1  20
TORSDOF 9
ENDMDL
MODEL 2
REMARK VINA RESULT: -7.361558424      3.136      6.404
REMARK  9 active torsions:
REMARK  status: ('A' for Active; 'I' for Inactive)
REMARK    1  A    between atoms: C2_2  and  C3_3 
REMARK    2  A    between atoms: C3_3  and  O1_4 
REMARK    3  A    between atoms: C3_3  and  N1_6 
REMARK    4  A    between atoms: N1_6  and  C4_8 
REMARK    5  A    between atoms: C6_18  and  O5_19 
REMARK    6  A    between atoms: C6_18  and  C7_21 
REMARK    7  A    between atoms: N8_32  and  C10_33 
REMARK    8  A    between atoms: C11_34  and  C12_35 
REMARK    9  A    between atoms: C12_35  and  O8_36 
ROOT
HETATM    1  C3  UNL     1      26.187  -2.285  16.044  1.00  0.00     0.267 C 
ENDROOT
BRANCH   1   2
HETATM    2  C2  UNL     1      24.948  -2.466  16.862  1.00  0.00     0.155 C 
HETATM    3  C1  UNL     1      24.051  -1.207  16.773  1.00  0.00     0.068 C 
HETATM    4  N4  UNL     1      24.137  -3.543  16.412  1.00  0.00    -0.334 N 
HETATM    5  C8  UNL     1      23.492  -4.294  17.229  1.00  0.00     0.192 C 
ATOM      6  H4  UNL     1      24.067  -3.724  15.411  1.00  0.00     0.164 HD
HETATM    7  N5  UNL     1      22.670  -5.367  16.811  1.00  0.00    -0.063 NA
HETATM    8  N6  UNL     1      23.638  -4.165  18.662  1.00  0.00    -0.304 N 
HETATM    9  C9  UNL     1      24.446  -3.288  19.154  1.00  0.00     0.199 C 
ATOM     10  H6  UNL     1      23.101  -4.769  19.284  1.00  0.00     0.171 HD
HETATM   11  N7  UNL     1      24.590  -3.138  20.580  1.00  0.00    -0.063 NA
HETATM   12  N8  UNL     1      25.254  -2.541  18.270  1.00  0.00    -0.300 N 
BRANCH  12  13
HETATM   13  C10 UNL     1      26.375  -1.854  18.863  1.00  0.00     0.094 C 
HETATM   14  C11 UNL     1      27.181  -2.424  19.727  1.00  0.00     0.016 C 
BRANCH  14  15
HETATM   15  C12 UNL     1      28.333  -1.713  20.332  1.00  0.00     0.192 C 
BRANCH  15  16
HETATM   16  O8  UNL     1      29.107  -2.582  21.103  1.00  0.00    -0.397 OA
ATOM     17  H8  UNL     1      30.033  -2.392  21.003  1.00  0.00     0.209 HD
ENDBRANCH  15  16
ENDBRANCH  14  15
ENDBRANCH  12  13
ENDBRANCH   1   2
BRANCH   1  18
HETATM   18  O1  UNL     1      25.818  -2.302  14.689  1.00  0.00    -0.372 OA
ATOM     19  H1  UNL     1      24.870  -2.320  14.642  1.00  0.00     0.212 HD
ENDBRANCH   1  18
BRANCH   1  20
HETATM   20  N1  UNL     1      27.134  -1.323  16.370  1.00  0.00    -0.355 N 
ATOM     21  H1  UNL     1      27.637  -1.395  17.254  1.00  0.00     0.162 HD
BRANCH  20  22
HETATM   22  C4  UNL     1      27.421  -0.223  15.478  1.00  0.00     0.144 C 
HETATM   23  C5  UNL     1      26.999   1.084  15.935  1.00  0.00     0.284 C 
HETATM   24  O2  UNL     1      25.898   1.636  15.627  1.00  0.00    -0.265 OA
HETATM   25  N2  UNL     1      27.885   1.819  16.794  1.00  0.00    -0.232 N 
HETATM   26  S1  UNL     1      29.522   1.286  16.806  1.00  0.00     0.324 S 
ATOM     27  H2  UNL     1      27.566   2.606  17.359  1.00  0.00     0.183 HD
HETATM   28  O3  UNL     1      30.385   2.543  16.680  1.00  0.00    -0.182 OA
HETATM   29  O4  UNL     1      29.910   0.588  18.067  1.00  0.00    -0.182 OA
HETATM   30  N3  UNL     1      29.844   0.352  15.430  1.00  0.00    -0.254 N 
HETATM   31  C6  UNL     1      28.780  -0.377  14.889  1.00  0.00     0.282 C 
ATOM     32  H3  UNL     1      30.775   0.323  15.013  1.00  0.00     0.178 HD
BRANCH  31  33
HETATM   33  O5  UNL     1      29.101  -1.750  15.013  1.00  0.00    -0.357 OA
ATOM     34  H5  UNL     1      30.049  -1.790  15.058  1.00  0.00     0.213 HD
ENDBRANCH  31  33
BRANCH  31  35
HETATM   35  C7  UNL     1      28.728  -0.092  13.435  1.00  0.00     0.239 C 
HETATM   36  O6  UNL     1      29.484   0.818  12.994  1.00  0.00    -0.644 OA
HETATM   37  O7  UNL     1      27.902  -0.768  12.580  1.00  0.00    -0.644 OA
ENDBRANCH  31  35
ENDBRANCH  20  22
ENDBRANCH   1  20
TORSDOF 9
ENDMDL
MODEL 3
REMARK VINA RESULT: -7.178108588      3.058      6.950
REMARK  9 active torsions:
REMARK  status: ('A' for Active; 'I' for Inactive)
REMARK    1  A    between atoms: C2_2  and  C3_3 
REMARK    2  A    between atoms: C3_3  and  O1_4 
REMARK    3  A    between atoms: C3_3  and  N1_6 
REMARK    4  A    between atoms: N1_6  and  C4_8 
REMARK    5  A    between atoms: C6_18  and  O5_19 
REMARK    6  A    between atoms: C6_18  and  C7_21 
REMARK    7  A    between atoms: N8_32  and  C10_33 
REMARK    8  A    between atoms: C11_34  and  C12_35 
REMARK    9  A    between atoms: C12_35  and  O8_36 
ROOT
HETATM    1  C3  UNL     1      25.628  -2.006  15.984  1.00  0.00     0.267 C 
ENDROOT
BRANCH   1   2
HETATM    2  C2  UNL     1      24.802  -2.357  17.180  1.00  0.00     0.155 C 
HETATM    3  C1  UNL     1      25.703  -2.561  18.422  1.00  0.00     0.068 C 
HETATM    4  N4  UNL     1      23.885  -1.332  17.541  1.00  0.00    -0.334 N 
HETATM    5  C8  UNL     1      22.714  -1.598  17.994  1.00  0.00     0.192 C 
ATOM      6  H4  UNL     1      24.165  -0.357  17.436  1.00  0.00     0.164 HD
HETATM    7  N5  UNL     1      21.782  -0.601  18.369  1.00  0.00    -0.063 NA
HETATM    8  N6  UNL     1      22.210  -2.953  18.059  1.00  0.00    -0.304 N 
HETATM    9  C9  UNL     1      22.935  -3.934  17.640  1.00  0.00     0.199 C 
ATOM     10  H6  UNL     1      21.279  -3.132  18.436  1.00  0.00     0.171 HD
HETATM   11  N7  UNL     1      22.452  -5.290  17.713  1.00  0.00    -0.063 NA
HETATM   12  N8  UNL     1      24.173  -3.646  17.025  1.00  0.00    -0.300 N 
BRANCH  12  13
HETATM   13  C10 UNL     1      24.766  -4.717  16.262  1.00  0.00     0.094 C 
HETATM   14  C11 UNL     1      24.419  -4.985  15.026  1.00  0.00     0.016 C 
BRANCH  14  15
HETATM   15  C12 UNL     1      25.034  -6.086  14.246  1.00  0.00     0.192 C 
BRANCH  15  16
HETATM   16  O8  UNL     1      26.331  -5.756  13.852  1.00  0.00    -0.397 OA
ATOM     17  H8  UNL     1      26.945  -5.878  14.567  1.00  0.00     0.209 HD
ENDBRANCH  15  16
ENDBRANCH  14  15
ENDBRANCH  12  13
ENDBRANCH   1   2
BRANCH   1  18
HETATM   18  O1  UNL     1      24.788  -1.395  15.039  1.00  0.00    -0.372 OA
ATOM     19  H1  UNL     1      24.060  -1.001  15.505  1.00  0.00     0.212 HD
ENDBRANCH   1  18
BRANCH   1  20
HETATM   20  N1  UNL     1      26.875  -1.408  16.117  1.00  0.00    -0.355 N 
ATOM     21  H1  UNL     1      27.535  -1.774  16.802  1.00  0.00     0.162 HD
BRANCH  20  22
HETATM   22  C4  UNL     1      27.253  -0.278  15.300  1.00  0.00     0.144 C 
HETATM   23  C5  UNL     1      26.824   1.018  15.782  1.00  0.00     0.284 C 
HETATM   24  O2  UNL     1      25.762   1.609  15.415  1.00  0.00    -0.265 OA
HETATM   25  N2  UNL     1      27.656   1.694  16.739  1.00  0.00    -0.232 N 
HETATM   26  S1  UNL     1      29.275   1.121  16.852  1.00  0.00     0.324 S 
ATOM     27  H2  UNL     1      27.310   2.462  17.313  1.00  0.00     0.183 HD
HETATM   28  O3  UNL     1      30.172   2.361  16.850  1.00  0.00    -0.182 OA
HETATM   29  O4  UNL     1      29.549   0.359  18.107  1.00  0.00    -0.182 OA
HETATM   30  N3  UNL     1      29.684   0.240  15.465  1.00  0.00    -0.254 N 
HETATM   31  C6  UNL     1      28.650  -0.439  14.812  1.00  0.00     0.282 C 
ATOM     32  H3  UNL     1      30.644   0.206  15.120  1.00  0.00     0.178 HD
BRANCH  31  33
HETATM   33  O5  UNL     1      28.932  -1.823  14.898  1.00  0.00    -0.357 OA
ATOM     34  H5  UNL     1      28.156  -2.265  14.572  1.00  0.00     0.213 HD
ENDBRANCH  31  33
BRANCH  31  35
HETATM   35  C7  UNL     1      28.717  -0.090  13.372  1.00  0.00     0.239 C 
HETATM   36  O6  UNL     1      29.282   0.996  13.063  1.00  0.00    -0.644 OA
HETATM   37  O7  UNL     1      28.195  -0.890  12.394  1.00  0.00    -0.644 OA
ENDBRANCH  31  35
ENDBRANCH  20  22
ENDBRANCH   1  20
TORSDOF 9
ENDMDL
MODEL 4
REMARK VINA RESULT: -6.957308388      3.133      7.175
REMARK  9 active torsions:
REMARK  status: ('A' for Active; 'I' for Inactive)
REMARK    1  A    between atoms: C2_2  and  C3_3 
REMARK    2  A    between atoms: C3_3  and  O1_4 
REMARK    3  A    between atoms: C3_3  and  N1_6 
REMARK    4  A    between atoms: N1_6  and  C4_8 
REMARK    5  A    between atoms: C6_18  and  O5_19 
REMARK    6  A    between atoms: C6_18  and  C7_21 
REMARK    7  A    between atoms: N8_32  and  C10_33 
REMARK    8  A    between atoms: C11_34  and  C12_35 
REMARK    9  A    between atoms: C12_35  and  O8_36 
ROOT
HETATM    1  C3  UNL     1      22.124  -1.818  15.782  1.00  0.00     0.267 C 
ENDROOT
BRANCH   1   2
HETATM    2  C2  UNL     1      21.817  -2.846  14.741  1.00  0.00     0.155 C 
HETATM    3  C1  UNL     1      22.603  -2.552  13.440  1.00  0.00     0.068 C 
HETATM    4  N4  UNL     1      22.201  -4.159  15.128  1.00  0.00    -0.334 N 
HETATM    5  C8  UNL     1      21.504  -5.190  14.811  1.00  0.00     0.192 C 
ATOM      6  H4  UNL     1      23.054  -4.286  15.672  1.00  0.00     0.164 HD
HETATM    7  N5  UNL     1      21.864  -6.510  15.173  1.00  0.00    -0.063 NA
HETATM    8  N6  UNL     1      20.227  -5.073  14.142  1.00  0.00    -0.304 N 
HETATM    9  C9  UNL     1      19.749  -3.908  13.860  1.00  0.00     0.199 C 
ATOM     10  H6  UNL     1      19.704  -5.912  13.893  1.00  0.00     0.171 HD
HETATM   11  N7  UNL     1      18.486  -3.777  13.179  1.00  0.00    -0.063 NA
HETATM   12  N8  UNL     1      20.443  -2.764  14.311  1.00  0.00    -0.300 N 
BRANCH  12  13
HETATM   13  C10 UNL     1      19.703  -1.527  14.294  1.00  0.00     0.094 C 
HETATM   14  C11 UNL     1      18.653  -1.316  15.051  1.00  0.00     0.016 C 
BRANCH  14  15
HETATM   15  C12 UNL     1      17.897  -0.040  15.030  1.00  0.00     0.192 C 
BRANCH  15  16
HETATM   16  O8  UNL     1      16.701  -0.157  15.740  1.00  0.00    -0.397 OA
ATOM     17  H8  UNL     1      16.787   0.207  16.613  1.00  0.00     0.209 HD
ENDBRANCH  15  16
ENDBRANCH  14  15
ENDBRANCH  12  13
ENDBRANCH   1   2
BRANCH   1  18
HETATM   18  O1  UNL     1      21.489  -2.203  16.974  1.00  0.00    -0.372 OA
ATOM     19  H1  UNL     1      21.018  -1.450  17.313  1.00  0.00     0.212 HD
ENDBRANCH   1  18
BRANCH   1  20
HETATM   20  N1  UNL     1      23.411  -1.322  15.952  1.00  0.00    -0.355 N 
ATOM     21  H1  UNL     1      23.605  -0.347  15.726  1.00  0.00     0.162 HD
BRANCH  20  22
HETATM   22  C4  UNL     1      24.478  -2.163  16.443  1.00  0.00     0.144 C 
HETATM   23  C5  UNL     1      25.507  -2.499  15.481  1.00  0.00     0.284 C 
HETATM   24  O2  UNL     1      25.524  -3.559  14.783  1.00  0.00    -0.265 OA
HETATM   25  N2  UNL     1      26.594  -1.577  15.303  1.00  0.00    -0.232 N 
HETATM   26  S1  UNL     1      26.805  -0.422  16.563  1.00  0.00     0.324 S 
ATOM     27  H2  UNL     1      27.201  -1.604  14.484  1.00  0.00     0.183 HD
HETATM   28  O3  UNL     1      28.300  -0.407  16.887  1.00  0.00    -0.182 OA
HETATM   29  O4  UNL     1      26.406   0.963  16.172  1.00  0.00    -0.182 OA
HETATM   30  N3  UNL     1      26.021  -0.942  17.971  1.00  0.00    -0.254 N 
HETATM   31  C6  UNL     1      24.882  -1.738  17.811  1.00  0.00     0.282 C 
ATOM     32  H3  UNL     1      26.365  -0.686  18.897  1.00  0.00     0.178 HD
BRANCH  31  33
HETATM   33  O5  UNL     1      23.783  -1.013  18.330  1.00  0.00    -0.357 OA
ATOM     34  H5  UNL     1      24.154  -0.244  18.747  1.00  0.00     0.213 HD
ENDBRANCH  31  33
BRANCH  31  35
HETATM   35  C7  UNL     1      25.038  -2.932  18.678  1.00  0.00     0.239 C 
HETATM   36  O6  UNL     1      25.985  -2.924  19.513  1.00  0.00    -0.644 OA
HETATM   37  O7  UNL     1      24.208  -4.016  18.596  1.00  0.00    -0.644 OA
ENDBRANCH  31  35
ENDBRANCH  20  22
ENDBRANCH   1  20
TORSDOF 9
ENDMDL
MODEL 5
REMARK VINA RESULT: -6.914030229      1.450      3.304
REMARK  9 active torsions:
REMARK  status: ('A' for Active; 'I' for Inactive)
REMARK    1  A    between atoms: C2_2  and  C3_3 
REMARK    2  A    between atoms: C3_3  and  O1_4 
REMARK    3  A    between atoms: C3_3  and  N1_6 
REMARK    4  A    between atoms: N1_6  and  C4_8 
REMARK    5  A    between atoms: C6_18  and  O5_19 
REMARK    6  A    between atoms: C6_18  and  C7_21 
REMARK    7  A    between atoms: N8_32  and  C10_33 
REMARK    8  A    between atoms: C11_34  and  C12_35 
REMARK    9  A    between atoms: C12_35  and  O8_36 
ROOT
HETATM    1  C3  UNL     1      26.381  -1.185  16.649  1.00  0.00     0.267 C 
ENDROOT
BRANCH   1   2
HETATM    2  C2  UNL     1      27.175  -0.041  16.103  1.00  0.00     0.155 C 
HETATM    3  C1  UNL     1      26.257   1.176  15.832  1.00  0.00     0.068 C 
HETATM    4  N4  UNL     1      28.169   0.426  17.005  1.00  0.00    -0.334 N 
HETATM    5  C8  UNL     1      29.315   0.838  16.598  1.00  0.00     0.192 C 
ATOM      6  H4  UNL     1      27.967   0.432  18.005  1.00  0.00     0.164 HD
HETATM    7  N5  UNL     1      30.321   1.317  17.470  1.00  0.00    -0.063 NA
HETATM    8  N6  UNL     1      29.710   0.748  15.210  1.00  0.00    -0.304 N 
HETATM    9  C9  UNL     1      28.910   0.227  14.342  1.00  0.00     0.199 C 
ATOM     10  H6  UNL     1      30.623   1.097  14.917  1.00  0.00     0.171 HD
HETATM   11  N7  UNL     1      29.284   0.145  12.952  1.00  0.00    -0.063 NA
HETATM   12  N8  UNL     1      27.700  -0.344  14.794  1.00  0.00    -0.300 N 
BRANCH  12  13
HETATM   13  C10 UNL     1      27.026  -1.217  13.865  1.00  0.00     0.094 C 
HETATM   14  C11 UNL     1      26.714  -0.852  12.645  1.00  0.00     0.016 C 
BRANCH  14  15
HETATM   15  C12 UNL     1      26.023  -1.755  11.693  1.00  0.00     0.192 C 
BRANCH  15  16
HETATM   16  O8  UNL     1      25.901  -3.041  12.224  1.00  0.00    -0.397 OA
ATOM     17  H8  UNL     1      25.607  -3.655  11.562  1.00  0.00     0.209 HD
ENDBRANCH  15  16
ENDBRANCH  14  15
ENDBRANCH  12  13
ENDBRANCH   1   2
BRANCH   1  18
HETATM   18  O1  UNL     1      27.247  -1.992  17.405  1.00  0.00    -0.372 OA
ATOM     19  H1  UNL     1      27.279  -2.850  16.998  1.00  0.00     0.212 HD
ENDBRANCH   1  18
BRANCH   1  20
HETATM   20  N1  UNL     1      25.131  -0.989  17.221  1.00  0.00    -0.355 N 
ATOM     21  H1  UNL     1      25.035  -0.346  18.006  1.00  0.00     0.162 HD
BRANCH  20  22
HETATM   22  C4  UNL     1      23.964  -1.680  16.724  1.00  0.00     0.144 C 
HETATM   23  C5  UNL     1      24.224  -2.817  15.867  1.00  0.00     0.284 C 
HETATM   24  O2  UNL     1      24.253  -2.774  14.599  1.00  0.00    -0.265 OA
HETATM   25  N2  UNL     1      24.460  -4.092  16.487  1.00  0.00    -0.232 N 
HETATM   26  S1  UNL     1      23.951  -4.228  18.126  1.00  0.00     0.324 S 
ATOM     27  H2  UNL     1      24.899  -4.866  15.989  1.00  0.00     0.183 HD
HETATM   28  O3  UNL     1      23.198  -5.555  18.235  1.00  0.00    -0.182 OA
HETATM   29  O4  UNL     1      25.084  -4.262  19.098  1.00  0.00    -0.182 OA
HETATM   30  N3  UNL     1      22.827  -3.016  18.493  1.00  0.00    -0.254 N 
HETATM   31  C6  UNL     1      22.942  -1.807  17.799  1.00  0.00     0.282 C 
ATOM     32  H3  UNL     1      22.097  -3.161  19.190  1.00  0.00     0.178 HD
BRANCH  31  33
HETATM   33  O5  UNL     1      23.253  -0.802  18.747  1.00  0.00    -0.357 OA
ATOM     34  H5  UNL     1      24.199  -0.815  18.834  1.00  0.00     0.213 HD
ENDBRANCH  31  33
BRANCH  31  35
HETATM   35  C7  UNL     1      21.604  -1.465  17.257  1.00  0.00     0.239 C 
HETATM   36  O6  UNL     1      20.949  -0.565  17.852  1.00  0.00    -0.644 OA
HETATM   37  O7  UNL     1      21.072  -2.086  16.161  1.00  0.00    -0.644 OA
ENDBRANCH  31  35
ENDBRANCH  20  22
ENDBRANCH   1  20
TORSDOF 9
ENDMDL
