MODEL 1
REMARK VINA RESULT: -7.139662234      0.000      0.000
REMARK  11 active torsions:
REMARK  status: ('A' for Active; 'I' for Inactive)
REMARK    1  A    between atoms: O1_2  and  C2_3 
REMARK    2  A    between atoms: C2_3  and  C3_4 
REMARK    3  A    between atoms: C3_4  and  N1_5 
REMARK    4  A    between atoms: C3_4  and  C16_41 
REMARK    5  A    between atoms: N1_5  and  C4_7 
REMARK    6  A    between atoms: C5_10  and  O2_11 
REMARK    7  A    between atoms: N5_21  and  C10_22 
REMARK    8  A    between atoms: C11_25  and  N7_26 
REMARK    9  A    between atoms: C13_34  and  N10_35 
REMARK   10  A    between atoms: C16_41  and  O3_42 
REMARK   11  A    between atoms: C16_41  and  O4_44 
ROOT
HETATM    1  C4  UNL     1      21.749  -6.774  17.017  1.00  0.00     0.675 C 
HETATM    2  N2  UNL     1      21.632  -5.505  16.823  1.00  0.00    -0.150 N 
ATOM      3  H2  UNL     1      21.012  -5.033  17.481  1.00  0.00     0.184 HD
HETATM    4  C5  UNL     1      22.240  -4.618  15.815  1.00  0.00     0.409 C 
HETATM    5  N3  UNL     1      22.322  -5.268  14.544  1.00  0.00     0.005 N 
ATOM      6  H31 UNL     1      22.305  -4.632  13.747  1.00  0.00     0.286 HD
ATOM      7  H32 UNL     1      21.485  -5.790  14.286  1.00  0.00     0.286 HD
HETATM    8  C7  UNL     1      23.509  -6.065  14.638  1.00  0.00     0.230 C 
HETATM    9  C8  UNL     1      23.217  -7.512  14.962  1.00  0.00     0.173 C 
HETATM   10  N4  UNL     1      22.550  -7.654  16.239  1.00  0.00    -0.224 N 
ATOM     11  H4  UNL     1      22.682  -8.571  16.667  1.00  0.00     0.177 HD
HETATM   12  C9  UNL     1      24.409  -5.424  15.640  1.00  0.00     0.166 C 
HETATM   13  N5  UNL     1      23.610  -4.330  16.164  1.00  0.00    -0.289 N 
ENDROOT
BRANCH  13  14
HETATM   14  C10 UNL     1      24.168  -3.270  16.898  1.00  0.00     0.155 A 
HETATM   15  N6  UNL     1      24.154  -3.351  18.269  1.00  0.00    -0.174 N 
HETATM   16  C11 UNL     1      24.665  -2.397  19.047  1.00  0.00     0.679 A 
ATOM     17  H6  UNL     1      23.737  -4.173  18.708  1.00  0.00     0.186 HD
HETATM   18  N8  UNL     1      25.224  -1.303  18.505  1.00  0.00    -0.174 N 
HETATM   19  C12 UNL     1      25.276  -1.155  17.186  1.00  0.00     0.167 A 
ATOM     20  H8  UNL     1      25.612  -0.580  19.112  1.00  0.00     0.186 HD
HETATM   21  N9  UNL     1      25.788  -0.167  16.431  1.00  0.00    -0.174 N 
HETATM   22  C15 UNL     1      24.738  -2.158  16.356  1.00  0.00     0.141 A 
HETATM   23  C13 UNL     1      25.584  -0.530  15.144  1.00  0.00     0.680 A 
ATOM     24  H9  UNL     1      26.240   0.685  16.762  1.00  0.00     0.186 HD
HETATM   25  N11 UNL     1      24.954  -1.726  15.106  1.00  0.00    -0.180 N 
HETATM   26  C14 UNL     1      24.613  -2.391  13.893  1.00  0.00     0.176 C 
BRANCH  16  27
HETATM   27  N7  UNL     1      24.621  -2.534  20.340  1.00  0.00    -0.234 N 
ATOM     28  H72 UNL     1      25.394  -2.979  20.834  1.00  0.00     0.174 HD
ATOM     29  H71 UNL     1      23.807  -2.193  20.852  1.00  0.00     0.174 HD
ENDBRANCH  16  27
BRANCH  23  30
HETATM   30  N10 UNL     1      25.948   0.182  14.134  1.00  0.00    -0.234 N 
ATOM     31 2H10 UNL     1      26.739   0.003  13.515  1.00  0.00     0.174 HD
ATOM     32 1H10 UNL     1      25.466   1.029  13.834  1.00  0.00     0.174 HD
ENDBRANCH  23  30
ENDBRANCH  13  14
BRANCH   4  33
HETATM   33  O2  UNL     1      21.509  -3.457  15.856  1.00  0.00    -0.326 OA
HETATM   34  C6  UNL     1      21.061  -3.026  14.631  1.00  0.00     0.208 C 
ENDBRANCH   4  33
BRANCH   1  35
HETATM   35  N1  UNL     1      21.053  -7.399  18.065  1.00  0.00    -0.215 N 
ATOM     36  H1  UNL     1      21.567  -7.602  18.922  1.00  0.00     0.178 HD
BRANCH  35  37
HETATM   37  C3  UNL     1      19.659  -7.774  18.009  1.00  0.00     0.177 C 
BRANCH  37  38
HETATM   38  C2  UNL     1      19.493  -9.262  18.224  1.00  0.00     0.197 C 
BRANCH  38  39
HETATM   39  O1  UNL     1      18.158  -9.611  18.411  1.00  0.00    -0.394 OA
HETATM   40  C1  UNL     1      17.720 -10.490  17.421  1.00  0.00     0.201 C 
ENDBRANCH  38  39
ENDBRANCH  37  38
BRANCH  37  41
HETATM   41  C16 UNL     1      18.957  -7.090  19.184  1.00  0.00     0.279 C 
BRANCH  41  42
HETATM   42  O3  UNL     1      19.292  -7.702  20.369  1.00  0.00    -0.369 OA
ATOM     43  H3  UNL     1      19.525  -7.054  21.025  1.00  0.00     0.212 HD
ENDBRANCH  41  42
BRANCH  41  44
HETATM   44  O4  UNL     1      17.579  -7.131  19.046  1.00  0.00    -0.369 OA
ATOM     45  H4  UNL     1      17.190  -7.771  19.632  1.00  0.00     0.212 HD
ENDBRANCH  41  44
ENDBRANCH  37  41
ENDBRANCH  35  37
ENDBRANCH   1  35
TORSDOF 11
ENDMDL
MODEL 2
REMARK VINA RESULT: -7.111637919      2.994      7.886
REMARK  11 active torsions:
REMARK  status: ('A' for Active; 'I' for Inactive)
REMARK    1  A    between atoms: O1_2  and  C2_3 
REMARK    2  A    between atoms: C2_3  and  C3_4 
REMARK    3  A    between atoms: C3_4  and  N1_5 
REMARK    4  A    between atoms: C3_4  and  C16_41 
REMARK    5  A    between atoms: N1_5  and  C4_7 
REMARK    6  A    between atoms: C5_10  and  O2_11 
REMARK    7  A    between atoms: N5_21  and  C10_22 
REMARK    8  A    between atoms: C11_25  and  N7_26 
REMARK    9  A    between atoms: C13_34  and  N10_35 
REMARK   10  A    between atoms: C16_41  and  O3_42 
REMARK   11  A    between atoms: C16_41  and  O4_44 
ROOT
HETATM    1  C4  UNL     1      25.318  -1.024  17.396  1.00  0.00     0.675 C 
HETATM    2  N2  UNL     1      24.106  -1.457  17.450  1.00  0.00    -0.150 N 
ATOM      3  H2  UNL     1      23.517  -1.160  16.671  1.00  0.00     0.184 HD
HETATM    4  C5  UNL     1      23.422  -2.306  18.442  1.00  0.00     0.409 C 
HETATM    5  N3  UNL     1      23.853  -1.993  19.768  1.00  0.00     0.005 N 
ATOM      6  H31 UNL     1      23.162  -2.190  20.491  1.00  0.00     0.286 HD
ATOM      7  H32 UNL     1      23.930  -0.994  19.958  1.00  0.00     0.286 HD
HETATM    8  C7  UNL     1      25.081  -2.717  19.914  1.00  0.00     0.230 C 
HETATM    9  C8  UNL     1      26.300  -1.850  19.693  1.00  0.00     0.173 C 
HETATM   10  N4  UNL     1      26.332  -1.295  18.356  1.00  0.00    -0.224 N 
ATOM     11  H4  UNL     1      27.270  -1.048  18.040  1.00  0.00     0.177 HD
HETATM   12  C9  UNL     1      25.033  -3.885  18.987  1.00  0.00     0.166 C 
HETATM   13  N5  UNL     1      23.794  -3.688  18.257  1.00  0.00    -0.289 N 
ENDROOT
BRANCH  13  14
HETATM   14  C10 UNL     1      23.187  -4.710  17.507  1.00  0.00     0.155 A 
HETATM   15  N6  UNL     1      22.206  -5.460  18.107  1.00  0.00    -0.174 N 
HETATM   16  C11 UNL     1      21.571  -6.446  17.472  1.00  0.00     0.679 A 
ATOM     17  H6  UNL     1      21.953  -5.256  19.075  1.00  0.00     0.186 HD
HETATM   18  N8  UNL     1      21.873  -6.742  16.199  1.00  0.00    -0.174 N 
HETATM   19  C12 UNL     1      22.810  -6.059  15.551  1.00  0.00     0.167 A 
ATOM     20  H8  UNL     1      21.379  -7.499  15.724  1.00  0.00     0.186 HD
HETATM   21  N9  UNL     1      23.268  -6.167  14.292  1.00  0.00    -0.174 N 
HETATM   22  C15 UNL     1      23.488  -5.015  16.214  1.00  0.00     0.141 A 
HETATM   23  C13 UNL     1      24.216  -5.214  14.149  1.00  0.00     0.680 A 
ATOM     24  H9  UNL     1      22.961  -6.835  13.584  1.00  0.00     0.186 HD
HETATM   25  N11 UNL     1      24.342  -4.526  15.306  1.00  0.00    -0.180 N 
HETATM   26  C14 UNL     1      25.249  -3.439  15.475  1.00  0.00     0.176 C 
BRANCH  16  27
HETATM   27  N7  UNL     1      20.650  -7.121  18.097  1.00  0.00    -0.234 N 
ATOM     28  H72 UNL     1      19.670  -7.013  17.834  1.00  0.00     0.174 HD
ATOM     29  H71 UNL     1      20.917  -7.754  18.851  1.00  0.00     0.174 HD
ENDBRANCH  16  27
BRANCH  23  30
HETATM   30  N10 UNL     1      24.878  -5.020  13.061  1.00  0.00    -0.234 N 
ATOM     31 2H10 UNL     1      25.892  -4.964  12.966  1.00  0.00     0.174 HD
ATOM     32 1H10 UNL     1      24.443  -4.897  12.147  1.00  0.00     0.174 HD
ENDBRANCH  23  30
ENDBRANCH  13  14
BRANCH   4  33
HETATM   33  O2  UNL     1      22.081  -2.160  18.190  1.00  0.00    -0.326 OA
HETATM   34  C6  UNL     1      21.793  -1.397  17.084  1.00  0.00     0.208 C 
ENDBRANCH   4  33
BRANCH   1  35
HETATM   35  N1  UNL     1      25.737  -0.214  16.328  1.00  0.00    -0.215 N 
ATOM     36  H1  UNL     1      25.062   0.443  15.935  1.00  0.00     0.178 HD
BRANCH  35  37
HETATM   37  C3  UNL     1      27.060  -0.248  15.748  1.00  0.00     0.177 C 
BRANCH  37  38
HETATM   38  C2  UNL     1      26.988  -0.164  14.240  1.00  0.00     0.197 C 
BRANCH  38  39
HETATM   39  O1  UNL     1      27.987   0.656  13.720  1.00  0.00    -0.394 OA
HETATM   40  C1  UNL     1      28.784  -0.032  12.806  1.00  0.00     0.201 C 
ENDBRANCH  38  39
ENDBRANCH  37  38
BRANCH  37  41
HETATM   41  C16 UNL     1      27.793   1.011  16.213  1.00  0.00     0.279 C 
BRANCH  41  42
HETATM   42  O3  UNL     1      28.357   0.812  17.452  1.00  0.00    -0.369 OA
ATOM     43  H3  UNL     1      28.132   1.524  18.040  1.00  0.00     0.212 HD
ENDBRANCH  41  42
BRANCH  41  44
HETATM   44  O4  UNL     1      26.936   2.097  16.294  1.00  0.00    -0.369 OA
ATOM     45  H4  UNL     1      27.391   2.879  16.585  1.00  0.00     0.212 HD
ENDBRANCH  41  44
ENDBRANCH  37  41
ENDBRANCH  35  37
ENDBRANCH   1  35
TORSDOF 11
ENDMDL
MODEL 3
REMARK VINA RESULT: -6.990373613      3.658      8.438
REMARK  11 active torsions:
REMARK  status: ('A' for Active; 'I' for Inactive)
REMARK    1  A    between atoms: O1_2  and  C2_3 
REMARK    2  A    between atoms: C2_3  and  C3_4 
REMARK    3  A    between atoms: C3_4  and  N1_5 
REMARK    4  A    between atoms: C3_4  and  C16_41 
REMARK    5  A    between atoms: N1_5  and  C4_7 
REMARK    6  A    between atoms: C5_10  and  O2_11 
REMARK    7  A    between atoms: N5_21  and  C10_22 
REMARK    8  A    between atoms: C11_25  and  N7_26 
REMARK    9  A    between atoms: C13_34  and  N10_35 
REMARK   10  A    between atoms: C16_41  and  O3_42 
REMARK   11  A    between atoms: C16_41  and  O4_44 
ROOT
HETATM    1  C4  UNL     1      26.618  -1.083  18.481  1.00  0.00     0.675 C 
HETATM    2  N2  UNL     1      25.527  -1.025  17.799  1.00  0.00    -0.150 N 
ATOM      3  H2  UNL     1      25.526  -0.318  17.063  1.00  0.00     0.184 HD
HETATM    4  C5  UNL     1      24.279  -1.804  17.897  1.00  0.00     0.409 C 
HETATM    5  N3  UNL     1      23.950  -2.073  19.261  1.00  0.00     0.005 N 
ATOM      6  H31 UNL     1      22.953  -2.198  19.435  1.00  0.00     0.286 HD
ATOM      7  H32 UNL     1      24.073  -1.278  19.886  1.00  0.00     0.286 HD
HETATM    8  C7  UNL     1      24.752  -3.213  19.593  1.00  0.00     0.230 C 
HETATM    9  C8  UNL     1      26.014  -2.843  20.340  1.00  0.00     0.173 C 
HETATM   10  N4  UNL     1      26.870  -1.979  19.556  1.00  0.00    -0.224 N 
ATOM     11  H4  UNL     1      27.852  -2.022  19.830  1.00  0.00     0.177 HD
HETATM   12  C9  UNL     1      25.032  -3.956  18.330  1.00  0.00     0.166 C 
HETATM   13  N5  UNL     1      24.456  -3.107  17.302  1.00  0.00    -0.289 N 
ENDROOT
BRANCH  13  14
HETATM   14  C10 UNL     1      24.205  -3.563  15.996  1.00  0.00     0.155 A 
HETATM   15  N6  UNL     1      24.971  -3.058  14.975  1.00  0.00    -0.174 N 
HETATM   16  C11 UNL     1      24.809  -3.436  13.706  1.00  0.00     0.679 A 
ATOM     17  H6  UNL     1      25.690  -2.368  15.194  1.00  0.00     0.186 HD
HETATM   18  N8  UNL     1      23.875  -4.342  13.380  1.00  0.00    -0.174 N 
HETATM   19  C12 UNL     1      23.097  -4.877  14.314  1.00  0.00     0.167 A 
ATOM     20  H8  UNL     1      23.762  -4.623  12.405  1.00  0.00     0.186 HD
HETATM   21  N9  UNL     1      22.119  -5.796  14.227  1.00  0.00    -0.174 N 
HETATM   22  C15 UNL     1      23.261  -4.484  15.658  1.00  0.00     0.141 A 
HETATM   23  C13 UNL     1      21.666  -5.988  15.486  1.00  0.00     0.680 A 
ATOM     24  H9  UNL     1      21.785  -6.256  13.380  1.00  0.00     0.186 HD
HETATM   25  N11 UNL     1      22.356  -5.198  16.340  1.00  0.00    -0.180 N 
HETATM   26  C14 UNL     1      22.129  -5.183  17.747  1.00  0.00     0.176 C 
BRANCH  16  27
HETATM   27  N7  UNL     1      25.566  -2.919  12.783  1.00  0.00    -0.234 N 
ATOM     28  H72 UNL     1      26.397  -2.387  13.043  1.00  0.00     0.174 HD
ATOM     29  H71 UNL     1      25.321  -3.049  11.802  1.00  0.00     0.174 HD
ENDBRANCH  16  27
BRANCH  23  30
HETATM   30  N10 UNL     1      20.720  -6.808  15.789  1.00  0.00    -0.234 N 
ATOM     31 2H10 UNL     1      19.725  -6.690  15.594  1.00  0.00     0.174 HD
ATOM     32 1H10 UNL     1      20.869  -7.693  16.273  1.00  0.00     0.174 HD
ENDBRANCH  23  30
ENDBRANCH  13  14
BRANCH   4  33
HETATM   33  O2  UNL     1      23.347  -1.100  17.176  1.00  0.00    -0.326 OA
HETATM   34  C6  UNL     1      22.049  -1.309  17.572  1.00  0.00     0.208 C 
ENDBRANCH   4  33
BRANCH   1  35
HETATM   35  N1  UNL     1      27.685  -0.217  18.189  1.00  0.00    -0.215 N 
ATOM     36  H1  UNL     1      28.170   0.221  18.972  1.00  0.00     0.178 HD
BRANCH  35  37
HETATM   37  C3  UNL     1      28.141   0.095  16.853  1.00  0.00     0.177 C 
BRANCH  37  38
HETATM   38  C2  UNL     1      29.592   0.520  16.867  1.00  0.00     0.197 C 
BRANCH  38  39
HETATM   39  O1  UNL     1      29.732   1.887  16.638  1.00  0.00    -0.394 OA
HETATM   40  C1  UNL     1      31.070   2.275  16.684  1.00  0.00     0.201 C 
ENDBRANCH  38  39
ENDBRANCH  37  38
BRANCH  37  41
HETATM   41  C16 UNL     1      28.080  -1.199  16.040  1.00  0.00     0.279 C 
BRANCH  41  42
HETATM   42  O3  UNL     1      29.263  -1.404  15.369  1.00  0.00    -0.369 OA
ATOM     43  H3  UNL     1      29.099  -1.781  14.512  1.00  0.00     0.212 HD
ENDBRANCH  41  42
BRANCH  41  44
HETATM   44  O4  UNL     1      27.052  -1.167  15.111  1.00  0.00    -0.369 OA
ATOM     45  H4  UNL     1      26.989  -1.986  14.633  1.00  0.00     0.212 HD
ENDBRANCH  41  44
ENDBRANCH  37  41
ENDBRANCH  35  37
ENDBRANCH   1  35
TORSDOF 11
ENDMDL
MODEL 4
REMARK VINA RESULT: -6.965774233      3.574      8.272
REMARK  11 active torsions:
REMARK  status: ('A' for Active; 'I' for Inactive)
REMARK    1  A    between atoms: O1_2  and  C2_3 
REMARK    2  A    between atoms: C2_3  and  C3_4 
REMARK    3  A    between atoms: C3_4  and  N1_5 
REMARK    4  A    between atoms: C3_4  and  C16_41 
REMARK    5  A    between atoms: N1_5  and  C4_7 
REMARK    6  A    between atoms: C5_10  and  O2_11 
REMARK    7  A    between atoms: N5_21  and  C10_22 
REMARK    8  A    between atoms: C11_25  and  N7_26 
REMARK    9  A    between atoms: C13_34  and  N10_35 
REMARK   10  A    between atoms: C16_41  and  O3_42 
REMARK   11  A    between atoms: C16_41  and  O4_44 
ROOT
HETATM    1  C4  UNL     1      26.512  -1.029  18.444  1.00  0.00     0.675 C 
HETATM    2  N2  UNL     1      25.417  -1.036  17.763  1.00  0.00    -0.150 N 
ATOM      3  H2  UNL     1      25.387  -0.352  17.006  1.00  0.00     0.184 HD
HETATM    4  C5  UNL     1      24.202  -1.860  17.889  1.00  0.00     0.409 C 
HETATM    5  N3  UNL     1      23.886  -2.099  19.262  1.00  0.00     0.005 N 
ATOM      6  H31 UNL     1      22.894  -2.257  19.442  1.00  0.00     0.286 HD
ATOM      7  H32 UNL     1      23.978  -1.280  19.862  1.00  0.00     0.286 HD
HETATM    8  C7  UNL     1      24.732  -3.196  19.627  1.00  0.00     0.230 C 
HETATM    9  C8  UNL     1      25.979  -2.753  20.358  1.00  0.00     0.173 C 
HETATM   10  N4  UNL     1      26.800  -1.881  19.545  1.00  0.00    -0.224 N 
ATOM     11  H4  UNL     1      27.783  -1.877  19.817  1.00  0.00     0.177 HD
HETATM   12  C9  UNL     1      25.039  -3.966  18.386  1.00  0.00     0.166 C 
HETATM   13  N5  UNL     1      24.428  -3.173  17.334  1.00  0.00    -0.289 N 
ENDROOT
BRANCH  13  14
HETATM   14  C10 UNL     1      24.194  -3.678  16.044  1.00  0.00     0.155 A 
HETATM   15  N6  UNL     1      24.954  -3.193  15.009  1.00  0.00    -0.174 N 
HETATM   16  C11 UNL     1      24.806  -3.618  13.754  1.00  0.00     0.679 A 
ATOM     17  H6  UNL     1      25.658  -2.482  15.207  1.00  0.00     0.186 HD
HETATM   18  N8  UNL     1      23.893  -4.554  13.454  1.00  0.00    -0.174 N 
HETATM   19  C12 UNL     1      23.121  -5.072  14.404  1.00  0.00     0.167 A 
ATOM     20  H8  UNL     1      23.790  -4.871  12.490  1.00  0.00     0.186 HD
HETATM   21  N9  UNL     1      22.162  -6.012  14.344  1.00  0.00    -0.174 N 
HETATM   22  C15 UNL     1      23.270  -4.629  15.733  1.00  0.00     0.141 A 
HETATM   23  C13 UNL     1      21.707  -6.170  15.607  1.00  0.00     0.680 A 
ATOM     24  H9  UNL     1      21.842  -6.508  13.512  1.00  0.00     0.186 HD
HETATM   25  N11 UNL     1      22.376  -5.338  16.436  1.00  0.00    -0.180 N 
HETATM   26  C14 UNL     1      22.141  -5.278  17.841  1.00  0.00     0.176 C 
BRANCH  16  27
HETATM   27  N7  UNL     1      25.558  -3.118  12.817  1.00  0.00    -0.234 N 
ATOM     28  H72 UNL     1      26.562  -3.301  12.815  1.00  0.00     0.174 HD
ATOM     29  H71 UNL     1      25.136  -2.543  12.088  1.00  0.00     0.174 HD
ENDBRANCH  16  27
BRANCH  23  30
HETATM   30  N10 UNL     1      20.775  -6.998  15.934  1.00  0.00    -0.234 N 
ATOM     31 2H10 UNL     1      19.960  -7.251  15.375  1.00  0.00     0.174 HD
ATOM     32 1H10 UNL     1      20.753  -7.506  16.817  1.00  0.00     0.174 HD
ENDBRANCH  23  30
ENDBRANCH  13  14
BRANCH   4  33
HETATM   33  O2  UNL     1      23.242  -1.215  17.149  1.00  0.00    -0.326 OA
HETATM   34  C6  UNL     1      21.970  -1.318  17.660  1.00  0.00     0.208 C 
ENDBRANCH   4  33
BRANCH   1  35
HETATM   35  N1  UNL     1      27.543  -0.132  18.122  1.00  0.00    -0.215 N 
ATOM     36  H1  UNL     1      28.004   0.358  18.889  1.00  0.00     0.178 HD
BRANCH  35  37
HETATM   37  C3  UNL     1      27.995   0.145  16.777  1.00  0.00     0.177 C 
BRANCH  37  38
HETATM   38  C2  UNL     1      27.345   1.399  16.240  1.00  0.00     0.197 C 
BRANCH  38  39
HETATM   39  O1  UNL     1      26.195   1.113  15.508  1.00  0.00    -0.394 OA
HETATM   40  C1  UNL     1      26.425   0.104  14.574  1.00  0.00     0.201 C 
ENDBRANCH  38  39
ENDBRANCH  37  38
BRANCH  37  41
HETATM   41  C16 UNL     1      29.494   0.436  16.853  1.00  0.00     0.279 C 
BRANCH  41  42
HETATM   42  O3  UNL     1      29.985   0.124  18.099  1.00  0.00    -0.369 OA
ATOM     43  H3  UNL     1      30.832   0.533  18.237  1.00  0.00     0.212 HD
ENDBRANCH  41  42
BRANCH  41  44
HETATM   44  O4  UNL     1      29.766   1.771  16.599  1.00  0.00    -0.369 OA
ATOM     45  H4  UNL     1      30.000   2.236  17.395  1.00  0.00     0.212 HD
ENDBRANCH  41  44
ENDBRANCH  37  41
ENDBRANCH  35  37
ENDBRANCH   1  35
TORSDOF 11
ENDMDL
MODEL 5
REMARK VINA RESULT: -6.931133309      0.823      2.615
REMARK  11 active torsions:
REMARK  status: ('A' for Active; 'I' for Inactive)
REMARK    1  A    between atoms: O1_2  and  C2_3 
REMARK    2  A    between atoms: C2_3  and  C3_4 
REMARK    3  A    between atoms: C3_4  and  N1_5 
REMARK    4  A    between atoms: C3_4  and  C16_41 
REMARK    5  A    between atoms: N1_5  and  C4_7 
REMARK    6  A    between atoms: C5_10  and  O2_11 
REMARK    7  A    between atoms: N5_21  and  C10_22 
REMARK    8  A    between atoms: C11_25  and  N7_26 
REMARK    9  A    between atoms: C13_34  and  N10_35 
REMARK   10  A    between atoms: C16_41  and  O3_42 
REMARK   11  A    between atoms: C16_41  and  O4_44 
ROOT
HETATM    1  C4  UNL     1      21.684  -6.738  16.881  1.00  0.00     0.675 C 
HETATM    2  N2  UNL     1      21.500  -5.559  16.392  1.00  0.00    -0.150 N 
ATOM      3  H2  UNL     1      20.827  -4.990  16.906  1.00  0.00     0.184 HD
HETATM    4  C5  UNL     1      22.095  -4.891  15.221  1.00  0.00     0.409 C 
HETATM    5  N3  UNL     1      22.266  -5.810  14.140  1.00  0.00     0.005 N 
ATOM      6  H31 UNL     1      22.245  -5.380  13.216  1.00  0.00     0.286 HD
ATOM      7  H32 UNL     1      21.473  -6.433  13.990  1.00  0.00     0.286 HD
HETATM    8  C7  UNL     1      23.494  -6.482  14.448  1.00  0.00     0.230 C 
HETATM    9  C8  UNL     1      23.276  -7.832  15.094  1.00  0.00     0.173 C 
HETATM   10  N4  UNL     1      22.568  -7.718  16.351  1.00  0.00    -0.224 N 
ATOM     11  H4  UNL     1      22.736  -8.500  16.985  1.00  0.00     0.177 HD
HETATM   12  C9  UNL     1      24.313  -5.567  15.294  1.00  0.00     0.166 C 
HETATM   13  N5  UNL     1      23.430  -4.438  15.528  1.00  0.00    -0.289 N 
ENDROOT
BRANCH  13  14
HETATM   14  C10 UNL     1      23.893  -3.201  16.008  1.00  0.00     0.155 A 
HETATM   15  N6  UNL     1      23.987  -2.156  15.122  1.00  0.00    -0.174 N 
HETATM   16  C11 UNL     1      24.410  -0.946  15.489  1.00  0.00     0.679 A 
ATOM     17  H6  UNL     1      23.724  -2.311  14.149  1.00  0.00     0.186 HD
HETATM   18  N8  UNL     1      24.763  -0.703  16.761  1.00  0.00    -0.174 N 
HETATM   19  C12 UNL     1      24.696  -1.665  17.675  1.00  0.00     0.167 A 
ATOM     20  H8  UNL     1      25.084   0.228  17.028  1.00  0.00     0.186 HD
HETATM   21  N9  UNL     1      24.982  -1.653  18.988  1.00  0.00    -0.174 N 
HETATM   22  C15 UNL     1      24.251  -2.948  17.297  1.00  0.00     0.141 A 
HETATM   23  C13 UNL     1      24.724  -2.899  19.444  1.00  0.00     0.680 A 
ATOM     24  H9  UNL     1      25.324  -0.862  19.533  1.00  0.00     0.186 HD
HETATM   25  N11 UNL     1      24.285  -3.672  18.424  1.00  0.00    -0.180 N 
HETATM   26  C14 UNL     1      23.909  -5.037  18.583  1.00  0.00     0.176 C 
BRANCH  16  27
HETATM   27  N7  UNL     1      24.478   0.004  14.601  1.00  0.00    -0.234 N 
ATOM     28  H72 UNL     1      24.881   0.907  14.850  1.00  0.00     0.174 HD
ATOM     29  H71 UNL     1      24.124  -0.164  13.660  1.00  0.00     0.174 HD
ENDBRANCH  16  27
BRANCH  23  30
HETATM   30  N10 UNL     1      24.884  -3.261  20.670  1.00  0.00    -0.234 N 
ATOM     31 2H10 UNL     1      25.487  -2.818  21.363  1.00  0.00     0.174 HD
ATOM     32 1H10 UNL     1      24.407  -4.057  21.093  1.00  0.00     0.174 HD
ENDBRANCH  23  30
ENDBRANCH  13  14
BRANCH   4  33
HETATM   33  O2  UNL     1      21.294  -3.805  14.971  1.00  0.00    -0.326 OA
HETATM   34  C6  UNL     1      20.883  -3.693  13.664  1.00  0.00     0.208 C 
ENDBRANCH   4  33
BRANCH   1  35
HETATM   35  N1  UNL     1      20.986  -7.149  18.028  1.00  0.00    -0.215 N 
ATOM     36  H1  UNL     1      21.468  -7.090  18.925  1.00  0.00     0.178 HD
BRANCH  35  37
HETATM   37  C3  UNL     1      19.629  -7.648  18.022  1.00  0.00     0.177 C 
BRANCH  37  38
HETATM   38  C2  UNL     1      19.607  -9.144  18.237  1.00  0.00     0.197 C 
BRANCH  38  39
HETATM   39  O1  UNL     1      18.320  -9.611  18.492  1.00  0.00    -0.394 OA
HETATM   40  C1  UNL     1      17.884 -10.476  17.490  1.00  0.00     0.201 C 
ENDBRANCH  38  39
ENDBRANCH  37  38
BRANCH  37  41
HETATM   41  C16 UNL     1      18.912  -7.031  19.224  1.00  0.00     0.279 C 
BRANCH  41  42
HETATM   42  O3  UNL     1      19.296  -7.654  20.387  1.00  0.00    -0.369 OA
ATOM     43  H3  UNL     1      18.836  -8.480  20.491  1.00  0.00     0.212 HD
ENDBRANCH  41  42
BRANCH  41  44
HETATM   44  O4  UNL     1      17.536  -7.139  19.104  1.00  0.00    -0.369 OA
ATOM     45  H4  UNL     1      17.218  -6.693  18.327  1.00  0.00     0.212 HD
ENDBRANCH  41  44
ENDBRANCH  37  41
ENDBRANCH  35  37
ENDBRANCH   1  35
TORSDOF 11
ENDMDL
