MODEL 1
REMARK VINA RESULT: -7.904486787      0.000      0.000
REMARK  10 active torsions:
REMARK  status: ('A' for Active; 'I' for Inactive)
REMARK    1  A    between atoms: N1_1  and  C1_4 
REMARK    2  A    between atoms: N5_15  and  C5_16 
REMARK    3  A    between atoms: C6_18  and  O2_19 
REMARK    4  A    between atoms: C6_18  and  C7_21 
REMARK    5  A    between atoms: C8_24  and  N6_25 
REMARK    6  A    between atoms: C8_24  and  C12_37 
REMARK       I    between atoms: N6_25  and  C9_27 
REMARK    7  A    between atoms: C9_27  and  C10_29 
REMARK    8  A    between atoms: C10_29  and  C11_30 
REMARK    9  A    between atoms: C11_30  and  O6_31 
REMARK   10  A    between atoms: N7_33  and  O7_35 
ROOT
HETATM    1  C5  UNL     1      24.798  -2.368  14.884  1.00  0.00     0.386 C 
HETATM    2  O1  UNL     1      24.719  -1.017  14.675  1.00  0.00    -0.292 OA
HETATM    3  C6  UNL     1      25.364  -0.446  15.821  1.00  0.00     0.320 C 
HETATM    4  C8  UNL     1      26.437  -1.412  16.115  1.00  0.00     0.300 C 
HETATM    5  O10 UNL     1      25.825  -2.632  15.774  1.00  0.00    -0.297 OA
ENDROOT
BRANCH   1   6
HETATM    6  N5  UNL     1      24.765  -3.197  13.726  1.00  0.00    -0.277 N 
HETATM    7  C4  UNL     1      24.030  -4.344  13.699  1.00  0.00     0.190 A 
HETATM    8  N4  UNL     1      24.161  -4.929  12.519  1.00  0.00    -0.346 N 
HETATM    9  C3  UNL     1      24.965  -4.215  11.737  1.00  0.00     0.123 A 
ATOM     10  H4  UNL     1      23.709  -5.803  12.247  1.00  0.00     0.167 HD
HETATM   11  C2  UNL     1      25.413  -4.387  10.445  1.00  0.00     0.145 A 
HETATM   12  C13 UNL     1      25.337  -3.122  12.520  1.00  0.00     0.158 A 
HETATM   13  N2  UNL     1      26.243  -3.426   9.973  1.00  0.00    -0.175 N 
HETATM   14  N3  UNL     1      25.088  -5.372   9.711  1.00  0.00    -0.383 N 
HETATM   15  C1  UNL     1      26.597  -2.375  10.737  1.00  0.00     0.679 A 
ATOM     16  H2  UNL     1      26.608  -3.500   9.023  1.00  0.00     0.186 HD
HETATM   17  N8  UNL     1      26.150  -2.213  12.009  1.00  0.00    -0.174 N 
ATOM     18  H8  UNL     1      26.437  -1.404  12.561  1.00  0.00     0.186 HD
ATOM     19  H32 UNL     1      25.421  -5.499   8.756  1.00  0.00     0.157 HD
ATOM     20  H31 UNL     1      24.463  -6.096  10.066  1.00  0.00     0.157 HD
BRANCH  15  21
HETATM   21  N1  UNL     1      27.396  -1.469  10.254  1.00  0.00    -0.234 N 
ATOM     22  H12 UNL     1      27.195  -1.106   9.322  1.00  0.00     0.174 HD
ATOM     23  H11 UNL     1      28.191  -1.151  10.807  1.00  0.00     0.174 HD
ENDBRANCH  15  21
ENDBRANCH   1   6
BRANCH   3  24
HETATM   24  O2  UNL     1      24.353  -0.367  16.760  1.00  0.00    -0.353 OA
ATOM     25  H2  UNL     1      24.228   0.568  16.877  1.00  0.00     0.213 HD
ENDBRANCH   3  24
BRANCH   3  26
HETATM   26  C7  UNL     1      25.785   0.911  15.413  1.00  0.00     0.245 C 
HETATM   27  O3  UNL     1      25.223   1.385  14.363  1.00  0.00    -0.644 OA
HETATM   28  O4  UNL     1      26.692   1.726  16.006  1.00  0.00    -0.644 OA
ENDBRANCH   3  26
BRANCH   4  29
HETATM   29  N6  UNL     1      26.804  -1.394  17.508  1.00  0.00    -0.310 N 
HETATM   30  C9  UNL     1      26.143  -1.963  18.594  1.00  0.00     0.271 C 
HETATM   31  O5  UNL     1      25.074  -2.614  18.413  1.00  0.00    -0.266 OA
ATOM     32  H6  UNL     1      27.666  -0.897  17.730  1.00  0.00     0.166 HD
BRANCH  30  33
HETATM   33  C10 UNL     1      26.629  -1.843  19.956  1.00  0.00     0.122 C 
HETATM   34  N7  UNL     1      25.998  -1.940  21.031  1.00  0.00    -0.266 N 
ATOM     35  H7  UNL     1      26.599  -1.809  21.845  1.00  0.00     0.194 HD
BRANCH  33  36
HETATM   36  C11 UNL     1      28.117  -1.559  20.081  1.00  0.00     0.229 C 
BRANCH  36  37
HETATM   37  O6  UNL     1      28.650  -2.465  20.953  1.00  0.00    -0.395 OA
ATOM     38  H6  UNL     1      28.386  -2.219  21.832  1.00  0.00     0.209 HD
ENDBRANCH  36  37
ENDBRANCH  33  36
BRANCH  34  39
HETATM   39  O7  UNL     1      24.737  -2.171  21.368  1.00  0.00    -0.290 OA
ATOM     40  H7  UNL     1      24.279  -2.845  21.857  1.00  0.00     0.244 HD
ENDBRANCH  34  39
ENDBRANCH  30  33
ENDBRANCH   4  29
BRANCH   4  41
HETATM   41  C12 UNL     1      27.670  -1.286  15.311  1.00  0.00     0.238 C 
HETATM   42  O8  UNL     1      28.811  -1.575  15.804  1.00  0.00    -0.644 OA
HETATM   43  O9  UNL     1      27.686  -0.861  13.999  1.00  0.00    -0.644 OA
ENDBRANCH   4  41
TORSDOF 10
ENDMDL
MODEL 2
REMARK VINA RESULT: -7.702620701      2.290      3.233
REMARK  10 active torsions:
REMARK  status: ('A' for Active; 'I' for Inactive)
REMARK    1  A    between atoms: N1_1  and  C1_4 
REMARK    2  A    between atoms: N5_15  and  C5_16 
REMARK    3  A    between atoms: C6_18  and  O2_19 
REMARK    4  A    between atoms: C6_18  and  C7_21 
REMARK    5  A    between atoms: C8_24  and  N6_25 
REMARK    6  A    between atoms: C8_24  and  C12_37 
REMARK       I    between atoms: N6_25  and  C9_27 
REMARK    7  A    between atoms: C9_27  and  C10_29 
REMARK    8  A    between atoms: C10_29  and  C11_30 
REMARK    9  A    between atoms: C11_30  and  O6_31 
REMARK   10  A    between atoms: N7_33  and  O7_35 
ROOT
HETATM    1  C5  UNL     1      26.470  -0.610  13.678  1.00  0.00     0.386 C 
HETATM    2  O1  UNL     1      26.957   0.592  14.118  1.00  0.00    -0.292 OA
HETATM    3  C6  UNL     1      26.800   0.534  15.542  1.00  0.00     0.320 C 
HETATM    4  C8  UNL     1      27.047  -0.885  15.847  1.00  0.00     0.300 C 
HETATM    5  O10 UNL     1      26.496  -1.521  14.720  1.00  0.00    -0.297 OA
ENDROOT
BRANCH   1   6
HETATM    6  N5  UNL     1      26.975  -1.088  12.435  1.00  0.00    -0.277 N 
HETATM    7  C4  UNL     1      26.216  -1.870  11.618  1.00  0.00     0.190 A 
HETATM    8  N4  UNL     1      26.905  -2.179  10.531  1.00  0.00    -0.346 N 
HETATM    9  C3  UNL     1      28.114  -1.630  10.581  1.00  0.00     0.123 A 
ATOM     10  H4  UNL     1      26.557  -2.755   9.764  1.00  0.00     0.167 HD
HETATM   11  C2  UNL     1      29.190  -1.647   9.718  1.00  0.00     0.145 A 
HETATM   12  C13 UNL     1      28.139  -0.943  11.795  1.00  0.00     0.158 A 
HETATM   13  N2  UNL     1      30.282  -0.954  10.119  1.00  0.00    -0.175 N 
HETATM   14  N3  UNL     1      29.191  -2.264   8.607  1.00  0.00    -0.383 N 
HETATM   15  C1  UNL     1      30.296  -0.295  11.292  1.00  0.00     0.679 A 
ATOM     16  H2  UNL     1      31.108  -0.931   9.521  1.00  0.00     0.186 HD
HETATM   17  N8  UNL     1      29.232  -0.282  12.137  1.00  0.00    -0.174 N 
ATOM     18  H8  UNL     1      29.276   0.228  13.019  1.00  0.00     0.186 HD
ATOM     19  H32 UNL     1      29.987  -2.276   7.969  1.00  0.00     0.157 HD
ATOM     20  H31 UNL     1      28.369  -2.786   8.305  1.00  0.00     0.157 HD
BRANCH  15  21
HETATM   21  N1  UNL     1      31.361   0.362  11.648  1.00  0.00    -0.234 N 
ATOM     22  H12 UNL     1      32.068   0.543  10.936  1.00  0.00     0.174 HD
ATOM     23  H11 UNL     1      31.463   0.675  12.613  1.00  0.00     0.174 HD
ENDBRANCH  15  21
ENDBRANCH   1   6
BRANCH   3  24
HETATM   24  O2  UNL     1      25.507   0.977  15.747  1.00  0.00    -0.353 OA
ATOM     25  H2  UNL     1      25.450   1.073  16.691  1.00  0.00     0.213 HD
ENDBRANCH   3  24
BRANCH   3  26
HETATM   26  C7  UNL     1      27.764   1.511  16.094  1.00  0.00     0.245 C 
HETATM   27  O3  UNL     1      27.278   2.409  16.868  1.00  0.00    -0.644 OA
HETATM   28  O4  UNL     1      29.102   1.583  15.888  1.00  0.00    -0.644 OA
ENDBRANCH   3  26
BRANCH   4  29
HETATM   29  N6  UNL     1      26.371  -1.298  17.052  1.00  0.00    -0.310 N 
HETATM   30  C9  UNL     1      25.036  -1.653  17.226  1.00  0.00     0.271 C 
HETATM   31  O5  UNL     1      24.247  -1.655  16.238  1.00  0.00    -0.266 OA
ATOM     32  H6  UNL     1      26.950  -1.334  17.891  1.00  0.00     0.166 HD
BRANCH  30  33
HETATM   33  C10 UNL     1      24.490  -2.031  18.517  1.00  0.00     0.122 C 
HETATM   34  N7  UNL     1      23.480  -1.590  19.106  1.00  0.00    -0.266 N 
ATOM     35  H7  UNL     1      23.331  -2.041  20.009  1.00  0.00     0.194 HD
BRANCH  33  36
HETATM   36  C11 UNL     1      25.263  -3.118  19.244  1.00  0.00     0.229 C 
BRANCH  36  37
HETATM   37  O6  UNL     1      24.682  -3.308  20.465  1.00  0.00    -0.395 OA
ATOM     38  H6  UNL     1      25.361  -3.559  21.080  1.00  0.00     0.209 HD
ENDBRANCH  36  37
ENDBRANCH  33  36
BRANCH  34  39
HETATM   39  O7  UNL     1      22.556  -0.675  18.843  1.00  0.00    -0.290 OA
ATOM     40  H7  UNL     1      22.204   0.081  19.296  1.00  0.00     0.244 HD
ENDBRANCH  34  39
ENDBRANCH  30  33
ENDBRANCH   4  29
BRANCH   4  41
HETATM   41  C12 UNL     1      28.463  -1.297  15.949  1.00  0.00     0.238 C 
HETATM   42  O8  UNL     1      28.990  -1.572  17.078  1.00  0.00    -0.644 OA
HETATM   43  O9  UNL     1      29.304  -1.414  14.862  1.00  0.00    -0.644 OA
ENDBRANCH   4  41
TORSDOF 10
ENDMDL
MODEL 3
REMARK VINA RESULT: -7.553456749      1.031      2.245
REMARK  10 active torsions:
REMARK  status: ('A' for Active; 'I' for Inactive)
REMARK    1  A    between atoms: N1_1  and  C1_4 
REMARK    2  A    between atoms: N5_15  and  C5_16 
REMARK    3  A    between atoms: C6_18  and  O2_19 
REMARK    4  A    between atoms: C6_18  and  C7_21 
REMARK    5  A    between atoms: C8_24  and  N6_25 
REMARK    6  A    between atoms: C8_24  and  C12_37 
REMARK       I    between atoms: N6_25  and  C9_27 
REMARK    7  A    between atoms: C9_27  and  C10_29 
REMARK    8  A    between atoms: C10_29  and  C11_30 
REMARK    9  A    between atoms: C11_30  and  O6_31 
REMARK   10  A    between atoms: N7_33  and  O7_35 
ROOT
HETATM    1  C5  UNL     1      25.021  -2.365  14.738  1.00  0.00     0.386 C 
HETATM    2  O1  UNL     1      24.876  -1.014  14.569  1.00  0.00    -0.292 OA
HETATM    3  C6  UNL     1      25.463  -0.448  15.749  1.00  0.00     0.320 C 
HETATM    4  C8  UNL     1      26.576  -1.366  16.041  1.00  0.00     0.300 C 
HETATM    5  O10 UNL     1      26.038  -2.605  15.646  1.00  0.00    -0.297 OA
ENDROOT
BRANCH   1   6
HETATM    6  N5  UNL     1      25.059  -3.157  13.554  1.00  0.00    -0.277 N 
HETATM    7  C4  UNL     1      25.367  -2.607  12.347  1.00  0.00     0.190 A 
HETATM    8  N4  UNL     1      25.339  -3.543  11.411  1.00  0.00    -0.346 N 
HETATM    9  C3  UNL     1      25.022  -4.718  11.944  1.00  0.00     0.123 A 
ATOM     10  H4  UNL     1      25.535  -3.385  10.422  1.00  0.00     0.167 HD
HETATM   11  C2  UNL     1      24.865  -5.980  11.411  1.00  0.00     0.145 A 
HETATM   12  C13 UNL     1      24.849  -4.453  13.303  1.00  0.00     0.158 A 
HETATM   13  N2  UNL     1      24.529  -6.956  12.288  1.00  0.00    -0.175 N 
HETATM   14  N3  UNL     1      25.018  -6.247  10.178  1.00  0.00    -0.383 N 
HETATM   15  C1  UNL     1      24.364  -6.690  13.597  1.00  0.00     0.679 A 
ATOM     16  H2  UNL     1      24.399  -7.910  11.950  1.00  0.00     0.186 HD
HETATM   17  N8  UNL     1      24.521  -5.444  14.115  1.00  0.00    -0.174 N 
ATOM     18  H8  UNL     1      24.389  -5.276  15.112  1.00  0.00     0.186 HD
ATOM     19  H32 UNL     1      24.901  -7.181   9.784  1.00  0.00     0.157 HD
ATOM     20  H31 UNL     1      25.271  -5.512   9.518  1.00  0.00     0.157 HD
BRANCH  15  21
HETATM   21  N1  UNL     1      24.042  -7.650  14.413  1.00  0.00    -0.234 N 
ATOM     22  H12 UNL     1      23.211  -8.201  14.195  1.00  0.00     0.174 HD
ATOM     23  H11 UNL     1      24.616  -7.826  15.237  1.00  0.00     0.174 HD
ENDBRANCH  15  21
ENDBRANCH   1   6
BRANCH   3  24
HETATM   24  O2  UNL     1      24.426  -0.451  16.663  1.00  0.00    -0.353 OA
ATOM     25  H2  UNL     1      24.838  -0.163  17.470  1.00  0.00     0.213 HD
ENDBRANCH   3  24
BRANCH   3  26
HETATM   26  C7  UNL     1      25.821   0.942  15.394  1.00  0.00     0.245 C 
HETATM   27  O3  UNL     1      25.240   1.430  14.362  1.00  0.00    -0.644 OA
HETATM   28  O4  UNL     1      26.690   1.774  16.020  1.00  0.00    -0.644 OA
ENDBRANCH   3  26
BRANCH   4  29
HETATM   29  N6  UNL     1      26.908  -1.374  17.443  1.00  0.00    -0.310 N 
HETATM   30  C9  UNL     1      26.218  -1.960  18.501  1.00  0.00     0.271 C 
HETATM   31  O5  UNL     1      25.152  -2.606  18.282  1.00  0.00    -0.266 OA
ATOM     32  H6  UNL     1      27.766  -0.884  17.695  1.00  0.00     0.166 HD
BRANCH  30  33
HETATM   33  C10 UNL     1      26.670  -1.866  19.878  1.00  0.00     0.122 C 
HETATM   34  N7  UNL     1      26.014  -1.996  20.934  1.00  0.00    -0.266 N 
ATOM     35  H7  UNL     1      26.593  -1.877  21.765  1.00  0.00     0.194 HD
BRANCH  33  36
HETATM   36  C11 UNL     1      28.150  -1.567  20.045  1.00  0.00     0.229 C 
BRANCH  36  37
HETATM   37  O6  UNL     1      28.661  -2.449  20.954  1.00  0.00    -0.395 OA
ATOM     38  H6  UNL     1      28.892  -3.247  20.494  1.00  0.00     0.209 HD
ENDBRANCH  36  37
ENDBRANCH  33  36
BRANCH  34  39
HETATM   39  O7  UNL     1      24.748  -2.250  21.235  1.00  0.00    -0.290 OA
ATOM     40  H7  UNL     1      24.171  -3.001  21.155  1.00  0.00     0.244 HD
ENDBRANCH  34  39
ENDBRANCH  30  33
ENDBRANCH   4  29
BRANCH   4  41
HETATM   41  C12 UNL     1      27.821  -1.151  15.273  1.00  0.00     0.238 C 
HETATM   42  O8  UNL     1      28.962  -1.405  15.784  1.00  0.00    -0.644 OA
HETATM   43  O9  UNL     1      27.848  -0.674  13.980  1.00  0.00    -0.644 OA
ENDBRANCH   4  41
TORSDOF 10
ENDMDL
MODEL 4
REMARK VINA RESULT: -7.460912835      3.707      7.143
REMARK  10 active torsions:
REMARK  status: ('A' for Active; 'I' for Inactive)
REMARK    1  A    between atoms: N1_1  and  C1_4 
REMARK    2  A    between atoms: N5_15  and  C5_16 
REMARK    3  A    between atoms: C6_18  and  O2_19 
REMARK    4  A    between atoms: C6_18  and  C7_21 
REMARK    5  A    between atoms: C8_24  and  N6_25 
REMARK    6  A    between atoms: C8_24  and  C12_37 
REMARK       I    between atoms: N6_25  and  C9_27 
REMARK    7  A    between atoms: C9_27  and  C10_29 
REMARK    8  A    between atoms: C10_29  and  C11_30 
REMARK    9  A    between atoms: C11_30  and  O6_31 
REMARK   10  A    between atoms: N7_33  and  O7_35 
ROOT
HETATM    1  C5  UNL     1      24.086  -1.092  16.889  1.00  0.00     0.386 C 
HETATM    2  O1  UNL     1      24.121  -2.200  17.694  1.00  0.00    -0.292 OA
HETATM    3  C6  UNL     1      22.894  -2.882  17.404  1.00  0.00     0.320 C 
HETATM    4  C8  UNL     1      22.699  -2.621  15.968  1.00  0.00     0.300 C 
HETATM    5  O10 UNL     1      23.211  -1.317  15.841  1.00  0.00    -0.297 OA
ENDROOT
BRANCH   1   6
HETATM    6  N5  UNL     1      25.342  -0.527  16.525  1.00  0.00    -0.277 N 
HETATM    7  C4  UNL     1      25.506   0.127  15.341  1.00  0.00     0.190 A 
HETATM    8  N4  UNL     1      26.753   0.560  15.240  1.00  0.00    -0.346 N 
HETATM    9  C3  UNL     1      27.447   0.220  16.321  1.00  0.00     0.123 A 
ATOM     10  H4  UNL     1      27.127   1.079  14.446  1.00  0.00     0.167 HD
HETATM   11  C2  UNL     1      28.757   0.427  16.700  1.00  0.00     0.145 A 
HETATM   12  C13 UNL     1      26.536  -0.467  17.124  1.00  0.00     0.158 A 
HETATM   13  N2  UNL     1      29.112  -0.079  17.905  1.00  0.00    -0.175 N 
HETATM   14  N3  UNL     1      29.606   1.050  15.988  1.00  0.00    -0.383 N 
HETATM   15  C1  UNL     1      28.226  -0.741  18.671  1.00  0.00     0.679 A 
ATOM     16  H2  UNL     1      30.069   0.044  18.237  1.00  0.00     0.186 HD
HETATM   17  N8  UNL     1      26.937  -0.940  18.292  1.00  0.00    -0.174 N 
ATOM     18  H8  UNL     1      26.290  -1.446  18.897  1.00  0.00     0.186 HD
ATOM     19  H32 UNL     1      30.574   1.203  16.269  1.00  0.00     0.157 HD
ATOM     20  H31 UNL     1      29.338   1.432  15.081  1.00  0.00     0.157 HD
BRANCH  15  21
HETATM   21  N1  UNL     1      28.599  -1.214  19.824  1.00  0.00    -0.234 N 
ATOM     22  H12 UNL     1      29.535  -0.979  20.154  1.00  0.00     0.174 HD
ATOM     23  H11 UNL     1      27.960  -1.800  20.360  1.00  0.00     0.174 HD
ENDBRANCH  15  21
ENDBRANCH   1   6
BRANCH   3  24
HETATM   24  O2  UNL     1      21.980  -2.287  18.253  1.00  0.00    -0.353 OA
ATOM     25  H2  UNL     1      21.208  -2.177  17.710  1.00  0.00     0.213 HD
ENDBRANCH   3  24
BRANCH   3  26
HETATM   26  C7  UNL     1      23.112  -4.290  17.801  1.00  0.00     0.245 C 
HETATM   27  O3  UNL     1      22.147  -5.100  17.566  1.00  0.00    -0.644 OA
HETATM   28  O4  UNL     1      24.206  -4.841  18.384  1.00  0.00    -0.644 OA
ENDBRANCH   3  26
BRANCH   4  29
HETATM   29  N6  UNL     1      21.305  -2.663  15.602  1.00  0.00    -0.310 N 
HETATM   30  C9  UNL     1      20.573  -1.755  14.841  1.00  0.00     0.271 C 
HETATM   31  O5  UNL     1      21.141  -0.736  14.354  1.00  0.00    -0.266 OA
ATOM     32  H6  UNL     1      20.783  -3.468  15.949  1.00  0.00     0.166 HD
BRANCH  30  33
HETATM   33  C10 UNL     1      19.157  -1.923  14.571  1.00  0.00     0.122 C 
HETATM   34  N7  UNL     1      18.231  -1.089  14.667  1.00  0.00    -0.266 N 
ATOM     35  H7  UNL     1      17.326  -1.485  14.412  1.00  0.00     0.194 HD
BRANCH  33  36
HETATM   36  C11 UNL     1      18.755  -3.314  14.108  1.00  0.00     0.229 C 
BRANCH  36  37
HETATM   37  O6  UNL     1      19.844  -3.899  13.529  1.00  0.00    -0.395 OA
ATOM     38  H6  UNL     1      19.536  -4.571  12.932  1.00  0.00     0.209 HD
ENDBRANCH  36  37
ENDBRANCH  33  36
BRANCH  34  39
HETATM   39  O7  UNL     1      18.141   0.186  15.020  1.00  0.00    -0.290 OA
ATOM     40  H7  UNL     1      17.984   1.005  14.565  1.00  0.00     0.244 HD
ENDBRANCH  34  39
ENDBRANCH  30  33
ENDBRANCH   4  29
BRANCH   4  41
HETATM   41  C12 UNL     1      23.446  -3.492  15.036  1.00  0.00     0.238 C 
HETATM   42  O8  UNL     1      22.842  -4.339  14.298  1.00  0.00    -0.644 OA
HETATM   43  O9  UNL     1      24.817  -3.457  14.893  1.00  0.00    -0.644 OA
ENDBRANCH   4  41
TORSDOF 10
ENDMDL
MODEL 5
REMARK VINA RESULT: -7.421671972      3.082      6.327
REMARK  10 active torsions:
REMARK  status: ('A' for Active; 'I' for Inactive)
REMARK    1  A    between atoms: N1_1  and  C1_4 
REMARK    2  A    between atoms: N5_15  and  C5_16 
REMARK    3  A    between atoms: C6_18  and  O2_19 
REMARK    4  A    between atoms: C6_18  and  C7_21 
REMARK    5  A    between atoms: C8_24  and  N6_25 
REMARK    6  A    between atoms: C8_24  and  C12_37 
REMARK       I    between atoms: N6_25  and  C9_27 
REMARK    7  A    between atoms: C9_27  and  C10_29 
REMARK    8  A    between atoms: C10_29  and  C11_30 
REMARK    9  A    between atoms: C11_30  and  O6_31 
REMARK   10  A    between atoms: N7_33  and  O7_35 
ROOT
HETATM    1  C5  UNL     1      26.177  -1.672  15.169  1.00  0.00     0.386 C 
HETATM    2  O1  UNL     1      26.763  -1.699  16.407  1.00  0.00    -0.292 OA
HETATM    3  C6  UNL     1      28.016  -1.028  16.216  1.00  0.00     0.320 C 
HETATM    4  C8  UNL     1      27.691   0.006  15.219  1.00  0.00     0.300 C 
HETATM    5  O10 UNL     1      26.741  -0.654  14.420  1.00  0.00    -0.297 OA
ENDROOT
BRANCH   1   6
HETATM    6  N5  UNL     1      24.754  -1.741  15.134  1.00  0.00    -0.277 N 
HETATM    7  C4  UNL     1      24.087  -1.960  13.967  1.00  0.00     0.190 A 
HETATM    8  N4  UNL     1      22.783  -1.984  14.197  1.00  0.00    -0.346 N 
HETATM    9  C3  UNL     1      22.540  -1.788  15.489  1.00  0.00     0.123 A 
ATOM     10  H4  UNL     1      22.068  -2.133  13.485  1.00  0.00     0.167 HD
HETATM   11  C2  UNL     1      21.377  -1.725  16.227  1.00  0.00     0.145 A 
HETATM   12  C13 UNL     1      23.802  -1.637  16.066  1.00  0.00     0.158 A 
HETATM   13  N2  UNL     1      21.529  -1.504  17.555  1.00  0.00    -0.175 N 
HETATM   14  N3  UNL     1      20.217  -1.860  15.726  1.00  0.00    -0.383 N 
HETATM   15  C1  UNL     1      22.751  -1.359  18.101  1.00  0.00     0.679 A 
ATOM     16  H2  UNL     1      20.703  -1.447  18.151  1.00  0.00     0.186 HD
HETATM   17  N8  UNL     1      23.892  -1.423  17.368  1.00  0.00    -0.174 N 
ATOM     18  H8  UNL     1      24.802  -1.310  17.813  1.00  0.00     0.186 HD
ATOM     19  H32 UNL     1      19.357  -1.813  16.272  1.00  0.00     0.157 HD
ATOM     20  H31 UNL     1      20.103  -2.026  14.726  1.00  0.00     0.157 HD
BRANCH  15  21
HETATM   21  N1  UNL     1      22.862  -1.149  19.380  1.00  0.00    -0.234 N 
ATOM     22  H12 UNL     1      22.004  -1.079  19.927  1.00  0.00     0.174 HD
ATOM     23  H11 UNL     1      23.788  -1.059  19.798  1.00  0.00     0.174 HD
ENDBRANCH  15  21
ENDBRANCH   1   6
BRANCH   3  24
HETATM   24  O2  UNL     1      28.862  -2.032  15.786  1.00  0.00    -0.353 OA
ATOM     25  H2  UNL     1      29.521  -1.570  15.281  1.00  0.00     0.213 HD
ENDBRANCH   3  24
BRANCH   3  26
HETATM   26  C7  UNL     1      28.428  -0.556  17.555  1.00  0.00     0.245 C 
HETATM   27  O3  UNL     1      29.636  -0.142  17.662  1.00  0.00    -0.644 OA
HETATM   28  O4  UNL     1      27.692  -0.502  18.693  1.00  0.00    -0.644 OA
ENDBRANCH   3  26
BRANCH   4  29
HETATM   29  N6  UNL     1      28.846   0.378  14.441  1.00  0.00    -0.310 N 
HETATM   30  C9  UNL     1      29.026   0.320  13.061  1.00  0.00     0.271 C 
HETATM   31  O5  UNL     1      28.088  -0.089  12.317  1.00  0.00    -0.266 OA
ATOM     32  H6  UNL     1      29.641   0.732  14.974  1.00  0.00     0.166 HD
BRANCH  30  33
HETATM   33  C10 UNL     1      30.266   0.715  12.417  1.00  0.00     0.122 C 
HETATM   34  N7  UNL     1      31.054   1.636  12.720  1.00  0.00    -0.266 N 
ATOM     35  H7  UNL     1      31.852   1.686  12.087  1.00  0.00     0.194 HD
BRANCH  33  36
HETATM   36  C11 UNL     1      30.647  -0.116  11.203  1.00  0.00     0.229 C 
BRANCH  36  37
HETATM   37  O6  UNL     1      30.730  -1.422  11.592  1.00  0.00    -0.395 OA
ATOM     38  H6  UNL     1      30.626  -1.967  10.821  1.00  0.00     0.209 HD
ENDBRANCH  36  37
ENDBRANCH  33  36
BRANCH  34  39
HETATM   39  O7  UNL     1      31.104   2.564  13.666  1.00  0.00    -0.290 OA
ATOM     40  H7  UNL     1      31.341   3.483  13.701  1.00  0.00     0.244 HD
ENDBRANCH  34  39
ENDBRANCH  30  33
ENDBRANCH   4  29
BRANCH   4  41
HETATM   41  C12 UNL     1      27.066   1.242  15.736  1.00  0.00     0.238 C 
HETATM   42  O8  UNL     1      25.888   1.581  15.383  1.00  0.00    -0.644 OA
HETATM   43  O9  UNL     1      27.688   2.100  16.618  1.00  0.00    -0.644 OA
ENDBRANCH   4  41
TORSDOF 10
ENDMDL
