MODEL 1
REMARK VINA RESULT: -7.808874817      0.000      0.000
REMARK  12 active torsions:
REMARK  status: ('A' for Active; 'I' for Inactive)
REMARK    1  A    between atoms: C5_12  and  C6_13 
REMARK    2  A    between atoms: N4_14  and  N5_16 
REMARK    3  A    between atoms: N5_16  and  C7_18 
REMARK    4  A    between atoms: C8_22  and  C9_23 
REMARK    5  A    between atoms: C9_23  and  N8_24 
REMARK    6  A    between atoms: C9_23  and  O2_28 
REMARK    7  A    between atoms: C10_32  and  C11_33 
REMARK    8  A    between atoms: C11_33  and  O3_34 
REMARK    9  A    between atoms: C11_33  and  C12_36 
REMARK   10  A    between atoms: C12_36  and  O4_37 
REMARK   11  A    between atoms: C12_36  and  C13_39 
REMARK   12  A    between atoms: C13_39  and  O5_40 
ROOT
HETATM    1  C13 UNL     1      23.477  -2.049  14.200  1.00  0.00     0.255 C 
HETATM    2  C14 UNL     1      23.165  -3.435  14.617  1.00  0.00     0.093 C 
HETATM    3  N10 UNL     1      22.926  -4.517  14.961  1.00  0.00    -0.194 NA
ENDROOT
BRANCH   1   4
HETATM    4  C12 UNL     1      24.463  -1.524  15.186  1.00  0.00     0.192 C 
BRANCH   4   5
HETATM    5  C11 UNL     1      25.870  -1.523  14.670  1.00  0.00     0.180 C 
BRANCH   5   6
HETATM    6  C10 UNL     1      26.627  -0.233  14.963  1.00  0.00     0.180 C 
HETATM    7  C7  UNL     1      27.451  -0.369  16.185  1.00  0.00     0.133 C 
HETATM    8  N6  UNL     1      28.674  -0.744  16.071  1.00  0.00    -0.288 N 
HETATM    9  N7  UNL     1      29.154  -0.986  14.778  1.00  0.00    -0.110 NA
ATOM     10  H6  UNL     1      29.271  -0.861  16.890  1.00  0.00     0.183 HD
HETATM   11  C8  UNL     1      28.763   0.086  13.842  1.00  0.00     0.249 C 
HETATM   12  N9  UNL     1      27.348   0.308  13.883  1.00  0.00    -0.386 N 
ATOM     13  H9  UNL     1      26.879   0.841  13.152  1.00  0.00     0.155 HD
BRANCH   7  14
HETATM   14  N5  UNL     1      26.869  -0.095  17.483  1.00  0.00    -0.287 N 
ATOM     15  H5  UNL     1      26.038   0.488  17.577  1.00  0.00     0.188 HD
BRANCH  14  16
HETATM   16  N4  UNL     1      27.477  -0.649  18.580  1.00  0.00    -0.307 N 
HETATM   17  C6  UNL     1      26.977  -1.582  19.262  1.00  0.00     0.155 C 
ATOM     18  H4  UNL     1      28.387  -0.283  18.860  1.00  0.00     0.186 HD
BRANCH  17  19
HETATM   19  C5  UNL     1      25.698  -2.168  18.951  1.00  0.00     0.125 A 
HETATM   20  N3  UNL     1      24.635  -1.327  18.818  1.00  0.00    -0.306 N 
HETATM   21  C4  UNL     1      23.395  -1.744  18.530  1.00  0.00     0.277 A 
ATOM     22  H3  UNL     1      24.791  -0.326  18.944  1.00  0.00     0.170 HD
HETATM   23  C3  UNL     1      23.128  -3.080  18.349  1.00  0.00     0.145 A 
HETATM   24  O1  UNL     1      22.423  -0.936  18.411  1.00  0.00    -0.266 OA
HETATM   25  N2  UNL     1      22.049  -3.818  18.063  1.00  0.00    -0.293 N 
HETATM   26  C15 UNL     1      24.204  -3.941  18.484  1.00  0.00     0.091 A 
HETATM   27  N1  UNL     1      22.367  -5.104  18.004  1.00  0.00    -0.302 N 
ATOM     28  H2  UNL     1      21.112  -3.444  17.912  1.00  0.00     0.187 HD
HETATM   29  C2  UNL     1      23.683  -5.206  18.259  1.00  0.00     0.051 A 
ATOM     30  H1  UNL     1      21.731  -5.874  17.803  1.00  0.00     0.186 HD
HETATM   31  C1  UNL     1      24.491  -6.456  18.303  1.00  0.00     0.072 C 
HETATM   32  N11 UNL     1      25.431  -3.464  18.775  1.00  0.00    -0.338 N 
ATOM     33  H11 UNL     1      26.198  -4.130  18.866  1.00  0.00     0.167 HD
ENDBRANCH  17  19
ENDBRANCH  14  16
ENDBRANCH   7  14
BRANCH  11  34
HETATM   34  C9  UNL     1      29.248  -0.150  12.454  1.00  0.00     0.356 C 
BRANCH  34  35
HETATM   35  N8  UNL     1      30.256  -1.186  12.493  1.00  0.00    -0.050 N 
ATOM     36  H83 UNL     1      30.458  -1.501  13.442  1.00  0.00     0.277 HD
ATOM     37  H82 UNL     1      29.920  -2.074  12.121  1.00  0.00     0.277 HD
ATOM     38  H81 UNL     1      31.086  -0.846  12.007  1.00  0.00     0.277 HD
ENDBRANCH  34  35
BRANCH  34  39
HETATM   39  O2  UNL     1      28.149  -0.500  11.660  1.00  0.00    -0.367 OA
ATOM     40  H2  UNL     1      28.473  -0.927  10.876  1.00  0.00     0.212 HD
ENDBRANCH  34  39
ENDBRANCH  11  34
ENDBRANCH   5   6
BRANCH   5  41
HETATM   41  O3  UNL     1      26.508  -2.580  15.392  1.00  0.00    -0.390 OA
ATOM     42  H3  UNL     1      26.586  -2.308  16.298  1.00  0.00     0.210 HD
ENDBRANCH   5  41
ENDBRANCH   4   5
BRANCH   4  43
HETATM   43  O4  UNL     1      24.092  -0.338  15.804  1.00  0.00    -0.389 OA
ATOM     44  H4  UNL     1      23.168  -0.292  16.021  1.00  0.00     0.210 HD
ENDBRANCH   4  43
ENDBRANCH   1   4
BRANCH   1  45
HETATM   45  O5  UNL     1      22.260  -1.343  14.360  1.00  0.00    -0.379 OA
ATOM     46  H5  UNL     1      22.425  -0.572  14.889  1.00  0.00     0.211 HD
ENDBRANCH   1  45
TORSDOF 12
ENDMDL
MODEL 2
REMARK VINA RESULT: -7.520070892      2.665      8.037
REMARK  12 active torsions:
REMARK  status: ('A' for Active; 'I' for Inactive)
REMARK    1  A    between atoms: C5_12  and  C6_13 
REMARK    2  A    between atoms: N4_14  and  N5_16 
REMARK    3  A    between atoms: N5_16  and  C7_18 
REMARK    4  A    between atoms: C8_22  and  C9_23 
REMARK    5  A    between atoms: C9_23  and  N8_24 
REMARK    6  A    between atoms: C9_23  and  O2_28 
REMARK    7  A    between atoms: C10_32  and  C11_33 
REMARK    8  A    between atoms: C11_33  and  O3_34 
REMARK    9  A    between atoms: C11_33  and  C12_36 
REMARK   10  A    between atoms: C12_36  and  O4_37 
REMARK   11  A    between atoms: C12_36  and  C13_39 
REMARK   12  A    between atoms: C13_39  and  O5_40 
ROOT
HETATM    1  C13 UNL     1      29.542   0.157  17.116  1.00  0.00     0.255 C 
HETATM    2  C14 UNL     1      30.281   1.424  16.917  1.00  0.00     0.093 C 
HETATM    3  N10 UNL     1      30.844   2.427  16.760  1.00  0.00    -0.194 NA
ENDROOT
BRANCH   1   4
HETATM    4  C12 UNL     1      28.152   0.399  16.635  1.00  0.00     0.192 C 
BRANCH   4   5
HETATM    5  C11 UNL     1      27.365  -0.863  16.446  1.00  0.00     0.180 C 
BRANCH   5   6
HETATM    6  C10 UNL     1      25.910  -0.622  16.064  1.00  0.00     0.180 C 
HETATM    7  C7  UNL     1      25.495  -1.522  14.965  1.00  0.00     0.133 C 
HETATM    8  N6  UNL     1      24.952  -2.650  15.255  1.00  0.00    -0.288 N 
HETATM    9  N7  UNL     1      24.772  -2.945  16.612  1.00  0.00    -0.110 NA
ATOM     10  H6  UNL     1      24.664  -3.303  14.527  1.00  0.00     0.183 HD
HETATM   11  C8  UNL     1      24.210  -1.797  17.350  1.00  0.00     0.249 C 
HETATM   12  N9  UNL     1      24.993  -0.617  17.131  1.00  0.00    -0.386 N 
ATOM     13  H9  UNL     1      24.889   0.201  17.730  1.00  0.00     0.155 HD
BRANCH   7  14
HETATM   14  N5  UNL     1      25.720  -1.132  13.588  1.00  0.00    -0.287 N 
ATOM     15  H5  UNL     1      26.163  -0.244  13.356  1.00  0.00     0.188 HD
BRANCH  14  16
HETATM   16  N4  UNL     1      25.316  -2.002  12.608  1.00  0.00    -0.307 N 
HETATM   17  C6  UNL     1      26.003  -2.279  11.590  1.00  0.00     0.155 C 
ATOM     18  H4  UNL     1      24.406  -2.450  12.709  1.00  0.00     0.186 HD
BRANCH  17  19
HETATM   19  C5  UNL     1      27.302  -1.702  11.352  1.00  0.00     0.125 A 
HETATM   20  N3  UNL     1      27.875  -0.999  12.369  1.00  0.00    -0.306 N 
HETATM   21  C4  UNL     1      29.077  -0.415  12.277  1.00  0.00     0.277 A 
ATOM     22  H3  UNL     1      27.362  -0.913  13.247  1.00  0.00     0.170 HD
HETATM   23  C3  UNL     1      29.811  -0.498  11.118  1.00  0.00     0.145 A 
HETATM   24  O1  UNL     1      29.586   0.234  13.242  1.00  0.00    -0.266 OA
HETATM   25  N2  UNL     1      31.000  -0.052  10.696  1.00  0.00    -0.293 N 
HETATM   26  C15 UNL     1      29.235  -1.210  10.081  1.00  0.00     0.091 A 
HETATM   27  N1  UNL     1      31.224  -0.436   9.447  1.00  0.00    -0.302 N 
ATOM     28  H2  UNL     1      31.644   0.506  11.256  1.00  0.00     0.187 HD
HETATM   29  C2  UNL     1      30.156  -1.147   9.046  1.00  0.00     0.051 A 
ATOM     30  H1  UNL     1      32.053  -0.230   8.891  1.00  0.00     0.186 HD
HETATM   31  C1  UNL     1      29.953  -1.783   7.715  1.00  0.00     0.072 C 
HETATM   32  N11 UNL     1      28.021  -1.778  10.230  1.00  0.00    -0.338 N 
ATOM     33  H11 UNL     1      27.630  -2.294   9.442  1.00  0.00     0.167 HD
ENDBRANCH  17  19
ENDBRANCH  14  16
ENDBRANCH   7  14
BRANCH  11  34
HETATM   34  C9  UNL     1      24.019  -2.075  18.800  1.00  0.00     0.356 C 
BRANCH  34  35
HETATM   35  N8  UNL     1      25.245  -1.744  19.492  1.00  0.00    -0.050 N 
ATOM     36  H83 UNL     1      26.076  -1.943  18.936  1.00  0.00     0.277 HD
ATOM     37  H82 UNL     1      25.380  -0.738  19.590  1.00  0.00     0.277 HD
ATOM     38  H81 UNL     1      25.248  -2.229  20.390  1.00  0.00     0.277 HD
ENDBRANCH  34  35
BRANCH  34  39
HETATM   39  O2  UNL     1      22.928  -1.322  19.250  1.00  0.00    -0.367 OA
ATOM     40  H2  UNL     1      23.217  -0.788  19.981  1.00  0.00     0.212 HD
ENDBRANCH  34  39
ENDBRANCH  11  34
ENDBRANCH   5   6
BRANCH   5  41
HETATM   41  O3  UNL     1      28.006  -1.513  15.346  1.00  0.00    -0.390 OA
ATOM     42  H3  UNL     1      28.522  -0.864  14.884  1.00  0.00     0.210 HD
ENDBRANCH   5  41
ENDBRANCH   4   5
BRANCH   4  43
HETATM   43  O4  UNL     1      27.465   1.392  17.319  1.00  0.00    -0.389 OA
ATOM     44  H4  UNL     1      28.028   2.058  17.697  1.00  0.00     0.210 HD
ENDBRANCH   4  43
ENDBRANCH   1   4
BRANCH   1  45
HETATM   45  O5  UNL     1      29.508  -0.023  18.521  1.00  0.00    -0.379 OA
ATOM     46  H5  UNL     1      30.212  -0.610  18.768  1.00  0.00     0.211 HD
ENDBRANCH   1  45
TORSDOF 12
ENDMDL
MODEL 3
REMARK VINA RESULT: -7.469118566      3.396      6.433
REMARK  12 active torsions:
REMARK  status: ('A' for Active; 'I' for Inactive)
REMARK    1  A    between atoms: C5_12  and  C6_13 
REMARK    2  A    between atoms: N4_14  and  N5_16 
REMARK    3  A    between atoms: N5_16  and  C7_18 
REMARK    4  A    between atoms: C8_22  and  C9_23 
REMARK    5  A    between atoms: C9_23  and  N8_24 
REMARK    6  A    between atoms: C9_23  and  O2_28 
REMARK    7  A    between atoms: C10_32  and  C11_33 
REMARK    8  A    between atoms: C11_33  and  O3_34 
REMARK    9  A    between atoms: C11_33  and  C12_36 
REMARK   10  A    between atoms: C12_36  and  O4_37 
REMARK   11  A    between atoms: C12_36  and  C13_39 
REMARK   12  A    between atoms: C13_39  and  O5_40 
ROOT
HETATM    1  C13 UNL     1      25.930  -0.468  15.589  1.00  0.00     0.255 C 
HETATM    2  C14 UNL     1      26.542   0.835  15.935  1.00  0.00     0.093 C 
HETATM    3  N10 UNL     1      27.029   1.849  16.221  1.00  0.00    -0.194 NA
ENDROOT
BRANCH   1   4
HETATM    4  C12 UNL     1      25.917  -1.274  16.843  1.00  0.00     0.192 C 
BRANCH   4   5
HETATM    5  C11 UNL     1      24.841  -2.318  16.862  1.00  0.00     0.180 C 
BRANCH   5   6
HETATM    6  C10 UNL     1      23.985  -2.288  18.122  1.00  0.00     0.180 C 
HETATM    7  C7  UNL     1      23.436  -3.629  18.422  1.00  0.00     0.133 C 
HETATM    8  N6  UNL     1      24.090  -4.407  19.208  1.00  0.00    -0.288 N 
HETATM    9  N7  UNL     1      25.285  -3.916  19.749  1.00  0.00    -0.110 NA
ATOM     10  H6  UNL     1      23.752  -5.343  19.430  1.00  0.00     0.183 HD
HETATM   11  C8  UNL     1      25.128  -2.538  20.255  1.00  0.00     0.249 C 
HETATM   12  N9  UNL     1      24.576  -1.684  19.246  1.00  0.00    -0.386 N 
ATOM     13  H9  UNL     1      24.611  -0.670  19.340  1.00  0.00     0.155 HD
BRANCH   7  14
HETATM   14  N5  UNL     1      22.190  -4.053  17.816  1.00  0.00    -0.287 N 
ATOM     15  H5  UNL     1      21.393  -4.334  18.388  1.00  0.00     0.188 HD
BRANCH  14  16
HETATM   16  N4  UNL     1      22.120  -4.061  16.447  1.00  0.00    -0.307 N 
HETATM   17  C6  UNL     1      21.750  -5.056  15.770  1.00  0.00     0.155 C 
ATOM     18  H4  UNL     1      22.383  -3.211  15.948  1.00  0.00     0.186 HD
BRANCH  17  19
HETATM   19  C5  UNL     1      21.356  -6.302  16.377  1.00  0.00     0.125 A 
HETATM   20  N3  UNL     1      22.332  -7.225  16.609  1.00  0.00    -0.306 N 
HETATM   21  C4  UNL     1      22.098  -8.420  17.167  1.00  0.00     0.277 A 
ATOM     22  H3  UNL     1      23.289  -6.994  16.343  1.00  0.00     0.170 HD
HETATM   23  C3  UNL     1      20.828  -8.783  17.544  1.00  0.00     0.145 A 
HETATM   24  O1  UNL     1      23.027  -9.261  17.372  1.00  0.00    -0.266 OA
HETATM   25  N2  UNL     1      20.258  -9.856  18.107  1.00  0.00    -0.293 N 
HETATM   26  C15 UNL     1      19.832  -7.851  17.311  1.00  0.00     0.091 A 
HETATM   27  N1  UNL     1      18.954  -9.667  18.251  1.00  0.00    -0.302 N 
ATOM     28  H2  UNL     1      20.757 -10.700  18.386  1.00  0.00     0.187 HD
HETATM   29  C2  UNL     1      18.667  -8.445  17.770  1.00  0.00     0.051 A 
ATOM     30  H1  UNL     1      18.289 -10.328  18.653  1.00  0.00     0.186 HD
HETATM   31  C1  UNL     1      17.328  -7.796  17.719  1.00  0.00     0.072 C 
HETATM   32  N11 UNL     1      20.125  -6.662  16.745  1.00  0.00    -0.338 N 
ATOM     33  H11 UNL     1      19.364  -6.002  16.590  1.00  0.00     0.167 HD
ENDBRANCH  17  19
ENDBRANCH  14  16
ENDBRANCH   7  14
BRANCH  11  34
HETATM   34  C9  UNL     1      26.387  -1.983  20.825  1.00  0.00     0.356 C 
BRANCH  34  35
HETATM   35  N8  UNL     1      26.861  -0.936  19.948  1.00  0.00    -0.050 N 
ATOM     36  H83 UNL     1      26.225  -0.757  19.171  1.00  0.00     0.277 HD
ATOM     37  H82 UNL     1      26.817  -0.013  20.379  1.00  0.00     0.277 HD
ATOM     38  H81 UNL     1      27.802  -1.179  19.637  1.00  0.00     0.277 HD
ENDBRANCH  34  35
BRANCH  34  39
HETATM   39  O2  UNL     1      26.114  -1.517  22.118  1.00  0.00    -0.367 OA
ATOM     40  H2  UNL     1      25.887  -0.596  22.059  1.00  0.00     0.212 HD
ENDBRANCH  34  39
ENDBRANCH  11  34
ENDBRANCH   5   6
BRANCH   5  41
HETATM   41  O3  UNL     1      24.005  -1.977  15.754  1.00  0.00    -0.390 OA
ATOM     42  H3  UNL     1      23.521  -2.755  15.504  1.00  0.00     0.210 HD
ENDBRANCH   5  41
ENDBRANCH   4   5
BRANCH   4  43
HETATM   43  O4  UNL     1      27.160  -1.742  17.246  1.00  0.00    -0.389 OA
ATOM     44  H4  UNL     1      27.176  -2.672  17.440  1.00  0.00     0.210 HD
ENDBRANCH   4  43
ENDBRANCH   1   4
BRANCH   1  45
HETATM   45  O5  UNL     1      26.840  -1.062  14.681  1.00  0.00    -0.379 OA
ATOM     46  H5  UNL     1      27.015  -0.445  13.981  1.00  0.00     0.211 HD
ENDBRANCH   1  45
TORSDOF 12
ENDMDL
MODEL 4
REMARK VINA RESULT: -7.421416934      2.309      4.130
REMARK  12 active torsions:
REMARK  status: ('A' for Active; 'I' for Inactive)
REMARK    1  A    between atoms: C5_12  and  C6_13 
REMARK    2  A    between atoms: N4_14  and  N5_16 
REMARK    3  A    between atoms: N5_16  and  C7_18 
REMARK    4  A    between atoms: C8_22  and  C9_23 
REMARK    5  A    between atoms: C9_23  and  N8_24 
REMARK    6  A    between atoms: C9_23  and  O2_28 
REMARK    7  A    between atoms: C10_32  and  C11_33 
REMARK    8  A    between atoms: C11_33  and  O3_34 
REMARK    9  A    between atoms: C11_33  and  C12_36 
REMARK   10  A    between atoms: C12_36  and  O4_37 
REMARK   11  A    between atoms: C12_36  and  C13_39 
REMARK   12  A    between atoms: C13_39  and  O5_40 
ROOT
HETATM    1  C13 UNL     1      29.206  -0.193  17.748  1.00  0.00     0.255 C 
HETATM    2  C14 UNL     1      30.180   0.896  17.506  1.00  0.00     0.093 C 
HETATM    3  N10 UNL     1      30.929   1.762  17.317  1.00  0.00    -0.194 NA
ENDROOT
BRANCH   1   4
HETATM    4  C12 UNL     1      27.872   0.338  17.350  1.00  0.00     0.192 C 
BRANCH   4   5
HETATM    5  C11 UNL     1      27.763   0.621  15.882  1.00  0.00     0.180 C 
BRANCH   5   6
HETATM    6  C10 UNL     1      27.691  -0.634  15.022  1.00  0.00     0.180 C 
HETATM    7  C7  UNL     1      26.355  -0.774  14.400  1.00  0.00     0.133 C 
HETATM    8  N6  UNL     1      26.160  -0.285  13.229  1.00  0.00    -0.288 N 
HETATM    9  N7  UNL     1      27.247   0.342  12.605  1.00  0.00    -0.110 NA
ATOM     10  H6  UNL     1      25.251  -0.350  12.771  1.00  0.00     0.183 HD
HETATM   11  C8  UNL     1      28.481  -0.459  12.727  1.00  0.00     0.249 C 
HETATM   12  N9  UNL     1      28.737  -0.797  14.095  1.00  0.00    -0.386 N 
ATOM     13  H9  UNL     1      29.649  -1.145  14.388  1.00  0.00     0.155 HD
BRANCH   7  14
HETATM   14  N5  UNL     1      25.289  -1.440  15.120  1.00  0.00    -0.287 N 
ATOM     15  H5  UNL     1      25.291  -2.452  15.250  1.00  0.00     0.188 HD
BRANCH  14  16
HETATM   16  N4  UNL     1      24.279  -0.661  15.622  1.00  0.00    -0.307 N 
HETATM   17  C6  UNL     1      23.522  -1.016  16.564  1.00  0.00     0.155 C 
ATOM     18  H4  UNL     1      24.132   0.259  15.208  1.00  0.00     0.186 HD
BRANCH  17  19
HETATM   19  C5  UNL     1      23.646  -2.294  17.217  1.00  0.00     0.125 A 
HETATM   20  N3  UNL     1      24.275  -2.325  18.426  1.00  0.00    -0.306 N 
HETATM   21  C4  UNL     1      24.453  -3.447  19.136  1.00  0.00     0.277 A 
ATOM     22  H3  UNL     1      24.627  -1.448  18.811  1.00  0.00     0.170 HD
HETATM   23  C3  UNL     1      23.999  -4.655  18.666  1.00  0.00     0.145 A 
HETATM   24  O1  UNL     1      25.043  -3.445  20.261  1.00  0.00    -0.266 OA
HETATM   25  N2  UNL     1      24.007  -5.923  19.097  1.00  0.00    -0.293 N 
HETATM   26  C15 UNL     1      23.360  -4.631  17.438  1.00  0.00     0.091 A 
HETATM   27  N1  UNL     1      23.409  -6.716  18.218  1.00  0.00    -0.302 N 
ATOM     28  H2  UNL     1      24.416  -6.235  19.977  1.00  0.00     0.187 HD
HETATM   29  C2  UNL     1      23.004  -5.948  17.192  1.00  0.00     0.051 A 
ATOM     30  H1  UNL     1      23.281  -7.723  18.305  1.00  0.00     0.186 HD
HETATM   31  C1  UNL     1      22.286  -6.399  15.967  1.00  0.00     0.072 C 
HETATM   32  N11 UNL     1      23.208  -3.471  16.767  1.00  0.00    -0.338 N 
ATOM     33  H11 UNL     1      22.732  -3.495  15.866  1.00  0.00     0.167 HD
ENDBRANCH  17  19
ENDBRANCH  14  16
ENDBRANCH   7  14
BRANCH  11  34
HETATM   34  C9  UNL     1      29.658   0.187  12.084  1.00  0.00     0.356 C 
BRANCH  34  35
HETATM   35  N8  UNL     1      30.170   1.197  12.984  1.00  0.00    -0.050 N 
ATOM     36  H83 UNL     1      30.446   0.814  13.888  1.00  0.00     0.277 HD
ATOM     37  H82 UNL     1      31.084   1.550  12.699  1.00  0.00     0.277 HD
ATOM     38  H81 UNL     1      29.473   1.937  13.068  1.00  0.00     0.277 HD
ENDBRANCH  34  35
BRANCH  34  39
HETATM   39  O2  UNL     1      30.602  -0.807  11.800  1.00  0.00    -0.367 OA
ATOM     40  H2  UNL     1      31.469  -0.443  11.942  1.00  0.00     0.212 HD
ENDBRANCH  34  39
ENDBRANCH  11  34
ENDBRANCH   5   6
BRANCH   5  41
HETATM   41  O3  UNL     1      26.519   1.315  15.752  1.00  0.00    -0.390 OA
ATOM     42  H3  UNL     1      26.190   1.489  16.625  1.00  0.00     0.210 HD
ENDBRANCH   5  41
ENDBRANCH   4   5
BRANCH   4  43
HETATM   43  O4  UNL     1      26.791  -0.361  17.868  1.00  0.00    -0.389 OA
ATOM     44  H4  UNL     1      26.834  -1.299  17.722  1.00  0.00     0.210 HD
ENDBRANCH   4  43
ENDBRANCH   1   4
BRANCH   1  45
HETATM   45  O5  UNL     1      29.217  -0.379  19.152  1.00  0.00    -0.379 OA
ATOM     46  H5  UNL     1      29.946  -0.945  19.377  1.00  0.00     0.211 HD
ENDBRANCH   1  45
TORSDOF 12
ENDMDL
MODEL 5
REMARK VINA RESULT: -7.410020431      2.713      4.746
REMARK  12 active torsions:
REMARK  status: ('A' for Active; 'I' for Inactive)
REMARK    1  A    between atoms: C5_12  and  C6_13 
REMARK    2  A    between atoms: N4_14  and  N5_16 
REMARK    3  A    between atoms: N5_16  and  C7_18 
REMARK    4  A    between atoms: C8_22  and  C9_23 
REMARK    5  A    between atoms: C9_23  and  N8_24 
REMARK    6  A    between atoms: C9_23  and  O2_28 
REMARK    7  A    between atoms: C10_32  and  C11_33 
REMARK    8  A    between atoms: C11_33  and  O3_34 
REMARK    9  A    between atoms: C11_33  and  C12_36 
REMARK   10  A    between atoms: C12_36  and  O4_37 
REMARK   11  A    between atoms: C12_36  and  C13_39 
REMARK   12  A    between atoms: C13_39  and  O5_40 
ROOT
HETATM    1  C13 UNL     1      25.245  -2.566  19.640  1.00  0.00     0.255 C 
HETATM    2  C14 UNL     1      26.009  -2.178  20.848  1.00  0.00     0.093 C 
HETATM    3  N10 UNL     1      26.615  -1.860  21.785  1.00  0.00    -0.194 NA
ENDROOT
BRANCH   1   4
HETATM    4  C12 UNL     1      25.989  -2.011  18.474  1.00  0.00     0.192 C 
BRANCH   4   5
HETATM    5  C11 UNL     1      25.190  -2.016  17.207  1.00  0.00     0.180 C 
BRANCH   5   6
HETATM    6  C10 UNL     1      26.028  -2.257  15.957  1.00  0.00     0.180 C 
HETATM    7  C7  UNL     1      25.188  -2.210  14.739  1.00  0.00     0.133 C 
HETATM    8  N6  UNL     1      25.062  -1.095  14.113  1.00  0.00    -0.288 N 
HETATM    9  N7  UNL     1      25.752   0.011  14.626  1.00  0.00    -0.110 NA
ATOM     10  H6  UNL     1      24.483  -1.019  13.277  1.00  0.00     0.183 HD
HETATM   11  C8  UNL     1      27.145  -0.331  14.975  1.00  0.00     0.249 C 
HETATM   12  N9  UNL     1      27.188  -1.471  15.842  1.00  0.00    -0.386 N 
ATOM     13  H9  UNL     1      28.035  -1.705  16.360  1.00  0.00     0.155 HD
BRANCH   7  14
HETATM   14  N5  UNL     1      24.511  -3.406  14.281  1.00  0.00    -0.287 N 
ATOM     15  H5  UNL     1      23.493  -3.457  14.246  1.00  0.00     0.188 HD
BRANCH  14  16
HETATM   16  N4  UNL     1      25.289  -4.467  13.896  1.00  0.00    -0.307 N 
HETATM   17  C6  UNL     1      25.146  -5.638  14.339  1.00  0.00     0.155 C 
ATOM     18  H4  UNL     1      26.026  -4.299  13.212  1.00  0.00     0.186 HD
BRANCH  17  19
HETATM   19  C5  UNL     1      24.136  -5.981  15.307  1.00  0.00     0.125 A 
HETATM   20  N3  UNL     1      24.448  -5.827  16.625  1.00  0.00    -0.306 N 
HETATM   21  C4  UNL     1      23.599  -6.109  17.622  1.00  0.00     0.277 A 
ATOM     22  H3  UNL     1      25.376  -5.478  16.865  1.00  0.00     0.170 HD
HETATM   23  C3  UNL     1      22.336  -6.581  17.357  1.00  0.00     0.145 A 
HETATM   24  O1  UNL     1      23.917  -5.954  18.841  1.00  0.00    -0.266 OA
HETATM   25  N2  UNL     1      21.273  -6.951  18.081  1.00  0.00    -0.293 N 
HETATM   26  C15 UNL     1      22.013  -6.742  16.020  1.00  0.00     0.091 A 
HETATM   27  N1  UNL     1      20.283  -7.339  17.288  1.00  0.00    -0.302 N 
ATOM     28  H2  UNL     1      21.229  -6.937  19.099  1.00  0.00     0.187 HD
HETATM   29  C2  UNL     1      20.712  -7.220  16.020  1.00  0.00     0.051 A 
ATOM     30  H1  UNL     1      19.365  -7.667  17.585  1.00  0.00     0.186 HD
HETATM   31  C1  UNL     1      19.946  -7.540  14.783  1.00  0.00     0.072 C 
HETATM   32  N11 UNL     1      22.909  -6.441  15.058  1.00  0.00    -0.338 N 
ATOM     33  H11 UNL     1      22.632  -6.573  14.085  1.00  0.00     0.167 HD
ENDBRANCH  17  19
ENDBRANCH  14  16
ENDBRANCH   7  14
BRANCH  11  34
HETATM   34  C9  UNL     1      27.902   0.822  15.536  1.00  0.00     0.356 C 
BRANCH  34  35
HETATM   35  N8  UNL     1      27.093   1.442  16.562  1.00  0.00    -0.050 N 
ATOM     36  H83 UNL     1      27.646   1.997  17.216  1.00  0.00     0.277 HD
ATOM     37  H82 UNL     1      26.510   2.196  16.199  1.00  0.00     0.277 HD
ATOM     38  H81 UNL     1      26.550   0.715  17.026  1.00  0.00     0.277 HD
ENDBRANCH  34  35
BRANCH  34  39
HETATM   39  O2  UNL     1      29.123   0.345  16.030  1.00  0.00    -0.367 OA
ATOM     40  H2  UNL     1      29.040   0.237  16.970  1.00  0.00     0.212 HD
ENDBRANCH  34  39
ENDBRANCH  11  34
ENDBRANCH   5   6
BRANCH   5  41
HETATM   41  O3  UNL     1      24.300  -3.125  17.359  1.00  0.00    -0.390 OA
ATOM     42  H3  UNL     1      24.303  -3.378  18.275  1.00  0.00     0.210 HD
ENDBRANCH   5  41
ENDBRANCH   4   5
BRANCH   4  43
HETATM   43  O4  UNL     1      26.643  -0.812  18.720  1.00  0.00    -0.389 OA
ATOM     44  H4  UNL     1      26.881  -0.684  19.631  1.00  0.00     0.210 HD
ENDBRANCH   4  43
ENDBRANCH   1   4
BRANCH   1  45
HETATM   45  O5  UNL     1      24.013  -1.878  19.757  1.00  0.00    -0.379 OA
ATOM     46  H5  UNL     1      24.042  -1.336  20.536  1.00  0.00     0.211 HD
ENDBRANCH   1  45
TORSDOF 12
ENDMDL
