MODEL 1
REMARK VINA RESULT: -8.717547418      0.000      0.000
REMARK  7 active torsions:
REMARK  status: ('A' for Active; 'I' for Inactive)
REMARK    1  A    between atoms: C14_14  and  N1_15 
REMARK    2  A    between atoms: N1_15  and  C15_18 
REMARK    3  A    between atoms: C15_18  and  C16_19 
REMARK    4  A    between atoms: C16_19  and  C17_20 
REMARK    5  A    between atoms: C17_20  and  N2_21 
REMARK    6  A    between atoms: C22_29  and  O1_30 
REMARK    7  A    between atoms: C28_37  and  O2_38 
ROOT
HETATM    1  C1  UNL     1       8.044  41.892  23.522  1.00  0.00     0.014 C 
HETATM    2  C2  UNL     1       8.327  40.924  22.644  1.00  0.00    -0.084 C 
HETATM    3  C3  UNL     1       8.868  39.718  23.216  1.00  0.00     0.034 C 
HETATM    4  C4  UNL     1       7.852  38.640  23.364  1.00  0.00     0.010 C 
HETATM    5  C5  UNL     1       6.436  39.006  23.560  1.00  0.00     0.002 C 
HETATM    6  C6  UNL     1       5.654  39.243  22.319  1.00  0.00     0.002 C 
HETATM    7  C7  UNL     1       4.248  39.678  22.694  1.00  0.00    -0.007 C 
HETATM    8  C8  UNL     1       4.217  40.759  23.732  1.00  0.00     0.006 C 
HETATM    9  C9  UNL     1       4.471  40.212  25.046  1.00  0.00     0.010 C 
HETATM   10  C10 UNL     1       4.722  38.771  25.292  1.00  0.00    -0.034 C 
HETATM   11  C11 UNL     1       3.393  38.053  25.540  1.00  0.00     0.016 C 
HETATM   12  C12 UNL     1       5.377  38.828  26.695  1.00  0.00     0.012 C 
HETATM   13  C13 UNL     1       6.809  38.314  26.427  1.00  0.00     0.034 C 
HETATM   14  C14 UNL     1       6.372  37.267  25.475  1.00  0.00     0.195 C 
HETATM   15  C19 UNL     1       5.641  37.996  24.400  1.00  0.00    -0.004 C 
HETATM   16  C20 UNL     1       5.135  36.859  23.630  1.00  0.00     0.018 C 
HETATM   17  C21 UNL     1       3.595  40.232  21.446  1.00  0.00     0.037 C 
HETATM   18  C22 UNL     1       4.663  39.804  20.419  1.00  0.00     0.123 C 
HETATM   19  C23 UNL     1       5.900  40.175  21.271  1.00  0.00     0.028 C 
HETATM   20  C24 UNL     1       7.113  40.416  20.494  1.00  0.00    -0.030 C 
HETATM   21  C25 UNL     1       6.752  41.372  19.316  1.00  0.00     0.016 C 
HETATM   22  C26 UNL     1       7.741  39.304  19.748  1.00  0.00     0.013 C 
HETATM   23  C27 UNL     1       8.845  39.849  18.852  1.00  0.00     0.032 C 
HETATM   24  C28 UNL     1       9.866  40.578  19.669  1.00  0.00     0.118 C 
HETATM   25  C29 UNL     1       9.324  41.635  20.549  1.00  0.00     0.041 C 
HETATM   26  C30 UNL     1       8.043  41.318  21.270  1.00  0.00     0.025 C 
ENDROOT
BRANCH  14  27
HETATM   27  N1  UNL     1       7.198  36.170  25.256  1.00  0.00    -0.070 N 
ATOM     28  H12 UNL     1       6.666  35.359  24.938  1.00  0.00     0.277 HD
ATOM     29  H11 UNL     1       7.787  36.303  24.434  1.00  0.00     0.277 HD
BRANCH  27  30
HETATM   30  C15 UNL     1       7.984  35.864  26.430  1.00  0.00     0.234 C 
BRANCH  30  31
HETATM   31  C16 UNL     1       9.139  34.962  26.243  1.00  0.00     0.047 C 
BRANCH  31  32
HETATM   32  C17 UNL     1       9.524  34.282  27.541  1.00  0.00     0.123 C 
BRANCH  32  33
HETATM   33  N2  UNL     1       9.657  32.851  27.378  1.00  0.00    -0.367 N 
HETATM   34  C18 UNL     1      10.015  32.047  28.294  1.00  0.00     0.196 C 
HETATM   35  N3  UNL     1      10.099  30.661  27.968  1.00  0.00    -0.067 NA
HETATM   36  N4  UNL     1      10.340  32.451  29.630  1.00  0.00    -0.067 NA
ATOM     37  H2  UNL     1       9.449  32.459  26.460  1.00  0.00     0.161 HD
ENDBRANCH  32  33
ENDBRANCH  31  32
ENDBRANCH  30  31
ENDBRANCH  27  30
ENDBRANCH  14  27
BRANCH  18  38
HETATM   38  O1  UNL     1       4.364  40.508  19.343  1.00  0.00    -0.395 OA
ATOM     39  H1  UNL     1       3.949  39.878  18.767  1.00  0.00     0.210 HD
ENDBRANCH  18  38
BRANCH  24  40
HETATM   40  O2  UNL     1      10.742  41.204  18.750  1.00  0.00    -0.396 OA
ATOM     41  H2  UNL     1      11.502  40.639  18.676  1.00  0.00     0.210 HD
ENDBRANCH  24  40
TORSDOF 7
ENDMDL
MODEL 2
REMARK VINA RESULT: -8.386334683      1.501      2.023
REMARK  7 active torsions:
REMARK  status: ('A' for Active; 'I' for Inactive)
REMARK    1  A    between atoms: C14_14  and  N1_15 
REMARK    2  A    between atoms: N1_15  and  C15_18 
REMARK    3  A    between atoms: C15_18  and  C16_19 
REMARK    4  A    between atoms: C16_19  and  C17_20 
REMARK    5  A    between atoms: C17_20  and  N2_21 
REMARK    6  A    between atoms: C22_29  and  O1_30 
REMARK    7  A    between atoms: C28_37  and  O2_38 
ROOT
HETATM    1  C1  UNL     1       5.226  41.997  24.267  1.00  0.00     0.014 C 
HETATM    2  C2  UNL     1       6.141  41.316  23.568  1.00  0.00    -0.084 C 
HETATM    3  C3  UNL     1       7.010  40.478  24.353  1.00  0.00     0.034 C 
HETATM    4  C4  UNL     1       6.610  39.045  24.329  1.00  0.00     0.010 C 
HETATM    5  C5  UNL     1       5.189  38.696  24.134  1.00  0.00     0.002 C 
HETATM    6  C6  UNL     1       4.737  38.599  22.722  1.00  0.00     0.002 C 
HETATM    7  C7  UNL     1       3.247  38.308  22.697  1.00  0.00    -0.007 C 
HETATM    8  C8  UNL     1       2.451  39.199  23.604  1.00  0.00     0.006 C 
HETATM    9  C9  UNL     1       2.581  38.772  24.979  1.00  0.00     0.010 C 
HETATM   10  C10 UNL     1       3.397  37.606  25.395  1.00  0.00    -0.034 C 
HETATM   11  C11 UNL     1       2.539  36.339  25.360  1.00  0.00     0.016 C 
HETATM   12  C12 UNL     1       3.564  37.895  26.908  1.00  0.00     0.012 C 
HETATM   13  C13 UNL     1       5.085  38.124  27.049  1.00  0.00     0.034 C 
HETATM   14  C14 UNL     1       5.445  37.040  26.105  1.00  0.00     0.195 C 
HETATM   15  C19 UNL     1       4.766  37.393  24.827  1.00  0.00    -0.004 C 
HETATM   16  C20 UNL     1       5.062  36.190  24.049  1.00  0.00     0.018 C 
HETATM   17  C21 UNL     1       2.759  38.551  21.285  1.00  0.00     0.037 C 
HETATM   18  C22 UNL     1       4.128  38.721  20.595  1.00  0.00     0.123 C 
HETATM   19  C23 UNL     1       4.785  39.587  21.697  1.00  0.00     0.028 C 
HETATM   20  C24 UNL     1       5.903  40.403  21.231  1.00  0.00    -0.030 C 
HETATM   21  C25 UNL     1       5.458  41.134  19.928  1.00  0.00     0.016 C 
HETATM   22  C26 UNL     1       7.143  39.750  20.759  1.00  0.00     0.013 C 
HETATM   23  C27 UNL     1       8.058  40.790  20.126  1.00  0.00     0.032 C 
HETATM   24  C28 UNL     1       8.375  41.872  21.111  1.00  0.00     0.118 C 
HETATM   25  C29 UNL     1       7.199  42.510  21.739  1.00  0.00     0.041 C 
HETATM   26  C30 UNL     1       6.074  41.597  22.140  1.00  0.00     0.025 C 
ENDROOT
BRANCH  14  27
HETATM   27  N1  UNL     1       6.709  36.468  26.189  1.00  0.00    -0.070 N 
ATOM     28  H12 UNL     1       6.656  35.452  26.269  1.00  0.00     0.277 HD
ATOM     29  H11 UNL     1       7.208  36.530  25.301  1.00  0.00     0.277 HD
BRANCH  27  30
HETATM   30  C15 UNL     1       7.476  37.048  27.270  1.00  0.00     0.234 C 
BRANCH  30  31
HETATM   31  C16 UNL     1       7.781  36.169  28.418  1.00  0.00     0.047 C 
BRANCH  31  32
HETATM   32  C17 UNL     1       9.239  35.760  28.428  1.00  0.00     0.123 C 
BRANCH  32  33
HETATM   33  N2  UNL     1       9.401  34.345  28.172  1.00  0.00    -0.367 N 
HETATM   34  C18 UNL     1       9.535  33.826  27.021  1.00  0.00     0.196 C 
HETATM   35  N3  UNL     1       9.683  32.410  26.941  1.00  0.00    -0.067 NA
HETATM   36  N4  UNL     1       9.544  34.580  25.802  1.00  0.00    -0.067 NA
ATOM     37  H2  UNL     1       9.407  33.718  28.977  1.00  0.00     0.161 HD
ENDBRANCH  32  33
ENDBRANCH  31  32
ENDBRANCH  30  31
ENDBRANCH  27  30
ENDBRANCH  14  27
BRANCH  18  38
HETATM   38  O1  UNL     1       3.827  39.254  19.426  1.00  0.00    -0.395 OA
ATOM     39  H1  UNL     1       4.672  39.477  19.054  1.00  0.00     0.210 HD
ENDBRANCH  18  38
BRANCH  24  40
HETATM   40  O2  UNL     1       9.066  42.877  20.392  1.00  0.00    -0.396 OA
ATOM     41  H2  UNL     1       8.402  43.399  19.955  1.00  0.00     0.210 HD
ENDBRANCH  24  40
TORSDOF 7
ENDMDL
MODEL 3
REMARK VINA RESULT: -8.118198470      3.708      5.535
REMARK  7 active torsions:
REMARK  status: ('A' for Active; 'I' for Inactive)
REMARK    1  A    between atoms: C14_14  and  N1_15 
REMARK    2  A    between atoms: N1_15  and  C15_18 
REMARK    3  A    between atoms: C15_18  and  C16_19 
REMARK    4  A    between atoms: C16_19  and  C17_20 
REMARK    5  A    between atoms: C17_20  and  N2_21 
REMARK    6  A    between atoms: C22_29  and  O1_30 
REMARK    7  A    between atoms: C28_37  and  O2_38 
ROOT
HETATM    1  C1  UNL     1       5.539  38.867  23.819  1.00  0.00     0.014 C 
HETATM    2  C2  UNL     1       5.058  37.738  24.353  1.00  0.00    -0.084 C 
HETATM    3  C3  UNL     1       5.952  37.057  25.253  1.00  0.00     0.034 C 
HETATM    4  C4  UNL     1       5.638  37.313  26.685  1.00  0.00     0.010 C 
HETATM    5  C5  UNL     1       5.000  38.588  27.067  1.00  0.00     0.002 C 
HETATM    6  C6  UNL     1       3.516  38.616  26.985  1.00  0.00     0.002 C 
HETATM    7  C7  UNL     1       3.025  40.009  27.336  1.00  0.00    -0.007 C 
HETATM    8  C8  UNL     1       3.765  41.099  26.619  1.00  0.00     0.006 C 
HETATM    9  C9  UNL     1       5.056  41.325  27.230  1.00  0.00     0.010 C 
HETATM   10  C10 UNL     1       5.545  40.564  28.405  1.00  0.00    -0.034 C 
HETATM   11  C11 UNL     1       5.108  41.269  29.691  1.00  0.00     0.016 C 
HETATM   12  C12 UNL     1       7.065  40.854  28.324  1.00  0.00     0.012 C 
HETATM   13  C13 UNL     1       7.667  39.458  28.049  1.00  0.00     0.034 C 
HETATM   14  C14 UNL     1       6.743  38.758  28.971  1.00  0.00     0.195 C 
HETATM   15  C19 UNL     1       5.375  39.078  28.472  1.00  0.00    -0.004 C 
HETATM   16  C20 UNL     1       4.576  38.476  29.539  1.00  0.00     0.018 C 
HETATM   17  C21 UNL     1       1.574  40.099  26.919  1.00  0.00     0.037 C 
HETATM   18  C22 UNL     1       1.336  38.611  26.592  1.00  0.00     0.123 C 
HETATM   19  C23 UNL     1       2.677  38.364  25.861  1.00  0.00     0.028 C 
HETATM   20  C24 UNL     1       2.659  37.234  24.937  1.00  0.00    -0.030 C 
HETATM   21  C25 UNL     1       1.382  37.354  24.051  1.00  0.00     0.016 C 
HETATM   22  C26 UNL     1       2.489  35.860  25.460  1.00  0.00     0.013 C 
HETATM   23  C27 UNL     1       2.281  34.895  24.301  1.00  0.00     0.032 C 
HETATM   24  C28 UNL     1       3.439  34.959  23.356  1.00  0.00     0.118 C 
HETATM   25  C29 UNL     1       3.774  36.314  22.867  1.00  0.00     0.041 C 
HETATM   26  C30 UNL     1       3.717  37.426  23.877  1.00  0.00     0.025 C 
ENDROOT
BRANCH  14  27
HETATM   27  N1  UNL     1       7.118  37.524  29.491  1.00  0.00    -0.070 N 
ATOM     28  H12 UNL     1       7.169  37.547  30.510  1.00  0.00     0.277 HD
ATOM     29  H11 UNL     1       6.377  36.832  29.387  1.00  0.00     0.277 HD
BRANCH  27  30
HETATM   30  C15 UNL     1       8.359  37.066  28.907  1.00  0.00     0.234 C 
BRANCH  30  31
HETATM   31  C16 UNL     1       8.315  35.790  28.163  1.00  0.00     0.047 C 
BRANCH  31  32
HETATM   32  C17 UNL     1       9.535  34.940  28.453  1.00  0.00     0.123 C 
BRANCH  32  33
HETATM   33  N2  UNL     1       9.539  33.723  27.670  1.00  0.00    -0.367 N 
HETATM   34  C18 UNL     1       9.912  32.587  28.097  1.00  0.00     0.196 C 
HETATM   35  N3  UNL     1       9.856  31.484  27.195  1.00  0.00    -0.067 NA
HETATM   36  N4  UNL     1      10.385  32.350  29.430  1.00  0.00    -0.067 NA
ATOM     37  H2  UNL     1       9.220  33.783  26.703  1.00  0.00     0.161 HD
ENDBRANCH  32  33
ENDBRANCH  31  32
ENDBRANCH  30  31
ENDBRANCH  27  30
ENDBRANCH  14  27
BRANCH  18  38
HETATM   38  O1  UNL     1       0.204  38.615  25.913  1.00  0.00    -0.395 OA
ATOM     39  H1  UNL     1      -0.061  37.703  25.907  1.00  0.00     0.210 HD
ENDBRANCH  18  38
BRANCH  24  40
HETATM   40  O2  UNL     1       3.080  34.181  22.228  1.00  0.00    -0.396 OA
ATOM     41  H2  UNL     1       3.431  33.311  22.379  1.00  0.00     0.210 HD
ENDBRANCH  24  40
TORSDOF 7
ENDMDL
MODEL 4
REMARK VINA RESULT: -8.058366655      2.005      2.536
REMARK  7 active torsions:
REMARK  status: ('A' for Active; 'I' for Inactive)
REMARK    1  A    between atoms: C14_14  and  N1_15 
REMARK    2  A    between atoms: N1_15  and  C15_18 
REMARK    3  A    between atoms: C15_18  and  C16_19 
REMARK    4  A    between atoms: C16_19  and  C17_20 
REMARK    5  A    between atoms: C17_20  and  N2_21 
REMARK    6  A    between atoms: C22_29  and  O1_30 
REMARK    7  A    between atoms: C28_37  and  O2_38 
ROOT
HETATM    1  C1  UNL     1       6.668  41.929  23.621  1.00  0.00     0.014 C 
HETATM    2  C2  UNL     1       7.237  41.009  22.834  1.00  0.00    -0.084 C 
HETATM    3  C3  UNL     1       7.894  39.932  23.527  1.00  0.00     0.034 C 
HETATM    4  C4  UNL     1       7.072  38.693  23.585  1.00  0.00     0.010 C 
HETATM    5  C5  UNL     1       5.600  38.803  23.571  1.00  0.00     0.002 C 
HETATM    6  C6  UNL     1       4.971  38.871  22.226  1.00  0.00     0.002 C 
HETATM    7  C7  UNL     1       3.473  39.054  22.387  1.00  0.00    -0.007 C 
HETATM    8  C8  UNL     1       3.107  40.133  23.362  1.00  0.00     0.006 C 
HETATM    9  C9  UNL     1       3.265  39.667  24.721  1.00  0.00     0.010 C 
HETATM   10  C10 UNL     1       3.726  38.300  25.064  1.00  0.00    -0.034 C 
HETATM   11  C11 UNL     1       2.522  37.361  25.162  1.00  0.00     0.016 C 
HETATM   12  C12 UNL     1       4.157  38.502  26.539  1.00  0.00     0.012 C 
HETATM   13  C13 UNL     1       5.680  38.247  26.490  1.00  0.00     0.034 C 
HETATM   14  C14 UNL     1       5.571  37.120  25.536  1.00  0.00     0.195 C 
HETATM   15  C19 UNL     1       4.883  37.684  24.340  1.00  0.00    -0.004 C 
HETATM   16  C20 UNL     1       4.697  36.460  23.561  1.00  0.00     0.018 C 
HETATM   17  C21 UNL     1       2.916  39.457  21.039  1.00  0.00     0.037 C 
HETATM   18  C22 UNL     1       4.176  39.206  20.186  1.00  0.00     0.123 C 
HETATM   19  C23 UNL     1       5.197  39.811  21.180  1.00  0.00     0.028 C 
HETATM   20  C24 UNL     1       6.446  40.249  20.564  1.00  0.00    -0.030 C 
HETATM   21  C25 UNL     1       6.093  41.101  19.307  1.00  0.00     0.016 C 
HETATM   22  C26 UNL     1       7.358  39.252  19.962  1.00  0.00     0.013 C 
HETATM   23  C27 UNL     1       8.465  39.968  19.199  1.00  0.00     0.032 C 
HETATM   24  C28 UNL     1       9.217  40.884  20.113  1.00  0.00     0.118 C 
HETATM   25  C29 UNL     1       8.380  41.845  20.863  1.00  0.00     0.041 C 
HETATM   26  C30 UNL     1       7.086  41.318  21.418  1.00  0.00     0.025 C 
ENDROOT
BRANCH  14  27
HETATM   27  N1  UNL     1       6.598  36.184  25.480  1.00  0.00    -0.070 N 
ATOM     28  H12 UNL     1       6.272  35.254  25.742  1.00  0.00     0.277 HD
ATOM     29  H11 UNL     1       6.875  35.989  24.518  1.00  0.00     0.277 HD
BRANCH  27  30
HETATM   30  C15 UNL     1       7.726  36.597  26.284  1.00  0.00     0.234 C 
BRANCH  30  31
HETATM   31  C16 UNL     1       8.294  35.591  27.206  1.00  0.00     0.047 C 
BRANCH  31  32
HETATM   32  C17 UNL     1       8.684  36.214  28.530  1.00  0.00     0.123 C 
BRANCH  32  33
HETATM   33  N2  UNL     1       7.570  36.895  29.152  1.00  0.00    -0.367 N 
HETATM   34  C18 UNL     1       7.550  38.128  29.457  1.00  0.00     0.196 C 
HETATM   35  N3  UNL     1       6.370  38.645  30.068  1.00  0.00    -0.067 NA
HETATM   36  N4  UNL     1       8.644  39.025  29.223  1.00  0.00    -0.067 NA
ATOM     37  H2  UNL     1       6.738  36.343  29.363  1.00  0.00     0.161 HD
ENDBRANCH  32  33
ENDBRANCH  31  32
ENDBRANCH  30  31
ENDBRANCH  27  30
ENDBRANCH  14  27
BRANCH  18  38
HETATM   38  O1  UNL     1       3.914  39.824  19.049  1.00  0.00    -0.395 OA
ATOM     39  H1  UNL     1       4.342  40.666  19.145  1.00  0.00     0.210 HD
ENDBRANCH  18  38
BRANCH  24  40
HETATM   40  O2  UNL     1      10.091  41.639  19.293  1.00  0.00    -0.396 OA
ATOM     41  H2  UNL     1      10.936  41.635  19.728  1.00  0.00     0.210 HD
ENDBRANCH  24  40
TORSDOF 7
ENDMDL
MODEL 5
REMARK VINA RESULT: -8.035391022      1.995      2.535
REMARK  7 active torsions:
REMARK  status: ('A' for Active; 'I' for Inactive)
REMARK    1  A    between atoms: C14_14  and  N1_15 
REMARK    2  A    between atoms: N1_15  and  C15_18 
REMARK    3  A    between atoms: C15_18  and  C16_19 
REMARK    4  A    between atoms: C16_19  and  C17_20 
REMARK    5  A    between atoms: C17_20  and  N2_21 
REMARK    6  A    between atoms: C22_29  and  O1_30 
REMARK    7  A    between atoms: C28_37  and  O2_38 
ROOT
HETATM    1  C1  UNL     1       7.854  42.548  23.113  1.00  0.00     0.014 C 
HETATM    2  C2  UNL     1       8.298  41.505  22.403  1.00  0.00    -0.084 C 
HETATM    3  C3  UNL     1       8.844  40.423  23.181  1.00  0.00     0.034 C 
HETATM    4  C4  UNL     1       7.889  39.296  23.357  1.00  0.00     0.010 C 
HETATM    5  C5  UNL     1       6.439  39.571  23.350  1.00  0.00     0.002 C 
HETATM    6  C6  UNL     1       5.793  39.595  22.012  1.00  0.00     0.002 C 
HETATM    7  C7  UNL     1       4.329  39.962  22.173  1.00  0.00    -0.007 C 
HETATM    8  C8  UNL     1       4.108  41.155  23.054  1.00  0.00     0.006 C 
HETATM    9  C9  UNL     1       4.241  40.792  24.447  1.00  0.00     0.010 C 
HETATM   10  C10 UNL     1       4.553  39.416  24.903  1.00  0.00    -0.034 C 
HETATM   11  C11 UNL     1       3.252  38.632  25.096  1.00  0.00     0.016 C 
HETATM   12  C12 UNL     1       5.035  39.693  26.349  1.00  0.00     0.012 C 
HETATM   13  C13 UNL     1       6.518  39.263  26.306  1.00  0.00     0.034 C 
HETATM   14  C14 UNL     1       6.262  38.077  25.455  1.00  0.00     0.195 C 
HETATM   15  C19 UNL     1       5.617  38.612  24.222  1.00  0.00    -0.004 C 
HETATM   16  C20 UNL     1       5.278  37.355  23.556  1.00  0.00     0.018 C 
HETATM   17  C21 UNL     1       3.793  40.308  20.802  1.00  0.00     0.037 C 
HETATM   18  C22 UNL     1       4.998  39.843  19.959  1.00  0.00     0.123 C 
HETATM   19  C23 UNL     1       6.101  40.410  20.884  1.00  0.00     0.028 C 
HETATM   20  C24 UNL     1       7.378  40.648  20.218  1.00  0.00    -0.030 C 
HETATM   21  C25 UNL     1       7.097  41.423  18.895  1.00  0.00     0.016 C 
HETATM   22  C26 UNL     1       8.159  39.505  19.695  1.00  0.00     0.013 C 
HETATM   23  C27 UNL     1       9.323  40.022  18.860  1.00  0.00     0.032 C 
HETATM   24  C28 UNL     1      10.193  40.922  19.681  1.00  0.00     0.118 C 
HETATM   25  C29 UNL     1       9.486  42.032  20.354  1.00  0.00     0.041 C 
HETATM   26  C30 UNL     1       8.153  41.707  20.968  1.00  0.00     0.025 C 
ENDROOT
BRANCH  14  27
HETATM   27  N1  UNL     1       7.176  37.029  25.470  1.00  0.00    -0.070 N 
ATOM     28  H12 UNL     1       7.064  36.424  24.656  1.00  0.00     0.277 HD
ATOM     29  H11 UNL     1       8.125  37.357  25.292  1.00  0.00     0.277 HD
BRANCH  27  30
HETATM   30  C15 UNL     1       7.094  36.281  26.704  1.00  0.00     0.234 C 
BRANCH  30  31
HETATM   31  C16 UNL     1       8.369  35.806  27.283  1.00  0.00     0.047 C 
BRANCH  31  32
HETATM   32  C17 UNL     1       8.637  36.448  28.628  1.00  0.00     0.123 C 
BRANCH  32  33
HETATM   33  N2  UNL     1       7.452  37.080  29.167  1.00  0.00    -0.367 N 
HETATM   34  C18 UNL     1       7.382  38.292  29.538  1.00  0.00     0.196 C 
HETATM   35  N3  UNL     1       6.135  38.762  30.049  1.00  0.00    -0.067 NA
HETATM   36  N4  UNL     1       8.480  39.212  29.476  1.00  0.00    -0.067 NA
ATOM     37  H2  UNL     1       6.611  36.509  29.254  1.00  0.00     0.161 HD
ENDBRANCH  32  33
ENDBRANCH  31  32
ENDBRANCH  30  31
ENDBRANCH  27  30
ENDBRANCH  14  27
BRANCH  18  38
HETATM   38  O1  UNL     1       4.783  40.386  18.776  1.00  0.00    -0.395 OA
ATOM     39  H1  UNL     1       5.511  40.079  18.249  1.00  0.00     0.210 HD
ENDBRANCH  18  38
BRANCH  24  40
HETATM   40  O2  UNL     1      11.129  41.498  18.789  1.00  0.00    -0.396 OA
ATOM     41  H2  UNL     1      11.256  42.395  19.075  1.00  0.00     0.210 HD
ENDBRANCH  24  40
TORSDOF 7
ENDMDL
