MODEL 1
REMARK VINA RESULT: -7.646633858      0.000      0.000
REMARK  7 active torsions:
REMARK  status: ('A' for Active; 'I' for Inactive)
REMARK    1  A    between atoms: C2_2  and  C4_4 
REMARK    2  A    between atoms: C4_4  and  C5_5 
REMARK    3  A    between atoms: C5_5  and  O1_6 
REMARK    4  A    between atoms: C5_5  and  C6_8 
REMARK    5  A    between atoms: C6_8  and  O2_9 
REMARK    6  A    between atoms: C6_8  and  C7_11 
REMARK    7  A    between atoms: C7_11  and  C9_13 
ROOT
HETATM    1  C9  UNL     1       8.721  40.452  21.999  1.00  0.00     0.135 C 
HETATM    2  O3  UNL     1       9.212  39.361  22.750  1.00  0.00    -0.384 OA
HETATM    3  C10 UNL     1       8.162  38.506  23.104  1.00  0.00     0.178 C 
HETATM    4  C11 UNL     1       7.098  39.257  23.920  1.00  0.00    -0.014 C 
HETATM    5  C12 UNL     1       5.831  39.216  23.174  1.00  0.00     0.018 C 
HETATM    6  C13 UNL     1       6.959  38.576  25.292  1.00  0.00     0.002 C 
HETATM    7  C14 UNL     1       6.641  37.129  25.089  1.00  0.00     0.008 C 
HETATM    8  C15 UNL     1       5.332  36.715  25.701  1.00  0.00     0.032 C 
HETATM    9  C16 UNL     1       5.316  37.158  27.157  1.00  0.00     0.045 C 
HETATM   10  C17 UNL     1       3.977  36.676  27.714  1.00  0.00     0.039 C 
HETATM   11  N1  UNL     1       6.331  36.368  27.811  1.00  0.00    -0.357 N 
ATOM     12  H1  UNL     1       6.141  35.372  27.924  1.00  0.00     0.162 HD
HETATM   13  C18 UNL     1       7.552  36.840  28.304  1.00  0.00     0.174 C 
HETATM   14  S1  UNL     1       8.834  35.859  28.520  1.00  0.00    -0.041 SA
HETATM   15  N2  UNL     1       7.588  38.252  28.605  1.00  0.00    -0.303 N 
ATOM     16  H2  UNL     1       8.436  38.686  28.969  1.00  0.00     0.171 HD
HETATM   17  C19 UNL     1       6.405  39.030  28.380  1.00  0.00     0.235 C 
HETATM   18  O4  UNL     1       6.244  40.021  29.139  1.00  0.00    -0.272 OA
HETATM   19  C20 UNL     1       5.480  38.642  27.314  1.00  0.00     0.066 C 
HETATM   20  C21 UNL     1       4.103  39.187  27.701  1.00  0.00     0.028 C 
HETATM   21  C22 UNL     1       5.787  39.264  25.956  1.00  0.00     0.010 C 
HETATM   22  C23 UNL     1       5.811  40.737  25.932  1.00  0.00     0.007 C 
HETATM   23  C24 UNL     1       6.952  41.395  25.241  1.00  0.00     0.007 C 
HETATM   24  C25 UNL     1       7.676  40.597  24.232  1.00  0.00     0.006 C 
HETATM   25  C26 UNL     1       8.087  41.391  22.980  1.00  0.00    -0.017 C 
HETATM   26  C27 UNL     1       9.039  42.438  23.520  1.00  0.00     0.018 C 
HETATM   27  C28 UNL     1       6.932  42.073  22.337  1.00  0.00     0.018 C 
ENDROOT
BRANCH   1  28
HETATM   28  C7  UNL     1       9.923  41.013  21.271  1.00  0.00     0.043 C 
HETATM   29  C8  UNL     1       9.966  40.658  19.818  1.00  0.00     0.015 C 
BRANCH  28  30
HETATM   30  C6  UNL     1      11.125  40.258  21.885  1.00  0.00     0.153 C 
BRANCH  30  31
HETATM   31  C5  UNL     1      12.386  41.050  21.780  1.00  0.00     0.147 C 
BRANCH  31  32
HETATM   32  C4  UNL     1      12.889  41.713  23.003  1.00  0.00     0.038 C 
BRANCH  32  33
HETATM   33  C2  UNL     1      13.070  43.188  22.937  1.00  0.00    -0.020 C 
HETATM   34  C1  UNL     1      12.288  43.891  21.894  1.00  0.00     0.009 C 
HETATM   35  C3  UNL     1      14.550  43.434  22.638  1.00  0.00     0.009 C 
ENDBRANCH  32  33
ENDBRANCH  31  32
BRANCH  31  36
HETATM   36  O1  UNL     1      13.384  40.349  21.091  1.00  0.00    -0.393 OA
ATOM     37  H1  UNL     1      13.167  40.200  20.178  1.00  0.00     0.210 HD
ENDBRANCH  31  36
ENDBRANCH  30  31
BRANCH  30  38
HETATM   38  O2  UNL     1      11.290  39.172  20.970  1.00  0.00    -0.393 OA
ATOM     39  H2  UNL     1      10.496  38.658  21.049  1.00  0.00     0.210 HD
ENDBRANCH  30  38
ENDBRANCH  28  30
ENDBRANCH   1  28
TORSDOF 7
ENDMDL
MODEL 2
REMARK VINA RESULT: -7.119579803      1.533      3.019
REMARK  7 active torsions:
REMARK  status: ('A' for Active; 'I' for Inactive)
REMARK    1  A    between atoms: C2_2  and  C4_4 
REMARK    2  A    between atoms: C4_4  and  C5_5 
REMARK    3  A    between atoms: C5_5  and  O1_6 
REMARK    4  A    between atoms: C5_5  and  C6_8 
REMARK    5  A    between atoms: C6_8  and  O2_9 
REMARK    6  A    between atoms: C6_8  and  C7_11 
REMARK    7  A    between atoms: C7_11  and  C9_13 
ROOT
HETATM    1  C9  UNL     1       8.714  40.668  22.110  1.00  0.00     0.135 C 
HETATM    2  O3  UNL     1       9.215  39.559  22.828  1.00  0.00    -0.384 OA
HETATM    3  C10 UNL     1       8.177  38.673  23.137  1.00  0.00     0.178 C 
HETATM    4  C11 UNL     1       7.089  39.375  23.965  1.00  0.00    -0.014 C 
HETATM    5  C12 UNL     1       5.832  39.337  23.202  1.00  0.00     0.018 C 
HETATM    6  C13 UNL     1       6.946  38.642  25.310  1.00  0.00     0.002 C 
HETATM    7  C14 UNL     1       6.658  37.197  25.051  1.00  0.00     0.008 C 
HETATM    8  C15 UNL     1       5.349  36.737  25.630  1.00  0.00     0.032 C 
HETATM    9  C16 UNL     1       5.307  37.127  27.101  1.00  0.00     0.045 C 
HETATM   10  C17 UNL     1       3.971  36.601  27.623  1.00  0.00     0.039 C 
HETATM   11  N1  UNL     1       6.329  36.332  27.739  1.00  0.00    -0.357 N 
ATOM     12  H1  UNL     1       6.156  35.330  27.813  1.00  0.00     0.162 HD
HETATM   13  C18 UNL     1       7.534  36.808  28.265  1.00  0.00     0.174 C 
HETATM   14  S1  UNL     1       8.832  35.844  28.462  1.00  0.00    -0.041 SA
HETATM   15  N2  UNL     1       7.540  38.209  28.617  1.00  0.00    -0.303 N 
ATOM     16  H2  UNL     1       8.375  38.645  29.008  1.00  0.00     0.171 HD
HETATM   17  C19 UNL     1       6.346  38.972  28.404  1.00  0.00     0.235 C 
HETATM   18  O4  UNL     1       6.157  39.932  29.197  1.00  0.00    -0.272 OA
HETATM   19  C20 UNL     1       5.442  38.607  27.314  1.00  0.00     0.066 C 
HETATM   20  C21 UNL     1       4.049  39.113  27.702  1.00  0.00     0.028 C 
HETATM   21  C22 UNL     1       5.753  39.283  25.983  1.00  0.00     0.010 C 
HETATM   22  C23 UNL     1       5.750  40.757  26.012  1.00  0.00     0.007 C 
HETATM   23  C24 UNL     1       6.887  41.460  25.360  1.00  0.00     0.007 C 
HETATM   24  C25 UNL     1       7.638  40.713  24.333  1.00  0.00     0.006 C 
HETATM   25  C26 UNL     1       8.050  41.559  23.115  1.00  0.00    -0.017 C 
HETATM   26  C27 UNL     1       8.975  42.603  23.705  1.00  0.00     0.018 C 
HETATM   27  C28 UNL     1       6.890  42.243  22.482  1.00  0.00     0.018 C 
ENDROOT
BRANCH   1  28
HETATM   28  C7  UNL     1       9.913  41.276  21.418  1.00  0.00     0.043 C 
HETATM   29  C8  UNL     1       9.654  42.635  20.846  1.00  0.00     0.015 C 
BRANCH  28  30
HETATM   30  C6  UNL     1      10.135  40.376  20.180  1.00  0.00     0.153 C 
BRANCH  30  31
HETATM   31  C5  UNL     1       8.859  39.753  19.716  1.00  0.00     0.147 C 
BRANCH  31  32
HETATM   32  C4  UNL     1       8.317  40.183  18.408  1.00  0.00     0.038 C 
BRANCH  32  33
HETATM   33  C2  UNL     1       7.071  40.995  18.435  1.00  0.00    -0.020 C 
HETATM   34  C1  UNL     1       6.032  40.555  19.394  1.00  0.00     0.009 C 
HETATM   35  C3  UNL     1       6.462  40.909  17.034  1.00  0.00     0.009 C 
ENDBRANCH  32  33
ENDBRANCH  31  32
BRANCH  31  36
HETATM   36  O1  UNL     1       8.876  38.361  19.868  1.00  0.00    -0.393 OA
ATOM     37  H1  UNL     1       9.264  38.084  20.690  1.00  0.00     0.210 HD
ENDBRANCH  31  36
ENDBRANCH  30  31
BRANCH  30  38
HETATM   38  O2  UNL     1      10.896  39.298  20.731  1.00  0.00    -0.393 OA
ATOM     39  H2  UNL     1      10.316  38.880  21.355  1.00  0.00     0.210 HD
ENDBRANCH  30  38
ENDBRANCH  28  30
ENDBRANCH   1  28
TORSDOF 7
ENDMDL
MODEL 3
REMARK VINA RESULT: -6.894890321      3.082      7.688
REMARK  7 active torsions:
REMARK  status: ('A' for Active; 'I' for Inactive)
REMARK    1  A    between atoms: C2_2  and  C4_4 
REMARK    2  A    between atoms: C4_4  and  C5_5 
REMARK    3  A    between atoms: C5_5  and  O1_6 
REMARK    4  A    between atoms: C5_5  and  C6_8 
REMARK    5  A    between atoms: C6_8  and  O2_9 
REMARK    6  A    between atoms: C6_8  and  C7_11 
REMARK    7  A    between atoms: C7_11  and  C9_13 
ROOT
HETATM    1  C9  UNL     1       5.477  38.958  26.893  1.00  0.00     0.135 C 
HETATM    2  O3  UNL     1       6.820  39.391  26.817  1.00  0.00    -0.384 OA
HETATM    3  C10 UNL     1       6.902  40.593  26.105  1.00  0.00     0.178 C 
HETATM    4  C11 UNL     1       6.333  40.427  24.688  1.00  0.00    -0.014 C 
HETATM    5  C12 UNL     1       5.186  41.336  24.542  1.00  0.00     0.018 C 
HETATM    6  C13 UNL     1       7.440  40.760  23.672  1.00  0.00     0.002 C 
HETATM    7  C14 UNL     1       7.959  42.135  23.949  1.00  0.00     0.008 C 
HETATM    8  C15 UNL     1       7.791  43.080  22.792  1.00  0.00     0.032 C 
HETATM    9  C16 UNL     1       8.379  42.430  21.547  1.00  0.00     0.045 C 
HETATM   10  C17 UNL     1       8.201  43.456  20.429  1.00  0.00     0.039 C 
HETATM   11  N1  UNL     1       9.799  42.345  21.792  1.00  0.00    -0.357 N 
ATOM     12  H1  UNL     1      10.320  43.222  21.800  1.00  0.00     0.162 HD
HETATM   13  C18 UNL     1      10.527  41.173  22.018  1.00  0.00     0.174 C 
HETATM   14  S1  UNL     1      11.955  41.179  22.802  1.00  0.00    -0.041 SA
HETATM   15  N2  UNL     1       9.921  39.964  21.508  1.00  0.00    -0.303 N 
ATOM     16  H2  UNL     1      10.380  39.061  21.626  1.00  0.00     0.171 HD
HETATM   17  C19 UNL     1       8.662  40.065  20.832  1.00  0.00     0.235 C 
HETATM   18  O4  UNL     1       8.448  39.208  19.934  1.00  0.00    -0.272 OA
HETATM   19  C20 UNL     1       7.724  41.123  21.209  1.00  0.00     0.066 C 
HETATM   20  C21 UNL     1       6.840  41.389  19.987  1.00  0.00     0.028 C 
HETATM   21  C22 UNL     1       6.756  40.739  22.323  1.00  0.00     0.010 C 
HETATM   22  C23 UNL     1       5.919  39.557  22.049  1.00  0.00     0.007 C 
HETATM   23  C24 UNL     1       5.804  38.531  23.119  1.00  0.00     0.007 C 
HETATM   24  C25 UNL     1       6.089  38.967  24.500  1.00  0.00     0.006 C 
HETATM   25  C26 UNL     1       5.147  38.365  25.556  1.00  0.00    -0.017 C 
HETATM   26  C27 UNL     1       5.420  36.878  25.469  1.00  0.00     0.018 C 
HETATM   27  C28 UNL     1       3.714  38.613  25.244  1.00  0.00     0.018 C 
ENDROOT
BRANCH   1  28
HETATM   28  C7  UNL     1       5.431  37.983  28.047  1.00  0.00     0.043 C 
HETATM   29  C8  UNL     1       4.144  38.012  28.810  1.00  0.00     0.015 C 
BRANCH  28  30
HETATM   30  C6  UNL     1       6.480  38.528  29.046  1.00  0.00     0.153 C 
BRANCH  30  31
HETATM   31  C5  UNL     1       7.667  37.627  29.145  1.00  0.00     0.147 C 
BRANCH  31  32
HETATM   32  C4  UNL     1       7.610  36.329  28.436  1.00  0.00     0.038 C 
BRANCH  32  33
HETATM   33  C2  UNL     1       8.896  35.801  27.906  1.00  0.00    -0.020 C 
HETATM   34  C1  UNL     1       8.823  35.115  26.595  1.00  0.00     0.009 C 
HETATM   35  C3  UNL     1       9.402  34.779  28.926  1.00  0.00     0.009 C 
ENDBRANCH  32  33
ENDBRANCH  31  32
BRANCH  31  36
HETATM   36  O1  UNL     1       8.863  38.319  28.920  1.00  0.00    -0.393 OA
ATOM     37  H1  UNL     1       9.623  37.749  28.908  1.00  0.00     0.210 HD
ENDBRANCH  31  36
ENDBRANCH  30  31
BRANCH  30  38
HETATM   38  O2  UNL     1       5.799  38.385  30.295  1.00  0.00    -0.393 OA
ATOM     39  H2  UNL     1       4.932  38.070  30.070  1.00  0.00     0.210 HD
ENDBRANCH  30  38
ENDBRANCH  28  30
ENDBRANCH   1  28
TORSDOF 7
ENDMDL
MODEL 4
REMARK VINA RESULT: -6.810185093      3.412      7.952
REMARK  7 active torsions:
REMARK  status: ('A' for Active; 'I' for Inactive)
REMARK    1  A    between atoms: C2_2  and  C4_4 
REMARK    2  A    between atoms: C4_4  and  C5_5 
REMARK    3  A    between atoms: C5_5  and  O1_6 
REMARK    4  A    between atoms: C5_5  and  C6_8 
REMARK    5  A    between atoms: C6_8  and  O2_9 
REMARK    6  A    between atoms: C6_8  and  C7_11 
REMARK    7  A    between atoms: C7_11  and  C9_13 
ROOT
HETATM    1  C9  UNL     1       5.782  39.102  25.894  1.00  0.00     0.135 C 
HETATM    2  O3  UNL     1       7.145  39.445  25.742  1.00  0.00    -0.384 OA
HETATM    3  C10 UNL     1       7.263  40.680  25.095  1.00  0.00     0.178 C 
HETATM    4  C11 UNL     1       6.584  40.642  23.717  1.00  0.00    -0.014 C 
HETATM    5  C12 UNL     1       5.499  41.635  23.710  1.00  0.00     0.018 C 
HETATM    6  C13 UNL     1       7.637  40.960  22.641  1.00  0.00     0.002 C 
HETATM    7  C14 UNL     1       8.274  42.276  22.955  1.00  0.00     0.008 C 
HETATM    8  C15 UNL     1       8.093  43.299  21.869  1.00  0.00     0.032 C 
HETATM    9  C16 UNL     1       8.542  42.688  20.548  1.00  0.00     0.045 C 
HETATM   10  C17 UNL     1       8.360  43.792  19.507  1.00  0.00     0.039 C 
HETATM   11  N1  UNL     1       9.966  42.491  20.680  1.00  0.00    -0.357 N 
ATOM     12  H1  UNL     1      10.549  43.328  20.699  1.00  0.00     0.162 HD
HETATM   13  C18 UNL     1      10.621  41.260  20.784  1.00  0.00     0.174 C 
HETATM   14  S1  UNL     1      12.097  41.121  21.458  1.00  0.00    -0.041 SA
HETATM   15  N2  UNL     1       9.893  40.130  20.254  1.00  0.00    -0.303 N 
ATOM     16  H2  UNL     1      10.291  39.192  20.286  1.00  0.00     0.171 HD
HETATM   17  C19 UNL     1       8.599  40.358  19.682  1.00  0.00     0.235 C 
HETATM   18  O4  UNL     1       8.260  39.575  18.757  1.00  0.00    -0.272 OA
HETATM   19  C20 UNL     1       7.770  41.453  20.188  1.00  0.00     0.066 C 
HETATM   20  C21 UNL     1       6.823  41.854  19.054  1.00  0.00     0.028 C 
HETATM   21  C22 UNL     1       6.859  41.069  21.349  1.00  0.00     0.010 C 
HETATM   22  C23 UNL     1       5.921  39.967  21.072  1.00  0.00     0.007 C 
HETATM   23  C24 UNL     1       5.808  38.887  22.088  1.00  0.00     0.007 C 
HETATM   24  C25 UNL     1       6.222  39.217  23.466  1.00  0.00     0.006 C 
HETATM   25  C26 UNL     1       5.316  38.617  24.555  1.00  0.00    -0.017 C 
HETATM   26  C27 UNL     1       5.472  37.122  24.364  1.00  0.00     0.018 C 
HETATM   27  C28 UNL     1       3.886  38.981  24.367  1.00  0.00     0.018 C 
ENDROOT
BRANCH   1  28
HETATM   28  C7  UNL     1       5.748  38.063  26.992  1.00  0.00     0.043 C 
HETATM   29  C8  UNL     1       4.614  38.239  27.953  1.00  0.00     0.015 C 
BRANCH  28  30
HETATM   30  C6  UNL     1       7.012  38.359  27.834  1.00  0.00     0.153 C 
BRANCH  30  31
HETATM   31  C5  UNL     1       7.429  37.172  28.638  1.00  0.00     0.147 C 
BRANCH  31  32
HETATM   32  C4  UNL     1       8.764  36.592  28.370  1.00  0.00     0.038 C 
BRANCH  32  33
HETATM   33  C2  UNL     1       8.846  35.108  28.296  1.00  0.00    -0.020 C 
HETATM   34  C1  UNL     1       9.844  34.470  29.185  1.00  0.00     0.009 C 
HETATM   35  C3  UNL     1       9.233  34.763  26.857  1.00  0.00     0.009 C 
ENDBRANCH  32  33
ENDBRANCH  31  32
BRANCH  31  36
HETATM   36  O1  UNL     1       7.179  37.355  30.003  1.00  0.00    -0.393 OA
ATOM     37  H1  UNL     1       6.822  38.213  30.201  1.00  0.00     0.210 HD
ENDBRANCH  31  36
ENDBRANCH  30  31
BRANCH  30  38
HETATM   38  O2  UNL     1       6.516  39.300  28.790  1.00  0.00    -0.393 OA
ATOM     39  H2  UNL     1       7.223  39.920  28.917  1.00  0.00     0.210 HD
ENDBRANCH  30  38
ENDBRANCH  28  30
ENDBRANCH   1  28
TORSDOF 7
ENDMDL
MODEL 5
REMARK VINA RESULT: -6.754676967      2.262      3.391
REMARK  7 active torsions:
REMARK  status: ('A' for Active; 'I' for Inactive)
REMARK    1  A    between atoms: C2_2  and  C4_4 
REMARK    2  A    between atoms: C4_4  and  C5_5 
REMARK    3  A    between atoms: C5_5  and  O1_6 
REMARK    4  A    between atoms: C5_5  and  C6_8 
REMARK    5  A    between atoms: C6_8  and  O2_9 
REMARK    6  A    between atoms: C6_8  and  C7_11 
REMARK    7  A    between atoms: C7_11  and  C9_13 
ROOT
HETATM    1  C9  UNL     1       4.798  40.355  21.340  1.00  0.00     0.135 C 
HETATM    2  O3  UNL     1       5.652  39.390  21.920  1.00  0.00    -0.384 OA
HETATM    3  C10 UNL     1       4.902  38.443  22.626  1.00  0.00     0.178 C 
HETATM    4  C11 UNL     1       4.066  39.118  23.724  1.00  0.00    -0.014 C 
HETATM    5  C12 UNL     1       2.645  38.868  23.441  1.00  0.00     0.018 C 
HETATM    6  C13 UNL     1       4.475  38.529  25.086  1.00  0.00     0.002 C 
HETATM    7  C14 UNL     1       4.313  37.043  25.043  1.00  0.00     0.008 C 
HETATM    8  C15 UNL     1       3.343  36.519  26.065  1.00  0.00     0.032 C 
HETATM    9  C16 UNL     1       3.737  37.065  27.431  1.00  0.00     0.045 C 
HETATM   10  C17 UNL     1       2.731  36.466  28.413  1.00  0.00     0.039 C 
HETATM   11  N1  UNL     1       5.009  36.454  27.736  1.00  0.00    -0.357 N 
ATOM     12  H1  UNL     1       5.006  35.453  27.935  1.00  0.00     0.162 HD
HETATM   13  C18 UNL     1       6.245  37.105  27.783  1.00  0.00     0.174 C 
HETATM   14  S1  UNL     1       7.652  36.306  27.592  1.00  0.00    -0.041 SA
HETATM   15  N2  UNL     1       6.180  38.530  28.013  1.00  0.00    -0.303 N 
ATOM     16  H2  UNL     1       7.032  39.090  28.063  1.00  0.00     0.171 HD
HETATM   17  C19 UNL     1       4.892  39.140  28.167  1.00  0.00     0.235 C 
HETATM   18  O4  UNL     1       4.849  40.157  28.907  1.00  0.00    -0.272 OA
HETATM   19  C20 UNL     1       3.736  38.564  27.480  1.00  0.00     0.066 C 
HETATM   20  C21 UNL     1       2.496  38.966  28.284  1.00  0.00     0.028 C 
HETATM   21  C22 UNL     1       3.497  39.117  26.079  1.00  0.00     0.010 C 
HETATM   22  C23 UNL     1       3.307  40.576  26.003  1.00  0.00     0.007 C 
HETATM   23  C24 UNL     1       4.060  41.315  24.955  1.00  0.00     0.007 C 
HETATM   24  C25 UNL     1       4.522  40.538  23.788  1.00  0.00     0.006 C 
HETATM   25  C26 UNL     1       4.391  41.280  22.447  1.00  0.00    -0.017 C 
HETATM   26  C27 UNL     1       5.312  42.473  22.610  1.00  0.00     0.018 C 
HETATM   27  C28 UNL     1       3.008  41.768  22.201  1.00  0.00     0.018 C 
ENDROOT
BRANCH   1  28
HETATM   28  C7  UNL     1       5.609  41.002  20.239  1.00  0.00     0.043 C 
HETATM   29  C8  UNL     1       5.052  40.778  18.869  1.00  0.00     0.015 C 
BRANCH  28  30
HETATM   30  C6  UNL     1       6.944  40.220  20.242  1.00  0.00     0.153 C 
BRANCH  30  31
HETATM   31  C5  UNL     1       8.120  41.134  20.130  1.00  0.00     0.147 C 
BRANCH  31  32
HETATM   32  C4  UNL     1       8.757  41.595  21.383  1.00  0.00     0.038 C 
BRANCH  32  33
HETATM   33  C2  UNL     1       8.989  40.566  22.432  1.00  0.00    -0.020 C 
HETATM   34  C1  UNL     1       8.313  40.800  23.730  1.00  0.00     0.009 C 
HETATM   35  C3  UNL     1      10.495  40.548  22.702  1.00  0.00     0.009 C 
ENDBRANCH  32  33
ENDBRANCH  31  32
BRANCH  31  36
HETATM   36  O1  UNL     1       9.045  40.676  19.184  1.00  0.00    -0.393 OA
ATOM     37  H1  UNL     1       8.794  39.847  18.794  1.00  0.00     0.210 HD
ENDBRANCH  31  36
ENDBRANCH  30  31
BRANCH  30  38
HETATM   38  O2  UNL     1       6.886  39.534  18.989  1.00  0.00    -0.393 OA
ATOM     39  H2  UNL     1       6.061  39.797  18.601  1.00  0.00     0.210 HD
ENDBRANCH  30  38
ENDBRANCH  28  30
ENDBRANCH   1  28
TORSDOF 7
ENDMDL
