MODEL 1
REMARK VINA RESULT: -7.861950825      0.000      0.000
REMARK  10 active torsions:
REMARK  status: ('A' for Active; 'I' for Inactive)
REMARK       I    between atoms: C2_5  and  N3_6 
REMARK       I    between atoms: C2_5  and  N6_23 
REMARK    1  A    between atoms: N3_6  and  C3_8 
REMARK    2  A    between atoms: C3_8  and  C4_9 
REMARK    3  A    between atoms: C4_9  and  C5_10 
REMARK    4  A    between atoms: C5_10  and  N4_11 
REMARK    5  A    between atoms: N4_11  and  C6_13 
REMARK    6  A    between atoms: C6_13  and  N5_15 
REMARK    7  A    between atoms: C9_18  and  O1_19 
REMARK    8  A    between atoms: N6_23  and  C12_25 
REMARK    9  A    between atoms: C12_25  and  N7_27 
REMARK   10  A    between atoms: N7_27  and  C13_29 
ROOT
HETATM    1  N1  UNL     1       3.540  34.727  22.835  1.00  0.00    -0.171 NA
HETATM    2  C1  UNL     1       3.702  35.398  23.779  1.00  0.00     0.196 C 
HETATM    3  N2  UNL     1       3.892  36.174  24.919  1.00  0.00    -0.126 N 
ATOM      4  H2  UNL     1       4.484  35.808  25.665  1.00  0.00     0.197 HD
HETATM    5  C2  UNL     1       3.349  37.344  25.074  1.00  0.00     0.689 C 
HETATM    6  N3  UNL     1       3.564  38.104  26.245  1.00  0.00    -0.225 N 
ATOM      7  H3  UNL     1       3.234  39.068  26.279  1.00  0.00     0.177 HD
HETATM    8  N6  UNL     1       2.522  37.822  24.012  1.00  0.00    -0.166 N 
ATOM      9  H6  UNL     1       1.509  37.742  24.096  1.00  0.00     0.186 HD
ENDROOT
BRANCH   6  10
HETATM   10  C3  UNL     1       4.236  37.556  27.391  1.00  0.00     0.139 C 
BRANCH  10  11
HETATM   11  C4  UNL     1       5.166  38.566  28.037  1.00  0.00     0.040 C 
BRANCH  11  12
HETATM   12  C5  UNL     1       6.477  37.974  28.414  1.00  0.00     0.123 C 
BRANCH  12  13
HETATM   13  N4  UNL     1       6.644  36.614  28.014  1.00  0.00    -0.367 N 
ATOM     14  H4  UNL     1       6.058  35.895  28.440  1.00  0.00     0.161 HD
BRANCH  13  15
HETATM   15  C6  UNL     1       7.595  36.237  27.046  1.00  0.00     0.169 C 
HETATM   16  S1  UNL     1       7.316  36.553  25.445  1.00  0.00    -0.041 SA
BRANCH  15  17
HETATM   17  N5  UNL     1       8.787  35.563  27.416  1.00  0.00    -0.358 N 
HETATM   18  C7  UNL     1       9.388  35.652  28.716  1.00  0.00     0.127 C 
HETATM   19  C8  UNL     1       9.312  34.254  29.317  1.00  0.00     0.051 C 
HETATM   20  C9  UNL     1       9.902  33.197  28.448  1.00  0.00     0.121 C 
HETATM   21  C10 UNL     1       9.565  33.283  26.999  1.00  0.00     0.051 C 
HETATM   22  C11 UNL     1       9.487  34.699  26.462  1.00  0.00     0.127 C 
BRANCH  20  23
HETATM   23  O1  UNL     1      11.269  33.085  28.705  1.00  0.00    -0.395 OA
ATOM     24  H1  UNL     1      11.761  33.530  28.024  1.00  0.00     0.210 HD
ENDBRANCH  20  23
ENDBRANCH  15  17
ENDBRANCH  13  15
ENDBRANCH  12  13
ENDBRANCH  11  12
ENDBRANCH  10  11
ENDBRANCH   6  10
BRANCH   8  25
HETATM   25  C12 UNL     1       3.072  38.403  22.846  1.00  0.00     0.186 C 
HETATM   26  S2  UNL     1       2.380  37.984  21.405  1.00  0.00    -0.040 SA
BRANCH  25  27
HETATM   27  N7  UNL     1       4.151  39.291  22.903  1.00  0.00    -0.362 N 
ATOM     28  H7  UNL     1       4.174  39.924  23.702  1.00  0.00     0.162 HD
BRANCH  27  29
HETATM   29  C13 UNL     1       5.228  39.410  21.969  1.00  0.00     0.083 C 
HETATM   30  C14 UNL     1       4.824  40.276  20.793  1.00  0.00     0.025 C 
HETATM   31  C15 UNL     1       5.641  39.946  19.550  1.00  0.00     0.002 C 
HETATM   32  C16 UNL     1       6.147  41.170  18.866  1.00  0.00     0.000 C 
HETATM   33  C17 UNL     1       7.302  41.000  17.973  1.00  0.00     0.000 C 
HETATM   34  C18 UNL     1       8.464  40.236  18.506  1.00  0.00     0.000 C 
HETATM   35  C19 UNL     1       9.248  40.981  19.560  1.00  0.00     0.000 C 
HETATM   36  C20 UNL     1      10.092  40.113  20.420  1.00  0.00     0.000 C 
HETATM   37  C21 UNL     1       9.408  39.067  21.204  1.00  0.00     0.000 C 
HETATM   38  C22 UNL     1       8.880  39.545  22.564  1.00  0.00     0.000 C 
HETATM   39  C23 UNL     1       7.533  38.926  22.868  1.00  0.00     0.002 C 
HETATM   40  C24 UNL     1       6.499  39.970  22.513  1.00  0.00     0.025 C 
ENDBRANCH  27  29
ENDBRANCH  25  27
ENDBRANCH   8  25
TORSDOF 10
ENDMDL
MODEL 2
REMARK VINA RESULT: -7.591162074      3.199      7.076
REMARK  10 active torsions:
REMARK  status: ('A' for Active; 'I' for Inactive)
REMARK       I    between atoms: C2_5  and  N3_6 
REMARK       I    between atoms: C2_5  and  N6_23 
REMARK    1  A    between atoms: N3_6  and  C3_8 
REMARK    2  A    between atoms: C3_8  and  C4_9 
REMARK    3  A    between atoms: C4_9  and  C5_10 
REMARK    4  A    between atoms: C5_10  and  N4_11 
REMARK    5  A    between atoms: N4_11  and  C6_13 
REMARK    6  A    between atoms: C6_13  and  N5_15 
REMARK    7  A    between atoms: C9_18  and  O1_19 
REMARK    8  A    between atoms: N6_23  and  C12_25 
REMARK    9  A    between atoms: C12_25  and  N7_27 
REMARK   10  A    between atoms: N7_27  and  C13_29 
ROOT
HETATM    1  N1  UNL     1       0.726  37.230  25.253  1.00  0.00    -0.171 NA
HETATM    2  C1  UNL     1       1.030  37.759  24.256  1.00  0.00     0.196 C 
HETATM    3  N2  UNL     1       1.369  38.403  23.069  1.00  0.00    -0.126 N 
ATOM      4  H2  UNL     1       1.200  39.407  22.995  1.00  0.00     0.197 HD
HETATM    5  C2  UNL     1       1.891  37.784  22.054  1.00  0.00     0.689 C 
HETATM    6  N3  UNL     1       2.222  38.471  20.865  1.00  0.00    -0.225 N 
ATOM      7  H3  UNL     1       2.749  37.984  20.141  1.00  0.00     0.177 HD
HETATM    8  N6  UNL     1       2.108  36.378  22.193  1.00  0.00    -0.166 N 
ATOM      9  H6  UNL     1       1.437  35.729  21.782  1.00  0.00     0.186 HD
ENDROOT
BRANCH   6  10
HETATM   10  C3  UNL     1       1.837  39.838  20.648  1.00  0.00     0.139 C 
BRANCH  10  11
HETATM   11  C4  UNL     1       3.003  40.684  20.170  1.00  0.00     0.040 C 
BRANCH  11  12
HETATM   12  C5  UNL     1       4.035  40.879  21.223  1.00  0.00     0.123 C 
BRANCH  12  13
HETATM   13  N4  UNL     1       5.265  40.201  20.972  1.00  0.00    -0.367 N 
ATOM     14  H4  UNL     1       5.253  39.330  20.440  1.00  0.00     0.161 HD
BRANCH  13  15
HETATM   15  C6  UNL     1       6.496  40.701  21.439  1.00  0.00     0.169 C 
HETATM   16  S1  UNL     1       6.578  42.221  22.092  1.00  0.00    -0.041 SA
BRANCH  15  17
HETATM   17  N5  UNL     1       7.684  39.934  21.335  1.00  0.00    -0.358 N 
HETATM   18  C7  UNL     1       8.314  39.593  20.092  1.00  0.00     0.127 C 
HETATM   19  C8  UNL     1       9.668  40.291  20.095  1.00  0.00     0.051 C 
HETATM   20  C9  UNL     1      10.495  39.984  21.296  1.00  0.00     0.121 C 
HETATM   21  C10 UNL     1       9.776  39.992  22.600  1.00  0.00     0.051 C 
HETATM   22  C11 UNL     1       8.365  39.440  22.536  1.00  0.00     0.127 C 
BRANCH  20  23
HETATM   23  O1  UNL     1      11.244  38.829  21.069  1.00  0.00    -0.395 OA
ATOM     24  H1  UNL     1      11.660  38.553  21.878  1.00  0.00     0.210 HD
ENDBRANCH  20  23
ENDBRANCH  15  17
ENDBRANCH  13  15
ENDBRANCH  12  13
ENDBRANCH  11  12
ENDBRANCH  10  11
ENDBRANCH   6  10
BRANCH   8  25
HETATM   25  C12 UNL     1       3.229  35.864  22.885  1.00  0.00     0.186 C 
HETATM   26  S2  UNL     1       3.129  34.300  23.409  1.00  0.00    -0.040 SA
BRANCH  25  27
HETATM   27  N7  UNL     1       4.369  36.639  23.119  1.00  0.00    -0.362 N 
ATOM     28  H7  UNL     1       4.969  36.815  22.313  1.00  0.00     0.162 HD
BRANCH  27  29
HETATM   29  C13 UNL     1       4.790  37.211  24.360  1.00  0.00     0.083 C 
HETATM   30  C14 UNL     1       5.880  36.371  24.996  1.00  0.00     0.025 C 
HETATM   31  C15 UNL     1       5.921  36.561  26.507  1.00  0.00     0.002 C 
HETATM   32  C16 UNL     1       7.308  36.766  27.013  1.00  0.00     0.000 C 
HETATM   33  C17 UNL     1       7.445  37.417  28.324  1.00  0.00     0.000 C 
HETATM   34  C18 UNL     1       6.666  38.667  28.544  1.00  0.00     0.000 C 
HETATM   35  C19 UNL     1       7.194  39.855  27.775  1.00  0.00     0.000 C 
HETATM   36  C20 UNL     1       6.212  40.955  27.603  1.00  0.00     0.000 C 
HETATM   37  C21 UNL     1       4.960  40.638  26.890  1.00  0.00     0.000 C 
HETATM   38  C22 UNL     1       5.056  40.766  25.363  1.00  0.00     0.000 C 
HETATM   39  C23 UNL     1       4.282  39.659  24.679  1.00  0.00     0.002 C 
HETATM   40  C24 UNL     1       5.298  38.612  24.288  1.00  0.00     0.025 C 
ENDBRANCH  27  29
ENDBRANCH  25  27
ENDBRANCH   8  25
TORSDOF 10
ENDMDL
MODEL 3
REMARK VINA RESULT: -7.535302609      3.406      7.652
REMARK  10 active torsions:
REMARK  status: ('A' for Active; 'I' for Inactive)
REMARK       I    between atoms: C2_5  and  N3_6 
REMARK       I    between atoms: C2_5  and  N6_23 
REMARK    1  A    between atoms: N3_6  and  C3_8 
REMARK    2  A    between atoms: C3_8  and  C4_9 
REMARK    3  A    between atoms: C4_9  and  C5_10 
REMARK    4  A    between atoms: C5_10  and  N4_11 
REMARK    5  A    between atoms: N4_11  and  C6_13 
REMARK    6  A    between atoms: C6_13  and  N5_15 
REMARK    7  A    between atoms: C9_18  and  O1_19 
REMARK    8  A    between atoms: N6_23  and  C12_25 
REMARK    9  A    between atoms: C12_25  and  N7_27 
REMARK   10  A    between atoms: N7_27  and  C13_29 
ROOT
HETATM    1  N1  UNL     1       0.974  40.988  19.987  1.00  0.00    -0.171 NA
HETATM    2  C1  UNL     1       2.126  40.934  19.803  1.00  0.00     0.196 C 
HETATM    3  N2  UNL     1       3.497  40.884  19.562  1.00  0.00    -0.126 N 
ATOM      4  H2  UNL     1       3.973  41.741  19.280  1.00  0.00     0.197 HD
HETATM    5  C2  UNL     1       4.195  39.795  19.681  1.00  0.00     0.689 C 
HETATM    6  N3  UNL     1       5.585  39.782  19.428  1.00  0.00    -0.225 N 
ATOM      7  H3  UNL     1       6.123  38.948  19.657  1.00  0.00     0.177 HD
HETATM    8  N6  UNL     1       3.493  38.613  20.071  1.00  0.00    -0.166 N 
ATOM      9  H6  UNL     1       3.228  37.934  19.359  1.00  0.00     0.186 HD
ENDROOT
BRANCH   6  10
HETATM   10  C3  UNL     1       6.260  40.914  18.855  1.00  0.00     0.139 C 
BRANCH  10  11
HETATM   11  C4  UNL     1       7.494  40.499  18.074  1.00  0.00     0.040 C 
BRANCH  11  12
HETATM   12  C5  UNL     1       8.331  39.516  18.813  1.00  0.00     0.123 C 
BRANCH  12  13
HETATM   13  N4  UNL     1       9.700  39.896  18.951  1.00  0.00    -0.367 N 
ATOM     14  H4  UNL     1      10.418  39.344  18.482  1.00  0.00     0.161 HD
BRANCH  13  15
HETATM   15  C6  UNL     1      10.085  41.014  19.716  1.00  0.00     0.169 C 
HETATM   16  S1  UNL     1      10.990  42.218  19.026  1.00  0.00    -0.041 SA
BRANCH  15  17
HETATM   17  N5  UNL     1       9.733  41.119  21.085  1.00  0.00    -0.358 N 
HETATM   18  C7  UNL     1       8.927  42.175  21.628  1.00  0.00     0.127 C 
HETATM   19  C8  UNL     1       7.648  41.520  22.133  1.00  0.00     0.051 C 
HETATM   20  C9  UNL     1       7.888  40.394  23.080  1.00  0.00     0.121 C 
HETATM   21  C10 UNL     1       8.978  39.450  22.706  1.00  0.00     0.051 C 
HETATM   22  C11 UNL     1      10.177  40.113  22.054  1.00  0.00     0.127 C 
BRANCH  20  23
HETATM   23  O1  UNL     1       7.987  40.887  24.381  1.00  0.00    -0.395 OA
ATOM     24  H1  UNL     1       7.825  40.186  25.002  1.00  0.00     0.210 HD
ENDBRANCH  20  23
ENDBRANCH  15  17
ENDBRANCH  13  15
ENDBRANCH  12  13
ENDBRANCH  11  12
ENDBRANCH  10  11
ENDBRANCH   6  10
BRANCH   8  25
HETATM   25  C12 UNL     1       3.158  38.361  21.422  1.00  0.00     0.186 C 
HETATM   26  S2  UNL     1       2.041  37.177  21.705  1.00  0.00    -0.040 SA
BRANCH  25  27
HETATM   27  N7  UNL     1       3.740  39.078  22.472  1.00  0.00    -0.362 N 
ATOM     28  H7  UNL     1       3.760  40.092  22.372  1.00  0.00     0.162 HD
BRANCH  27  29
HETATM   29  C13 UNL     1       4.311  38.548  23.672  1.00  0.00     0.083 C 
HETATM   30  C14 UNL     1       5.595  37.802  23.372  1.00  0.00     0.025 C 
HETATM   31  C15 UNL     1       5.892  36.752  24.435  1.00  0.00     0.002 C 
HETATM   32  C16 UNL     1       7.314  36.791  24.884  1.00  0.00     0.000 C 
HETATM   33  C17 UNL     1       7.611  36.191  26.193  1.00  0.00     0.000 C 
HETATM   34  C18 UNL     1       6.738  36.586  27.333  1.00  0.00     0.000 C 
HETATM   35  C19 UNL     1       6.962  38.002  27.807  1.00  0.00     0.000 C 
HETATM   36  C20 UNL     1       5.837  38.568  28.594  1.00  0.00     0.000 C 
HETATM   37  C21 UNL     1       4.523  38.653  27.929  1.00  0.00     0.000 C 
HETATM   38  C22 UNL     1       4.317  39.933  27.107  1.00  0.00     0.000 C 
HETATM   39  C23 UNL     1       3.572  39.636  25.823  1.00  0.00     0.002 C 
HETATM   40  C24 UNL     1       4.619  39.546  24.738  1.00  0.00     0.025 C 
ENDBRANCH  27  29
ENDBRANCH  25  27
ENDBRANCH   8  25
TORSDOF 10
ENDMDL
MODEL 4
REMARK VINA RESULT: -7.524855049      3.759      8.582
REMARK  10 active torsions:
REMARK  status: ('A' for Active; 'I' for Inactive)
REMARK       I    between atoms: C2_5  and  N3_6 
REMARK       I    between atoms: C2_5  and  N6_23 
REMARK    1  A    between atoms: N3_6  and  C3_8 
REMARK    2  A    between atoms: C3_8  and  C4_9 
REMARK    3  A    between atoms: C4_9  and  C5_10 
REMARK    4  A    between atoms: C5_10  and  N4_11 
REMARK    5  A    between atoms: N4_11  and  C6_13 
REMARK    6  A    between atoms: C6_13  and  N5_15 
REMARK    7  A    between atoms: C9_18  and  O1_19 
REMARK    8  A    between atoms: N6_23  and  C12_25 
REMARK    9  A    between atoms: C12_25  and  N7_27 
REMARK   10  A    between atoms: N7_27  and  C13_29 
ROOT
HETATM    1  N1  UNL     1       0.983  40.545  21.165  1.00  0.00    -0.171 NA
HETATM    2  C1  UNL     1       1.999  40.626  20.592  1.00  0.00     0.196 C 
HETATM    3  N2  UNL     1       3.196  40.737  19.892  1.00  0.00    -0.126 N 
ATOM      4  H2  UNL     1       3.438  41.639  19.479  1.00  0.00     0.197 HD
HETATM    5  C2  UNL     1       4.020  39.744  19.739  1.00  0.00     0.689 C 
HETATM    6  N3  UNL     1       5.226  39.894  19.021  1.00  0.00    -0.225 N 
ATOM      7  H3  UNL     1       5.909  39.136  19.032  1.00  0.00     0.177 HD
HETATM    8  N6  UNL     1       3.646  38.496  20.325  1.00  0.00    -0.166 N 
ATOM      9  H6  UNL     1       3.235  37.773  19.734  1.00  0.00     0.186 HD
ENDROOT
BRANCH   6  10
HETATM   10  C3  UNL     1       5.519  41.086  18.273  1.00  0.00     0.139 C 
BRANCH  10  11
HETATM   11  C4  UNL     1       6.533  40.827  17.173  1.00  0.00     0.040 C 
BRANCH  11  12
HETATM   12  C5  UNL     1       7.614  41.848  17.143  1.00  0.00     0.123 C 
BRANCH  12  13
HETATM   13  N4  UNL     1       7.989  42.344  18.428  1.00  0.00    -0.367 N 
ATOM     14  H4  UNL     1       7.531  43.180  18.792  1.00  0.00     0.161 HD
BRANCH  13  15
HETATM   15  C6  UNL     1       8.976  41.710  19.208  1.00  0.00     0.169 C 
HETATM   16  S1  UNL     1      10.568  42.123  19.024  1.00  0.00    -0.041 SA
BRANCH  15  17
HETATM   17  N5  UNL     1       8.632  40.696  20.138  1.00  0.00    -0.358 N 
HETATM   18  C7  UNL     1       8.825  39.293  19.903  1.00  0.00     0.127 C 
HETATM   19  C8  UNL     1       9.852  38.826  20.928  1.00  0.00     0.051 C 
HETATM   20  C9  UNL     1       9.487  39.160  22.333  1.00  0.00     0.121 C 
HETATM   21  C10 UNL     1       8.946  40.530  22.558  1.00  0.00     0.051 C 
HETATM   22  C11 UNL     1       8.053  41.036  21.440  1.00  0.00     0.127 C 
BRANCH  20  23
HETATM   23  O1  UNL     1       8.694  38.144  22.867  1.00  0.00    -0.395 OA
ATOM     24  H1  UNL     1       9.231  37.559  23.389  1.00  0.00     0.210 HD
ENDBRANCH  20  23
ENDBRANCH  15  17
ENDBRANCH  13  15
ENDBRANCH  12  13
ENDBRANCH  11  12
ENDBRANCH  10  11
ENDBRANCH   6  10
BRANCH   8  25
HETATM   25  C12 UNL     1       3.831  38.236  21.703  1.00  0.00     0.186 C 
HETATM   26  S2  UNL     1       4.943  39.169  22.494  1.00  0.00    -0.040 SA
BRANCH  25  27
HETATM   27  N7  UNL     1       3.112  37.240  22.369  1.00  0.00    -0.362 N 
ATOM     28  H7  UNL     1       2.935  36.383  21.845  1.00  0.00     0.162 HD
BRANCH  27  29
HETATM   29  C13 UNL     1       2.595  37.287  23.702  1.00  0.00     0.083 C 
HETATM   30  C14 UNL     1       1.118  36.947  23.717  1.00  0.00     0.025 C 
HETATM   31  C15 UNL     1       0.418  37.555  24.925  1.00  0.00     0.002 C 
HETATM   32  C16 UNL     1      -0.476  36.577  25.611  1.00  0.00     0.000 C 
HETATM   33  C17 UNL     1      -0.823  36.866  27.010  1.00  0.00     0.000 C 
HETATM   34  C18 UNL     1       0.296  37.216  27.928  1.00  0.00     0.000 C 
HETATM   35  C19 UNL     1       1.186  36.046  28.274  1.00  0.00     0.000 C 
HETATM   36  C20 UNL     1       2.527  36.429  28.783  1.00  0.00     0.000 C 
HETATM   37  C21 UNL     1       3.384  37.234  27.891  1.00  0.00     0.000 C 
HETATM   38  C22 UNL     1       4.223  36.406  26.909  1.00  0.00     0.000 C 
HETATM   39  C23 UNL     1       4.291  37.079  25.555  1.00  0.00     0.002 C 
HETATM   40  C24 UNL     1       3.264  36.389  24.688  1.00  0.00     0.025 C 
ENDBRANCH  27  29
ENDBRANCH  25  27
ENDBRANCH   8  25
TORSDOF 10
ENDMDL
MODEL 5
REMARK VINA RESULT: -7.503146788      3.209      7.820
REMARK  10 active torsions:
REMARK  status: ('A' for Active; 'I' for Inactive)
REMARK       I    between atoms: C2_5  and  N3_6 
REMARK       I    between atoms: C2_5  and  N6_23 
REMARK    1  A    between atoms: N3_6  and  C3_8 
REMARK    2  A    between atoms: C3_8  and  C4_9 
REMARK    3  A    between atoms: C4_9  and  C5_10 
REMARK    4  A    between atoms: C5_10  and  N4_11 
REMARK    5  A    between atoms: N4_11  and  C6_13 
REMARK    6  A    between atoms: C6_13  and  N5_15 
REMARK    7  A    between atoms: C9_18  and  O1_19 
REMARK    8  A    between atoms: N6_23  and  C12_25 
REMARK    9  A    between atoms: C12_25  and  N7_27 
REMARK   10  A    between atoms: N7_27  and  C13_29 
ROOT
HETATM    1  N1  UNL     1       1.042  40.521  21.962  1.00  0.00    -0.171 NA
HETATM    2  C1  UNL     1       1.995  40.572  21.287  1.00  0.00     0.196 C 
HETATM    3  N2  UNL     1       3.117  40.649  20.466  1.00  0.00    -0.126 N 
ATOM      4  H2  UNL     1       3.339  41.542  20.026  1.00  0.00     0.197 HD
HETATM    5  C2  UNL     1       3.894  39.633  20.236  1.00  0.00     0.689 C 
HETATM    6  N3  UNL     1       5.024  39.748  19.397  1.00  0.00    -0.225 N 
ATOM      7  H3  UNL     1       5.684  38.972  19.343  1.00  0.00     0.177 HD
HETATM    8  N6  UNL     1       3.549  38.397  20.865  1.00  0.00    -0.166 N 
ATOM      9  H6  UNL     1       3.061  37.684  20.324  1.00  0.00     0.186 HD
ENDROOT
BRANCH   6  10
HETATM   10  C3  UNL     1       5.270  40.929  18.615  1.00  0.00     0.139 C 
BRANCH  10  11
HETATM   11  C4  UNL     1       6.028  40.613  17.339  1.00  0.00     0.040 C 
BRANCH  11  12
HETATM   12  C5  UNL     1       7.176  41.532  17.116  1.00  0.00     0.123 C 
BRANCH  12  13
HETATM   13  N4  UNL     1       7.615  42.219  18.289  1.00  0.00    -0.367 N 
ATOM     14  H4  UNL     1       7.134  43.072  18.574  1.00  0.00     0.161 HD
BRANCH  13  15
HETATM   15  C6  UNL     1       8.694  41.749  19.062  1.00  0.00     0.169 C 
HETATM   16  S1  UNL     1      10.201  42.404  18.865  1.00  0.00    -0.041 SA
BRANCH  15  17
HETATM   17  N5  UNL     1       8.520  40.697  19.998  1.00  0.00    -0.358 N 
HETATM   18  C7  UNL     1       8.894  39.334  19.752  1.00  0.00     0.127 C 
HETATM   19  C8  UNL     1      10.005  39.012  20.744  1.00  0.00     0.051 C 
HETATM   20  C9  UNL     1       9.640  39.293  22.161  1.00  0.00     0.121 C 
HETATM   21  C10 UNL     1       8.925  40.576  22.407  1.00  0.00     0.051 C 
HETATM   22  C11 UNL     1       7.938  40.956  21.318  1.00  0.00     0.127 C 
BRANCH  20  23
HETATM   23  O1  UNL     1       9.009  38.178  22.714  1.00  0.00    -0.395 OA
ATOM     24  H1  UNL     1       8.066  38.271  22.635  1.00  0.00     0.210 HD
ENDBRANCH  20  23
ENDBRANCH  15  17
ENDBRANCH  13  15
ENDBRANCH  12  13
ENDBRANCH  11  12
ENDBRANCH  10  11
ENDBRANCH   6  10
BRANCH   8  25
HETATM   25  C12 UNL     1       3.869  38.138  22.218  1.00  0.00     0.186 C 
HETATM   26  S2  UNL     1       2.729  37.344  23.114  1.00  0.00    -0.040 SA
BRANCH  25  27
HETATM   27  N7  UNL     1       5.088  38.532  22.776  1.00  0.00    -0.362 N 
ATOM     28  H7  UNL     1       5.762  38.956  22.139  1.00  0.00     0.162 HD
BRANCH  27  29
HETATM   29  C13 UNL     1       5.498  38.408  24.141  1.00  0.00     0.083 C 
HETATM   30  C14 UNL     1       6.234  37.102  24.363  1.00  0.00     0.025 C 
HETATM   31  C15 UNL     1       6.144  36.651  25.816  1.00  0.00     0.002 C 
HETATM   32  C16 UNL     1       7.465  36.214  26.354  1.00  0.00     0.000 C 
HETATM   33  C17 UNL     1       7.617  36.215  27.816  1.00  0.00     0.000 C 
HETATM   34  C18 UNL     1       7.188  37.443  28.541  1.00  0.00     0.000 C 
HETATM   35  C19 UNL     1       8.107  38.623  28.333  1.00  0.00     0.000 C 
HETATM   36  C20 UNL     1       7.491  39.939  28.640  1.00  0.00     0.000 C 
HETATM   37  C21 UNL     1       6.294  40.321  27.867  1.00  0.00     0.000 C 
HETATM   38  C22 UNL     1       6.602  41.012  26.531  1.00  0.00     0.000 C 
HETATM   39  C23 UNL     1       5.643  40.556  25.453  1.00  0.00     0.002 C 
HETATM   40  C24 UNL     1       6.374  39.500  24.656  1.00  0.00     0.025 C 
ENDBRANCH  27  29
ENDBRANCH  25  27
ENDBRANCH   8  25
TORSDOF 10
ENDMDL
