MODEL 1
REMARK VINA RESULT: -6.374094623      0.000      0.000
REMARK  16 active torsions:
REMARK  status: ('A' for Active; 'I' for Inactive)
REMARK    1  A    between atoms: C2_2  and  C3_3 
REMARK    2  A    between atoms: C3_3  and  C4_4 
REMARK    3  A    between atoms: C5_5  and  C6_6 
REMARK    4  A    between atoms: C6_6  and  N1_8 
REMARK    5  A    between atoms: C6_6  and  C23_38 
REMARK    6  A    between atoms: N1_8  and  C8_10 
REMARK    7  A    between atoms: C8_10  and  O1_11 
REMARK    8  A    between atoms: C8_10  and  N2_13 
REMARK    9  A    between atoms: N2_13  and  C9_15 
REMARK   10  A    between atoms: C9_15  and  O2_16 
REMARK   11  A    between atoms: C9_15  and  C10_18 
REMARK   12  A    between atoms: C13_21  and  C14_22 
REMARK       I    between atoms: C14_22  and  N3_24 
REMARK   13  A    between atoms: N3_24  and  C15_26 
REMARK   14  A    between atoms: C15_26  and  C16_27 
REMARK   15  A    between atoms: C15_26  and  C20_32 
REMARK   16  A    between atoms: C16_27  and  C17_29 
ROOT
HETATM    1  C10 UNL     1       9.172  41.047  20.802  1.00  0.00     0.261 C 
HETATM    2  C11 UNL     1      10.254  40.018  20.836  1.00  0.00     0.044 C 
HETATM    3  C12 UNL     1       9.951  39.080  21.960  1.00  0.00     0.045 C 
HETATM    4  C13 UNL     1       8.508  39.394  22.306  1.00  0.00     0.278 C 
HETATM    5  N4  UNL     1       8.322  40.761  21.952  1.00  0.00    -0.051 N 
ATOM      6  H41 UNL     1       7.343  40.997  21.788  1.00  0.00     0.279 HD
ATOM      7  H42 UNL     1       8.486  41.397  22.733  1.00  0.00     0.279 HD
ENDROOT
BRANCH   1   8
HETATM    8  C9  UNL     1       8.378  40.977  19.558  1.00  0.00     0.149 C 
BRANCH   8   9
HETATM    9  N2  UNL     1       7.058  41.343  19.339  1.00  0.00    -0.305 N 
ATOM     10  H2  UNL     1       6.900  42.347  19.429  1.00  0.00     0.171 HD
BRANCH   9  11
HETATM   11  C8  UNL     1       5.913  40.637  19.026  1.00  0.00     0.220 C 
BRANCH  11  12
HETATM   12  N1  UNL     1       5.131  39.759  19.769  1.00  0.00    -0.330 N 
ATOM     13  H1  UNL     1       5.233  38.756  19.616  1.00  0.00     0.165 HD
BRANCH  12  14
HETATM   14  C6  UNL     1       4.161  40.231  20.767  1.00  0.00     0.154 C 
HETATM   15  C7  UNL     1       3.268  41.255  20.070  1.00  0.00     0.061 C 
BRANCH  14  16
HETATM   16  C5  UNL     1       3.371  39.051  21.126  1.00  0.00    -0.067 C 
HETATM   17  C4  UNL     1       2.737  38.061  21.425  1.00  0.00    -0.104 C 
BRANCH  17  18
HETATM   18  C3  UNL     1       1.993  36.852  21.775  1.00  0.00     0.093 C 
BRANCH  18  19
HETATM   19  C2  UNL     1       2.537  36.252  23.071  1.00  0.00     0.007 C 
HETATM   20  C1  UNL     1       2.992  34.834  22.858  1.00  0.00     0.006 C 
ENDBRANCH  18  19
ENDBRANCH  17  18
ENDBRANCH  14  16
BRANCH  14  21
HETATM   21  C23 UNL     1       4.787  40.893  21.909  1.00  0.00     0.163 C 
HETATM   22  C24 UNL     1       4.748  40.299  23.266  1.00  0.00     0.095 C 
HETATM   23  O5  UNL     1       5.359  41.956  21.763  1.00  0.00    -0.295 OA
ENDBRANCH  14  21
ENDBRANCH  12  14
ENDBRANCH  11  12
BRANCH  11  24
HETATM   24  O1  UNL     1       5.475  40.816  17.805  1.00  0.00    -0.332 OA
ATOM     25  H1  UNL     1       6.070  41.319  17.262  1.00  0.00     0.220 HD
ENDBRANCH  11  24
ENDBRANCH   9  11
ENDBRANCH   8   9
BRANCH   8  26
HETATM   26  O2  UNL     1       8.995  40.502  18.500  1.00  0.00    -0.348 OA
ATOM     27  H2  UNL     1       9.932  40.389  18.607  1.00  0.00     0.219 HD
ENDBRANCH   8  26
ENDBRANCH   1   8
BRANCH   4  28
HETATM   28  C14 UNL     1       8.239  39.150  23.742  1.00  0.00     0.249 C 
HETATM   29  O3  UNL     1       8.036  40.136  24.531  1.00  0.00    -0.271 OA
HETATM   30  N3  UNL     1       8.213  37.819  24.225  1.00  0.00    -0.347 N 
ATOM     31  H3  UNL     1       8.378  37.044  23.583  1.00  0.00     0.163 HD
BRANCH  30  32
HETATM   32  C15 UNL     1       7.943  37.543  25.670  1.00  0.00     0.158 C 
BRANCH  32  33
HETATM   33  C16 UNL     1       8.933  36.531  26.124  1.00  0.00     0.153 C 
HETATM   34  O4  UNL     1       9.983  36.371  25.462  1.00  0.00    -0.295 OA
BRANCH  33  35
HETATM   35  C17 UNL     1       8.807  35.673  27.313  1.00  0.00     0.049 C 
HETATM   36  C18 UNL     1       9.791  34.486  27.211  1.00  0.00     0.017 C 
HETATM   37  C19 UNL     1       9.302  36.471  28.526  1.00  0.00     0.017 C 
ENDBRANCH  33  35
ENDBRANCH  32  33
BRANCH  32  38
HETATM   38  C20 UNL     1       6.513  37.169  25.818  1.00  0.00     0.007 C 
HETATM   39  C21 UNL     1       5.870  36.774  24.551  1.00  0.00     0.012 C 
HETATM   40  C22 UNL     1       5.673  38.262  26.444  1.00  0.00     0.012 C 
ENDBRANCH  32  38
ENDBRANCH  30  32
ENDBRANCH   4  28
TORSDOF 16
ENDMDL
MODEL 2
REMARK VINA RESULT: -6.345804655      2.167      7.583
REMARK  16 active torsions:
REMARK  status: ('A' for Active; 'I' for Inactive)
REMARK    1  A    between atoms: C2_2  and  C3_3 
REMARK    2  A    between atoms: C3_3  and  C4_4 
REMARK    3  A    between atoms: C5_5  and  C6_6 
REMARK    4  A    between atoms: C6_6  and  N1_8 
REMARK    5  A    between atoms: C6_6  and  C23_38 
REMARK    6  A    between atoms: N1_8  and  C8_10 
REMARK    7  A    between atoms: C8_10  and  O1_11 
REMARK    8  A    between atoms: C8_10  and  N2_13 
REMARK    9  A    between atoms: N2_13  and  C9_15 
REMARK   10  A    between atoms: C9_15  and  O2_16 
REMARK   11  A    between atoms: C9_15  and  C10_18 
REMARK   12  A    between atoms: C13_21  and  C14_22 
REMARK       I    between atoms: C14_22  and  N3_24 
REMARK   13  A    between atoms: N3_24  and  C15_26 
REMARK   14  A    between atoms: C15_26  and  C16_27 
REMARK   15  A    between atoms: C15_26  and  C20_32 
REMARK   16  A    between atoms: C16_27  and  C17_29 
ROOT
HETATM    1  C10 UNL     1       3.164  39.476  22.853  1.00  0.00     0.261 C 
HETATM    2  C11 UNL     1       2.684  39.251  21.457  1.00  0.00     0.044 C 
HETATM    3  C12 UNL     1       3.818  39.560  20.533  1.00  0.00     0.045 C 
HETATM    4  C13 UNL     1       5.023  39.606  21.453  1.00  0.00     0.278 C 
HETATM    5  N4  UNL     1       4.517  40.005  22.722  1.00  0.00    -0.051 N 
ATOM      6  H41 UNL     1       5.125  39.731  23.494  1.00  0.00     0.279 HD
ATOM      7  H42 UNL     1       4.562  41.014  22.866  1.00  0.00     0.279 HD
ENDROOT
BRANCH   1   8
HETATM    8  C9  UNL     1       3.185  38.226  23.642  1.00  0.00     0.149 C 
BRANCH   8   9
HETATM    9  N2  UNL     1       4.107  37.803  24.588  1.00  0.00    -0.305 N 
ATOM     10  H2  UNL     1       4.058  38.329  25.460  1.00  0.00     0.171 HD
BRANCH   9  11
HETATM   11  C8  UNL     1       5.078  36.821  24.598  1.00  0.00     0.220 C 
BRANCH  11  12
HETATM   12  N1  UNL     1       6.023  36.460  25.554  1.00  0.00    -0.330 N 
ATOM     13  H1  UNL     1       5.875  35.610  26.099  1.00  0.00     0.165 HD
BRANCH  12  14
HETATM   14  C6  UNL     1       7.228  37.263  25.803  1.00  0.00     0.154 C 
HETATM   15  C7  UNL     1       6.864  38.290  26.873  1.00  0.00     0.061 C 
BRANCH  14  16
HETATM   16  C5  UNL     1       8.216  36.322  26.336  1.00  0.00    -0.067 C 
HETATM   17  C4  UNL     1       9.029  35.529  26.761  1.00  0.00    -0.104 C 
BRANCH  17  18
HETATM   18  C3  UNL     1       9.996  34.553  27.259  1.00  0.00     0.093 C 
BRANCH  18  19
HETATM   19  C2  UNL     1       9.862  34.400  28.774  1.00  0.00     0.007 C 
HETATM   20  C1  UNL     1       9.986  32.957  29.183  1.00  0.00     0.006 C 
ENDBRANCH  18  19
ENDBRANCH  17  18
ENDBRANCH  14  16
BRANCH  14  21
HETATM   21  C23 UNL     1       7.685  37.994  24.623  1.00  0.00     0.163 C 
HETATM   22  C24 UNL     1       7.664  39.474  24.573  1.00  0.00     0.095 C 
HETATM   23  O5  UNL     1       8.095  37.391  23.650  1.00  0.00    -0.295 OA
ENDBRANCH  14  21
ENDBRANCH  12  14
ENDBRANCH  11  12
BRANCH  11  24
HETATM   24  O1  UNL     1       5.131  36.089  23.514  1.00  0.00    -0.332 OA
ATOM     25  H1  UNL     1       5.585  35.264  23.640  1.00  0.00     0.220 HD
ENDBRANCH  11  24
ENDBRANCH   9  11
ENDBRANCH   8   9
BRANCH   8  26
HETATM   26  O2  UNL     1       2.198  37.386  23.428  1.00  0.00    -0.348 OA
ATOM     27  H2  UNL     1       1.331  37.771  23.495  1.00  0.00     0.219 HD
ENDBRANCH   8  26
ENDBRANCH   1   8
BRANCH   4  28
HETATM   28  C14 UNL     1       6.047  40.547  20.942  1.00  0.00     0.249 C 
HETATM   29  O3  UNL     1       5.705  41.717  20.556  1.00  0.00    -0.271 OA
HETATM   30  N3  UNL     1       7.400  40.133  20.886  1.00  0.00    -0.347 N 
ATOM     31  H3  UNL     1       7.656  39.196  21.195  1.00  0.00     0.163 HD
BRANCH  30  32
HETATM   32  C15 UNL     1       8.456  41.062  20.375  1.00  0.00     0.158 C 
BRANCH  32  33
HETATM   33  C16 UNL     1       8.641  40.776  18.929  1.00  0.00     0.153 C 
HETATM   34  O4  UNL     1       8.979  39.624  18.577  1.00  0.00    -0.295 OA
BRANCH  33  35
HETATM   35  C17 UNL     1       8.454  41.736  17.828  1.00  0.00     0.049 C 
HETATM   36  C18 UNL     1       7.120  41.448  17.101  1.00  0.00     0.017 C 
HETATM   37  C19 UNL     1       8.255  43.127  18.443  1.00  0.00     0.017 C 
ENDBRANCH  33  35
ENDBRANCH  32  33
BRANCH  32  38
HETATM   38  C20 UNL     1       9.663  40.916  21.228  1.00  0.00     0.007 C 
HETATM   39  C21 UNL     1      10.873  41.534  20.654  1.00  0.00     0.012 C 
HETATM   40  C22 UNL     1       9.989  39.475  21.558  1.00  0.00     0.012 C 
ENDBRANCH  32  38
ENDBRANCH  30  32
ENDBRANCH   4  28
TORSDOF 16
ENDMDL
MODEL 3
REMARK VINA RESULT: -6.332957990      2.254      7.281
REMARK  16 active torsions:
REMARK  status: ('A' for Active; 'I' for Inactive)
REMARK    1  A    between atoms: C2_2  and  C3_3 
REMARK    2  A    between atoms: C3_3  and  C4_4 
REMARK    3  A    between atoms: C5_5  and  C6_6 
REMARK    4  A    between atoms: C6_6  and  N1_8 
REMARK    5  A    between atoms: C6_6  and  C23_38 
REMARK    6  A    between atoms: N1_8  and  C8_10 
REMARK    7  A    between atoms: C8_10  and  O1_11 
REMARK    8  A    between atoms: C8_10  and  N2_13 
REMARK    9  A    between atoms: N2_13  and  C9_15 
REMARK   10  A    between atoms: C9_15  and  O2_16 
REMARK   11  A    between atoms: C9_15  and  C10_18 
REMARK   12  A    between atoms: C13_21  and  C14_22 
REMARK       I    between atoms: C14_22  and  N3_24 
REMARK   13  A    between atoms: N3_24  and  C15_26 
REMARK   14  A    between atoms: C15_26  and  C16_27 
REMARK   15  A    between atoms: C15_26  and  C20_32 
REMARK   16  A    between atoms: C16_27  and  C17_29 
ROOT
HETATM    1  C10 UNL     1       3.100  39.222  22.288  1.00  0.00     0.261 C 
HETATM    2  C11 UNL     1       2.583  39.515  20.918  1.00  0.00     0.044 C 
HETATM    3  C12 UNL     1       3.736  39.987  20.091  1.00  0.00     0.045 C 
HETATM    4  C13 UNL     1       4.947  39.602  20.919  1.00  0.00     0.278 C 
HETATM    5  N4  UNL     1       4.503  39.617  22.272  1.00  0.00    -0.051 N 
ATOM      6  H41 UNL     1       5.083  39.043  22.884  1.00  0.00     0.279 HD
ATOM      7  H42 UNL     1       4.667  40.514  22.731  1.00  0.00     0.279 HD
ENDROOT
BRANCH   1   8
HETATM    8  C9  UNL     1       2.983  37.788  22.630  1.00  0.00     0.149 C 
BRANCH   8   9
HETATM    9  N2  UNL     1       3.508  37.101  23.714  1.00  0.00    -0.305 N 
ATOM     10  H2  UNL     1       3.012  37.289  24.586  1.00  0.00     0.171 HD
BRANCH   9  11
HETATM   11  C8  UNL     1       4.558  36.217  23.865  1.00  0.00     0.220 C 
BRANCH  11  12
HETATM   12  N1  UNL     1       5.804  36.349  24.470  1.00  0.00    -0.330 N 
ATOM     13  H1  UNL     1       6.594  35.825  24.093  1.00  0.00     0.165 HD
BRANCH  12  14
HETATM   14  C6  UNL     1       6.018  37.220  25.634  1.00  0.00     0.154 C 
HETATM   15  C7  UNL     1       4.818  37.030  26.558  1.00  0.00     0.061 C 
BRANCH  14  16
HETATM   16  C5  UNL     1       7.227  36.707  26.283  1.00  0.00    -0.067 C 
HETATM   17  C4  UNL     1       8.215  36.278  26.839  1.00  0.00    -0.104 C 
BRANCH  17  18
HETATM   18  C3  UNL     1       9.396  35.767  27.534  1.00  0.00     0.093 C 
BRANCH  18  19
HETATM   19  C2  UNL     1       9.887  34.482  26.868  1.00  0.00     0.007 C 
HETATM   20  C1  UNL     1      10.097  33.394  27.887  1.00  0.00     0.006 C 
ENDBRANCH  18  19
ENDBRANCH  17  18
ENDBRANCH  14  16
BRANCH  14  21
HETATM   21  C23 UNL     1       6.091  38.637  25.286  1.00  0.00     0.163 C 
HETATM   22  C24 UNL     1       7.362  39.265  24.857  1.00  0.00     0.095 C 
HETATM   23  O5  UNL     1       5.096  39.333  25.344  1.00  0.00    -0.295 OA
ENDBRANCH  14  21
ENDBRANCH  12  14
ENDBRANCH  11  12
BRANCH  11  24
HETATM   24  O1  UNL     1       4.358  35.034  23.343  1.00  0.00    -0.332 OA
ATOM     25  H1  UNL     1       3.478  34.915  23.007  1.00  0.00     0.220 HD
ENDBRANCH  11  24
ENDBRANCH   9  11
ENDBRANCH   8   9
BRANCH   8  26
HETATM   26  O2  UNL     1       2.288  37.046  21.798  1.00  0.00    -0.348 OA
ATOM     27  H2  UNL     1       1.684  37.531  21.247  1.00  0.00     0.219 HD
ENDBRANCH   8  26
ENDBRANCH   1   8
BRANCH   4  28
HETATM   28  C14 UNL     1       6.069  40.543  20.691  1.00  0.00     0.249 C 
HETATM   29  O3  UNL     1       5.837  41.795  20.565  1.00  0.00    -0.271 OA
HETATM   30  N3  UNL     1       7.390  40.039  20.615  1.00  0.00    -0.347 N 
ATOM     31  H3  UNL     1       7.557  39.038  20.716  1.00  0.00     0.163 HD
BRANCH  30  32
HETATM   32  C15 UNL     1       8.542  40.967  20.386  1.00  0.00     0.158 C 
BRANCH  32  33
HETATM   33  C16 UNL     1       8.897  40.891  18.945  1.00  0.00     0.153 C 
HETATM   34  O4  UNL     1       9.432  39.848  18.506  1.00  0.00    -0.295 OA
BRANCH  33  35
HETATM   35  C17 UNL     1       8.670  41.946  17.944  1.00  0.00     0.049 C 
HETATM   36  C18 UNL     1       7.355  41.672  17.180  1.00  0.00     0.017 C 
HETATM   37  C19 UNL     1       8.405  43.259  18.692  1.00  0.00     0.017 C 
ENDBRANCH  33  35
ENDBRANCH  32  33
BRANCH  32  38
HETATM   38  C20 UNL     1       9.623  40.618  21.343  1.00  0.00     0.007 C 
HETATM   39  C21 UNL     1       9.549  39.231  21.841  1.00  0.00     0.012 C 
HETATM   40  C22 UNL     1       9.676  41.539  22.543  1.00  0.00     0.012 C 
ENDBRANCH  32  38
ENDBRANCH  30  32
ENDBRANCH   4  28
TORSDOF 16
ENDMDL
MODEL 4
REMARK VINA RESULT: -6.214889080      2.897      6.353
REMARK  16 active torsions:
REMARK  status: ('A' for Active; 'I' for Inactive)
REMARK    1  A    between atoms: C2_2  and  C3_3 
REMARK    2  A    between atoms: C3_3  and  C4_4 
REMARK    3  A    between atoms: C5_5  and  C6_6 
REMARK    4  A    between atoms: C6_6  and  N1_8 
REMARK    5  A    between atoms: C6_6  and  C23_38 
REMARK    6  A    between atoms: N1_8  and  C8_10 
REMARK    7  A    between atoms: C8_10  and  O1_11 
REMARK    8  A    between atoms: C8_10  and  N2_13 
REMARK    9  A    between atoms: N2_13  and  C9_15 
REMARK   10  A    between atoms: C9_15  and  O2_16 
REMARK   11  A    between atoms: C9_15  and  C10_18 
REMARK   12  A    between atoms: C13_21  and  C14_22 
REMARK       I    between atoms: C14_22  and  N3_24 
REMARK   13  A    between atoms: N3_24  and  C15_26 
REMARK   14  A    between atoms: C15_26  and  C16_27 
REMARK   15  A    between atoms: C15_26  and  C20_32 
REMARK   16  A    between atoms: C16_27  and  C17_29 
ROOT
HETATM    1  C10 UNL     1       2.528  38.944  21.800  1.00  0.00     0.261 C 
HETATM    2  C11 UNL     1       2.144  39.953  20.769  1.00  0.00     0.044 C 
HETATM    3  C12 UNL     1       3.404  40.515  20.194  1.00  0.00     0.045 C 
HETATM    4  C13 UNL     1       4.471  39.545  20.662  1.00  0.00     0.278 C 
HETATM    5  N4  UNL     1       3.983  39.004  21.886  1.00  0.00    -0.051 N 
ATOM      6  H41 UNL     1       4.403  38.103  22.115  1.00  0.00     0.279 HD
ATOM      7  H42 UNL     1       4.310  39.519  22.704  1.00  0.00     0.279 HD
ENDROOT
BRANCH   1   8
HETATM    8  C9  UNL     1       2.100  37.579  21.428  1.00  0.00     0.149 C 
BRANCH   8   9
HETATM    9  N2  UNL     1       1.895  36.473  22.240  1.00  0.00    -0.305 N 
ATOM     10  H2  UNL     1       0.979  36.044  22.110  1.00  0.00     0.171 HD
BRANCH   9  11
HETATM   11  C8  UNL     1       2.668  35.831  23.187  1.00  0.00     0.220 C 
BRANCH  11  12
HETATM   12  N1  UNL     1       2.605  35.808  24.577  1.00  0.00    -0.330 N 
ATOM     13  H1  UNL     1       2.186  35.000  25.039  1.00  0.00     0.165 HD
BRANCH  12  14
HETATM   14  C6  UNL     1       3.124  36.909  25.401  1.00  0.00     0.154 C 
HETATM   15  C7  UNL     1       2.981  36.478  26.859  1.00  0.00     0.061 C 
BRANCH  14  16
HETATM   16  C5  UNL     1       4.543  37.015  25.054  1.00  0.00    -0.067 C 
HETATM   17  C4  UNL     1       5.723  37.104  24.789  1.00  0.00    -0.104 C 
BRANCH  17  18
HETATM   18  C3  UNL     1       7.150  37.221  24.494  1.00  0.00     0.093 C 
BRANCH  18  19
HETATM   19  C2  UNL     1       7.915  37.655  25.744  1.00  0.00     0.007 C 
HETATM   20  C1  UNL     1       8.988  36.659  26.092  1.00  0.00     0.006 C 
ENDBRANCH  18  19
ENDBRANCH  17  18
ENDBRANCH  14  16
BRANCH  14  21
HETATM   21  C23 UNL     1       2.378  38.154  25.231  1.00  0.00     0.163 C 
HETATM   22  C24 UNL     1       3.024  39.474  25.414  1.00  0.00     0.095 C 
HETATM   23  O5  UNL     1       1.200  38.126  24.932  1.00  0.00    -0.295 OA
ENDBRANCH  14  21
ENDBRANCH  12  14
ENDBRANCH  11  12
BRANCH  11  24
HETATM   24  O1  UNL     1       3.646  35.109  22.701  1.00  0.00    -0.332 OA
ATOM     25  H1  UNL     1       3.413  34.197  22.575  1.00  0.00     0.220 HD
ENDBRANCH  11  24
ENDBRANCH   9  11
ENDBRANCH   8   9
BRANCH   8  26
HETATM   26  O2  UNL     1       1.879  37.366  20.151  1.00  0.00    -0.348 OA
ATOM     27  H2  UNL     1       2.173  38.065  19.578  1.00  0.00     0.219 HD
ENDBRANCH   8  26
ENDBRANCH   1   8
BRANCH   4  28
HETATM   28  C14 UNL     1       5.774  40.230  20.838  1.00  0.00     0.249 C 
HETATM   29  O3  UNL     1       6.097  41.196  20.065  1.00  0.00    -0.271 OA
HETATM   30  N3  UNL     1       6.647  39.801  21.867  1.00  0.00    -0.347 N 
ATOM     31  H3  UNL     1       6.374  39.028  22.474  1.00  0.00     0.163 HD
BRANCH  30  32
HETATM   32  C15 UNL     1       7.968  40.474  22.068  1.00  0.00     0.158 C 
BRANCH  32  33
HETATM   33  C16 UNL     1       9.005  39.625  21.427  1.00  0.00     0.153 C 
HETATM   34  O4  UNL     1       9.243  38.493  21.906  1.00  0.00    -0.295 OA
BRANCH  33  35
HETATM   35  C17 UNL     1       9.803  39.983  20.243  1.00  0.00     0.049 C 
HETATM   36  C18 UNL     1       9.013  39.651  18.957  1.00  0.00     0.017 C 
HETATM   37  C19 UNL     1       9.947  41.510  20.214  1.00  0.00     0.017 C 
ENDBRANCH  33  35
ENDBRANCH  32  33
BRANCH  32  38
HETATM   38  C20 UNL     1       8.145  40.737  23.519  1.00  0.00     0.007 C 
HETATM   39  C21 UNL     1       6.876  40.935  24.245  1.00  0.00     0.012 C 
HETATM   40  C22 UNL     1       9.034  41.928  23.806  1.00  0.00     0.012 C 
ENDBRANCH  32  38
ENDBRANCH  30  32
ENDBRANCH   4  28
TORSDOF 16
ENDMDL
MODEL 5
REMARK VINA RESULT: -6.144491825      2.635      6.289
REMARK  16 active torsions:
REMARK  status: ('A' for Active; 'I' for Inactive)
REMARK    1  A    between atoms: C2_2  and  C3_3 
REMARK    2  A    between atoms: C3_3  and  C4_4 
REMARK    3  A    between atoms: C5_5  and  C6_6 
REMARK    4  A    between atoms: C6_6  and  N1_8 
REMARK    5  A    between atoms: C6_6  and  C23_38 
REMARK    6  A    between atoms: N1_8  and  C8_10 
REMARK    7  A    between atoms: C8_10  and  O1_11 
REMARK    8  A    between atoms: C8_10  and  N2_13 
REMARK    9  A    between atoms: N2_13  and  C9_15 
REMARK   10  A    between atoms: C9_15  and  O2_16 
REMARK   11  A    between atoms: C9_15  and  C10_18 
REMARK   12  A    between atoms: C13_21  and  C14_22 
REMARK       I    between atoms: C14_22  and  N3_24 
REMARK   13  A    between atoms: N3_24  and  C15_26 
REMARK   14  A    between atoms: C15_26  and  C16_27 
REMARK   15  A    between atoms: C15_26  and  C20_32 
REMARK   16  A    between atoms: C16_27  and  C17_29 
ROOT
HETATM    1  C10 UNL     1       8.008  38.067  25.406  1.00  0.00     0.261 C 
HETATM    2  C11 UNL     1       7.191  39.267  25.052  1.00  0.00     0.044 C 
HETATM    3  C12 UNL     1       7.667  39.763  23.725  1.00  0.00     0.045 C 
HETATM    4  C13 UNL     1       8.501  38.612  23.194  1.00  0.00     0.278 C 
HETATM    5  N4  UNL     1       9.002  37.943  24.346  1.00  0.00    -0.051 N 
ATOM      6  H41 UNL     1       9.261  36.974  24.159  1.00  0.00     0.279 HD
ATOM      7  H42 UNL     1       9.924  38.278  24.628  1.00  0.00     0.279 HD
ENDROOT
BRANCH   1   8
HETATM    8  C9  UNL     1       7.189  36.839  25.476  1.00  0.00     0.149 C 
BRANCH   8   9
HETATM    9  N2  UNL     1       5.844  36.666  25.185  1.00  0.00    -0.305 N 
ATOM     10  H2  UNL     1       5.256  36.614  26.017  1.00  0.00     0.171 HD
BRANCH   9  11
HETATM   11  C8  UNL     1       5.131  36.549  24.007  1.00  0.00     0.220 C 
BRANCH  11  12
HETATM   12  N1  UNL     1       4.792  37.480  23.031  1.00  0.00    -0.330 N 
ATOM     13  H1  UNL     1       5.503  37.774  22.360  1.00  0.00     0.165 HD
BRANCH  12  14
HETATM   14  C6  UNL     1       3.442  38.054  22.934  1.00  0.00     0.154 C 
HETATM   15  C7  UNL     1       3.205  38.848  24.216  1.00  0.00     0.061 C 
BRANCH  14  16
HETATM   16  C5  UNL     1       3.492  38.967  21.790  1.00  0.00    -0.067 C 
HETATM   17  C4  UNL     1       3.555  39.718  20.840  1.00  0.00    -0.104 C 
BRANCH  17  18
HETATM   18  C3  UNL     1       3.659  40.624  19.697  1.00  0.00     0.093 C 
BRANCH  18  19
HETATM   19  C2  UNL     1       5.124  40.830  19.315  1.00  0.00     0.007 C 
HETATM   20  C1  UNL     1       5.926  41.307  20.496  1.00  0.00     0.006 C 
ENDBRANCH  18  19
ENDBRANCH  17  18
ENDBRANCH  14  16
BRANCH  14  21
HETATM   21  C23 UNL     1       2.393  37.042  22.837  1.00  0.00     0.163 C 
HETATM   22  C24 UNL     1       1.261  37.006  23.792  1.00  0.00     0.095 C 
HETATM   23  O5  UNL     1       2.433  36.201  21.961  1.00  0.00    -0.295 OA
ENDBRANCH  14  21
ENDBRANCH  12  14
ENDBRANCH  11  12
BRANCH  11  24
HETATM   24  O1  UNL     1       4.685  35.345  23.753  1.00  0.00    -0.332 OA
ATOM     25  H1  UNL     1       5.336  34.666  23.888  1.00  0.00     0.220 HD
ENDBRANCH  11  24
ENDBRANCH   9  11
ENDBRANCH   8   9
BRANCH   8  26
HETATM   26  O2  UNL     1       7.807  35.748  25.868  1.00  0.00    -0.348 OA
ATOM     27  H2  UNL     1       8.099  35.764  26.772  1.00  0.00     0.219 HD
ENDBRANCH   8  26
ENDBRANCH   1   8
BRANCH   4  28
HETATM   28  C14 UNL     1       9.590  39.103  22.318  1.00  0.00     0.249 C 
HETATM   29  O3  UNL     1      10.769  38.619  22.431  1.00  0.00    -0.271 OA
HETATM   30  N3  UNL     1       9.310  40.110  21.363  1.00  0.00    -0.347 N 
ATOM     31  H3  UNL     1       8.365  40.487  21.287  1.00  0.00     0.163 HD
BRANCH  30  32
HETATM   32  C15 UNL     1      10.391  40.625  20.465  1.00  0.00     0.158 C 
BRANCH  32  33
HETATM   33  C16 UNL     1      10.979  41.824  21.116  1.00  0.00     0.153 C 
HETATM   34  O4  UNL     1      12.114  42.212  20.760  1.00  0.00    -0.295 OA
BRANCH  33  35
HETATM   35  C17 UNL     1      10.342  42.636  22.166  1.00  0.00     0.049 C 
HETATM   36  C18 UNL     1      11.059  42.406  23.516  1.00  0.00     0.017 C 
HETATM   37  C19 UNL     1      10.603  44.113  21.846  1.00  0.00     0.017 C 
ENDBRANCH  33  35
ENDBRANCH  32  33
BRANCH  32  38
HETATM   38  C20 UNL     1       9.817  40.833  19.111  1.00  0.00     0.007 C 
HETATM   39  C21 UNL     1       9.152  42.139  18.943  1.00  0.00     0.012 C 
HETATM   40  C22 UNL     1       8.832  39.756  18.709  1.00  0.00     0.012 C 
ENDBRANCH  32  38
ENDBRANCH  30  32
ENDBRANCH   4  28
TORSDOF 16
ENDMDL
