MODEL 1
REMARK VINA RESULT: -6.838958413      0.000      0.000
REMARK  10 active torsions:
REMARK  status: ('A' for Active; 'I' for Inactive)
REMARK    1  A    between atoms: C2_2  and  C4_4 
REMARK    2  A    between atoms: C4_4  and  C5_5 
REMARK    3  A    between atoms: C12_14  and  N2_15 
REMARK    4  A    between atoms: N2_15  and  C13_18 
REMARK    5  A    between atoms: C13_18  and  C14_19 
REMARK    6  A    between atoms: C14_19  and  C15_20 
REMARK    7  A    between atoms: C15_20  and  N3_22 
REMARK    8  A    between atoms: C17_26  and  O2_27 
REMARK    9  A    between atoms: C20_32  and  C21_33 
REMARK   10  A    between atoms: C21_33  and  C22_34 
ROOT
HETATM    1  C5  UNL     1       2.368  37.214  28.931  1.00  0.00     0.109 C 
HETATM    2  C6  UNL     1       2.963  36.418  27.769  1.00  0.00     0.121 C 
HETATM    3  C7  UNL     1       2.229  36.591  26.511  1.00  0.00     0.225 C 
HETATM    4  O1  UNL     1       0.952  36.665  26.573  1.00  0.00    -0.273 OA
HETATM    5  N1  UNL     1       2.894  36.673  25.255  1.00  0.00    -0.321 N 
HETATM    6  C8  UNL     1       2.355  37.129  24.014  1.00  0.00     0.090 C 
HETATM    7  C9  UNL     1       3.074  36.711  22.991  1.00  0.00    -0.007 C 
HETATM    8  C10 UNL     1       4.188  35.911  23.518  1.00  0.00     0.056 C 
HETATM    9  C11 UNL     1       4.247  36.280  24.989  1.00  0.00     0.129 C 
HETATM   10  C12 UNL     1       5.319  37.266  25.236  1.00  0.00     0.238 C 
HETATM   11  C17 UNL     1       4.968  38.705  25.159  1.00  0.00     0.158 C 
HETATM   12  C18 UNL     1       5.562  39.536  26.297  1.00  0.00     0.114 C 
HETATM   13  C19 UNL     1       4.485  40.311  26.999  1.00  0.00     0.151 C 
HETATM   14  O3  UNL     1       4.159  41.356  26.477  1.00  0.00    -0.296 OA
HETATM   15  C20 UNL     1       3.864  39.835  28.235  1.00  0.00     0.154 C 
HETATM   16  N4  UNL     1       2.464  39.540  27.933  1.00  0.00    -0.349 N 
ATOM     17  H4  UNL     1       1.977  40.169  27.295  1.00  0.00     0.163 HD
HETATM   18  C25 UNL     1       1.729  38.438  28.466  1.00  0.00     0.226 C 
HETATM   19  O4  UNL     1       0.475  38.611  28.499  1.00  0.00    -0.273 OA
ENDROOT
BRANCH  10  20
HETATM   20  N2  UNL     1       6.463  36.921  24.337  1.00  0.00    -0.066 N 
ATOM     21  H22 UNL     1       6.359  35.980  23.956  1.00  0.00     0.277 HD
ATOM     22  H21 UNL     1       6.421  37.455  23.470  1.00  0.00     0.277 HD
BRANCH  20  23
HETATM   23  C13 UNL     1       7.719  37.078  24.970  1.00  0.00     0.235 C 
BRANCH  23  24
HETATM   24  C14 UNL     1       7.822  36.366  26.266  1.00  0.00     0.059 C 
BRANCH  24  25
HETATM   25  C15 UNL     1       9.140  35.847  26.703  1.00  0.00     0.181 C 
HETATM   26  C16 UNL     1       9.208  35.296  28.078  1.00  0.00     0.039 C 
BRANCH  25  27
HETATM   27  N3  UNL     1       9.498  34.767  25.760  1.00  0.00    -0.075 N 
ATOM     28  H33 UNL     1       8.719  34.470  25.172  1.00  0.00     0.274 HD
ATOM     29  H32 UNL     1      10.114  35.075  25.007  1.00  0.00     0.274 HD
ATOM     30  H31 UNL     1       9.892  34.011  26.322  1.00  0.00     0.274 HD
ENDBRANCH  25  27
ENDBRANCH  24  25
ENDBRANCH  23  24
ENDBRANCH  20  23
ENDBRANCH  10  20
BRANCH  11  31
HETATM   31  O2  UNL     1       5.535  39.219  23.971  1.00  0.00    -0.393 OA
ATOM     32  H2  UNL     1       4.884  39.138  23.284  1.00  0.00     0.210 HD
ENDBRANCH  11  31
BRANCH  15  33
HETATM   33  C21 UNL     1       3.849  40.748  29.414  1.00  0.00     0.037 C 
BRANCH  33  34
HETATM   34  C22 UNL     1       4.616  40.350  30.617  1.00  0.00    -0.020 C 
HETATM   35  C23 UNL     1       5.786  39.469  30.074  1.00  0.00     0.009 C 
HETATM   36  C24 UNL     1       3.814  39.338  31.447  1.00  0.00     0.009 C 
ENDBRANCH  33  34
ENDBRANCH  15  33
BRANCH   1  37
HETATM   37  C4  UNL     1       1.607  36.279  29.773  1.00  0.00    -0.010 C 
BRANCH  37  38
HETATM   38  C2  UNL     1       1.519  36.406  31.225  1.00  0.00    -0.091 C 
HETATM   39  C1  UNL     1       0.375  37.267  31.738  1.00  0.00     0.042 C 
HETATM   40  C3  UNL     1       1.817  35.268  32.125  1.00  0.00     0.042 C 
ENDBRANCH  37  38
ENDBRANCH   1  37
TORSDOF 10
ENDMDL
MODEL 2
REMARK VINA RESULT: -6.705037571      4.005      7.448
REMARK  10 active torsions:
REMARK  status: ('A' for Active; 'I' for Inactive)
REMARK    1  A    between atoms: C2_2  and  C4_4 
REMARK    2  A    between atoms: C4_4  and  C5_5 
REMARK    3  A    between atoms: C12_14  and  N2_15 
REMARK    4  A    between atoms: N2_15  and  C13_18 
REMARK    5  A    between atoms: C13_18  and  C14_19 
REMARK    6  A    between atoms: C14_19  and  C15_20 
REMARK    7  A    between atoms: C15_20  and  N3_22 
REMARK    8  A    between atoms: C17_26  and  O2_27 
REMARK    9  A    between atoms: C20_32  and  C21_33 
REMARK   10  A    between atoms: C21_33  and  C22_34 
ROOT
HETATM    1  C5  UNL     1       7.072  42.582  23.732  1.00  0.00     0.109 C 
HETATM    2  C6  UNL     1       6.316  41.641  24.671  1.00  0.00     0.121 C 
HETATM    3  C7  UNL     1       5.316  40.817  23.986  1.00  0.00     0.225 C 
HETATM    4  O1  UNL     1       4.644  41.361  23.041  1.00  0.00    -0.273 OA
HETATM    5  N1  UNL     1       5.083  39.459  24.346  1.00  0.00    -0.321 N 
HETATM    6  C8  UNL     1       4.378  38.470  23.595  1.00  0.00     0.090 C 
HETATM    7  C9  UNL     1       3.999  37.464  24.357  1.00  0.00    -0.007 C 
HETATM    8  C10 UNL     1       4.450  37.739  25.728  1.00  0.00     0.056 C 
HETATM    9  C11 UNL     1       5.497  38.825  25.563  1.00  0.00     0.129 C 
HETATM   10  C12 UNL     1       6.857  38.252  25.621  1.00  0.00     0.238 C 
HETATM   11  C17 UNL     1       7.483  37.821  24.347  1.00  0.00     0.158 C 
HETATM   12  C18 UNL     1       8.946  38.247  24.215  1.00  0.00     0.114 C 
HETATM   13  C19 UNL     1       9.159  39.002  22.935  1.00  0.00     0.151 C 
HETATM   14  O3  UNL     1       9.321  38.325  21.942  1.00  0.00    -0.296 OA
HETATM   15  C20 UNL     1       9.168  40.464  22.886  1.00  0.00     0.154 C 
HETATM   16  N4  UNL     1       8.005  40.881  22.104  1.00  0.00    -0.349 N 
ATOM     17  H4  UNL     1       7.758  40.318  21.290  1.00  0.00     0.163 HD
HETATM   18  C25 UNL     1       7.191  42.017  22.395  1.00  0.00     0.226 C 
HETATM   19  O4  UNL     1       6.577  42.491  21.394  1.00  0.00    -0.273 OA
ENDROOT
BRANCH  10  20
HETATM   20  N2  UNL     1       6.838  37.152  26.634  1.00  0.00    -0.066 N 
ATOM     21  H22 UNL     1       5.970  37.162  27.170  1.00  0.00     0.277 HD
ATOM     22  H21 UNL     1       6.743  36.242  26.184  1.00  0.00     0.277 HD
BRANCH  20  23
HETATM   23  C13 UNL     1       7.965  37.181  27.490  1.00  0.00     0.235 C 
BRANCH  23  24
HETATM   24  C14 UNL     1       8.456  35.834  27.868  1.00  0.00     0.059 C 
BRANCH  24  25
HETATM   25  C15 UNL     1       9.691  35.312  27.238  1.00  0.00     0.181 C 
HETATM   26  C16 UNL     1      10.324  34.144  27.899  1.00  0.00     0.039 C 
BRANCH  25  27
HETATM   27  N3  UNL     1       9.324  34.914  25.863  1.00  0.00    -0.075 N 
ATOM     28  H33 UNL     1       8.894  33.991  25.811  1.00  0.00     0.274 HD
ATOM     29  H32 UNL     1       8.535  35.442  25.487  1.00  0.00     0.274 HD
ATOM     30  H31 UNL     1      10.172  34.998  25.302  1.00  0.00     0.274 HD
ENDBRANCH  25  27
ENDBRANCH  24  25
ENDBRANCH  23  24
ENDBRANCH  20  23
ENDBRANCH  10  20
BRANCH  11  31
HETATM   31  O2  UNL     1       7.491  36.408  24.332  1.00  0.00    -0.393 OA
ATOM     32  H2  UNL     1       8.112  36.132  23.668  1.00  0.00     0.210 HD
ENDBRANCH  11  31
BRANCH  15  33
HETATM   33  C21 UNL     1      10.345  41.142  22.271  1.00  0.00     0.037 C 
BRANCH  33  34
HETATM   34  C22 UNL     1      11.408  41.651  23.169  1.00  0.00    -0.020 C 
HETATM   35  C23 UNL     1      10.795  42.923  23.836  1.00  0.00     0.009 C 
HETATM   36  C24 UNL     1      12.558  42.246  22.345  1.00  0.00     0.009 C 
ENDBRANCH  33  34
ENDBRANCH  15  33
BRANCH   1  37
HETATM   37  C4  UNL     1       6.509  43.930  23.898  1.00  0.00    -0.010 C 
BRANCH  37  38
HETATM   38  C2  UNL     1       7.332  45.136  23.946  1.00  0.00    -0.091 C 
HETATM   39  C1  UNL     1       8.106  45.349  25.238  1.00  0.00     0.042 C 
HETATM   40  C3  UNL     1       8.072  45.620  22.758  1.00  0.00     0.042 C 
ENDBRANCH  37  38
ENDBRANCH   1  37
TORSDOF 10
ENDMDL
MODEL 3
REMARK VINA RESULT: -6.682295582      3.878      6.803
REMARK  10 active torsions:
REMARK  status: ('A' for Active; 'I' for Inactive)
REMARK    1  A    between atoms: C2_2  and  C4_4 
REMARK    2  A    between atoms: C4_4  and  C5_5 
REMARK    3  A    between atoms: C12_14  and  N2_15 
REMARK    4  A    between atoms: N2_15  and  C13_18 
REMARK    5  A    between atoms: C13_18  and  C14_19 
REMARK    6  A    between atoms: C14_19  and  C15_20 
REMARK    7  A    between atoms: C15_20  and  N3_22 
REMARK    8  A    between atoms: C17_26  and  O2_27 
REMARK    9  A    between atoms: C20_32  and  C21_33 
REMARK   10  A    between atoms: C21_33  and  C22_34 
ROOT
HETATM    1  C5  UNL     1       6.292  42.211  23.724  1.00  0.00     0.109 C 
HETATM    2  C6  UNL     1       5.694  41.162  24.662  1.00  0.00     0.121 C 
HETATM    3  C7  UNL     1       4.876  40.163  23.968  1.00  0.00     0.225 C 
HETATM    4  O1  UNL     1       4.142  40.564  22.999  1.00  0.00    -0.273 OA
HETATM    5  N1  UNL     1       4.882  38.789  24.346  1.00  0.00    -0.321 N 
HETATM    6  C8  UNL     1       4.386  37.680  23.597  1.00  0.00     0.090 C 
HETATM    7  C9  UNL     1       4.174  36.632  24.367  1.00  0.00    -0.007 C 
HETATM    8  C10 UNL     1       4.534  37.002  25.743  1.00  0.00     0.056 C 
HETATM    9  C11 UNL     1       5.372  38.256  25.583  1.00  0.00     0.129 C 
HETATM   10  C12 UNL     1       6.811  37.938  25.683  1.00  0.00     0.238 C 
HETATM   11  C17 UNL     1       7.537  37.611  24.431  1.00  0.00     0.158 C 
HETATM   12  C18 UNL     1       8.902  38.292  24.324  1.00  0.00     0.114 C 
HETATM   13  C19 UNL     1       9.009  39.056  23.037  1.00  0.00     0.151 C 
HETATM   14  O3  UNL     1       9.315  38.407  22.060  1.00  0.00    -0.296 OA
HETATM   15  C20 UNL     1       8.755  40.495  22.963  1.00  0.00     0.154 C 
HETATM   16  N4  UNL     1       7.557  40.685  22.147  1.00  0.00    -0.349 N 
ATOM     17  H4  UNL     1       7.436  40.076  21.338  1.00  0.00     0.163 HD
HETATM   18  C25 UNL     1       6.544  41.659  22.400  1.00  0.00     0.226 C 
HETATM   19  O4  UNL     1       5.881  42.003  21.377  1.00  0.00    -0.273 OA
ENDROOT
BRANCH  10  20
HETATM   20  N2  UNL     1       6.964  36.866  26.713  1.00  0.00    -0.066 N 
ATOM     21  H22 UNL     1       6.057  36.489  26.988  1.00  0.00     0.277 HD
ATOM     22  H21 UNL     1       7.377  36.026  26.309  1.00  0.00     0.277 HD
BRANCH  20  23
HETATM   23  C13 UNL     1       7.698  37.299  27.843  1.00  0.00     0.235 C 
BRANCH  23  24
HETATM   24  C14 UNL     1       9.059  36.718  27.925  1.00  0.00     0.059 C 
BRANCH  24  25
HETATM   25  C15 UNL     1       9.214  35.278  28.242  1.00  0.00     0.181 C 
HETATM   26  C16 UNL     1       9.937  34.457  27.241  1.00  0.00     0.039 C 
BRANCH  25  27
HETATM   27  N3  UNL     1       9.960  35.209  29.516  1.00  0.00    -0.075 N 
ATOM     28  H33 UNL     1      10.400  36.091  29.775  1.00  0.00     0.274 HD
ATOM     29  H32 UNL     1       9.356  35.124  30.334  1.00  0.00     0.274 HD
ATOM     30  H31 UNL     1      10.622  34.438  29.421  1.00  0.00     0.274 HD
ENDBRANCH  25  27
ENDBRANCH  24  25
ENDBRANCH  23  24
ENDBRANCH  20  23
ENDBRANCH  10  20
BRANCH  11  31
HETATM   31  O2  UNL     1       7.799  36.222  24.441  1.00  0.00    -0.393 OA
ATOM     32  H2  UNL     1       7.417  35.853  23.653  1.00  0.00     0.210 HD
ENDBRANCH  11  31
BRANCH  15  33
HETATM   33  C21 UNL     1       9.807  41.366  22.363  1.00  0.00     0.037 C 
BRANCH  33  34
HETATM   34  C22 UNL     1      11.183  41.273  22.901  1.00  0.00    -0.020 C 
HETATM   35  C23 UNL     1      11.412  42.623  23.652  1.00  0.00     0.009 C 
HETATM   36  C24 UNL     1      12.207  41.366  21.761  1.00  0.00     0.009 C 
ENDBRANCH  33  34
ENDBRANCH  15  33
BRANCH   1  37
HETATM   37  C4  UNL     1       5.492  43.438  23.854  1.00  0.00    -0.010 C 
BRANCH  37  38
HETATM   38  C2  UNL     1       4.545  43.659  24.943  1.00  0.00    -0.091 C 
HETATM   39  C1  UNL     1       5.018  44.601  26.040  1.00  0.00     0.042 C 
HETATM   40  C3  UNL     1       3.088  43.764  24.698  1.00  0.00     0.042 C 
ENDBRANCH  37  38
ENDBRANCH   1  37
TORSDOF 10
ENDMDL
MODEL 4
REMARK VINA RESULT: -6.677589341      3.947      6.744
REMARK  10 active torsions:
REMARK  status: ('A' for Active; 'I' for Inactive)
REMARK    1  A    between atoms: C2_2  and  C4_4 
REMARK    2  A    between atoms: C4_4  and  C5_5 
REMARK    3  A    between atoms: C12_14  and  N2_15 
REMARK    4  A    between atoms: N2_15  and  C13_18 
REMARK    5  A    between atoms: C13_18  and  C14_19 
REMARK    6  A    between atoms: C14_19  and  C15_20 
REMARK    7  A    between atoms: C15_20  and  N3_22 
REMARK    8  A    between atoms: C17_26  and  O2_27 
REMARK    9  A    between atoms: C20_32  and  C21_33 
REMARK   10  A    between atoms: C21_33  and  C22_34 
ROOT
HETATM    1  C5  UNL     1       5.641  41.988  23.210  1.00  0.00     0.109 C 
HETATM    2  C6  UNL     1       5.090  40.931  24.168  1.00  0.00     0.121 C 
HETATM    3  C7  UNL     1       4.445  39.807  23.481  1.00  0.00     0.225 C 
HETATM    4  O1  UNL     1       3.749  40.067  22.438  1.00  0.00    -0.273 OA
HETATM    5  N1  UNL     1       4.573  38.466  23.946  1.00  0.00    -0.321 N 
HETATM    6  C8  UNL     1       4.264  37.267  23.235  1.00  0.00     0.090 C 
HETATM    7  C9  UNL     1       4.109  36.246  24.053  1.00  0.00    -0.007 C 
HETATM    8  C10 UNL     1       4.316  36.730  25.425  1.00  0.00     0.056 C 
HETATM    9  C11 UNL     1       5.020  38.062  25.246  1.00  0.00     0.129 C 
HETATM   10  C12 UNL     1       6.473  37.918  25.469  1.00  0.00     0.238 C 
HETATM   11  C17 UNL     1       7.327  37.608  24.296  1.00  0.00     0.158 C 
HETATM   12  C18 UNL     1       8.612  38.435  24.246  1.00  0.00     0.114 C 
HETATM   13  C19 UNL     1       8.735  39.134  22.923  1.00  0.00     0.151 C 
HETATM   14  O3  UNL     1       9.188  38.472  22.014  1.00  0.00    -0.296 OA
HETATM   15  C20 UNL     1       8.331  40.528  22.740  1.00  0.00     0.154 C 
HETATM   16  N4  UNL     1       7.187  40.533  21.829  1.00  0.00    -0.349 N 
ATOM     17  H4  UNL     1       7.198  39.871  21.054  1.00  0.00     0.163 HD
HETATM   18  C25 UNL     1       6.056  41.397  21.945  1.00  0.00     0.226 C 
HETATM   19  O4  UNL     1       5.441  41.605  20.858  1.00  0.00    -0.273 OA
ENDROOT
BRANCH  10  20
HETATM   20  N2  UNL     1       6.662  36.929  26.574  1.00  0.00    -0.066 N 
ATOM     21  H22 UNL     1       5.772  36.517  26.854  1.00  0.00     0.277 HD
ATOM     22  H21 UNL     1       7.134  36.090  26.238  1.00  0.00     0.277 HD
BRANCH  20  23
HETATM   23  C13 UNL     1       7.339  37.480  27.688  1.00  0.00     0.235 C 
BRANCH  23  24
HETATM   24  C14 UNL     1       8.729  36.988  27.841  1.00  0.00     0.059 C 
BRANCH  24  25
HETATM   25  C15 UNL     1       8.962  35.543  28.074  1.00  0.00     0.181 C 
HETATM   26  C16 UNL     1       9.703  34.817  27.013  1.00  0.00     0.039 C 
BRANCH  25  27
HETATM   27  N3  UNL     1       9.740  35.441  29.326  1.00  0.00    -0.075 N 
ATOM     28  H33 UNL     1       9.227  34.992  30.084  1.00  0.00     0.274 HD
ATOM     29  H32 UNL     1      10.504  34.767  29.274  1.00  0.00     0.274 HD
ATOM     30  H31 UNL     1      10.050  36.387  29.551  1.00  0.00     0.274 HD
ENDBRANCH  25  27
ENDBRANCH  24  25
ENDBRANCH  23  24
ENDBRANCH  20  23
ENDBRANCH  10  20
BRANCH  11  31
HETATM   31  O2  UNL     1       7.740  36.261  24.413  1.00  0.00    -0.393 OA
ATOM     32  H2  UNL     1       6.967  35.715  24.321  1.00  0.00     0.210 HD
ENDBRANCH  11  31
BRANCH  15  33
HETATM   33  C21 UNL     1       9.323  41.480  22.163  1.00  0.00     0.037 C 
BRANCH  33  34
HETATM   34  C22 UNL     1       9.695  42.672  22.960  1.00  0.00    -0.020 C 
HETATM   35  C23 UNL     1      11.124  42.358  23.507  1.00  0.00     0.009 C 
HETATM   36  C24 UNL     1       8.865  42.728  24.250  1.00  0.00     0.009 C 
ENDBRANCH  33  34
ENDBRANCH  15  33
BRANCH   1  37
HETATM   37  C4  UNL     1       4.702  43.120  23.203  1.00  0.00    -0.010 C 
BRANCH  37  38
HETATM   38  C2  UNL     1       5.014  44.416  23.799  1.00  0.00    -0.091 C 
HETATM   39  C1  UNL     1       4.680  44.555  25.277  1.00  0.00     0.042 C 
HETATM   40  C3  UNL     1       6.229  45.174  23.422  1.00  0.00     0.042 C 
ENDBRANCH  37  38
ENDBRANCH   1  37
TORSDOF 10
ENDMDL
MODEL 5
REMARK VINA RESULT: -6.495883579      2.074      4.923
REMARK  10 active torsions:
REMARK  status: ('A' for Active; 'I' for Inactive)
REMARK    1  A    between atoms: C2_2  and  C4_4 
REMARK    2  A    between atoms: C4_4  and  C5_5 
REMARK    3  A    between atoms: C12_14  and  N2_15 
REMARK    4  A    between atoms: N2_15  and  C13_18 
REMARK    5  A    between atoms: C13_18  and  C14_19 
REMARK    6  A    between atoms: C14_19  and  C15_20 
REMARK    7  A    between atoms: C15_20  and  N3_22 
REMARK    8  A    between atoms: C17_26  and  O2_27 
REMARK    9  A    between atoms: C20_32  and  C21_33 
REMARK   10  A    between atoms: C21_33  and  C22_34 
ROOT
HETATM    1  C5  UNL     1       3.170  37.227  24.817  1.00  0.00     0.109 C 
HETATM    2  C6  UNL     1       4.574  36.993  24.257  1.00  0.00     0.121 C 
HETATM    3  C7  UNL     1       5.279  38.235  23.925  1.00  0.00     0.225 C 
HETATM    4  O1  UNL     1       4.596  39.187  23.407  1.00  0.00    -0.273 OA
HETATM    5  N1  UNL     1       6.675  38.394  24.158  1.00  0.00    -0.321 N 
HETATM    6  C8  UNL     1       7.421  39.612  24.167  1.00  0.00     0.090 C 
HETATM    7  C9  UNL     1       8.711  39.390  24.012  1.00  0.00    -0.007 C 
HETATM    8  C10 UNL     1       8.908  37.940  23.883  1.00  0.00     0.056 C 
HETATM    9  C11 UNL     1       7.616  37.341  24.406  1.00  0.00     0.129 C 
HETATM   10  C12 UNL     1       7.783  36.871  25.796  1.00  0.00     0.238 C 
HETATM   11  C17 UNL     1       7.477  37.824  26.891  1.00  0.00     0.158 C 
HETATM   12  C18 UNL     1       6.666  37.201  28.028  1.00  0.00     0.114 C 
HETATM   13  C19 UNL     1       5.429  38.009  28.294  1.00  0.00     0.151 C 
HETATM   14  O3  UNL     1       5.575  38.983  29.002  1.00  0.00    -0.296 OA
HETATM   15  C20 UNL     1       4.127  37.648  27.732  1.00  0.00     0.154 C 
HETATM   16  N4  UNL     1       3.751  38.702  26.792  1.00  0.00    -0.349 N 
ATOM     17  H4  UNL     1       3.978  39.664  27.046  1.00  0.00     0.163 HD
HETATM   18  C25 UNL     1       3.090  38.486  25.545  1.00  0.00     0.226 C 
HETATM   19  O4  UNL     1       2.429  39.480  25.123  1.00  0.00    -0.273 OA
ENDROOT
BRANCH  10  20
HETATM   20  N2  UNL     1       9.162  36.306  25.916  1.00  0.00    -0.066 N 
ATOM     21  H22 UNL     1       9.696  36.457  25.060  1.00  0.00     0.277 HD
ATOM     22  H21 UNL     1       9.728  36.855  26.563  1.00  0.00     0.277 HD
BRANCH  20  23
HETATM   23  C13 UNL     1       9.160  34.938  26.279  1.00  0.00     0.235 C 
BRANCH  23  24
HETATM   24  C14 UNL     1       9.976  34.642  27.481  1.00  0.00     0.059 C 
BRANCH  24  25
HETATM   25  C15 UNL     1       9.354  34.749  28.821  1.00  0.00     0.181 C 
HETATM   26  C16 UNL     1       9.705  33.689  29.797  1.00  0.00     0.039 C 
BRANCH  25  27
HETATM   27  N3  UNL     1       9.787  36.046  29.381  1.00  0.00    -0.075 N 
ATOM     28  H33 UNL     1      10.773  36.247  29.219  1.00  0.00     0.274 HD
ATOM     29  H32 UNL     1       9.410  36.850  28.877  1.00  0.00     0.274 HD
ATOM     30  H31 UNL     1       9.534  36.034  30.369  1.00  0.00     0.274 HD
ENDBRANCH  25  27
ENDBRANCH  24  25
ENDBRANCH  23  24
ENDBRANCH  20  23
ENDBRANCH  10  20
BRANCH  11  31
HETATM   31  O2  UNL     1       8.705  38.219  27.468  1.00  0.00    -0.393 OA
ATOM     32  H2  UNL     1       8.632  38.101  28.408  1.00  0.00     0.210 HD
ENDBRANCH  11  31
BRANCH  15  33
HETATM   33  C21 UNL     1       2.974  37.494  28.665  1.00  0.00     0.037 C 
BRANCH  33  34
HETATM   34  C22 UNL     1       2.295  36.179  28.728  1.00  0.00    -0.020 C 
HETATM   35  C23 UNL     1       1.051  36.326  27.796  1.00  0.00     0.009 C 
HETATM   36  C24 UNL     1       1.641  35.985  30.103  1.00  0.00     0.009 C 
ENDBRANCH  33  34
ENDBRANCH  15  33
BRANCH   1  37
HETATM   37  C4  UNL     1       2.206  36.953  23.741  1.00  0.00    -0.010 C 
BRANCH  37  38
HETATM   38  C2  UNL     1       2.586  36.353  22.465  1.00  0.00    -0.091 C 
HETATM   39  C1  UNL     1       2.723  34.838  22.470  1.00  0.00     0.042 C 
HETATM   40  C3  UNL     1       2.068  36.869  21.177  1.00  0.00     0.042 C 
ENDBRANCH  37  38
ENDBRANCH   1  37
TORSDOF 10
ENDMDL
