MODEL 1
REMARK VINA RESULT: -7.428655541      0.000      0.000
REMARK  12 active torsions:
REMARK  status: ('A' for Active; 'I' for Inactive)
REMARK    1  A    between atoms: O1_2  and  C2_3 
REMARK    2  A    between atoms: C3_4  and  C4_5 
REMARK    3  A    between atoms: C4_5  and  O2_6 
REMARK    4  A    between atoms: S1_12  and  C8_13 
REMARK    5  A    between atoms: C8_13  and  C9_14 
REMARK    6  A    between atoms: C9_14  and  C10_15 
REMARK    7  A    between atoms: C10_15  and  C11_16 
REMARK    8  A    between atoms: C11_16  and  S2_17 
REMARK    9  A    between atoms: S2_17  and  C12_19 
REMARK   10  A    between atoms: C15_22  and  C16_23 
REMARK   11  A    between atoms: C16_23  and  N2_27 
REMARK   12  A    between atoms: C18_33  and  O5_34 
ROOT
HETATM    1  C9  UNL     1       5.415  39.358  27.618  1.00  0.00     0.010 C 
ENDROOT
BRANCH   1   2
HETATM    2  C8  UNL     1       4.202  39.180  26.699  1.00  0.00     0.064 C 
BRANCH   2   3
HETATM    3  S1  UNL     1       4.122  37.529  26.051  1.00  0.00    -0.210 SA
HETATM    4  C7  UNL     1       2.709  36.733  26.779  1.00  0.00     0.066 C 
HETATM    5  C6  UNL     1       1.587  37.042  25.877  1.00  0.00     0.042 C 
HETATM    6  C5  UNL     1       1.989  37.792  24.689  1.00  0.00     0.138 C 
HETATM    7  O3  UNL     1       1.143  37.480  23.634  1.00  0.00    -0.374 OA
HETATM    8  C17 UNL     1       3.429  37.663  24.394  1.00  0.00     0.098 C 
HETATM    9  C3  UNL     1       1.599  36.575  22.737  1.00  0.00     0.177 C 
HETATM   10  C2  UNL     1       2.663  35.643  23.179  1.00  0.00     0.181 C 
HETATM   11  C18 UNL     1       3.850  36.457  23.642  1.00  0.00     0.165 C 
BRANCH   9  12
HETATM   12  C4  UNL     1       2.124  37.323  21.504  1.00  0.00     0.198 C 
BRANCH  12  13
HETATM   13  O2  UNL     1       1.545  36.686  20.402  1.00  0.00    -0.398 OA
ATOM     14  H2  UNL     1       1.965  37.064  19.638  1.00  0.00     0.209 HD
ENDBRANCH  12  13
ENDBRANCH   9  12
BRANCH  10  15
HETATM   15  O1  UNL     1       3.043  34.862  22.089  1.00  0.00    -0.385 OA
HETATM   16  C1  UNL     1       2.954  33.498  22.386  1.00  0.00     0.202 C 
ENDBRANCH  10  15
BRANCH  11  17
HETATM   17  O5  UNL     1       4.740  35.640  24.334  1.00  0.00    -0.392 OA
ATOM     18  H5  UNL     1       5.624  35.975  24.239  1.00  0.00     0.210 HD
ENDBRANCH  11  17
ENDBRANCH   2   3
ENDBRANCH   1   2
BRANCH   1  19
HETATM   19  C10 UNL     1       6.070  38.030  27.719  1.00  0.00     0.014 C 
BRANCH  19  20
HETATM   20  C11 UNL     1       7.550  37.999  27.752  1.00  0.00     0.116 C 
BRANCH  20  21
HETATM   21  S2  UNL     1       8.356  37.179  26.432  1.00  0.00     0.066 S 
HETATM   22  O4  UNL     1       7.249  36.723  25.264  1.00  0.00    -0.251 OA
BRANCH  21  23
HETATM   23  C12 UNL     1       9.048  35.680  27.078  1.00  0.00     0.101 A 
HETATM   24  C13 UNL     1       9.607  34.651  26.369  1.00  0.00     0.041 A 
HETATM   25  C14 UNL     1      10.007  33.704  27.285  1.00  0.00     0.036 A 
HETATM   26  C15 UNL     1       9.700  34.143  28.555  1.00  0.00     0.078 A 
HETATM   27  N3  UNL     1       9.122  35.340  28.375  1.00  0.00    -0.346 N 
ATOM     28  H3  UNL     1       8.778  35.925  29.137  1.00  0.00     0.167 HD
BRANCH  26  29
HETATM   29  C16 UNL     1       9.963  33.425  29.810  1.00  0.00     0.136 C 
HETATM   30  N1  UNL     1      10.468  32.248  29.767  1.00  0.00    -0.383 N 
ATOM     31  H12 UNL     1      10.674  31.838  28.856  1.00  0.00     0.157 HD
ATOM     32  H11 UNL     1      10.651  31.750  30.637  1.00  0.00     0.157 HD
BRANCH  29  33
HETATM   33  N2  UNL     1       9.679  33.992  31.067  1.00  0.00    -0.283 N 
HETATM   34 CL1  UNL     1       8.610  33.177  32.147  1.00  0.00     0.012 Cl
ATOM     35  H2  UNL     1      10.102  34.879  31.337  1.00  0.00     0.182 HD
ENDBRANCH  29  33
ENDBRANCH  26  29
ENDBRANCH  21  23
ENDBRANCH  20  21
ENDBRANCH  19  20
ENDBRANCH   1  19
TORSDOF 12
ENDMDL
MODEL 2
REMARK VINA RESULT: -7.238261412      2.279      3.108
REMARK  12 active torsions:
REMARK  status: ('A' for Active; 'I' for Inactive)
REMARK    1  A    between atoms: O1_2  and  C2_3 
REMARK    2  A    between atoms: C3_4  and  C4_5 
REMARK    3  A    between atoms: C4_5  and  O2_6 
REMARK    4  A    between atoms: S1_12  and  C8_13 
REMARK    5  A    between atoms: C8_13  and  C9_14 
REMARK    6  A    between atoms: C9_14  and  C10_15 
REMARK    7  A    between atoms: C10_15  and  C11_16 
REMARK    8  A    between atoms: C11_16  and  S2_17 
REMARK    9  A    between atoms: S2_17  and  C12_19 
REMARK   10  A    between atoms: C15_22  and  C16_23 
REMARK   11  A    between atoms: C16_23  and  N2_27 
REMARK   12  A    between atoms: C18_33  and  O5_34 
ROOT
HETATM    1  C9  UNL     1       8.018  39.060  22.840  1.00  0.00     0.010 C 
ENDROOT
BRANCH   1   2
HETATM    2  C8  UNL     1       6.709  39.780  22.501  1.00  0.00     0.064 C 
BRANCH   2   3
HETATM    3  S1  UNL     1       5.482  39.510  23.755  1.00  0.00    -0.210 SA
HETATM    4  C7  UNL     1       3.973  40.274  23.206  1.00  0.00     0.066 C 
HETATM    5  C6  UNL     1       3.275  39.234  22.431  1.00  0.00     0.042 C 
HETATM    6  C5  UNL     1       3.969  37.948  22.434  1.00  0.00     0.138 C 
HETATM    7  O3  UNL     1       3.043  36.921  22.318  1.00  0.00    -0.374 OA
HETATM    8  C17 UNL     1       4.914  37.812  23.560  1.00  0.00     0.098 C 
HETATM    9  C3  UNL     1       2.689  36.289  23.461  1.00  0.00     0.177 C 
HETATM   10  C2  UNL     1       2.884  37.016  24.738  1.00  0.00     0.181 C 
HETATM   11  C18 UNL     1       4.344  37.385  24.860  1.00  0.00     0.165 C 
BRANCH   9  12
HETATM   12  C4  UNL     1       3.467  34.970  23.558  1.00  0.00     0.198 C 
BRANCH  12  13
HETATM   13  O2  UNL     1       3.288  34.335  22.325  1.00  0.00    -0.398 OA
ATOM     14  H2  UNL     1       4.107  34.449  21.857  1.00  0.00     0.209 HD
ENDBRANCH  12  13
ENDBRANCH   9  12
BRANCH  10  15
HETATM   15  O1  UNL     1       2.540  36.163  25.785  1.00  0.00    -0.385 OA
HETATM   16  C1  UNL     1       1.516  36.707  26.567  1.00  0.00     0.202 C 
ENDBRANCH  10  15
BRANCH  11  17
HETATM   17  O5  UNL     1       4.511  38.315  25.883  1.00  0.00    -0.392 OA
ATOM     18  H5  UNL     1       5.436  38.503  25.999  1.00  0.00     0.210 HD
ENDBRANCH  11  17
ENDBRANCH   2   3
ENDBRANCH   1   2
BRANCH   1  19
HETATM   19  C10 UNL     1       8.139  39.073  24.320  1.00  0.00     0.014 C 
BRANCH  19  20
HETATM   20  C11 UNL     1       8.776  37.901  24.963  1.00  0.00     0.116 C 
BRANCH  20  21
HETATM   21  S2  UNL     1       7.801  36.991  26.096  1.00  0.00     0.066 S 
HETATM   22  O4  UNL     1       7.301  37.971  27.357  1.00  0.00    -0.251 OA
BRANCH  21  23
HETATM   23  C12 UNL     1       8.838  35.744  26.812  1.00  0.00     0.101 A 
HETATM   24  C13 UNL     1       9.822  35.024  26.188  1.00  0.00     0.041 A 
HETATM   25  C14 UNL     1      10.357  34.177  27.132  1.00  0.00     0.036 A 
HETATM   26  C15 UNL     1       9.712  34.371  28.334  1.00  0.00     0.078 A 
HETATM   27  N3  UNL     1       8.804  35.326  28.088  1.00  0.00    -0.346 N 
ATOM     28  H3  UNL     1       8.161  35.694  28.789  1.00  0.00     0.167 HD
BRANCH  26  29
HETATM   29  C16 UNL     1       9.987  33.662  29.592  1.00  0.00     0.136 C 
HETATM   30  N1  UNL     1       9.736  34.241  30.708  1.00  0.00    -0.383 N 
ATOM     31  H12 UNL     1       9.350  35.185  30.692  1.00  0.00     0.157 HD
ATOM     32  H11 UNL     1       9.928  33.750  31.580  1.00  0.00     0.157 HD
BRANCH  29  33
HETATM   33  N2  UNL     1      10.520  32.360  29.613  1.00  0.00    -0.283 N 
HETATM   34 CL1  UNL     1       9.911  31.172  28.522  1.00  0.00     0.012 Cl
ATOM     35  H2  UNL     1      11.263  32.120  30.269  1.00  0.00     0.182 HD
ENDBRANCH  29  33
ENDBRANCH  26  29
ENDBRANCH  21  23
ENDBRANCH  20  21
ENDBRANCH  19  20
ENDBRANCH   1  19
TORSDOF 12
ENDMDL
MODEL 3
REMARK VINA RESULT: -7.125774080      3.269      5.084
REMARK  12 active torsions:
REMARK  status: ('A' for Active; 'I' for Inactive)
REMARK    1  A    between atoms: O1_2  and  C2_3 
REMARK    2  A    between atoms: C3_4  and  C4_5 
REMARK    3  A    between atoms: C4_5  and  O2_6 
REMARK    4  A    between atoms: S1_12  and  C8_13 
REMARK    5  A    between atoms: C8_13  and  C9_14 
REMARK    6  A    between atoms: C9_14  and  C10_15 
REMARK    7  A    between atoms: C10_15  and  C11_16 
REMARK    8  A    between atoms: C11_16  and  S2_17 
REMARK    9  A    between atoms: S2_17  and  C12_19 
REMARK   10  A    between atoms: C15_22  and  C16_23 
REMARK   11  A    between atoms: C16_23  and  N2_27 
REMARK   12  A    between atoms: C18_33  and  O5_34 
ROOT
HETATM    1  C9  UNL     1       4.544  37.842  24.819  1.00  0.00     0.010 C 
ENDROOT
BRANCH   1   2
HETATM    2  C8  UNL     1       4.384  38.668  26.099  1.00  0.00     0.064 C 
BRANCH   2   3
HETATM    3  S1  UNL     1       2.691  38.708  26.633  1.00  0.00    -0.210 SA
HETATM    4  C7  UNL     1       1.881  37.274  25.963  1.00  0.00     0.066 C 
HETATM    5  C6  UNL     1       2.076  36.217  26.970  1.00  0.00     0.042 C 
HETATM    6  C5  UNL     1       2.762  36.684  28.173  1.00  0.00     0.138 C 
HETATM    7  O3  UNL     1       2.340  35.941  29.267  1.00  0.00    -0.374 OA
HETATM    8  C17 UNL     1       2.680  38.148  28.344  1.00  0.00     0.098 C 
HETATM    9  C3  UNL     1       1.399  36.506  30.059  1.00  0.00     0.177 C 
HETATM   10  C2  UNL     1       0.549  37.567  29.469  1.00  0.00     0.181 C 
HETATM   11  C18 UNL     1       1.447  38.678  28.973  1.00  0.00     0.165 C 
BRANCH   9  12
HETATM   12  C4  UNL     1       2.085  37.099  31.296  1.00  0.00     0.198 C 
BRANCH  12  13
HETATM   13  O2  UNL     1       1.445  36.519  32.396  1.00  0.00    -0.398 OA
ATOM     14  H2  UNL     1       2.139  36.155  32.934  1.00  0.00     0.209 HD
ENDBRANCH  12  13
ENDBRANCH   9  12
BRANCH  10  15
HETATM   15  O1  UNL     1      -0.285  38.066  30.468  1.00  0.00    -0.385 OA
HETATM   16  C1  UNL     1      -1.631  37.828  30.170  1.00  0.00     0.202 C 
ENDBRANCH  10  15
BRANCH  11  17
HETATM   17  O5  UNL     1       0.721  39.541  28.156  1.00  0.00    -0.392 OA
ATOM     18  H5  UNL     1       0.442  40.298  28.658  1.00  0.00     0.210 HD
ENDBRANCH  11  17
ENDBRANCH   2   3
ENDBRANCH   1   2
BRANCH   1  19
HETATM   19  C10 UNL     1       5.531  36.775  25.122  1.00  0.00     0.014 C 
BRANCH  19  20
HETATM   20  C11 UNL     1       6.268  36.870  26.403  1.00  0.00     0.116 C 
BRANCH  20  21
HETATM   21  S2  UNL     1       7.978  37.232  26.310  1.00  0.00     0.066 S 
HETATM   22  O4  UNL     1       8.452  37.408  24.715  1.00  0.00    -0.251 OA
BRANCH  21  23
HETATM   23  C12 UNL     1       8.856  35.827  26.941  1.00  0.00     0.101 A 
HETATM   24  C13 UNL     1       9.609  34.931  26.231  1.00  0.00     0.041 A 
HETATM   25  C14 UNL     1      10.097  34.014  27.135  1.00  0.00     0.036 A 
HETATM   26  C15 UNL     1       9.650  34.339  28.397  1.00  0.00     0.078 A 
HETATM   27  N3  UNL     1       8.905  35.440  28.226  1.00  0.00    -0.346 N 
ATOM     28  H3  UNL     1       8.429  35.928  28.986  1.00  0.00     0.167 HD
BRANCH  26  29
HETATM   29  C16 UNL     1       9.948  33.610  29.638  1.00  0.00     0.136 C 
HETATM   30  N1  UNL     1       9.682  34.155  30.767  1.00  0.00    -0.383 N 
ATOM     31  H12 UNL     1       9.269  35.087  30.774  1.00  0.00     0.157 HD
ATOM     32  H11 UNL     1       9.888  33.649  31.628  1.00  0.00     0.157 HD
BRANCH  29  33
HETATM   33  N2  UNL     1      10.518  32.323  29.628  1.00  0.00    -0.283 N 
HETATM   34 CL1  UNL     1       9.944  31.144  28.508  1.00  0.00     0.012 Cl
ATOM     35  H2  UNL     1      11.267  32.088  30.280  1.00  0.00     0.182 HD
ENDBRANCH  29  33
ENDBRANCH  26  29
ENDBRANCH  21  23
ENDBRANCH  20  21
ENDBRANCH  19  20
ENDBRANCH   1  19
TORSDOF 12
ENDMDL
MODEL 4
REMARK VINA RESULT: -7.117744344      1.734      2.868
REMARK  12 active torsions:
REMARK  status: ('A' for Active; 'I' for Inactive)
REMARK    1  A    between atoms: O1_2  and  C2_3 
REMARK    2  A    between atoms: C3_4  and  C4_5 
REMARK    3  A    between atoms: C4_5  and  O2_6 
REMARK    4  A    between atoms: S1_12  and  C8_13 
REMARK    5  A    between atoms: C8_13  and  C9_14 
REMARK    6  A    between atoms: C9_14  and  C10_15 
REMARK    7  A    between atoms: C10_15  and  C11_16 
REMARK    8  A    between atoms: C11_16  and  S2_17 
REMARK    9  A    between atoms: S2_17  and  C12_19 
REMARK   10  A    between atoms: C15_22  and  C16_23 
REMARK   11  A    between atoms: C16_23  and  N2_27 
REMARK   12  A    between atoms: C18_33  and  O5_34 
ROOT
HETATM    1  C9  UNL     1       5.458  39.161  27.926  1.00  0.00     0.010 C 
ENDROOT
BRANCH   1   2
HETATM    2  C8  UNL     1       4.161  38.635  27.305  1.00  0.00     0.064 C 
BRANCH   2   3
HETATM    3  S1  UNL     1       3.659  39.627  25.922  1.00  0.00    -0.210 SA
HETATM    4  C7  UNL     1       5.126  40.093  25.033  1.00  0.00     0.066 C 
HETATM    5  C6  UNL     1       5.345  39.011  24.058  1.00  0.00     0.042 C 
HETATM    6  C5  UNL     1       4.293  37.997  24.074  1.00  0.00     0.138 C 
HETATM    7  O3  UNL     1       4.161  37.444  22.808  1.00  0.00    -0.374 OA
HETATM    8  C17 UNL     1       3.037  38.489  24.673  1.00  0.00     0.098 C 
HETATM    9  C3  UNL     1       3.153  37.916  22.039  1.00  0.00     0.177 C 
HETATM   10  C2  UNL     1       2.618  39.262  22.356  1.00  0.00     0.181 C 
HETATM   11  C18 UNL     1       2.132  39.259  23.787  1.00  0.00     0.165 C 
BRANCH   9  12
HETATM   12  C4  UNL     1       1.981  36.928  22.100  1.00  0.00     0.198 C 
BRANCH  12  13
HETATM   13  O2  UNL     1       1.582  36.734  20.774  1.00  0.00    -0.398 OA
ATOM     14  H2  UNL     1       1.682  35.804  20.609  1.00  0.00     0.209 HD
ENDBRANCH  12  13
ENDBRANCH   9  12
BRANCH  10  15
HETATM   15  O1  UNL     1       1.542  39.516  21.508  1.00  0.00    -0.385 OA
HETATM   16  C1  UNL     1       1.856  40.508  20.573  1.00  0.00     0.202 C 
ENDBRANCH  10  15
BRANCH  11  17
HETATM   17  O5  UNL     1       1.903  40.565  24.209  1.00  0.00    -0.392 OA
ATOM     18  H5  UNL     1       2.455  41.163  23.719  1.00  0.00     0.210 HD
ENDBRANCH  11  17
ENDBRANCH   2   3
ENDBRANCH   1   2
BRANCH   1  19
HETATM   19  C10 UNL     1       6.373  37.998  28.048  1.00  0.00     0.014 C 
BRANCH  19  20
HETATM   20  C11 UNL     1       6.508  37.108  26.873  1.00  0.00     0.116 C 
BRANCH  20  21
HETATM   21  S2  UNL     1       8.071  37.063  26.087  1.00  0.00     0.066 S 
HETATM   22  O4  UNL     1       7.899  36.693  24.464  1.00  0.00    -0.251 OA
BRANCH  21  23
HETATM   23  C12 UNL     1       8.993  35.732  26.809  1.00  0.00     0.101 A 
HETATM   24  C13 UNL     1       9.887  34.905  26.182  1.00  0.00     0.041 A 
HETATM   25  C14 UNL     1      10.354  34.027  27.134  1.00  0.00     0.036 A 
HETATM   26  C15 UNL     1       9.755  34.306  28.343  1.00  0.00     0.078 A 
HETATM   27  N3  UNL     1       8.942  35.343  28.093  1.00  0.00    -0.346 N 
ATOM     28  H3  UNL     1       8.353  35.786  28.799  1.00  0.00     0.167 HD
BRANCH  26  29
HETATM   29  C16 UNL     1       9.984  33.598  29.610  1.00  0.00     0.136 C 
HETATM   30  N1  UNL     1       9.711  34.184  30.717  1.00  0.00    -0.383 N 
ATOM     31  H12 UNL     1       9.341  35.133  30.688  1.00  0.00     0.157 HD
ATOM     32  H11 UNL     1       9.870  33.692  31.596  1.00  0.00     0.157 HD
BRANCH  29  33
HETATM   33  N2  UNL     1      10.495  32.286  29.649  1.00  0.00    -0.283 N 
HETATM   34 CL1  UNL     1       9.953  31.126  28.494  1.00  0.00     0.012 Cl
ATOM     35  H2  UNL     1      11.181  32.024  30.356  1.00  0.00     0.182 HD
ENDBRANCH  29  33
ENDBRANCH  26  29
ENDBRANCH  21  23
ENDBRANCH  20  21
ENDBRANCH  19  20
ENDBRANCH   1  19
TORSDOF 12
ENDMDL
MODEL 5
REMARK VINA RESULT: -7.011634232      2.514      3.298
REMARK  12 active torsions:
REMARK  status: ('A' for Active; 'I' for Inactive)
REMARK    1  A    between atoms: O1_2  and  C2_3 
REMARK    2  A    between atoms: C3_4  and  C4_5 
REMARK    3  A    between atoms: C4_5  and  O2_6 
REMARK    4  A    between atoms: S1_12  and  C8_13 
REMARK    5  A    between atoms: C8_13  and  C9_14 
REMARK    6  A    between atoms: C9_14  and  C10_15 
REMARK    7  A    between atoms: C10_15  and  C11_16 
REMARK    8  A    between atoms: C11_16  and  S2_17 
REMARK    9  A    between atoms: S2_17  and  C12_19 
REMARK   10  A    between atoms: C15_22  and  C16_23 
REMARK   11  A    between atoms: C16_23  and  N2_27 
REMARK   12  A    between atoms: C18_33  and  O5_34 
ROOT
HETATM    1  C9  UNL     1       3.853  36.792  26.889  1.00  0.00     0.010 C 
ENDROOT
BRANCH   1   2
HETATM    2  C8  UNL     1       3.044  36.575  25.607  1.00  0.00     0.064 C 
BRANCH   2   3
HETATM    3  S1  UNL     1       3.986  37.014  24.168  1.00  0.00    -0.210 SA
HETATM    4  C7  UNL     1       3.232  36.220  22.767  1.00  0.00     0.066 C 
HETATM    5  C6  UNL     1       2.222  37.175  22.282  1.00  0.00     0.042 C 
HETATM    6  C5  UNL     1       2.221  38.439  23.015  1.00  0.00     0.138 C 
HETATM    7  O3  UNL     1       1.807  39.463  22.176  1.00  0.00    -0.374 OA
HETATM    8  C17 UNL     1       3.493  38.688  23.723  1.00  0.00     0.098 C 
HETATM    9  C3  UNL     1       2.778  40.232  21.629  1.00  0.00     0.177 C 
HETATM   10  C2  UNL     1       4.141  39.656  21.536  1.00  0.00     0.181 C 
HETATM   11  C18 UNL     1       4.595  39.275  22.926  1.00  0.00     0.165 C 
BRANCH   9  12
HETATM   12  C4  UNL     1       2.883  41.537  22.428  1.00  0.00     0.198 C 
BRANCH  12  13
HETATM   13  O2  UNL     1       2.836  42.564  21.480  1.00  0.00    -0.398 OA
ATOM     14  H2  UNL     1       2.168  42.306  20.855  1.00  0.00     0.209 HD
ENDBRANCH  12  13
ENDBRANCH   9  12
BRANCH  10  15
HETATM   15  O1  UNL     1       4.995  40.633  21.028  1.00  0.00    -0.385 OA
HETATM   16  C1  UNL     1       5.026  40.601  19.629  1.00  0.00     0.202 C 
ENDBRANCH  10  15
BRANCH  11  17
HETATM   17  O5  UNL     1       5.728  38.469  22.846  1.00  0.00    -0.392 OA
ATOM     18  H5  UNL     1       5.563  37.640  23.281  1.00  0.00     0.210 HD
ENDBRANCH  11  17
ENDBRANCH   2   3
ENDBRANCH   1   2
BRANCH   1  19
HETATM   19  C10 UNL     1       5.115  37.463  26.487  1.00  0.00     0.014 C 
BRANCH  19  20
HETATM   20  C11 UNL     1       6.338  37.132  27.253  1.00  0.00     0.116 C 
BRANCH  20  21
HETATM   21  S2  UNL     1       7.853  37.153  26.377  1.00  0.00     0.066 S 
HETATM   22  O4  UNL     1       7.595  36.832  24.755  1.00  0.00    -0.251 OA
BRANCH  21  23
HETATM   23  C12 UNL     1       8.847  35.823  26.998  1.00  0.00     0.101 A 
HETATM   24  C13 UNL     1       9.763  35.077  26.306  1.00  0.00     0.041 A 
HETATM   25  C14 UNL     1      10.288  34.164  27.192  1.00  0.00     0.036 A 
HETATM   26  C15 UNL     1       9.703  34.343  28.427  1.00  0.00     0.078 A 
HETATM   27  N3  UNL     1       8.841  35.355  28.257  1.00  0.00    -0.346 N 
ATOM     28  H3  UNL     1       8.247  35.727  28.999  1.00  0.00     0.167 HD
BRANCH  26  29
HETATM   29  C16 UNL     1       9.989  33.569  29.643  1.00  0.00     0.136 C 
HETATM   30  N1  UNL     1       9.731  34.081  30.790  1.00  0.00    -0.383 N 
ATOM     31  H12 UNL     1       9.332  35.018  30.827  1.00  0.00     0.157 HD
ATOM     32  H11 UNL     1       9.929  33.544  31.634  1.00  0.00     0.157 HD
BRANCH  29  33
HETATM   33  N2  UNL     1      10.540  32.274  29.591  1.00  0.00    -0.283 N 
HETATM   34 CL1  UNL     1       9.933  31.135  28.448  1.00  0.00     0.012 Cl
ATOM     35  H2  UNL     1      11.293  32.012  30.226  1.00  0.00     0.182 HD
ENDBRANCH  29  33
ENDBRANCH  26  29
ENDBRANCH  21  23
ENDBRANCH  20  21
ENDBRANCH  19  20
ENDBRANCH   1  19
TORSDOF 12
ENDMDL
