MODEL 1
REMARK VINA RESULT: -8.004172769      0.000      0.000
REMARK  13 active torsions:
REMARK  status: ('A' for Active; 'I' for Inactive)
REMARK    1  A    between atoms: C2_2  and  C3_3 
REMARK    2  A    between atoms: C3_3  and  C4_4 
REMARK    3  A    between atoms: C4_4  and  C6_6 
REMARK    4  A    between atoms: C6_6  and  C7_7 
REMARK    5  A    between atoms: C9_12  and  C10_13 
REMARK    6  A    between atoms: C17_24  and  C18_25 
REMARK    7  A    between atoms: C20_32  and  C21_33 
REMARK    8  A    between atoms: C21_33  and  C22_34 
REMARK    9  A    between atoms: C22_34  and  C23_35 
REMARK   10  A    between atoms: C23_35  and  N3_36 
REMARK   11  A    between atoms: N6_41  and  C25_42 
REMARK   12  A    between atoms: C26_43  and  N7_44 
REMARK   13  A    between atoms: N7_44  and  C27_46 
ROOT
HETATM    1  C7  UNL     1      64.618  21.500 -67.748  1.00  0.00     0.160 C 
HETATM    2  C8  UNL     1      65.927  20.848 -67.319  1.00  0.00     0.237 C 
HETATM    3  O1  UNL     1      65.943  19.608 -67.333  1.00  0.00    -0.272 OA
HETATM    4  N1  UNL     1      67.082  21.541 -66.918  1.00  0.00    -0.344 N 
ATOM      5  H1  UNL     1      67.968  21.207 -67.298  1.00  0.00     0.163 HD
HETATM    6  C9  UNL     1      67.152  22.674 -66.025  1.00  0.00     0.204 C 
HETATM    7  C11 UNL     1      68.102  23.753 -66.585  1.00  0.00     0.042 C 
HETATM    8  C12 UNL     1      67.980  25.018 -65.728  1.00  0.00     0.030 C 
HETATM    9  C13 UNL     1      69.534  23.323 -66.521  1.00  0.00     0.030 C 
HETATM   10  S1  UNL     1      67.498  24.164 -68.209  1.00  0.00    -0.085 SA
HETATM   11  S2  UNL     1      68.896  24.575 -69.671  1.00  0.00    -0.085 SA
HETATM   12  C14 UNL     1      69.389  23.225 -70.731  1.00  0.00     0.042 C 
HETATM   13  C15 UNL     1      69.934  23.745 -72.046  1.00  0.00     0.030 C 
HETATM   14  C16 UNL     1      70.587  22.549 -70.043  1.00  0.00     0.030 C 
HETATM   15  C17 UNL     1      68.345  22.137 -70.912  1.00  0.00     0.204 C 
HETATM   16  N2  UNL     1      67.052  22.683 -71.204  1.00  0.00    -0.340 N 
ATOM     17  H2  UNL     1      67.032  23.392 -71.937  1.00  0.00     0.163 HD
HETATM   18  C19 UNL     1      65.798  22.375 -70.618  1.00  0.00     0.263 C 
HETATM   19  O6  UNL     1      64.959  23.344 -70.680  1.00  0.00    -0.267 OA
HETATM   20  C20 UNL     1      65.421  21.100 -69.983  1.00  0.00     0.080 C 
HETATM   21  N6  UNL     1      64.303  21.059 -69.110  1.00  0.00    -0.241 NA
ENDROOT
BRANCH  20  22
HETATM   22  C21 UNL     1      65.746  19.839 -70.655  1.00  0.00     0.004 C 
BRANCH  22  23
HETATM   23  C22 UNL     1      65.322  19.535 -72.029  1.00  0.00     0.049 C 
BRANCH  23  24
HETATM   24  C23 UNL     1      66.376  18.610 -72.699  1.00  0.00     0.126 C 
BRANCH  24  25
HETATM   25  N3  UNL     1      67.354  18.241 -71.725  1.00  0.00    -0.367 N 
HETATM   26  C24 UNL     1      68.443  17.643 -72.045  1.00  0.00     0.196 C 
HETATM   27  N4  UNL     1      69.360  17.315 -70.997  1.00  0.00    -0.067 NA
HETATM   28  N5  UNL     1      68.691  17.333 -73.395  1.00  0.00    -0.067 NA
ATOM     29  H3  UNL     1      67.182  18.461 -70.744  1.00  0.00     0.161 HD
ENDBRANCH  24  25
ENDBRANCH  23  24
ENDBRANCH  22  23
ENDBRANCH  20  22
BRANCH  21  30
HETATM   30  C25 UNL     1      63.128  21.724 -69.477  1.00  0.00     0.083 C 
HETATM   31  C26 UNL     1      62.005  21.248 -70.246  1.00  0.00     0.102 C 
BRANCH  31  32
HETATM   32  N7  UNL     1      61.201  20.160 -69.723  1.00  0.00    -0.343 N 
ATOM     33  H7  UNL     1      61.020  20.162 -68.720  1.00  0.00     0.167 HD
BRANCH  32  34
HETATM   34  C27 UNL     1      60.650  19.102 -70.467  1.00  0.00     0.352 C 
HETATM   35  O7  UNL     1      60.845  18.840 -71.662  1.00  0.00    -0.283 OA
ENDBRANCH  32  34
ENDBRANCH  31  32
ENDBRANCH  21  30
BRANCH   1  36
HETATM   36  C6  UNL     1      63.759  21.201 -66.615  1.00  0.00     0.034 C 
BRANCH  36  37
HETATM   37  C4  UNL     1      62.854  22.007 -65.841  1.00  0.00    -0.017 C 
HETATM   38  C5  UNL     1      63.689  22.527 -64.595  1.00  0.00     0.010 C 
BRANCH  37  39
HETATM   39  C3  UNL     1      62.403  23.314 -66.452  1.00  0.00     0.004 C 
BRANCH  39  40
HETATM   40  C2  UNL     1      63.324  24.401 -65.948  1.00  0.00    -0.004 C 
HETATM   41  C1  UNL     1      64.047  25.075 -67.089  1.00  0.00     0.005 C 
ENDBRANCH  39  40
ENDBRANCH  37  39
ENDBRANCH  36  37
ENDBRANCH   1  36
BRANCH  15  42
HETATM   42  C18 UNL     1      68.875  21.344 -72.087  1.00  0.00     0.198 C 
HETATM   43  O4  UNL     1      68.423  21.484 -73.252  1.00  0.00    -0.646 OA
HETATM   44  O5  UNL     1      69.889  20.448 -71.808  1.00  0.00    -0.646 OA
ENDBRANCH  15  42
BRANCH   6  45
HETATM   45  C10 UNL     1      67.739  22.210 -64.744  1.00  0.00     0.198 C 
HETATM   46  O2  UNL     1      68.730  21.449 -64.750  1.00  0.00    -0.646 OA
HETATM   47  O3  UNL     1      67.147  22.654 -63.554  1.00  0.00    -0.646 OA
ENDBRANCH   6  45
TORSDOF 13
ENDMDL
MODEL 2
REMARK VINA RESULT: -7.894573048      1.339      1.933
REMARK  13 active torsions:
REMARK  status: ('A' for Active; 'I' for Inactive)
REMARK    1  A    between atoms: C2_2  and  C3_3 
REMARK    2  A    between atoms: C3_3  and  C4_4 
REMARK    3  A    between atoms: C4_4  and  C6_6 
REMARK    4  A    between atoms: C6_6  and  C7_7 
REMARK    5  A    between atoms: C9_12  and  C10_13 
REMARK    6  A    between atoms: C17_24  and  C18_25 
REMARK    7  A    between atoms: C20_32  and  C21_33 
REMARK    8  A    between atoms: C21_33  and  C22_34 
REMARK    9  A    between atoms: C22_34  and  C23_35 
REMARK   10  A    between atoms: C23_35  and  N3_36 
REMARK   11  A    between atoms: N6_41  and  C25_42 
REMARK   12  A    between atoms: C26_43  and  N7_44 
REMARK   13  A    between atoms: N7_44  and  C27_46 
ROOT
HETATM    1  C7  UNL     1      65.914  21.944 -67.844  1.00  0.00     0.160 C 
HETATM    2  C8  UNL     1      67.240  21.273 -67.507  1.00  0.00     0.237 C 
HETATM    3  O1  UNL     1      67.215  20.035 -67.433  1.00  0.00    -0.272 OA
HETATM    4  N1  UNL     1      68.453  21.945 -67.279  1.00  0.00    -0.344 N 
ATOM      5  H1  UNL     1      69.282  21.551 -67.724  1.00  0.00     0.163 HD
HETATM    6  C9  UNL     1      68.654  23.133 -66.482  1.00  0.00     0.204 C 
HETATM    7  C11 UNL     1      69.572  24.133 -67.213  1.00  0.00     0.042 C 
HETATM    8  C12 UNL     1      69.583  25.456 -66.442  1.00  0.00     0.030 C 
HETATM    9  C13 UNL     1      70.989  23.652 -67.268  1.00  0.00     0.030 C 
HETATM   10  S1  UNL     1      68.813  24.456 -68.791  1.00  0.00    -0.085 SA
HETATM   11  S2  UNL     1      70.060  24.710 -70.416  1.00  0.00    -0.085 SA
HETATM   12  C14 UNL     1      70.395  23.273 -71.422  1.00  0.00     0.042 C 
HETATM   13  C15 UNL     1      70.814  23.680 -72.820  1.00  0.00     0.030 C 
HETATM   14  C16 UNL     1      71.636  22.599 -70.814  1.00  0.00     0.030 C 
HETATM   15  C17 UNL     1      69.303  22.217 -71.415  1.00  0.00     0.204 C 
HETATM   16  N2  UNL     1      68.005  22.792 -71.610  1.00  0.00    -0.340 N 
ATOM     17  H2  UNL     1      67.929  23.450 -72.386  1.00  0.00     0.163 HD
HETATM   18  C19 UNL     1      66.811  22.575 -70.877  1.00  0.00     0.263 C 
HETATM   19  O6  UNL     1      66.001  23.570 -70.921  1.00  0.00    -0.267 OA
HETATM   20  C20 UNL     1      66.462  21.362 -70.116  1.00  0.00     0.080 C 
HETATM   21  N6  UNL     1      65.443  21.425 -69.131  1.00  0.00    -0.241 NA
ENDROOT
BRANCH  20  22
HETATM   22  C21 UNL     1      66.674  20.046 -70.725  1.00  0.00     0.004 C 
BRANCH  22  23
HETATM   23  C22 UNL     1      65.590  19.272 -71.349  1.00  0.00     0.049 C 
BRANCH  23  24
HETATM   24  C23 UNL     1      66.000  18.892 -72.798  1.00  0.00     0.126 C 
BRANCH  24  25
HETATM   25  N3  UNL     1      67.416  18.708 -72.847  1.00  0.00    -0.367 N 
HETATM   26  C24 UNL     1      67.950  17.645 -73.327  1.00  0.00     0.196 C 
HETATM   27  N4  UNL     1      69.378  17.555 -73.330  1.00  0.00    -0.067 NA
HETATM   28  N5  UNL     1      67.124  16.619 -73.823  1.00  0.00    -0.067 NA
ATOM     29  H3  UNL     1      68.023  19.446 -72.488  1.00  0.00     0.161 HD
ENDBRANCH  24  25
ENDBRANCH  23  24
ENDBRANCH  22  23
ENDBRANCH  20  22
BRANCH  21  30
HETATM   30  C25 UNL     1      64.258  22.109 -69.421  1.00  0.00     0.083 C 
HETATM   31  C26 UNL     1      63.090  21.661 -70.139  1.00  0.00     0.102 C 
BRANCH  31  32
HETATM   32  N7  UNL     1      62.304  20.569 -69.598  1.00  0.00    -0.343 N 
ATOM     33  H7  UNL     1      62.673  20.101 -68.771  1.00  0.00     0.167 HD
BRANCH  32  34
HETATM   34  C27 UNL     1      61.081  20.095 -70.105  1.00  0.00     0.352 C 
HETATM   35  O7  UNL     1      60.668  18.926 -70.106  1.00  0.00    -0.283 OA
ENDBRANCH  32  34
ENDBRANCH  31  32
ENDBRANCH  21  30
BRANCH   1  36
HETATM   36  C6  UNL     1      65.171  21.758 -66.609  1.00  0.00     0.034 C 
BRANCH  36  37
HETATM   37  C4  UNL     1      64.691  22.678 -65.614  1.00  0.00    -0.017 C 
HETATM   38  C5  UNL     1      63.107  22.607 -65.683  1.00  0.00     0.010 C 
BRANCH  37  39
HETATM   39  C3  UNL     1      64.934  22.314 -64.167  1.00  0.00     0.004 C 
BRANCH  39  40
HETATM   40  C2  UNL     1      66.271  21.614 -64.088  1.00  0.00    -0.004 C 
HETATM   41  C1  UNL     1      66.676  21.376 -62.653  1.00  0.00     0.005 C 
ENDBRANCH  39  40
ENDBRANCH  37  39
ENDBRANCH  36  37
ENDBRANCH   1  36
BRANCH  15  42
HETATM   42  C18 UNL     1      69.679  21.325 -72.579  1.00  0.00     0.198 C 
HETATM   43  O4  UNL     1      70.662  20.543 -72.536  1.00  0.00    -0.646 OA
HETATM   44  O5  UNL     1      68.879  21.421 -73.701  1.00  0.00    -0.646 OA
ENDBRANCH  15  42
BRANCH   6  45
HETATM   45  C10 UNL     1      69.357  22.734 -65.239  1.00  0.00     0.198 C 
HETATM   46  O2  UNL     1      70.048  21.693 -65.218  1.00  0.00    -0.646 OA
HETATM   47  O3  UNL     1      69.218  23.558 -64.114  1.00  0.00    -0.646 OA
ENDBRANCH   6  45
TORSDOF 13
ENDMDL
MODEL 3
REMARK VINA RESULT: -7.889667390      2.713      6.284
REMARK  13 active torsions:
REMARK  status: ('A' for Active; 'I' for Inactive)
REMARK    1  A    between atoms: C2_2  and  C3_3 
REMARK    2  A    between atoms: C3_3  and  C4_4 
REMARK    3  A    between atoms: C4_4  and  C6_6 
REMARK    4  A    between atoms: C6_6  and  C7_7 
REMARK    5  A    between atoms: C9_12  and  C10_13 
REMARK    6  A    between atoms: C17_24  and  C18_25 
REMARK    7  A    between atoms: C20_32  and  C21_33 
REMARK    8  A    between atoms: C21_33  and  C22_34 
REMARK    9  A    between atoms: C22_34  and  C23_35 
REMARK   10  A    between atoms: C23_35  and  N3_36 
REMARK   11  A    between atoms: N6_41  and  C25_42 
REMARK   12  A    between atoms: C26_43  and  N7_44 
REMARK   13  A    between atoms: N7_44  and  C27_46 
ROOT
HETATM    1  C7  UNL     1      67.934  22.816 -66.337  1.00  0.00     0.160 C 
HETATM    2  C8  UNL     1      68.110  22.496 -67.816  1.00  0.00     0.237 C 
HETATM    3  O1  UNL     1      68.616  21.393 -68.074  1.00  0.00    -0.272 OA
HETATM    4  N1  UNL     1      67.748  23.344 -68.876  1.00  0.00    -0.344 N 
ATOM      5  H1  UNL     1      67.261  22.911 -69.660  1.00  0.00     0.163 HD
HETATM    6  C9  UNL     1      67.992  24.764 -68.977  1.00  0.00     0.204 C 
HETATM    7  C11 UNL     1      66.737  25.500 -69.488  1.00  0.00     0.042 C 
HETATM    8  C12 UNL     1      66.961  27.011 -69.372  1.00  0.00     0.030 C 
HETATM    9  C13 UNL     1      66.470  25.211 -70.932  1.00  0.00     0.030 C 
HETATM   10  S1  UNL     1      65.416  25.083 -68.367  1.00  0.00    -0.085 SA
HETATM   11  S2  UNL     1      63.530  24.828 -69.168  1.00  0.00    -0.085 SA
HETATM   12  C14 UNL     1      63.041  23.163 -69.589  1.00  0.00     0.042 C 
HETATM   13  C15 UNL     1      61.531  23.035 -69.613  1.00  0.00     0.030 C 
HETATM   14  C16 UNL     1      63.483  22.936 -71.045  1.00  0.00     0.030 C 
HETATM   15  C17 UNL     1      63.715  22.071 -68.776  1.00  0.00     0.204 C 
HETATM   16  N2  UNL     1      63.692  22.362 -67.373  1.00  0.00    -0.340 N 
ATOM     17  H2  UNL     1      62.787  22.648 -66.999  1.00  0.00     0.163 HD
HETATM   18  C19 UNL     1      64.751  22.308 -66.431  1.00  0.00     0.263 C 
HETATM   19  O6  UNL     1      64.585  23.100 -65.435  1.00  0.00    -0.267 OA
HETATM   20  C20 UNL     1      65.953  21.458 -66.516  1.00  0.00     0.080 C 
HETATM   21  N6  UNL     1      67.091  21.780 -65.733  1.00  0.00    -0.241 NA
ENDROOT
BRANCH  20  22
HETATM   22  C21 UNL     1      65.809  20.045 -66.876  1.00  0.00     0.004 C 
BRANCH  22  23
HETATM   23  C22 UNL     1      65.974  19.551 -68.250  1.00  0.00     0.049 C 
BRANCH  23  24
HETATM   24  C23 UNL     1      67.232  18.642 -68.321  1.00  0.00     0.126 C 
BRANCH  24  25
HETATM   25  N3  UNL     1      67.851  18.806 -69.598  1.00  0.00    -0.367 N 
HETATM   26  C24 UNL     1      68.446  17.839 -70.197  1.00  0.00     0.196 C 
HETATM   27  N4  UNL     1      69.036  18.103 -71.474  1.00  0.00    -0.067 NA
HETATM   28  N5  UNL     1      68.497  16.573 -69.584  1.00  0.00    -0.067 NA
ATOM     29  H3  UNL     1      67.820  19.720 -70.049  1.00  0.00     0.161 HD
ENDBRANCH  24  25
ENDBRANCH  23  24
ENDBRANCH  22  23
ENDBRANCH  20  22
BRANCH  21  30
HETATM   30  C25 UNL     1      66.915  22.147 -64.394  1.00  0.00     0.083 C 
HETATM   31  C26 UNL     1      66.530  21.339 -63.263  1.00  0.00     0.102 C 
BRANCH  31  32
HETATM   32  N7  UNL     1      67.404  20.265 -62.832  1.00  0.00    -0.343 N 
ATOM     33  H7  UNL     1      67.915  19.767 -63.561  1.00  0.00     0.167 HD
BRANCH  32  34
HETATM   34  C27 UNL     1      67.614  19.844 -61.507  1.00  0.00     0.352 C 
HETATM   35  O7  UNL     1      66.955  20.156 -60.505  1.00  0.00    -0.283 OA
ENDBRANCH  32  34
ENDBRANCH  31  32
ENDBRANCH  21  30
BRANCH   1  36
HETATM   36  C6  UNL     1      69.308  23.041 -65.922  1.00  0.00     0.034 C 
BRANCH  36  37
HETATM   37  C4  UNL     1      70.341  22.157 -65.454  1.00  0.00    -0.017 C 
HETATM   38  C5  UNL     1      71.490  22.209 -66.548  1.00  0.00     0.010 C 
BRANCH  37  39
HETATM   39  C3  UNL     1      71.100  22.581 -64.217  1.00  0.00     0.004 C 
BRANCH  39  40
HETATM   40  C2  UNL     1      70.143  22.530 -63.049  1.00  0.00    -0.004 C 
HETATM   41  C1  UNL     1      70.766  21.831 -61.865  1.00  0.00     0.005 C 
ENDBRANCH  39  40
ENDBRANCH  37  39
ENDBRANCH  36  37
ENDBRANCH   1  36
BRANCH  15  42
HETATM   42  C18 UNL     1      62.881  20.846 -69.087  1.00  0.00     0.198 C 
HETATM   43  O4  UNL     1      63.021  20.190 -70.149  1.00  0.00    -0.646 OA
HETATM   44  O5  UNL     1      61.948  20.488 -68.132  1.00  0.00    -0.646 OA
ENDBRANCH  15  42
BRANCH   6  45
HETATM   45  C10 UNL     1      69.054  24.974 -69.991  1.00  0.00     0.198 C 
HETATM   46  O2  UNL     1      69.283  24.093 -70.846  1.00  0.00    -0.646 OA
HETATM   47  O3  UNL     1      69.771  26.177 -69.950  1.00  0.00    -0.646 OA
ENDBRANCH   6  45
TORSDOF 13
ENDMDL
MODEL 4
REMARK VINA RESULT: -7.881257942      0.737      1.151
REMARK  13 active torsions:
REMARK  status: ('A' for Active; 'I' for Inactive)
REMARK    1  A    between atoms: C2_2  and  C3_3 
REMARK    2  A    between atoms: C3_3  and  C4_4 
REMARK    3  A    between atoms: C4_4  and  C6_6 
REMARK    4  A    between atoms: C6_6  and  C7_7 
REMARK    5  A    between atoms: C9_12  and  C10_13 
REMARK    6  A    between atoms: C17_24  and  C18_25 
REMARK    7  A    between atoms: C20_32  and  C21_33 
REMARK    8  A    between atoms: C21_33  and  C22_34 
REMARK    9  A    between atoms: C22_34  and  C23_35 
REMARK   10  A    between atoms: C23_35  and  N3_36 
REMARK   11  A    between atoms: N6_41  and  C25_42 
REMARK   12  A    between atoms: C26_43  and  N7_44 
REMARK   13  A    between atoms: N7_44  and  C27_46 
ROOT
HETATM    1  C7  UNL     1      64.998  21.422 -67.883  1.00  0.00     0.160 C 
HETATM    2  C8  UNL     1      66.307  20.808 -67.401  1.00  0.00     0.237 C 
HETATM    3  O1  UNL     1      66.356  19.569 -67.405  1.00  0.00    -0.272 OA
HETATM    4  N1  UNL     1      67.429  21.534 -66.964  1.00  0.00    -0.344 N 
ATOM      5  H1  UNL     1      68.336  21.221 -67.310  1.00  0.00     0.163 HD
HETATM    6  C9  UNL     1      67.437  22.675 -66.078  1.00  0.00     0.204 C 
HETATM    7  C11 UNL     1      68.378  23.774 -66.611  1.00  0.00     0.042 C 
HETATM    8  C12 UNL     1      68.193  25.041 -65.770  1.00  0.00     0.030 C 
HETATM    9  C13 UNL     1      69.818  23.382 -66.493  1.00  0.00     0.030 C 
HETATM   10  S1  UNL     1      67.823  24.158 -68.260  1.00  0.00    -0.085 SA
HETATM   11  S2  UNL     1      69.263  24.595 -69.674  1.00  0.00    -0.085 SA
HETATM   12  C14 UNL     1      69.829  23.251 -70.704  1.00  0.00     0.042 C 
HETATM   13  C15 UNL     1      70.408  23.776 -72.002  1.00  0.00     0.030 C 
HETATM   14  C16 UNL     1      71.018  22.611 -69.967  1.00  0.00     0.030 C 
HETATM   15  C17 UNL     1      68.821  22.134 -70.914  1.00  0.00     0.204 C 
HETATM   16  N2  UNL     1      67.526  22.644 -71.258  1.00  0.00    -0.340 N 
ATOM     17  H2  UNL     1      67.514  23.348 -71.996  1.00  0.00     0.163 HD
HETATM   18  C19 UNL     1      66.260  22.308 -70.715  1.00  0.00     0.263 C 
HETATM   19  O6  UNL     1      65.398  23.254 -70.815  1.00  0.00    -0.267 OA
HETATM   20  C20 UNL     1      65.892  21.028 -70.084  1.00  0.00     0.080 C 
HETATM   21  N6  UNL     1      64.745  20.964 -69.252  1.00  0.00    -0.241 NA
ENDROOT
BRANCH  20  22
HETATM   22  C21 UNL     1      66.275  19.771 -70.734  1.00  0.00     0.004 C 
BRANCH  22  23
HETATM   23  C22 UNL     1      67.433  18.973 -70.307  1.00  0.00     0.049 C 
BRANCH  23  24
HETATM   24  C23 UNL     1      67.788  17.948 -71.419  1.00  0.00     0.126 C 
BRANCH  24  25
HETATM   25  N3  UNL     1      67.922  18.640 -72.662  1.00  0.00    -0.367 N 
HETATM   26  C24 UNL     1      67.635  18.089 -73.784  1.00  0.00     0.196 C 
HETATM   27  N4  UNL     1      67.803  18.865 -74.975  1.00  0.00    -0.067 NA
HETATM   28  N5  UNL     1      67.173  16.759 -73.804  1.00  0.00    -0.067 NA
ATOM     29  H3  UNL     1      68.256  19.604 -72.657  1.00  0.00     0.161 HD
ENDBRANCH  24  25
ENDBRANCH  23  24
ENDBRANCH  22  23
ENDBRANCH  20  22
BRANCH  21  30
HETATM   30  C25 UNL     1      63.568  21.596 -69.667  1.00  0.00     0.083 C 
HETATM   31  C26 UNL     1      62.461  21.069 -70.428  1.00  0.00     0.102 C 
BRANCH  31  32
HETATM   32  N7  UNL     1      61.664  19.996 -69.865  1.00  0.00    -0.343 N 
ATOM     33  H7  UNL     1      61.783  19.807 -68.871  1.00  0.00     0.167 HD
BRANCH  32  34
HETATM   34  C27 UNL     1      60.743  19.193 -70.561  1.00  0.00     0.352 C 
HETATM   35  O7  UNL     1      60.845  18.758 -71.716  1.00  0.00    -0.283 OA
ENDBRANCH  32  34
ENDBRANCH  31  32
ENDBRANCH  21  30
BRANCH   1  36
HETATM   36  C6  UNL     1      64.106  21.110 -66.779  1.00  0.00     0.034 C 
BRANCH  36  37
HETATM   37  C4  UNL     1      63.156  21.898 -66.042  1.00  0.00    -0.017 C 
HETATM   38  C5  UNL     1      63.944  22.474 -64.791  1.00  0.00     0.010 C 
BRANCH  37  39
HETATM   39  C3  UNL     1      62.672  23.174 -66.692  1.00  0.00     0.004 C 
BRANCH  39  40
HETATM   40  C2  UNL     1      63.531  24.307 -66.178  1.00  0.00    -0.004 C 
HETATM   41  C1  UNL     1      64.214  25.030 -67.314  1.00  0.00     0.005 C 
ENDBRANCH  39  40
ENDBRANCH  37  39
ENDBRANCH  36  37
ENDBRANCH   1  36
BRANCH  15  42
HETATM   42  C18 UNL     1      69.414  21.348 -72.063  1.00  0.00     0.198 C 
HETATM   43  O4  UNL     1      70.332  20.505 -71.898  1.00  0.00    -0.646 OA
HETATM   44  O5  UNL     1      68.888  21.610 -73.314  1.00  0.00    -0.646 OA
ENDBRANCH  15  42
BRANCH   6  45
HETATM   45  C10 UNL     1      67.988  22.235 -64.773  1.00  0.00     0.198 C 
HETATM   46  O2  UNL     1      68.990  21.490 -64.738  1.00  0.00    -0.646 OA
HETATM   47  O3  UNL     1      67.350  22.682 -63.608  1.00  0.00    -0.646 OA
ENDBRANCH   6  45
TORSDOF 13
ENDMDL
MODEL 5
REMARK VINA RESULT: -7.788456055      1.867      2.450
REMARK  13 active torsions:
REMARK  status: ('A' for Active; 'I' for Inactive)
REMARK    1  A    between atoms: C2_2  and  C3_3 
REMARK    2  A    between atoms: C3_3  and  C4_4 
REMARK    3  A    between atoms: C4_4  and  C6_6 
REMARK    4  A    between atoms: C6_6  and  C7_7 
REMARK    5  A    between atoms: C9_12  and  C10_13 
REMARK    6  A    between atoms: C17_24  and  C18_25 
REMARK    7  A    between atoms: C20_32  and  C21_33 
REMARK    8  A    between atoms: C21_33  and  C22_34 
REMARK    9  A    between atoms: C22_34  and  C23_35 
REMARK   10  A    between atoms: C23_35  and  N3_36 
REMARK   11  A    between atoms: N6_41  and  C25_42 
REMARK   12  A    between atoms: C26_43  and  N7_44 
REMARK   13  A    between atoms: N7_44  and  C27_46 
ROOT
HETATM    1  C7  UNL     1      66.175  22.016 -67.913  1.00  0.00     0.160 C 
HETATM    2  C8  UNL     1      67.493  21.303 -67.634  1.00  0.00     0.237 C 
HETATM    3  O1  UNL     1      67.428  20.069 -67.531  1.00  0.00    -0.272 OA
HETATM    4  N1  UNL     1      68.740  21.934 -67.487  1.00  0.00    -0.344 N 
ATOM      5  H1  UNL     1      69.528  21.501 -67.969  1.00  0.00     0.163 HD
HETATM    6  C9  UNL     1      69.027  23.130 -66.730  1.00  0.00     0.204 C 
HETATM    7  C11 UNL     1      69.938  24.080 -67.532  1.00  0.00     0.042 C 
HETATM    8  C12 UNL     1      70.039  25.418 -66.793  1.00  0.00     0.030 C 
HETATM    9  C13 UNL     1      71.332  23.546 -67.653  1.00  0.00     0.030 C 
HETATM   10  S1  UNL     1      69.105  24.399 -69.073  1.00  0.00    -0.085 SA
HETATM   11  S2  UNL     1      70.268  24.574 -70.769  1.00  0.00    -0.085 SA
HETATM   12  C14 UNL     1      70.495  23.106 -71.759  1.00  0.00     0.042 C 
HETATM   13  C15 UNL     1      70.849  23.468 -73.187  1.00  0.00     0.030 C 
HETATM   14  C16 UNL     1      71.743  22.398 -71.206  1.00  0.00     0.030 C 
HETATM   15  C17 UNL     1      69.368  22.090 -71.669  1.00  0.00     0.204 C 
HETATM   16  N2  UNL     1      68.082  22.709 -71.806  1.00  0.00    -0.340 N 
ATOM     17  H2  UNL     1      67.988  23.354 -72.590  1.00  0.00     0.163 HD
HETATM   18  C19 UNL     1      66.924  22.551 -71.003  1.00  0.00     0.263 C 
HETATM   19  O6  UNL     1      66.149  23.574 -71.025  1.00  0.00    -0.267 OA
HETATM   20  C20 UNL     1      66.575  21.367 -70.198  1.00  0.00     0.080 C 
HETATM   21  N6  UNL     1      65.615  21.488 -69.160  1.00  0.00    -0.241 NA
ENDROOT
BRANCH  20  22
HETATM   22  C21 UNL     1      66.705  20.033 -70.788  1.00  0.00     0.004 C 
BRANCH  22  23
HETATM   23  C22 UNL     1      65.560  19.281 -71.320  1.00  0.00     0.049 C 
BRANCH  23  24
HETATM   24  C23 UNL     1      65.816  18.946 -72.816  1.00  0.00     0.126 C 
BRANCH  24  25
HETATM   25  N3  UNL     1      67.208  18.683 -73.000  1.00  0.00    -0.367 N 
HETATM   26  C24 UNL     1      67.643  17.534 -73.370  1.00  0.00     0.196 C 
HETATM   27  N4  UNL     1      69.056  17.370 -73.526  1.00  0.00    -0.067 NA
HETATM   28  N5  UNL     1      66.727  16.491 -73.605  1.00  0.00    -0.067 NA
ATOM     29  H3  UNL     1      67.879  19.433 -72.831  1.00  0.00     0.161 HD
ENDBRANCH  24  25
ENDBRANCH  23  24
ENDBRANCH  22  23
ENDBRANCH  20  22
BRANCH  21  30
HETATM   30  C25 UNL     1      64.440  22.210 -69.400  1.00  0.00     0.083 C 
HETATM   31  C26 UNL     1      63.127  21.734 -69.758  1.00  0.00     0.102 C 
BRANCH  31  32
HETATM   32  N7  UNL     1      62.399  20.899 -68.822  1.00  0.00    -0.343 N 
ATOM     33  H7  UNL     1      62.055  20.006 -69.172  1.00  0.00     0.167 HD
BRANCH  32  34
HETATM   34  C27 UNL     1      62.122  21.204 -67.477  1.00  0.00     0.352 C 
HETATM   35  O7  UNL     1      62.270  20.468 -66.492  1.00  0.00    -0.283 OA
ENDBRANCH  32  34
ENDBRANCH  31  32
ENDBRANCH  21  30
BRANCH   1  36
HETATM   36  C6  UNL     1      65.496  21.882 -66.635  1.00  0.00     0.034 C 
BRANCH  36  37
HETATM   37  C4  UNL     1      65.812  22.347 -65.311  1.00  0.00    -0.017 C 
HETATM   38  C5  UNL     1      64.425  22.462 -64.547  1.00  0.00     0.010 C 
BRANCH  37  39
HETATM   39  C3  UNL     1      66.561  21.394 -64.409  1.00  0.00     0.004 C 
BRANCH  39  40
HETATM   40  C2  UNL     1      66.539  21.968 -63.012  1.00  0.00    -0.004 C 
HETATM   41  C1  UNL     1      66.907  20.922 -61.987  1.00  0.00     0.005 C 
ENDBRANCH  39  40
ENDBRANCH  37  39
ENDBRANCH  36  37
ENDBRANCH   1  36
BRANCH  15  42
HETATM   42  C18 UNL     1      69.647  21.162 -72.831  1.00  0.00     0.198 C 
HETATM   43  O4  UNL     1      69.009  21.228 -73.912  1.00  0.00    -0.646 OA
HETATM   44  O5  UNL     1      70.648  20.230 -72.637  1.00  0.00    -0.646 OA
ENDBRANCH  15  42
BRANCH   6  45
HETATM   45  C10 UNL     1      69.784  22.731 -65.518  1.00  0.00     0.198 C 
HETATM   46  O2  UNL     1      70.605  21.791 -65.576  1.00  0.00    -0.646 OA
HETATM   47  O3  UNL     1      69.544  23.439 -64.333  1.00  0.00    -0.646 OA
ENDBRANCH   6  45
TORSDOF 13
ENDMDL
