MODEL 1
REMARK VINA RESULT: -9.202951899      0.000      0.000
REMARK  16 active torsions:
REMARK  status: ('A' for Active; 'I' for Inactive)
REMARK    1  A    between atoms: C2_2  and  C3_3 
REMARK    2  A    between atoms: C3_3  and  C4_4 
REMARK    3  A    between atoms: C4_4  and  N1_5 
REMARK       I    between atoms: N1_5  and  C5_7 
REMARK       I    between atoms: C5_7  and  N8_54 
REMARK    4  A    between atoms: N2_8  and  C6_10 
REMARK    5  A    between atoms: C6_10  and  C7_11 
REMARK    6  A    between atoms: C7_11  and  C8_12 
REMARK    7  A    between atoms: C8_12  and  C9_13 
REMARK    8  A    between atoms: C11_18  and  C12_19 
REMARK    9  A    between atoms: C16_26  and  N5_27 
REMARK       I    between atoms: N5_27  and  C17_29 
REMARK   10  A    between atoms: C17_29  and  C18_31 
REMARK   11  A    between atoms: C18_31  and  N6_33 
REMARK   12  A    between atoms: C20_37  and  C21_38 
REMARK   13  A    between atoms: C21_38  and  C22_39 
REMARK   14  A    between atoms: C28_45  and  C29_46 
REMARK   15  A    between atoms: C29_46  and  N7_47 
REMARK   16  A    between atoms: N7_47  and  C30_49 
ROOT
HETATM    1  N1  UNL     1      70.478  19.800 -61.596  1.00  0.00    -0.226 N 
ATOM      2  H1  UNL     1      71.007  19.457 -62.397  1.00  0.00     0.177 HD
HETATM    3  C5  UNL     1      69.052  19.918 -61.654  1.00  0.00     0.682 C 
HETATM    4  N2  UNL     1      68.487  21.022 -61.979  1.00  0.00    -0.226 N 
ATOM      5  H2  UNL     1      69.057  21.838 -62.201  1.00  0.00     0.177 HD
HETATM    6  N8  UNL     1      68.258  18.798 -61.346  1.00  0.00    -0.126 N 
ATOM      7  H8  UNL     1      67.638  18.400 -62.052  1.00  0.00     0.197 HD
HETATM    8  C34 UNL     1      68.322  18.237 -60.077  1.00  0.00     0.196 C 
HETATM    9  N9  UNL     1      68.369  17.749 -59.016  1.00  0.00    -0.171 NA
ENDROOT
BRANCH   1  10
HETATM   10  C4  UNL     1      71.148  20.179 -60.377  1.00  0.00     0.138 C 
BRANCH  10  11
HETATM   11  C3  UNL     1      72.228  19.157 -60.006  1.00  0.00     0.020 C 
BRANCH  11  12
HETATM   12  C2  UNL     1      73.195  19.860 -59.074  1.00  0.00    -0.003 C 
HETATM   13  C1  UNL     1      72.607  21.169 -58.613  1.00  0.00     0.005 C 
ENDBRANCH  11  12
ENDBRANCH  10  11
ENDBRANCH   1  10
BRANCH   4  14
HETATM   14  C6  UNL     1      67.016  21.113 -62.031  1.00  0.00     0.138 C 
BRANCH  14  15
HETATM   15  C7  UNL     1      66.582  21.890 -63.212  1.00  0.00     0.024 C 
BRANCH  15  16
HETATM   16  C8  UNL     1      66.952  21.287 -64.515  1.00  0.00     0.055 C 
BRANCH  16  17
HETATM   17  C9  UNL     1      66.380  21.874 -65.751  1.00  0.00     0.224 C 
HETATM   18  N3  UNL     1      67.053  22.953 -66.381  1.00  0.00    -0.329 N 
HETATM   19  C10 UNL     1      68.337  23.044 -66.896  1.00  0.00     0.266 C 
ATOM     20  H3  UNL     1      66.499  23.804 -66.471  1.00  0.00     0.165 HD
HETATM   21  O1  UNL     1      68.822  24.249 -66.934  1.00  0.00    -0.266 OA
HETATM   22  C11 UNL     1      69.266  22.030 -67.410  1.00  0.00     0.083 C 
HETATM   23  N4  UNL     1      68.813  20.754 -67.748  1.00  0.00    -0.324 N 
HETATM   24  C15 UNL     1      67.716  20.177 -68.371  1.00  0.00     0.245 C 
ATOM     25  H4  UNL     1      69.479  20.041 -67.451  1.00  0.00     0.169 HD
HETATM   26  O2  UNL     1      67.421  18.964 -68.028  1.00  0.00    -0.271 OA
HETATM   27  C16 UNL     1      66.793  20.711 -69.396  1.00  0.00     0.183 C 
HETATM   28  C20 UNL     1      65.427  21.099 -69.016  1.00  0.00     0.052 C 
HETATM   29  C28 UNL     1      65.136  21.218 -67.570  1.00  0.00     0.148 C 
HETATM   30  O4  UNL     1      66.063  20.844 -66.652  1.00  0.00    -0.359 OA
BRANCH  22  31
HETATM   31  C12 UNL     1      70.335  22.606 -68.331  1.00  0.00     0.033 C 
HETATM   32  C13 UNL     1      70.098  22.276 -69.791  1.00  0.00     0.016 C 
HETATM   33  C14 UNL     1      71.719  22.027 -68.033  1.00  0.00     0.016 C 
ENDBRANCH  22  31
BRANCH  27  34
HETATM   34  N5  UNL     1      66.673  19.577 -70.345  1.00  0.00    -0.346 N 
HETATM   35  C17 UNL     1      67.404  19.421 -71.523  1.00  0.00     0.248 C 
HETATM   36  O3  UNL     1      68.285  20.256 -71.926  1.00  0.00    -0.271 OA
ATOM     37  H5  UNL     1      65.999  18.847 -70.115  1.00  0.00     0.163 HD
BRANCH  35  38
HETATM   38  C18 UNL     1      67.182  18.238 -72.388  1.00  0.00     0.270 C 
HETATM   39  C19 UNL     1      67.423  18.731 -73.815  1.00  0.00     0.050 C 
BRANCH  38  40
HETATM   40  N6  UNL     1      68.127  17.176 -72.088  1.00  0.00    -0.067 N 
ATOM     41  H63 UNL     1      68.992  17.285 -72.618  1.00  0.00     0.275 HD
ATOM     42  H62 UNL     1      68.507  17.269 -71.145  1.00  0.00     0.275 HD
ATOM     43  H61 UNL     1      67.713  16.255 -72.234  1.00  0.00     0.275 HD
ENDBRANCH  38  40
ENDBRANCH  35  38
ENDBRANCH  27  34
BRANCH  28  44
HETATM   44  C21 UNL     1      65.072  22.455 -69.647  1.00  0.00     0.048 C 
BRANCH  44  45
HETATM   45  C22 UNL     1      63.863  22.471 -70.481  1.00  0.00    -0.058 A 
HETATM   46  C23 UNL     1      63.346  21.357 -71.090  1.00  0.00     0.007 A 
HETATM   47  C24 UNL     1      62.204  21.442 -71.843  1.00  0.00     0.001 A 
HETATM   48  C25 UNL     1      61.520  22.618 -72.032  1.00  0.00     0.000 A 
HETATM   49  C26 UNL     1      62.051  23.744 -71.410  1.00  0.00     0.001 A 
HETATM   50  C27 UNL     1      63.194  23.664 -70.656  1.00  0.00     0.007 A 
ENDBRANCH  44  45
ENDBRANCH  28  44
BRANCH  29  51
HETATM   51  C29 UNL     1      63.842  20.521 -67.170  1.00  0.00     0.146 C 
BRANCH  51  52
HETATM   52  N7  UNL     1      62.719  21.302 -67.555  1.00  0.00    -0.415 N 
ATOM     53  H7  UNL     1      62.407  21.359 -68.525  1.00  0.00     0.153 HD
BRANCH  52  54
HETATM   54  C30 UNL     1      62.055  21.998 -66.511  1.00  0.00     0.076 C 
HETATM   55  C31 UNL     1      62.853  22.548 -65.387  1.00  0.00     0.024 C 
HETATM   56  C32 UNL     1      62.947  23.860 -66.129  1.00  0.00     0.004 C 
HETATM   57  C33 UNL     1      61.735  23.423 -66.923  1.00  0.00     0.024 C 
ENDBRANCH  52  54
ENDBRANCH  51  52
ENDBRANCH  29  51
ENDBRANCH  16  17
ENDBRANCH  15  16
ENDBRANCH  14  15
ENDBRANCH   4  14
TORSDOF 16
ENDMDL
MODEL 2
REMARK VINA RESULT: -9.196423224      1.814      2.403
REMARK  16 active torsions:
REMARK  status: ('A' for Active; 'I' for Inactive)
REMARK    1  A    between atoms: C2_2  and  C3_3 
REMARK    2  A    between atoms: C3_3  and  C4_4 
REMARK    3  A    between atoms: C4_4  and  N1_5 
REMARK       I    between atoms: N1_5  and  C5_7 
REMARK       I    between atoms: C5_7  and  N8_54 
REMARK    4  A    between atoms: N2_8  and  C6_10 
REMARK    5  A    between atoms: C6_10  and  C7_11 
REMARK    6  A    between atoms: C7_11  and  C8_12 
REMARK    7  A    between atoms: C8_12  and  C9_13 
REMARK    8  A    between atoms: C11_18  and  C12_19 
REMARK    9  A    between atoms: C16_26  and  N5_27 
REMARK       I    between atoms: N5_27  and  C17_29 
REMARK   10  A    between atoms: C17_29  and  C18_31 
REMARK   11  A    between atoms: C18_31  and  N6_33 
REMARK   12  A    between atoms: C20_37  and  C21_38 
REMARK   13  A    between atoms: C21_38  and  C22_39 
REMARK   14  A    between atoms: C28_45  and  C29_46 
REMARK   15  A    between atoms: C29_46  and  N7_47 
REMARK   16  A    between atoms: N7_47  and  C30_49 
ROOT
HETATM    1  N1  UNL     1      69.273  19.799 -61.345  1.00  0.00    -0.226 N 
ATOM      2  H1  UNL     1      68.621  19.101 -61.703  1.00  0.00     0.177 HD
HETATM    3  C5  UNL     1      69.445  21.053 -62.015  1.00  0.00     0.682 C 
HETATM    4  N2  UNL     1      70.377  21.224 -62.879  1.00  0.00    -0.226 N 
ATOM      5  H2  UNL     1      71.013  20.458 -63.099  1.00  0.00     0.177 HD
HETATM    6  N8  UNL     1      68.575  22.117 -61.715  1.00  0.00    -0.126 N 
ATOM      7  H8  UNL     1      67.978  22.511 -62.443  1.00  0.00     0.197 HD
HETATM    8  C34 UNL     1      68.532  22.628 -60.424  1.00  0.00     0.196 C 
HETATM    9  N9  UNL     1      68.479  23.065 -59.342  1.00  0.00    -0.171 NA
ENDROOT
BRANCH   1  10
HETATM   10  C4  UNL     1      70.042  19.547 -60.153  1.00  0.00     0.138 C 
BRANCH  10  11
HETATM   11  C3  UNL     1      71.125  18.494 -60.412  1.00  0.00     0.020 C 
BRANCH  11  12
HETATM   12  C2  UNL     1      72.452  19.225 -60.432  1.00  0.00    -0.003 C 
HETATM   13  C1  UNL     1      72.862  19.589 -59.027  1.00  0.00     0.005 C 
ENDBRANCH  11  12
ENDBRANCH  10  11
ENDBRANCH   1  10
BRANCH   4  14
HETATM   14  C6  UNL     1      70.531  22.526 -63.554  1.00  0.00     0.138 C 
BRANCH  14  15
HETATM   15  C7  UNL     1      69.885  22.505 -64.884  1.00  0.00     0.024 C 
BRANCH  15  16
HETATM   16  C8  UNL     1      69.136  23.739 -65.223  1.00  0.00     0.055 C 
BRANCH  16  17
HETATM   17  C9  UNL     1      68.272  23.730 -66.429  1.00  0.00     0.224 C 
HETATM   18  N3  UNL     1      68.551  24.633 -67.488  1.00  0.00    -0.329 N 
HETATM   19  C10 UNL     1      69.686  24.795 -68.266  1.00  0.00     0.266 C 
ATOM     20  H3  UNL     1      67.787  25.269 -67.714  1.00  0.00     0.165 HD
HETATM   21  O1  UNL     1      69.830  25.982 -68.775  1.00  0.00    -0.266 OA
HETATM   22  C11 UNL     1      70.771  23.875 -68.630  1.00  0.00     0.083 C 
HETATM   23  N4  UNL     1      70.625  22.498 -68.455  1.00  0.00    -0.324 N 
HETATM   24  C15 UNL     1      69.644  21.532 -68.622  1.00  0.00     0.245 C 
ATOM     25  H4  UNL     1      71.487  22.082 -68.103  1.00  0.00     0.169 HD
HETATM   26  O2  UNL     1      69.724  20.482 -67.869  1.00  0.00    -0.271 OA
HETATM   27  C16 UNL     1      68.485  21.477 -69.540  1.00  0.00     0.183 C 
HETATM   28  C20 UNL     1      67.129  21.689 -69.016  1.00  0.00     0.052 C 
HETATM   29  C28 UNL     1      67.012  22.245 -67.650  1.00  0.00     0.148 C 
HETATM   30  O4  UNL     1      68.118  22.410 -66.881  1.00  0.00    -0.359 OA
BRANCH  22  31
HETATM   31  C12 UNL     1      71.520  24.295 -69.888  1.00  0.00     0.033 C 
HETATM   32  C13 UNL     1      70.889  23.761 -71.159  1.00  0.00     0.016 C 
HETATM   33  C14 UNL     1      72.947  23.745 -69.915  1.00  0.00     0.016 C 
ENDBRANCH  22  31
BRANCH  27  34
HETATM   34  N5  UNL     1      68.541  20.083 -70.047  1.00  0.00    -0.346 N 
HETATM   35  C17 UNL     1      68.287  19.683 -71.359  1.00  0.00     0.248 C 
HETATM   36  O3  UNL     1      67.977  20.494 -72.299  1.00  0.00    -0.271 OA
ATOM     37  H5  UNL     1      68.786  19.354 -69.378  1.00  0.00     0.163 HD
BRANCH  35  38
HETATM   38  C18 UNL     1      68.373  18.252 -71.733  1.00  0.00     0.270 C 
HETATM   39  C19 UNL     1      69.302  18.206 -72.946  1.00  0.00     0.050 C 
BRANCH  38  40
HETATM   40  N6  UNL     1      68.952  17.457 -70.663  1.00  0.00    -0.067 N 
ATOM     41  H63 UNL     1      69.853  17.831 -70.366  1.00  0.00     0.275 HD
ATOM     42  H62 UNL     1      68.437  17.575 -69.789  1.00  0.00     0.275 HD
ATOM     43  H61 UNL     1      69.023  16.474 -70.924  1.00  0.00     0.275 HD
ENDBRANCH  38  40
ENDBRANCH  35  38
ENDBRANCH  27  34
BRANCH  28  44
HETATM   44  C21 UNL     1      66.352  22.639 -69.943  1.00  0.00     0.048 C 
BRANCH  44  45
HETATM   45  C22 UNL     1      65.079  22.121 -70.459  1.00  0.00    -0.058 A 
HETATM   46  C23 UNL     1      64.809  20.787 -70.617  1.00  0.00     0.007 A 
HETATM   47  C24 UNL     1      63.591  20.373 -71.092  1.00  0.00     0.001 A 
HETATM   48  C25 UNL     1      62.587  21.247 -71.432  1.00  0.00     0.000 A 
HETATM   49  C26 UNL     1      62.869  22.599 -71.270  1.00  0.00     0.001 A 
HETATM   50  C27 UNL     1      64.086  23.018 -70.795  1.00  0.00     0.007 A 
ENDBRANCH  44  45
ENDBRANCH  28  44
BRANCH  29  51
HETATM   51  C29 UNL     1      66.010  21.487 -66.790  1.00  0.00     0.146 C 
BRANCH  51  52
HETATM   52  N7  UNL     1      64.990  22.362 -66.327  1.00  0.00    -0.415 N 
ATOM     53  H7  UNL     1      65.157  23.358 -66.183  1.00  0.00     0.153 HD
BRANCH  52  54
HETATM   54  C30 UNL     1      63.724  21.769 -66.080  1.00  0.00     0.076 C 
HETATM   55  C31 UNL     1      62.503  22.611 -66.155  1.00  0.00     0.024 C 
HETATM   56  C32 UNL     1      62.347  22.211 -67.602  1.00  0.00     0.004 C 
HETATM   57  C33 UNL     1      63.227  21.017 -67.300  1.00  0.00     0.024 C 
ENDBRANCH  52  54
ENDBRANCH  51  52
ENDBRANCH  29  51
ENDBRANCH  16  17
ENDBRANCH  15  16
ENDBRANCH  14  15
ENDBRANCH   4  14
TORSDOF 16
ENDMDL
MODEL 3
REMARK VINA RESULT: -9.147830814      1.671      2.017
REMARK  16 active torsions:
REMARK  status: ('A' for Active; 'I' for Inactive)
REMARK    1  A    between atoms: C2_2  and  C3_3 
REMARK    2  A    between atoms: C3_3  and  C4_4 
REMARK    3  A    between atoms: C4_4  and  N1_5 
REMARK       I    between atoms: N1_5  and  C5_7 
REMARK       I    between atoms: C5_7  and  N8_54 
REMARK    4  A    between atoms: N2_8  and  C6_10 
REMARK    5  A    between atoms: C6_10  and  C7_11 
REMARK    6  A    between atoms: C7_11  and  C8_12 
REMARK    7  A    between atoms: C8_12  and  C9_13 
REMARK    8  A    between atoms: C11_18  and  C12_19 
REMARK    9  A    between atoms: C16_26  and  N5_27 
REMARK       I    between atoms: N5_27  and  C17_29 
REMARK   10  A    between atoms: C17_29  and  C18_31 
REMARK   11  A    between atoms: C18_31  and  N6_33 
REMARK   12  A    between atoms: C20_37  and  C21_38 
REMARK   13  A    between atoms: C21_38  and  C22_39 
REMARK   14  A    between atoms: C28_45  and  C29_46 
REMARK   15  A    between atoms: C29_46  and  N7_47 
REMARK   16  A    between atoms: N7_47  and  C30_49 
ROOT
HETATM    1  N1  UNL     1      70.937  18.982 -61.163  1.00  0.00    -0.226 N 
ATOM      2  H1  UNL     1      71.237  18.183 -61.722  1.00  0.00     0.177 HD
HETATM    3  C5  UNL     1      69.981  19.918 -61.675  1.00  0.00     0.682 C 
HETATM    4  N2  UNL     1      70.353  20.993 -62.266  1.00  0.00    -0.226 N 
ATOM      5  H2  UNL     1      71.346  21.195 -62.378  1.00  0.00     0.177 HD
HETATM    6  N8  UNL     1      68.609  19.649 -61.523  1.00  0.00    -0.126 N 
ATOM      7  H8  UNL     1      68.015  19.533 -62.345  1.00  0.00     0.197 HD
HETATM    8  C34 UNL     1      68.066  19.544 -60.249  1.00  0.00     0.196 C 
HETATM    9  N9  UNL     1      67.594  19.445 -59.185  1.00  0.00    -0.171 NA
ENDROOT
BRANCH   1  10
HETATM   10  C4  UNL     1      71.465  19.196 -59.840  1.00  0.00     0.138 C 
BRANCH  10  11
HETATM   11  C3  UNL     1      72.942  19.603 -59.898  1.00  0.00     0.020 C 
BRANCH  11  12
HETATM   12  C2  UNL     1      73.350  19.974 -58.487  1.00  0.00    -0.003 C 
HETATM   13  C1  UNL     1      72.301  19.511 -57.507  1.00  0.00     0.005 C 
ENDBRANCH  11  12
ENDBRANCH  10  11
ENDBRANCH   1  10
BRANCH   4  14
HETATM   14  C6  UNL     1      69.346  21.939 -62.783  1.00  0.00     0.138 C 
BRANCH  14  15
HETATM   15  C7  UNL     1      69.408  22.012 -64.259  1.00  0.00     0.024 C 
BRANCH  15  16
HETATM   16  C8  UNL     1      69.066  23.340 -64.823  1.00  0.00     0.055 C 
BRANCH  16  17
HETATM   17  C9  UNL     1      68.169  23.395 -66.003  1.00  0.00     0.224 C 
HETATM   18  N3  UNL     1      68.355  24.418 -66.968  1.00  0.00    -0.329 N 
HETATM   19  C10 UNL     1      69.454  24.737 -67.751  1.00  0.00     0.266 C 
ATOM     20  H3  UNL     1      67.545  25.020 -67.110  1.00  0.00     0.165 HD
HETATM   21  O1  UNL     1      69.504  25.977 -68.137  1.00  0.00    -0.266 OA
HETATM   22  C11 UNL     1      70.586  23.937 -68.232  1.00  0.00     0.083 C 
HETATM   23  N4  UNL     1      70.538  22.542 -68.199  1.00  0.00    -0.324 N 
HETATM   24  C15 UNL     1      69.619  21.533 -68.444  1.00  0.00     0.245 C 
ATOM     25  H4  UNL     1      71.436  22.154 -67.911  1.00  0.00     0.169 HD
HETATM   26  O2  UNL     1      69.791  20.419 -67.806  1.00  0.00    -0.271 OA
HETATM   27  C16 UNL     1      68.440  21.492 -69.336  1.00  0.00     0.183 C 
HETATM   28  C20 UNL     1      67.088  21.555 -68.763  1.00  0.00     0.052 C 
HETATM   29  C28 UNL     1      66.976  21.958 -67.344  1.00  0.00     0.148 C 
HETATM   30  O4  UNL     1      68.090  22.120 -66.587  1.00  0.00    -0.359 OA
BRANCH  22  31
HETATM   31  C12 UNL     1      71.268  24.535 -69.457  1.00  0.00     0.033 C 
HETATM   32  C13 UNL     1      70.565  24.189 -70.754  1.00  0.00     0.016 C 
HETATM   33  C14 UNL     1      72.688  23.995 -69.642  1.00  0.00     0.016 C 
ENDBRANCH  22  31
BRANCH  27  34
HETATM   34  N5  UNL     1      68.574  20.165 -69.987  1.00  0.00    -0.346 N 
HETATM   35  C17 UNL     1      68.393  19.902 -71.345  1.00  0.00     0.248 C 
HETATM   36  O3  UNL     1      68.089  20.798 -72.206  1.00  0.00    -0.271 OA
ATOM     37  H5  UNL     1      68.820  19.376 -69.389  1.00  0.00     0.163 HD
BRANCH  35  38
HETATM   38  C18 UNL     1      68.551  18.523 -71.865  1.00  0.00     0.270 C 
HETATM   39  C19 UNL     1      69.648  18.617 -72.927  1.00  0.00     0.050 C 
BRANCH  38  40
HETATM   40  N6  UNL     1      68.981  17.607 -70.822  1.00  0.00    -0.067 N 
ATOM     41  H63 UNL     1      69.926  17.820 -70.503  1.00  0.00     0.275 HD
ATOM     42  H62 UNL     1      68.479  17.774 -69.949  1.00  0.00     0.275 HD
ATOM     43  H61 UNL     1      68.897  16.636 -71.121  1.00  0.00     0.275 HD
ENDBRANCH  38  40
ENDBRANCH  35  38
ENDBRANCH  27  34
BRANCH  28  44
HETATM   44  C21 UNL     1      66.224  22.538 -69.568  1.00  0.00     0.048 C 
BRANCH  44  45
HETATM   45  C22 UNL     1      65.050  21.956 -70.230  1.00  0.00    -0.058 A 
HETATM   46  C23 UNL     1      64.911  20.617 -70.492  1.00  0.00     0.007 A 
HETATM   47  C24 UNL     1      63.779  20.140 -71.101  1.00  0.00     0.001 A 
HETATM   48  C25 UNL     1      62.737  20.950 -71.480  1.00  0.00     0.000 A 
HETATM   49  C26 UNL     1      62.886  22.307 -71.212  1.00  0.00     0.001 A 
HETATM   50  C27 UNL     1      64.016  22.790 -70.602  1.00  0.00     0.007 A 
ENDBRANCH  44  45
ENDBRANCH  28  44
BRANCH  29  51
HETATM   51  C29 UNL     1      66.052  21.048 -66.545  1.00  0.00     0.146 C 
BRANCH  51  52
HETATM   52  N7  UNL     1      65.014  21.805 -65.937  1.00  0.00    -0.415 N 
ATOM     53  H7  UNL     1      65.059  22.098 -64.961  1.00  0.00     0.153 HD
BRANCH  52  54
HETATM   54  C30 UNL     1      63.910  22.130 -66.768  1.00  0.00     0.076 C 
HETATM   55  C31 UNL     1      63.028  21.042 -67.259  1.00  0.00     0.024 C 
HETATM   56  C32 UNL     1      62.128  21.268 -66.067  1.00  0.00     0.004 C 
HETATM   57  C33 UNL     1      62.743  22.646 -65.947  1.00  0.00     0.024 C 
ENDBRANCH  52  54
ENDBRANCH  51  52
ENDBRANCH  29  51
ENDBRANCH  16  17
ENDBRANCH  15  16
ENDBRANCH  14  15
ENDBRANCH   4  14
TORSDOF 16
ENDMDL
MODEL 4
REMARK VINA RESULT: -9.054635794      1.875      2.527
REMARK  16 active torsions:
REMARK  status: ('A' for Active; 'I' for Inactive)
REMARK    1  A    between atoms: C2_2  and  C3_3 
REMARK    2  A    between atoms: C3_3  and  C4_4 
REMARK    3  A    between atoms: C4_4  and  N1_5 
REMARK       I    between atoms: N1_5  and  C5_7 
REMARK       I    between atoms: C5_7  and  N8_54 
REMARK    4  A    between atoms: N2_8  and  C6_10 
REMARK    5  A    between atoms: C6_10  and  C7_11 
REMARK    6  A    between atoms: C7_11  and  C8_12 
REMARK    7  A    between atoms: C8_12  and  C9_13 
REMARK    8  A    between atoms: C11_18  and  C12_19 
REMARK    9  A    between atoms: C16_26  and  N5_27 
REMARK       I    between atoms: N5_27  and  C17_29 
REMARK   10  A    between atoms: C17_29  and  C18_31 
REMARK   11  A    between atoms: C18_31  and  N6_33 
REMARK   12  A    between atoms: C20_37  and  C21_38 
REMARK   13  A    between atoms: C21_38  and  C22_39 
REMARK   14  A    between atoms: C28_45  and  C29_46 
REMARK   15  A    between atoms: C29_46  and  N7_47 
REMARK   16  A    between atoms: N7_47  and  C30_49 
ROOT
HETATM    1  N1  UNL     1      70.172  19.762 -60.922  1.00  0.00    -0.226 N 
ATOM      2  H1  UNL     1      69.305  19.244 -60.784  1.00  0.00     0.177 HD
HETATM    3  C5  UNL     1      70.171  21.025 -61.597  1.00  0.00     0.682 C 
HETATM    4  N2  UNL     1      70.403  21.108 -62.855  1.00  0.00    -0.226 N 
ATOM      5  H2  UNL     1      70.593  20.263 -63.394  1.00  0.00     0.177 HD
HETATM    6  N8  UNL     1      69.914  22.196 -60.861  1.00  0.00    -0.126 N 
ATOM      7  H8  UNL     1      69.102  22.773 -61.084  1.00  0.00     0.197 HD
HETATM    8  C34 UNL     1      70.770  22.564 -59.831  1.00  0.00     0.196 C 
HETATM    9  N9  UNL     1      71.476  22.884 -58.957  1.00  0.00    -0.171 NA
ENDROOT
BRANCH   1  10
HETATM   10  C4  UNL     1      71.427  19.241 -60.442  1.00  0.00     0.138 C 
BRANCH  10  11
HETATM   11  C3  UNL     1      71.280  18.677 -59.025  1.00  0.00     0.020 C 
BRANCH  11  12
HETATM   12  C2  UNL     1      72.290  19.401 -58.158  1.00  0.00    -0.003 C 
HETATM   13  C1  UNL     1      73.440  19.889 -59.002  1.00  0.00     0.005 C 
ENDBRANCH  11  12
ENDBRANCH  10  11
ENDBRANCH   1  10
BRANCH   4  14
HETATM   14  C6  UNL     1      70.396  22.422 -63.524  1.00  0.00     0.138 C 
BRANCH  14  15
HETATM   15  C7  UNL     1      69.644  22.357 -64.796  1.00  0.00     0.024 C 
BRANCH  15  16
HETATM   16  C8  UNL     1      68.940  23.611 -65.159  1.00  0.00     0.055 C 
BRANCH  16  17
HETATM   17  C9  UNL     1      68.099  23.619 -66.380  1.00  0.00     0.224 C 
HETATM   18  N3  UNL     1      68.366  24.569 -67.399  1.00  0.00    -0.329 N 
HETATM   19  C10 UNL     1      69.510  24.796 -68.150  1.00  0.00     0.266 C 
ATOM     20  H3  UNL     1      67.586  25.188 -67.617  1.00  0.00     0.165 HD
HETATM   21  O1  UNL     1      69.624  26.005 -68.612  1.00  0.00    -0.266 OA
HETATM   22  C11 UNL     1      70.630  23.926 -68.525  1.00  0.00     0.083 C 
HETATM   23  N4  UNL     1      70.527  22.539 -68.404  1.00  0.00    -0.324 N 
HETATM   24  C15 UNL     1      69.582  21.549 -68.626  1.00  0.00     0.245 C 
ATOM     25  H4  UNL     1      71.396  22.139 -68.051  1.00  0.00     0.169 HD
HETATM   26  O2  UNL     1      69.684  20.475 -67.909  1.00  0.00    -0.271 OA
HETATM   27  C16 UNL     1      68.443  21.490 -69.567  1.00  0.00     0.183 C 
HETATM   28  C20 UNL     1      67.070  21.639 -69.062  1.00  0.00     0.052 C 
HETATM   29  C28 UNL     1      66.911  22.139 -67.678  1.00  0.00     0.148 C 
HETATM   30  O4  UNL     1      67.997  22.311 -66.883  1.00  0.00    -0.359 OA
BRANCH  22  31
HETATM   31  C12 UNL     1      71.388  24.417 -69.753  1.00  0.00     0.033 C 
HETATM   32  C13 UNL     1      70.769  23.951 -71.056  1.00  0.00     0.016 C 
HETATM   33  C14 UNL     1      72.817  23.873 -69.799  1.00  0.00     0.016 C 
ENDBRANCH  22  31
BRANCH  27  34
HETATM   34  N5  UNL     1      68.554  20.119 -70.123  1.00  0.00    -0.346 N 
HETATM   35  C17 UNL     1      68.410  19.771 -71.467  1.00  0.00     0.248 C 
HETATM   36  O3  UNL     1      68.166  20.617 -72.395  1.00  0.00    -0.271 OA
ATOM     37  H5  UNL     1      68.753  19.365 -69.466  1.00  0.00     0.163 HD
BRANCH  35  38
HETATM   38  C18 UNL     1      68.540  18.357 -71.889  1.00  0.00     0.270 C 
HETATM   39  C19 UNL     1      69.644  18.352 -72.948  1.00  0.00     0.050 C 
BRANCH  38  40
HETATM   40  N6  UNL     1      68.943  17.507 -70.781  1.00  0.00    -0.067 N 
ATOM     41  H63 UNL     1      68.256  17.525 -70.028  1.00  0.00     0.275 HD
ATOM     42  H62 UNL     1      68.880  16.518 -71.028  1.00  0.00     0.275 HD
ATOM     43  H61 UNL     1      69.874  17.749 -70.444  1.00  0.00     0.275 HD
ENDBRANCH  38  40
ENDBRANCH  35  38
ENDBRANCH  27  34
BRANCH  28  44
HETATM   44  C21 UNL     1      66.280  22.597 -69.968  1.00  0.00     0.048 C 
BRANCH  44  45
HETATM   45  C22 UNL     1      65.021  22.066 -70.507  1.00  0.00    -0.058 A 
HETATM   46  C23 UNL     1      63.916  22.839 -70.755  1.00  0.00     0.007 A 
HETATM   47  C24 UNL     1      62.777  22.279 -71.274  1.00  0.00     0.001 A 
HETATM   48  C25 UNL     1      62.671  20.942 -71.571  1.00  0.00     0.000 A 
HETATM   49  C26 UNL     1      63.796  20.165 -71.316  1.00  0.00     0.001 A 
HETATM   50  C27 UNL     1      64.939  20.720 -70.797  1.00  0.00     0.007 A 
ENDBRANCH  44  45
ENDBRANCH  28  44
BRANCH  29  51
HETATM   51  C29 UNL     1      65.919  21.318 -66.866  1.00  0.00     0.146 C 
BRANCH  51  52
HETATM   52  N7  UNL     1      64.934  22.162 -66.285  1.00  0.00    -0.415 N 
ATOM     53  H7  UNL     1      65.076  22.616 -65.383  1.00  0.00     0.153 HD
BRANCH  52  54
HETATM   54  C30 UNL     1      63.740  22.334 -67.034  1.00  0.00     0.076 C 
HETATM   55  C31 UNL     1      63.018  21.136 -67.530  1.00  0.00     0.024 C 
HETATM   56  C32 UNL     1      62.172  21.159 -66.280  1.00  0.00     0.004 C 
HETATM   57  C33 UNL     1      62.560  22.614 -66.123  1.00  0.00     0.024 C 
ENDBRANCH  52  54
ENDBRANCH  51  52
ENDBRANCH  29  51
ENDBRANCH  16  17
ENDBRANCH  15  16
ENDBRANCH  14  15
ENDBRANCH   4  14
TORSDOF 16
ENDMDL
MODEL 5
REMARK VINA RESULT: -8.954034185      1.742      2.766
REMARK  16 active torsions:
REMARK  status: ('A' for Active; 'I' for Inactive)
REMARK    1  A    between atoms: C2_2  and  C3_3 
REMARK    2  A    between atoms: C3_3  and  C4_4 
REMARK    3  A    between atoms: C4_4  and  N1_5 
REMARK       I    between atoms: N1_5  and  C5_7 
REMARK       I    between atoms: C5_7  and  N8_54 
REMARK    4  A    between atoms: N2_8  and  C6_10 
REMARK    5  A    between atoms: C6_10  and  C7_11 
REMARK    6  A    between atoms: C7_11  and  C8_12 
REMARK    7  A    between atoms: C8_12  and  C9_13 
REMARK    8  A    between atoms: C11_18  and  C12_19 
REMARK    9  A    between atoms: C16_26  and  N5_27 
REMARK       I    between atoms: N5_27  and  C17_29 
REMARK   10  A    between atoms: C17_29  and  C18_31 
REMARK   11  A    between atoms: C18_31  and  N6_33 
REMARK   12  A    between atoms: C20_37  and  C21_38 
REMARK   13  A    between atoms: C21_38  and  C22_39 
REMARK   14  A    between atoms: C28_45  and  C29_46 
REMARK   15  A    between atoms: C29_46  and  N7_47 
REMARK   16  A    between atoms: N7_47  and  C30_49 
ROOT
HETATM    1  N1  UNL     1      69.977  22.211 -59.875  1.00  0.00    -0.226 N 
ATOM      2  H1  UNL     1      70.463  22.826 -59.223  1.00  0.00     0.177 HD
HETATM    3  C5  UNL     1      70.597  21.808 -61.102  1.00  0.00     0.682 C 
HETATM    4  N2  UNL     1      70.391  22.449 -62.193  1.00  0.00    -0.226 N 
ATOM      5  H2  UNL     1      69.776  23.263 -62.197  1.00  0.00     0.177 HD
HETATM    6  N8  UNL     1      71.445  20.686 -61.107  1.00  0.00    -0.126 N 
ATOM      7  H8  UNL     1      72.428  20.788 -61.361  1.00  0.00     0.197 HD
HETATM    8  C34 UNL     1      70.937  19.439 -60.765  1.00  0.00     0.196 C 
HETATM    9  N9  UNL     1      70.528  18.384 -60.474  1.00  0.00    -0.171 NA
ENDROOT
BRANCH   1  10
HETATM   10  C4  UNL     1      68.652  21.726 -59.584  1.00  0.00     0.138 C 
BRANCH  10  11
HETATM   11  C3  UNL     1      67.715  21.943 -60.778  1.00  0.00     0.020 C 
BRANCH  11  12
HETATM   12  C2  UNL     1      67.174  20.582 -61.164  1.00  0.00    -0.003 C 
HETATM   13  C1  UNL     1      67.298  20.380 -62.653  1.00  0.00     0.005 C 
ENDBRANCH  11  12
ENDBRANCH  10  11
ENDBRANCH   1  10
BRANCH   4  14
HETATM   14  C6  UNL     1      71.043  22.012 -63.442  1.00  0.00     0.138 C 
BRANCH  14  15
HETATM   15  C7  UNL     1      70.076  22.002 -64.560  1.00  0.00     0.024 C 
BRANCH  15  16
HETATM   16  C8  UNL     1      69.491  23.326 -64.881  1.00  0.00     0.055 C 
BRANCH  16  17
HETATM   17  C9  UNL     1      68.607  23.438 -66.066  1.00  0.00     0.224 C 
HETATM   18  N3  UNL     1      68.963  24.325 -67.115  1.00  0.00    -0.329 N 
HETATM   19  C10 UNL     1      70.094  24.374 -67.916  1.00  0.00     0.266 C 
ATOM     20  H3  UNL     1      68.272  25.047 -67.313  1.00  0.00     0.165 HD
HETATM   21  O1  UNL     1      70.360  25.548 -68.407  1.00  0.00    -0.266 OA
HETATM   22  C11 UNL     1      71.061  23.346 -68.320  1.00  0.00     0.083 C 
HETATM   23  N4  UNL     1      70.765  21.991 -68.166  1.00  0.00    -0.324 N 
HETATM   24  C15 UNL     1      69.678  21.144 -68.329  1.00  0.00     0.245 C 
ATOM     25  H4  UNL     1      71.582  21.475 -67.841  1.00  0.00     0.169 HD
HETATM   26  O2  UNL     1      69.655  20.077 -67.596  1.00  0.00    -0.271 OA
HETATM   27  C16 UNL     1      68.503  21.238 -69.221  1.00  0.00     0.183 C 
HETATM   28  C20 UNL     1      67.189  21.590 -68.663  1.00  0.00     0.052 C 
HETATM   29  C28 UNL     1      67.164  22.128 -67.285  1.00  0.00     0.148 C 
HETATM   30  O4  UNL     1      68.296  22.152 -66.538  1.00  0.00    -0.359 OA
BRANCH  22  31
HETATM   31  C12 UNL     1      71.826  23.706 -69.587  1.00  0.00     0.033 C 
HETATM   32  C13 UNL     1      71.032  23.449 -70.852  1.00  0.00     0.016 C 
HETATM   33  C14 UNL     1      73.087  22.855 -69.754  1.00  0.00     0.016 C 
ENDBRANCH  22  31
BRANCH  27  34
HETATM   34  N5  UNL     1      68.391  19.858 -69.754  1.00  0.00    -0.346 N 
HETATM   35  C17 UNL     1      68.155  19.515 -71.086  1.00  0.00     0.248 C 
HETATM   36  O3  UNL     1      68.011  20.374 -72.023  1.00  0.00    -0.271 OA
ATOM     37  H5  UNL     1      68.496  19.092 -69.089  1.00  0.00     0.163 HD
BRANCH  35  38
HETATM   38  C18 UNL     1      68.061  18.091 -71.485  1.00  0.00     0.270 C 
HETATM   39  C19 UNL     1      67.569  18.110 -72.933  1.00  0.00     0.050 C 
BRANCH  38  40
HETATM   40  N6  UNL     1      69.358  17.438 -71.434  1.00  0.00    -0.067 N 
ATOM     41  H63 UNL     1      69.670  17.154 -72.363  1.00  0.00     0.275 HD
ATOM     42  H62 UNL     1      70.102  18.101 -71.213  1.00  0.00     0.275 HD
ATOM     43  H61 UNL     1      69.354  16.651 -70.784  1.00  0.00     0.275 HD
ENDBRANCH  38  40
ENDBRANCH  35  38
ENDBRANCH  27  34
BRANCH  28  44
HETATM   44  C21 UNL     1      66.506  22.639 -69.555  1.00  0.00     0.048 C 
BRANCH  44  45
HETATM   45  C22 UNL     1      65.244  22.218 -70.178  1.00  0.00    -0.058 A 
HETATM   46  C23 UNL     1      64.893  20.907 -70.372  1.00  0.00     0.007 A 
HETATM   47  C24 UNL     1      63.691  20.585 -70.948  1.00  0.00     0.001 A 
HETATM   48  C25 UNL     1      62.783  21.531 -71.358  1.00  0.00     0.000 A 
HETATM   49  C26 UNL     1      63.147  22.859 -71.159  1.00  0.00     0.001 A 
HETATM   50  C27 UNL     1      64.349  23.186 -70.583  1.00  0.00     0.007 A 
ENDBRANCH  44  45
ENDBRANCH  28  44
BRANCH  29  51
HETATM   51  C29 UNL     1      66.100  21.469 -66.416  1.00  0.00     0.146 C 
BRANCH  51  52
HETATM   52  N7  UNL     1      65.078  22.402 -66.090  1.00  0.00    -0.415 N 
ATOM     53  H7  UNL     1      65.263  23.403 -66.019  1.00  0.00     0.153 HD
BRANCH  52  54
HETATM   54  C30 UNL     1      63.786  21.858 -65.868  1.00  0.00     0.076 C 
HETATM   55  C31 UNL     1      62.591  22.698 -66.138  1.00  0.00     0.024 C 
HETATM   56  C32 UNL     1      62.535  22.124 -67.534  1.00  0.00     0.004 C 
HETATM   57  C33 UNL     1      63.365  20.967 -67.022  1.00  0.00     0.024 C 
ENDBRANCH  52  54
ENDBRANCH  51  52
ENDBRANCH  29  51
ENDBRANCH  16  17
ENDBRANCH  15  16
ENDBRANCH  14  15
ENDBRANCH   4  14
TORSDOF 16
ENDMDL
