MODEL 1
REMARK VINA RESULT: -8.811917930      0.000      0.000
REMARK  19 active torsions:
REMARK  status: ('A' for Active; 'I' for Inactive)
REMARK    1  A    between atoms: C2_2  and  O1_3 
REMARK    2  A    between atoms: O1_3  and  C3_4 
REMARK       I    between atoms: C3_4  and  N1_6 
REMARK    3  A    between atoms: N1_6  and  C4_8 
REMARK    4  A    between atoms: C9_14  and  N2_15 
REMARK       I    between atoms: N2_15  and  C10_17 
REMARK    5  A    between atoms: C10_17  and  C11_19 
REMARK    6  A    between atoms: C11_19  and  N3_20 
REMARK    7  A    between atoms: C11_19  and  C12_24 
REMARK    8  A    between atoms: C12_24  and  C13_25 
REMARK       I    between atoms: C13_25  and  N4_27 
REMARK    9  A    between atoms: N4_27  and  C14_29 
REMARK   10  A    between atoms: C14_29  and  C15_30 
REMARK   11  A    between atoms: C21_36  and  C22_37 
REMARK   12  A    between atoms: C22_37  and  O6_38 
REMARK   13  A    between atoms: C22_37  and  N5_40 
REMARK   14  A    between atoms: N5_40  and  C23_42 
REMARK   15  A    between atoms: C23_42  and  C24_43 
REMARK   16  A    between atoms: C23_42  and  C30_53 
REMARK       I    between atoms: C24_43  and  N6_45 
REMARK   17  A    between atoms: N6_45  and  C25_47 
REMARK   18  A    between atoms: C25_47  and  C26_48 
REMARK   19  A    between atoms: C30_53  and  C32_55 
ROOT
HETATM    1  C4  UNL     1      69.208  22.478 -67.590  1.00  0.00     0.118 C 
HETATM    2  C5  UNL     1      69.904  21.393 -66.818  1.00  0.00     0.035 C 
HETATM    3  C6  UNL     1      70.609  22.067 -65.637  1.00  0.00     0.016 C 
HETATM    4  C7  UNL     1      71.077  23.406 -66.024  1.00  0.00     0.173 C 
HETATM    5  O3  UNL     1      70.125  24.303 -66.462  1.00  0.00    -0.381 OA
HETATM    6  C8  UNL     1      68.930  23.704 -66.841  1.00  0.00     0.167 C 
HETATM    7  C9  UNL     1      68.016  23.580 -65.597  1.00  0.00     0.120 C 
HETATM    8  C18 UNL     1      68.851  23.281 -64.509  1.00  0.00     0.024 C 
HETATM    9  C19 UNL     1      69.624  21.985 -64.509  1.00  0.00    -0.001 C 
HETATM   10  C20 UNL     1      70.076  22.559 -63.187  1.00  0.00     0.015 C 
HETATM   11  C21 UNL     1      68.636  23.038 -63.065  1.00  0.00     0.041 C 
ENDROOT
BRANCH  11  12
HETATM   12  C22 UNL     1      67.766  22.032 -62.523  1.00  0.00     0.222 C 
BRANCH  12  13
HETATM   13  O6  UNL     1      66.371  22.329 -62.883  1.00  0.00    -0.376 OA
ATOM     14  H6  UNL     1      65.787  22.018 -62.201  1.00  0.00     0.212 HD
ENDBRANCH  12  13
BRANCH  12  15
HETATM   15  N5  UNL     1      67.643  21.764 -61.192  1.00  0.00    -0.359 N 
ATOM     16  H5  UNL     1      66.942  22.349 -60.737  1.00  0.00     0.162 HD
BRANCH  15  17
HETATM   17  C23 UNL     1      68.259  20.865 -60.299  1.00  0.00     0.100 C 
BRANCH  17  18
HETATM   18  C24 UNL     1      68.840  21.375 -59.093  1.00  0.00     0.268 C 
HETATM   19  O7  UNL     1      68.583  20.754 -58.000  1.00  0.00    -0.266 OA
HETATM   20  N6  UNL     1      69.678  22.489 -58.908  1.00  0.00    -0.350 N 
ATOM     21  H6  UNL     1      69.949  23.061 -59.709  1.00  0.00     0.163 HD
BRANCH  20  22
HETATM   22  C25 UNL     1      70.171  22.835 -57.545  1.00  0.00     0.187 C 
BRANCH  22  23
HETATM   23  C26 UNL     1      70.615  24.247 -57.551  1.00  0.00     0.070 A 
HETATM   24  C27 UNL     1      69.985  25.278 -58.221  1.00  0.00     0.036 A 
HETATM   25  C28 UNL     1      70.706  26.443 -57.982  1.00  0.00     0.027 A 
HETATM   26  C29 UNL     1      71.739  26.068 -57.177  1.00  0.00     0.142 A 
HETATM   27  O8  UNL     1      71.656  24.793 -56.949  1.00  0.00    -0.325 OA
ENDBRANCH  22  23
ENDBRANCH  20  22
ENDBRANCH  17  18
BRANCH  17  28
HETATM   28  C30 UNL     1      68.782  19.643 -60.977  1.00  0.00    -0.052 C 
HETATM   29  C31 UNL     1      70.279  19.468 -60.909  1.00  0.00     0.046 C 
BRANCH  28  30
HETATM   30  C32 UNL     1      68.135  18.333 -60.871  1.00  0.00     0.031 C 
HETATM   31  C33 UNL     1      68.182  17.661 -59.523  1.00  0.00     0.010 C 
ENDBRANCH  28  30
ENDBRANCH  17  28
ENDBRANCH  15  17
ENDBRANCH  12  15
ENDBRANCH  11  12
BRANCH   7  32
HETATM   32  N2  UNL     1      66.807  22.919 -65.936  1.00  0.00    -0.352 N 
HETATM   33  C10 UNL     1      65.682  23.558 -66.525  1.00  0.00     0.249 C 
HETATM   34  O4  UNL     1      65.837  24.797 -66.746  1.00  0.00    -0.271 OA
ATOM     35  H2  UNL     1      66.740  21.920 -65.744  1.00  0.00     0.163 HD
BRANCH  33  36
HETATM   36  C11 UNL     1      64.412  22.996 -66.900  1.00  0.00     0.283 C 
BRANCH  36  37
HETATM   37  N3  UNL     1      63.318  23.334 -66.017  1.00  0.00    -0.066 N 
ATOM     38  H33 UNL     1      62.663  22.555 -65.950  1.00  0.00     0.275 HD
ATOM     39  H32 UNL     1      63.642  23.375 -65.051  1.00  0.00     0.275 HD
ATOM     40  H31 UNL     1      62.824  24.192 -66.262  1.00  0.00     0.275 HD
ENDBRANCH  36  37
BRANCH  36  41
HETATM   41  C12 UNL     1      64.428  21.456 -66.930  1.00  0.00     0.145 C 
BRANCH  41  42
HETATM   42  C13 UNL     1      63.139  20.978 -67.539  1.00  0.00     0.220 C 
HETATM   43  O5  UNL     1      62.211  20.590 -66.765  1.00  0.00    -0.274 OA
HETATM   44  N4  UNL     1      62.925  20.940 -68.927  1.00  0.00    -0.361 N 
ATOM     45  H4  UNL     1      63.656  21.248 -69.567  1.00  0.00     0.162 HD
BRANCH  44  46
HETATM   46  C14 UNL     1      61.663  20.464 -69.442  1.00  0.00     0.126 C 
BRANCH  46  47
HETATM   47  C15 UNL     1      61.452  20.907 -70.878  1.00  0.00    -0.005 C 
HETATM   48  C16 UNL     1      60.044  21.490 -71.030  1.00  0.00     0.011 C 
HETATM   49  C17 UNL     1      62.416  22.064 -71.119  1.00  0.00     0.011 C 
ENDBRANCH  46  47
ENDBRANCH  44  46
ENDBRANCH  41  42
ENDBRANCH  36  41
ENDBRANCH  33  36
ENDBRANCH   7  32
BRANCH   1  50
HETATM   50  N1  UNL     1      68.196  21.892 -68.380  1.00  0.00    -0.330 N 
HETATM   51  C3  UNL     1      68.465  21.395 -69.686  1.00  0.00     0.360 C 
HETATM   52  O2  UNL     1      69.623  21.486 -70.128  1.00  0.00    -0.239 OA
ATOM     53  H1  UNL     1      67.249  21.822 -68.006  1.00  0.00     0.165 HD
BRANCH  51  54
HETATM   54  O1  UNL     1      67.490  20.816 -70.475  1.00  0.00    -0.304 OA
BRANCH  54  55
HETATM   55  C2  UNL     1      66.438  19.992 -69.938  1.00  0.00     0.176 C 
HETATM   56  C1  UNL     1      65.555  19.536 -71.050  1.00  0.00     0.034 C 
ENDBRANCH  54  55
ENDBRANCH  51  54
ENDBRANCH   1  50
TORSDOF 19
ENDMDL
MODEL 2
REMARK VINA RESULT: -8.756543376      1.685      2.208
REMARK  19 active torsions:
REMARK  status: ('A' for Active; 'I' for Inactive)
REMARK    1  A    between atoms: C2_2  and  O1_3 
REMARK    2  A    between atoms: O1_3  and  C3_4 
REMARK       I    between atoms: C3_4  and  N1_6 
REMARK    3  A    between atoms: N1_6  and  C4_8 
REMARK    4  A    between atoms: C9_14  and  N2_15 
REMARK       I    between atoms: N2_15  and  C10_17 
REMARK    5  A    between atoms: C10_17  and  C11_19 
REMARK    6  A    between atoms: C11_19  and  N3_20 
REMARK    7  A    between atoms: C11_19  and  C12_24 
REMARK    8  A    between atoms: C12_24  and  C13_25 
REMARK       I    between atoms: C13_25  and  N4_27 
REMARK    9  A    between atoms: N4_27  and  C14_29 
REMARK   10  A    between atoms: C14_29  and  C15_30 
REMARK   11  A    between atoms: C21_36  and  C22_37 
REMARK   12  A    between atoms: C22_37  and  O6_38 
REMARK   13  A    between atoms: C22_37  and  N5_40 
REMARK   14  A    between atoms: N5_40  and  C23_42 
REMARK   15  A    between atoms: C23_42  and  C24_43 
REMARK   16  A    between atoms: C23_42  and  C30_53 
REMARK       I    between atoms: C24_43  and  N6_45 
REMARK   17  A    between atoms: N6_45  and  C25_47 
REMARK   18  A    between atoms: C25_47  and  C26_48 
REMARK   19  A    between atoms: C30_53  and  C32_55 
ROOT
HETATM    1  C4  UNL     1      67.501  22.089 -68.451  1.00  0.00     0.118 C 
HETATM    2  C5  UNL     1      68.365  21.100 -67.720  1.00  0.00     0.035 C 
HETATM    3  C6  UNL     1      69.177  21.891 -66.690  1.00  0.00     0.016 C 
HETATM    4  C7  UNL     1      69.500  23.226 -67.217  1.00  0.00     0.173 C 
HETATM    5  O3  UNL     1      68.441  24.035 -67.570  1.00  0.00    -0.381 OA
HETATM    6  C8  UNL     1      67.247  23.344 -67.743  1.00  0.00     0.167 C 
HETATM    7  C9  UNL     1      66.520  23.252 -66.379  1.00  0.00     0.120 C 
HETATM    8  C18 UNL     1      67.512  23.075 -65.402  1.00  0.00     0.024 C 
HETATM    9  C19 UNL     1      68.362  21.829 -65.434  1.00  0.00    -0.001 C 
HETATM   10  C20 UNL     1      68.949  22.515 -64.223  1.00  0.00     0.015 C 
HETATM   11  C21 UNL     1      67.511  22.919 -63.931  1.00  0.00     0.041 C 
ENDROOT
BRANCH  11  12
HETATM   12  C22 UNL     1      66.789  21.903 -63.215  1.00  0.00     0.222 C 
BRANCH  12  13
HETATM   13  O6  UNL     1      65.343  22.077 -63.420  1.00  0.00    -0.376 OA
ATOM     14  H6  UNL     1      64.992  22.668 -62.764  1.00  0.00     0.212 HD
ENDBRANCH  12  13
BRANCH  12  15
HETATM   15  N5  UNL     1      66.845  21.735 -61.863  1.00  0.00    -0.359 N 
ATOM     16  H5  UNL     1      65.977  21.999 -61.399  1.00  0.00     0.162 HD
BRANCH  15  17
HETATM   17  C23 UNL     1      67.825  21.279 -60.959  1.00  0.00     0.100 C 
BRANCH  17  18
HETATM   18  C24 UNL     1      68.488  22.230 -60.118  1.00  0.00     0.268 C 
HETATM   19  O7  UNL     1      68.828  23.352 -60.640  1.00  0.00    -0.266 OA
HETATM   20  N6  UNL     1      68.839  22.128 -58.760  1.00  0.00    -0.350 N 
ATOM     21  H6  UNL     1      68.620  21.278 -58.239  1.00  0.00     0.163 HD
BRANCH  20  22
HETATM   22  C25 UNL     1      69.531  23.260 -58.080  1.00  0.00     0.187 C 
BRANCH  22  23
HETATM   23  C26 UNL     1      69.197  23.216 -56.639  1.00  0.00     0.070 A 
HETATM   24  C27 UNL     1      69.684  24.082 -55.680  1.00  0.00     0.036 A 
HETATM   25  C28 UNL     1      69.140  23.712 -54.456  1.00  0.00     0.027 A 
HETATM   26  C29 UNL     1      68.344  22.639 -54.725  1.00  0.00     0.142 A 
HETATM   27  O8  UNL     1      68.403  22.379 -55.995  1.00  0.00    -0.325 OA
ENDBRANCH  22  23
ENDBRANCH  20  22
ENDBRANCH  17  18
BRANCH  17  28
HETATM   28  C30 UNL     1      68.487  20.020 -61.410  1.00  0.00    -0.052 C 
HETATM   29  C31 UNL     1      69.983  20.114 -61.581  1.00  0.00     0.046 C 
BRANCH  28  30
HETATM   30  C32 UNL     1      68.142  18.701 -60.875  1.00  0.00     0.031 C 
HETATM   31  C33 UNL     1      67.720  18.646 -59.429  1.00  0.00     0.010 C 
ENDBRANCH  28  30
ENDBRANCH  17  28
ENDBRANCH  15  17
ENDBRANCH  12  15
ENDBRANCH  11  12
BRANCH   7  32
HETATM   32  N2  UNL     1      65.322  22.502 -66.508  1.00  0.00    -0.352 N 
HETATM   33  C10 UNL     1      64.031  23.075 -66.660  1.00  0.00     0.249 C 
HETATM   34  O4  UNL     1      64.016  24.343 -66.686  1.00  0.00    -0.271 OA
ATOM     35  H2  UNL     1      65.393  21.485 -66.489  1.00  0.00     0.163 HD
BRANCH  33  36
HETATM   36  C11 UNL     1      62.757  22.419 -66.789  1.00  0.00     0.283 C 
BRANCH  36  37
HETATM   37  N3  UNL     1      62.272  21.797 -65.577  1.00  0.00    -0.066 N 
ATOM     38  H33 UNL     1      62.989  21.828 -64.852  1.00  0.00     0.275 HD
ATOM     39  H32 UNL     1      61.557  22.379 -65.141  1.00  0.00     0.275 HD
ATOM     40  H31 UNL     1      61.929  20.844 -65.695  1.00  0.00     0.275 HD
ENDBRANCH  36  37
BRANCH  36  41
HETATM   41  C12 UNL     1      62.773  21.285 -67.831  1.00  0.00     0.145 C 
BRANCH  41  42
HETATM   42  C13 UNL     1      62.267  21.831 -69.138  1.00  0.00     0.220 C 
HETATM   43  O5  UNL     1      61.544  22.874 -69.119  1.00  0.00    -0.274 OA
HETATM   44  N4  UNL     1      62.559  21.231 -70.373  1.00  0.00    -0.361 N 
ATOM     45  H4  UNL     1      63.139  20.393 -70.412  1.00  0.00     0.162 HD
BRANCH  44  46
HETATM   46  C14 UNL     1      62.035  21.806 -71.589  1.00  0.00     0.126 C 
BRANCH  46  47
HETATM   47  C15 UNL     1      60.998  20.899 -72.225  1.00  0.00    -0.005 C 
HETATM   48  C16 UNL     1      60.915  19.588 -71.437  1.00  0.00     0.011 C 
HETATM   49  C17 UNL     1      59.651  21.588 -72.041  1.00  0.00     0.011 C 
ENDBRANCH  46  47
ENDBRANCH  44  46
ENDBRANCH  41  42
ENDBRANCH  36  41
ENDBRANCH  33  36
ENDBRANCH   7  32
BRANCH   1  50
HETATM   50  N1  UNL     1      66.433  21.394 -69.056  1.00  0.00    -0.330 N 
HETATM   51  C3  UNL     1      66.382  21.188 -70.463  1.00  0.00     0.360 C 
HETATM   52  O2  UNL     1      67.306  21.637 -71.163  1.00  0.00    -0.239 OA
ATOM     53  H1  UNL     1      65.680  21.030 -68.472  1.00  0.00     0.165 HD
BRANCH  51  54
HETATM   54  O1  UNL     1      65.347  20.510 -71.077  1.00  0.00    -0.304 OA
BRANCH  54  55
HETATM   55  C2  UNL     1      65.557  19.352 -71.908  1.00  0.00     0.176 C 
HETATM   56  C1  UNL     1      64.382  19.176 -72.810  1.00  0.00     0.034 C 
ENDBRANCH  54  55
ENDBRANCH  51  54
ENDBRANCH   1  50
TORSDOF 19
ENDMDL
MODEL 3
REMARK VINA RESULT: -8.749142055      2.812     11.752
REMARK  19 active torsions:
REMARK  status: ('A' for Active; 'I' for Inactive)
REMARK    1  A    between atoms: C2_2  and  O1_3 
REMARK    2  A    between atoms: O1_3  and  C3_4 
REMARK       I    between atoms: C3_4  and  N1_6 
REMARK    3  A    between atoms: N1_6  and  C4_8 
REMARK    4  A    between atoms: C9_14  and  N2_15 
REMARK       I    between atoms: N2_15  and  C10_17 
REMARK    5  A    between atoms: C10_17  and  C11_19 
REMARK    6  A    between atoms: C11_19  and  N3_20 
REMARK    7  A    between atoms: C11_19  and  C12_24 
REMARK    8  A    between atoms: C12_24  and  C13_25 
REMARK       I    between atoms: C13_25  and  N4_27 
REMARK    9  A    between atoms: N4_27  and  C14_29 
REMARK   10  A    between atoms: C14_29  and  C15_30 
REMARK   11  A    between atoms: C21_36  and  C22_37 
REMARK   12  A    between atoms: C22_37  and  O6_38 
REMARK   13  A    between atoms: C22_37  and  N5_40 
REMARK   14  A    between atoms: N5_40  and  C23_42 
REMARK   15  A    between atoms: C23_42  and  C24_43 
REMARK   16  A    between atoms: C23_42  and  C30_53 
REMARK       I    between atoms: C24_43  and  N6_45 
REMARK   17  A    between atoms: N6_45  and  C25_47 
REMARK   18  A    between atoms: C25_47  and  C26_48 
REMARK   19  A    between atoms: C30_53  and  C32_55 
ROOT
HETATM    1  C4  UNL     1      70.086  18.577 -58.354  1.00  0.00     0.118 C 
HETATM    2  C5  UNL     1      70.267  18.218 -59.802  1.00  0.00     0.035 C 
HETATM    3  C6  UNL     1      68.873  18.191 -60.434  1.00  0.00     0.016 C 
HETATM    4  C7  UNL     1      67.883  17.717 -59.456  1.00  0.00     0.173 C 
HETATM    5  O3  UNL     1      67.758  18.437 -58.287  1.00  0.00    -0.381 OA
HETATM    6  C8  UNL     1      68.840  19.272 -58.030  1.00  0.00     0.167 C 
HETATM    7  C9  UNL     1      68.593  20.637 -58.716  1.00  0.00     0.120 C 
HETATM    8  C18 UNL     1      67.952  20.368 -59.936  1.00  0.00     0.024 C 
HETATM    9  C19 UNL     1      68.681  19.570 -60.990  1.00  0.00    -0.001 C 
HETATM   10  C20 UNL     1      67.376  19.823 -61.708  1.00  0.00     0.015 C 
HETATM   11  C21 UNL     1      67.445  21.196 -61.053  1.00  0.00     0.041 C 
ENDROOT
BRANCH  11  12
HETATM   12  C22 UNL     1      68.237  22.127 -61.809  1.00  0.00     0.222 C 
BRANCH  12  13
HETATM   13  O6  UNL     1      68.730  23.196 -60.928  1.00  0.00    -0.376 OA
ATOM     14  H6  UNL     1      68.752  24.020 -61.400  1.00  0.00     0.212 HD
ENDBRANCH  12  13
BRANCH  12  15
HETATM   15  N5  UNL     1      67.767  22.850 -62.864  1.00  0.00    -0.359 N 
ATOM     16  H5  UNL     1      67.095  23.563 -62.582  1.00  0.00     0.162 HD
BRANCH  15  17
HETATM   17  C23 UNL     1      67.994  22.842 -64.254  1.00  0.00     0.100 C 
BRANCH  17  18
HETATM   18  C24 UNL     1      67.117  22.084 -65.096  1.00  0.00     0.268 C 
HETATM   19  O7  UNL     1      66.920  20.852 -64.794  1.00  0.00    -0.266 OA
HETATM   20  N6  UNL     1      66.411  22.488 -66.243  1.00  0.00    -0.350 N 
ATOM     21  H6  UNL     1      66.493  23.448 -66.579  1.00  0.00     0.163 HD
BRANCH  20  22
HETATM   22  C25 UNL     1      65.544  21.516 -66.968  1.00  0.00     0.187 C 
BRANCH  22  23
HETATM   23  C26 UNL     1      64.130  21.838 -66.671  1.00  0.00     0.070 A 
HETATM   24  C27 UNL     1      63.593  23.110 -66.630  1.00  0.00     0.036 A 
HETATM   25  C28 UNL     1      62.243  22.992 -66.318  1.00  0.00     0.027 A 
HETATM   26  C29 UNL     1      62.020  21.654 -66.186  1.00  0.00     0.142 A 
HETATM   27  O8  UNL     1      63.132  21.018 -66.396  1.00  0.00    -0.325 OA
ENDBRANCH  22  23
ENDBRANCH  20  22
ENDBRANCH  17  18
BRANCH  17  28
HETATM   28  C30 UNL     1      69.424  23.080 -64.608  1.00  0.00    -0.052 C 
HETATM   29  C31 UNL     1      70.294  21.848 -64.608  1.00  0.00     0.046 C 
BRANCH  28  30
HETATM   30  C32 UNL     1      69.840  23.968 -65.697  1.00  0.00     0.031 C 
HETATM   31  C33 UNL     1      68.961  25.161 -65.970  1.00  0.00     0.010 C 
ENDBRANCH  28  30
ENDBRANCH  17  28
ENDBRANCH  15  17
ENDBRANCH  12  15
ENDBRANCH  11  12
BRANCH   7  32
HETATM   32  N2  UNL     1      69.706  21.496 -58.523  1.00  0.00    -0.352 N 
HETATM   33  C10 UNL     1      69.608  22.856 -58.121  1.00  0.00     0.249 C 
HETATM   34  O4  UNL     1      68.423  23.265 -57.929  1.00  0.00    -0.271 OA
ATOM     35  H2  UNL     1      70.637  21.112 -58.683  1.00  0.00     0.163 HD
BRANCH  33  36
HETATM   36  C11 UNL     1      70.658  23.815 -57.904  1.00  0.00     0.283 C 
BRANCH  36  37
HETATM   37  N3  UNL     1      71.745  23.344 -57.076  1.00  0.00    -0.066 N 
ATOM     38  H33 UNL     1      71.538  23.509 -56.091  1.00  0.00     0.275 HD
ATOM     39  H32 UNL     1      71.777  22.324 -57.080  1.00  0.00     0.275 HD
ATOM     40  H31 UNL     1      72.660  23.727 -57.314  1.00  0.00     0.275 HD
ENDBRANCH  36  37
BRANCH  36  41
HETATM   41  C12 UNL     1      70.161  25.095 -57.206  1.00  0.00     0.145 C 
BRANCH  41  42
HETATM   42  C13 UNL     1      70.494  25.000 -55.743  1.00  0.00     0.220 C 
HETATM   43  O5  UNL     1      69.946  24.085 -55.054  1.00  0.00    -0.274 OA
HETATM   44  N4  UNL     1      71.383  25.884 -55.110  1.00  0.00    -0.361 N 
ATOM     45  H4  UNL     1      71.836  26.626 -55.643  1.00  0.00     0.162 HD
BRANCH  44  46
HETATM   46  C14 UNL     1      71.652  25.738 -53.699  1.00  0.00     0.126 C 
BRANCH  46  47
HETATM   47  C15 UNL     1      73.137  25.568 -53.437  1.00  0.00    -0.005 C 
HETATM   48  C16 UNL     1      73.401  25.642 -51.929  1.00  0.00     0.011 C 
HETATM   49  C17 UNL     1      73.490  24.146 -53.858  1.00  0.00     0.011 C 
ENDBRANCH  46  47
ENDBRANCH  44  46
ENDBRANCH  41  42
ENDBRANCH  36  41
ENDBRANCH  33  36
ENDBRANCH   7  32
BRANCH   1  50
HETATM   50  N1  UNL     1      71.313  19.061 -57.852  1.00  0.00    -0.330 N 
HETATM   51  C3  UNL     1      71.843  18.604 -56.614  1.00  0.00     0.360 C 
HETATM   52  O2  UNL     1      71.200  17.757 -55.970  1.00  0.00    -0.239 OA
ATOM     53  H1  UNL     1      71.831  19.756 -58.389  1.00  0.00     0.165 HD
BRANCH  51  54
HETATM   54  O1  UNL     1      73.042  19.063 -56.104  1.00  0.00    -0.304 OA
BRANCH  54  55
HETATM   55  C2  UNL     1      73.415  18.901 -54.722  1.00  0.00     0.176 C 
HETATM   56  C1  UNL     1      74.727  18.196 -54.648  1.00  0.00     0.034 C 
ENDBRANCH  54  55
ENDBRANCH  51  54
ENDBRANCH   1  50
TORSDOF 19
ENDMDL
MODEL 4
REMARK VINA RESULT: -8.703748102      2.349      3.601
REMARK  19 active torsions:
REMARK  status: ('A' for Active; 'I' for Inactive)
REMARK    1  A    between atoms: C2_2  and  O1_3 
REMARK    2  A    between atoms: O1_3  and  C3_4 
REMARK       I    between atoms: C3_4  and  N1_6 
REMARK    3  A    between atoms: N1_6  and  C4_8 
REMARK    4  A    between atoms: C9_14  and  N2_15 
REMARK       I    between atoms: N2_15  and  C10_17 
REMARK    5  A    between atoms: C10_17  and  C11_19 
REMARK    6  A    between atoms: C11_19  and  N3_20 
REMARK    7  A    between atoms: C11_19  and  C12_24 
REMARK    8  A    between atoms: C12_24  and  C13_25 
REMARK       I    between atoms: C13_25  and  N4_27 
REMARK    9  A    between atoms: N4_27  and  C14_29 
REMARK   10  A    between atoms: C14_29  and  C15_30 
REMARK   11  A    between atoms: C21_36  and  C22_37 
REMARK   12  A    between atoms: C22_37  and  O6_38 
REMARK   13  A    between atoms: C22_37  and  N5_40 
REMARK   14  A    between atoms: N5_40  and  C23_42 
REMARK   15  A    between atoms: C23_42  and  C24_43 
REMARK   16  A    between atoms: C23_42  and  C30_53 
REMARK       I    between atoms: C24_43  and  N6_45 
REMARK   17  A    between atoms: N6_45  and  C25_47 
REMARK   18  A    between atoms: C25_47  and  C26_48 
REMARK   19  A    between atoms: C30_53  and  C32_55 
ROOT
HETATM    1  C4  UNL     1      66.974  22.080 -68.644  1.00  0.00     0.118 C 
HETATM    2  C5  UNL     1      67.828  21.025 -68.001  1.00  0.00     0.035 C 
HETATM    3  C6  UNL     1      68.781  21.743 -67.041  1.00  0.00     0.016 C 
HETATM    4  C7  UNL     1      69.148  23.060 -67.584  1.00  0.00     0.173 C 
HETATM    5  O3  UNL     1      68.121  23.945 -67.835  1.00  0.00    -0.381 OA
HETATM    6  C8  UNL     1      66.872  23.341 -67.906  1.00  0.00     0.167 C 
HETATM    7  C9  UNL     1      66.263  23.279 -66.484  1.00  0.00     0.120 C 
HETATM    8  C18 UNL     1      67.324  23.021 -65.601  1.00  0.00     0.024 C 
HETATM    9  C19 UNL     1      68.078  21.719 -65.718  1.00  0.00    -0.001 C 
HETATM   10  C20 UNL     1      68.816  22.346 -64.559  1.00  0.00     0.015 C 
HETATM   11  C21 UNL     1      67.441  22.844 -64.136  1.00  0.00     0.041 C 
ENDROOT
BRANCH  11  12
HETATM   12  C22 UNL     1      66.716  21.870 -63.367  1.00  0.00     0.222 C 
BRANCH  12  13
HETATM   13  O6  UNL     1      65.283  22.198 -63.366  1.00  0.00    -0.376 OA
ATOM     14  H6  UNL     1      64.793  21.506 -62.937  1.00  0.00     0.212 HD
ENDBRANCH  12  13
BRANCH  12  15
HETATM   15  N5  UNL     1      66.932  21.628 -62.043  1.00  0.00    -0.359 N 
ATOM     16  H5  UNL     1      66.105  21.802 -61.473  1.00  0.00     0.162 HD
BRANCH  15  17
HETATM   17  C23 UNL     1      68.032  21.191 -61.279  1.00  0.00     0.100 C 
BRANCH  17  18
HETATM   18  C24 UNL     1      67.900  20.006 -60.486  1.00  0.00     0.268 C 
HETATM   19  O7  UNL     1      66.799  19.835 -59.850  1.00  0.00    -0.266 OA
HETATM   20  N6  UNL     1      68.819  18.960 -60.286  1.00  0.00    -0.350 N 
ATOM     21  H6  UNL     1      69.731  18.989 -60.742  1.00  0.00     0.163 HD
BRANCH  20  22
HETATM   22  C25 UNL     1      68.461  17.809 -59.409  1.00  0.00     0.187 C 
BRANCH  22  23
HETATM   23  C26 UNL     1      69.143  17.982 -58.107  1.00  0.00     0.070 A 
HETATM   24  C27 UNL     1      70.481  17.736 -57.868  1.00  0.00     0.036 A 
HETATM   25  C28 UNL     1      70.732  18.015 -56.529  1.00  0.00     0.027 A 
HETATM   26  C29 UNL     1      69.537  18.420 -56.015  1.00  0.00     0.142 A 
HETATM   27  O8  UNL     1      68.642  18.388 -56.954  1.00  0.00    -0.325 OA
ENDBRANCH  22  23
ENDBRANCH  20  22
ENDBRANCH  17  18
BRANCH  17  28
HETATM   28  C30 UNL     1      68.947  22.307 -60.894  1.00  0.00    -0.052 C 
HETATM   29  C31 UNL     1      68.570  23.031 -59.626  1.00  0.00     0.046 C 
BRANCH  28  30
HETATM   30  C32 UNL     1      70.406  22.208 -60.981  1.00  0.00     0.031 C 
HETATM   31  C33 UNL     1      71.134  21.817 -59.720  1.00  0.00     0.010 C 
ENDBRANCH  28  30
ENDBRANCH  17  28
ENDBRANCH  15  17
ENDBRANCH  12  15
ENDBRANCH  11  12
BRANCH   7  32
HETATM   32  N2  UNL     1      65.009  22.615 -66.511  1.00  0.00    -0.352 N 
HETATM   33  C10 UNL     1      63.756  23.262 -66.337  1.00  0.00     0.249 C 
HETATM   34  O4  UNL     1      63.831  24.516 -66.161  1.00  0.00    -0.271 OA
ATOM     35  H2  UNL     1      65.008  21.607 -66.665  1.00  0.00     0.163 HD
BRANCH  33  36
HETATM   36  C11 UNL     1      62.434  22.695 -66.336  1.00  0.00     0.283 C 
BRANCH  36  37
HETATM   37  N3  UNL     1      62.381  21.289 -66.671  1.00  0.00    -0.066 N 
ATOM     38  H33 UNL     1      63.318  20.932 -66.854  1.00  0.00     0.275 HD
ATOM     39  H32 UNL     1      62.141  20.737 -65.847  1.00  0.00     0.275 HD
ATOM     40  H31 UNL     1      61.757  21.059 -67.445  1.00  0.00     0.275 HD
ENDBRANCH  36  37
BRANCH  36  41
HETATM   41  C12 UNL     1      61.493  23.375 -67.348  1.00  0.00     0.145 C 
BRANCH  41  42
HETATM   42  C13 UNL     1      61.756  22.793 -68.709  1.00  0.00     0.220 C 
HETATM   43  O5  UNL     1      62.946  22.798 -69.150  1.00  0.00    -0.274 OA
HETATM   44  N4  UNL     1      60.739  22.249 -69.510  1.00  0.00    -0.361 N 
ATOM     45  H4  UNL     1      59.775  22.234 -69.176  1.00  0.00     0.162 HD
BRANCH  44  46
HETATM   46  C14 UNL     1      61.063  21.713 -70.811  1.00  0.00     0.126 C 
BRANCH  46  47
HETATM   47  C15 UNL     1      60.244  22.378 -71.901  1.00  0.00    -0.005 C 
HETATM   48  C16 UNL     1      61.088  23.456 -72.588  1.00  0.00     0.011 C 
HETATM   49  C17 UNL     1      59.981  21.310 -72.957  1.00  0.00     0.011 C 
ENDBRANCH  46  47
ENDBRANCH  44  46
ENDBRANCH  41  42
ENDBRANCH  36  41
ENDBRANCH  33  36
ENDBRANCH   7  32
BRANCH   1  50
HETATM   50  N1  UNL     1      65.811  21.470 -69.158  1.00  0.00    -0.330 N 
HETATM   51  C3  UNL     1      65.724  21.059 -70.517  1.00  0.00     0.360 C 
HETATM   52  O2  UNL     1      66.704  21.249 -71.258  1.00  0.00    -0.239 OA
ATOM     53  H1  UNL     1      65.013  21.319 -68.540  1.00  0.00     0.165 HD
BRANCH  51  54
HETATM   54  O1  UNL     1      64.596  20.458 -71.040  1.00  0.00    -0.304 OA
BRANCH  54  55
HETATM   55  C2  UNL     1      64.641  19.562 -72.167  1.00  0.00     0.176 C 
HETATM   56  C1  UNL     1      63.280  19.463 -72.771  1.00  0.00     0.034 C 
ENDBRANCH  54  55
ENDBRANCH  51  54
ENDBRANCH   1  50
TORSDOF 19
ENDMDL
MODEL 5
REMARK VINA RESULT: -8.654333135      1.047      1.493
REMARK  19 active torsions:
REMARK  status: ('A' for Active; 'I' for Inactive)
REMARK    1  A    between atoms: C2_2  and  O1_3 
REMARK    2  A    between atoms: O1_3  and  C3_4 
REMARK       I    between atoms: C3_4  and  N1_6 
REMARK    3  A    between atoms: N1_6  and  C4_8 
REMARK    4  A    between atoms: C9_14  and  N2_15 
REMARK       I    between atoms: N2_15  and  C10_17 
REMARK    5  A    between atoms: C10_17  and  C11_19 
REMARK    6  A    between atoms: C11_19  and  N3_20 
REMARK    7  A    between atoms: C11_19  and  C12_24 
REMARK    8  A    between atoms: C12_24  and  C13_25 
REMARK       I    between atoms: C13_25  and  N4_27 
REMARK    9  A    between atoms: N4_27  and  C14_29 
REMARK   10  A    between atoms: C14_29  and  C15_30 
REMARK   11  A    between atoms: C21_36  and  C22_37 
REMARK   12  A    between atoms: C22_37  and  O6_38 
REMARK   13  A    between atoms: C22_37  and  N5_40 
REMARK   14  A    between atoms: N5_40  and  C23_42 
REMARK   15  A    between atoms: C23_42  and  C24_43 
REMARK   16  A    between atoms: C23_42  and  C30_53 
REMARK       I    between atoms: C24_43  and  N6_45 
REMARK   17  A    between atoms: N6_45  and  C25_47 
REMARK   18  A    between atoms: C25_47  and  C26_48 
REMARK   19  A    between atoms: C30_53  and  C32_55 
ROOT
HETATM    1  C4  UNL     1      69.170  22.475 -67.604  1.00  0.00     0.118 C 
HETATM    2  C5  UNL     1      69.869  21.386 -66.841  1.00  0.00     0.035 C 
HETATM    3  C6  UNL     1      70.571  22.051 -65.654  1.00  0.00     0.016 C 
HETATM    4  C7  UNL     1      71.035  23.396 -66.029  1.00  0.00     0.173 C 
HETATM    5  O3  UNL     1      70.081  24.293 -66.459  1.00  0.00    -0.381 OA
HETATM    6  C8  UNL     1      68.887  23.693 -66.843  1.00  0.00     0.167 C 
HETATM    7  C9  UNL     1      67.973  23.555 -65.601  1.00  0.00     0.120 C 
HETATM    8  C18 UNL     1      68.810  23.249 -64.515  1.00  0.00     0.024 C 
HETATM    9  C19 UNL     1      69.587  21.955 -64.527  1.00  0.00    -0.001 C 
HETATM   10  C20 UNL     1      70.037  22.519 -63.200  1.00  0.00     0.015 C 
HETATM   11  C21 UNL     1      68.595  22.992 -63.074  1.00  0.00     0.041 C 
ENDROOT
BRANCH  11  12
HETATM   12  C22 UNL     1      67.728  21.978 -62.541  1.00  0.00     0.222 C 
BRANCH  12  13
HETATM   13  O6  UNL     1      66.338  22.246 -62.942  1.00  0.00    -0.376 OA
ATOM     14  H6  UNL     1      65.857  22.619 -62.212  1.00  0.00     0.212 HD
ENDBRANCH  12  13
BRANCH  12  15
HETATM   15  N5  UNL     1      67.574  21.725 -61.210  1.00  0.00    -0.359 N 
ATOM     16  H5  UNL     1      66.612  21.851 -60.896  1.00  0.00     0.162 HD
BRANCH  15  17
HETATM   17  C23 UNL     1      68.436  21.330 -60.168  1.00  0.00     0.100 C 
BRANCH  17  18
HETATM   18  C24 UNL     1      69.213  22.328 -59.495  1.00  0.00     0.268 C 
HETATM   19  O7  UNL     1      70.478  22.339 -59.707  1.00  0.00    -0.266 OA
HETATM   20  N6  UNL     1      68.795  23.334 -58.607  1.00  0.00    -0.350 N 
ATOM     21  H6  UNL     1      67.808  23.420 -58.362  1.00  0.00     0.163 HD
BRANCH  20  22
HETATM   22  C25 UNL     1      69.792  24.275 -58.021  1.00  0.00     0.187 C 
BRANCH  22  23
HETATM   23  C26 UNL     1      69.623  24.281 -56.550  1.00  0.00     0.070 A 
HETATM   24  C27 UNL     1      69.107  23.241 -55.802  1.00  0.00     0.036 A 
HETATM   25  C28 UNL     1      69.112  23.634 -54.469  1.00  0.00     0.027 A 
HETATM   26  C29 UNL     1      69.632  24.893 -54.466  1.00  0.00     0.142 A 
HETATM   27  O8  UNL     1      69.916  25.235 -55.685  1.00  0.00    -0.325 OA
ENDBRANCH  22  23
ENDBRANCH  20  22
ENDBRANCH  17  18
BRANCH  17  28
HETATM   28  C30 UNL     1      68.904  19.920 -60.308  1.00  0.00    -0.052 C 
HETATM   29  C31 UNL     1      67.807  18.885 -60.343  1.00  0.00     0.046 C 
BRANCH  28  30
HETATM   30  C32 UNL     1      69.976  19.522 -61.224  1.00  0.00     0.031 C 
HETATM   31  C33 UNL     1      71.116  18.735 -60.631  1.00  0.00     0.010 C 
ENDBRANCH  28  30
ENDBRANCH  17  28
ENDBRANCH  15  17
ENDBRANCH  12  15
ENDBRANCH  11  12
BRANCH   7  32
HETATM   32  N2  UNL     1      66.767  22.893 -65.946  1.00  0.00    -0.352 N 
HETATM   33  C10 UNL     1      65.623  23.542 -66.485  1.00  0.00     0.249 C 
HETATM   34  O4  UNL     1      65.757  24.792 -66.654  1.00  0.00    -0.271 OA
ATOM     35  H2  UNL     1      66.717  21.885 -65.798  1.00  0.00     0.163 HD
BRANCH  33  36
HETATM   36  C11 UNL     1      64.353  22.979 -66.860  1.00  0.00     0.283 C 
BRANCH  36  37
HETATM   37  N3  UNL     1      63.253  23.339 -65.994  1.00  0.00    -0.066 N 
ATOM     38  H33 UNL     1      63.473  24.190 -65.477  1.00  0.00     0.275 HD
ATOM     39  H32 UNL     1      62.461  23.667 -66.545  1.00  0.00     0.275 HD
ATOM     40  H31 UNL     1      62.958  22.602 -65.353  1.00  0.00     0.275 HD
ENDBRANCH  36  37
BRANCH  36  41
HETATM   41  C12 UNL     1      64.362  21.439 -66.864  1.00  0.00     0.145 C 
BRANCH  41  42
HETATM   42  C13 UNL     1      63.115  20.957 -67.554  1.00  0.00     0.220 C 
HETATM   43  O5  UNL     1      62.125  20.607 -66.841  1.00  0.00    -0.274 OA
HETATM   44  N4  UNL     1      63.007  20.875 -68.952  1.00  0.00    -0.361 N 
ATOM     45  H4  UNL     1      63.789  21.152 -69.544  1.00  0.00     0.162 HD
BRANCH  44  46
HETATM   46  C14 UNL     1      61.781  20.397 -69.546  1.00  0.00     0.126 C 
BRANCH  46  47
HETATM   47  C15 UNL     1      61.570  20.993 -70.925  1.00  0.00    -0.005 C 
HETATM   48  C16 UNL     1      62.697  21.985 -71.232  1.00  0.00     0.011 C 
HETATM   49  C17 UNL     1      61.732  19.849 -71.920  1.00  0.00     0.011 C 
ENDBRANCH  46  47
ENDBRANCH  44  46
ENDBRANCH  41  42
ENDBRANCH  36  41
ENDBRANCH  33  36
ENDBRANCH   7  32
BRANCH   1  50
HETATM   50  N1  UNL     1      68.160  21.893 -68.399  1.00  0.00    -0.330 N 
HETATM   51  C3  UNL     1      68.435  21.395 -69.703  1.00  0.00     0.360 C 
HETATM   52  O2  UNL     1      69.596  21.481 -70.139  1.00  0.00    -0.239 OA
ATOM     53  H1  UNL     1      67.211  21.827 -68.031  1.00  0.00     0.165 HD
BRANCH  51  54
HETATM   54  O1  UNL     1      67.462  20.820 -70.498  1.00  0.00    -0.304 OA
BRANCH  54  55
HETATM   55  C2  UNL     1      66.478  19.902 -69.986  1.00  0.00     0.176 C 
HETATM   56  C1  UNL     1      65.529  19.538 -71.079  1.00  0.00     0.034 C 
ENDBRANCH  54  55
ENDBRANCH  51  54
ENDBRANCH   1  50
TORSDOF 19
ENDMDL
