MODEL 1
REMARK VINA RESULT: -6.192304265      0.000      0.000
REMARK  8 active torsions:
REMARK  status: ('A' for Active; 'I' for Inactive)
REMARK    1  A    between atoms: C3_5  and  C4_6 
REMARK    2  A    between atoms: C4_6  and  C5_7 
REMARK    3  A    between atoms: C5_7  and  O1_8 
REMARK    4  A    between atoms: C6_10  and  C7_11 
REMARK    5  A    between atoms: C8_12  and  C9_13 
REMARK    6  A    between atoms: C9_13  and  N2_14 
REMARK    7  A    between atoms: C12_22  and  C13_23 
REMARK    8  A    between atoms: C13_23  and  N4_24 
ROOT
HETATM    1  C9  UNL     1      -7.833  27.784  -3.399  1.00  0.00     0.367 C 
HETATM    2  C10 UNL     1      -6.501  27.898  -3.960  1.00  0.00     0.105 C 
HETATM    3  N3  UNL     1      -5.436  27.991  -4.391  1.00  0.00    -0.194 NA
ENDROOT
BRANCH   1   4
HETATM    4  C8  UNL     1      -7.742  28.130  -1.980  1.00  0.00    -0.053 C 
HETATM    5  C7  UNL     1      -7.672  28.429  -0.813  1.00  0.00    -0.058 C 
BRANCH   5   6
HETATM    6  C6  UNL     1      -7.585  28.791   0.602  1.00  0.00     0.091 A 
HETATM    7  C3  UNL     1      -6.552  29.537   1.076  1.00  0.00     0.034 A 
HETATM    8  N1  UNL     1      -6.498  29.851   2.365  1.00  0.00    -0.358 N 
HETATM    9  C2  UNL     1      -7.476  29.436   3.249  1.00  0.00     0.038 A 
ATOM     10  H1  UNL     1      -5.719  30.411   2.710  1.00  0.00     0.166 HD
HETATM   11  C1  UNL     1      -7.274  29.829   4.484  1.00  0.00     0.044 C 
HETATM   12  C12 UNL     1      -8.533  28.684   2.825  1.00  0.00     0.057 A 
HETATM   13  C11 UNL     1      -8.564  28.365   1.443  1.00  0.00     0.206 A 
HETATM   14  O2  UNL     1      -9.538  27.669   1.033  1.00  0.00    -0.286 OA
BRANCH   7  15
HETATM   15  C4  UNL     1      -5.477  30.007   0.158  1.00  0.00     0.084 C 
BRANCH  15  16
HETATM   16  C5  UNL     1      -5.020  31.393   0.535  1.00  0.00     0.170 C 
BRANCH  16  17
HETATM   17  O1  UNL     1      -6.101  32.279   0.509  1.00  0.00    -0.400 OA
ATOM     18  H1  UNL     1      -5.787  33.175   0.455  1.00  0.00     0.209 HD
ENDBRANCH  16  17
ENDBRANCH  15  16
ENDBRANCH   7  15
BRANCH  12  19
HETATM   19  C13 UNL     1      -9.484  28.257   3.578  1.00  0.00     0.102 C 
BRANCH  19  20
HETATM   20  N4  UNL     1     -10.708  28.680   4.078  1.00  0.00    -0.398 N 
HETATM   21  C14 UNL     1     -11.049  30.111   4.113  1.00  0.00     0.148 C 
HETATM   22  C15 UNL     1     -11.661  27.716   4.647  1.00  0.00     0.148 C 
ENDBRANCH  19  20
ENDBRANCH  12  19
ENDBRANCH   5   6
ENDBRANCH   1   4
BRANCH   1  23
HETATM   23  N2  UNL     1      -8.781  28.668  -4.063  1.00  0.00    -0.052 N 
ATOM     24  H23 UNL     1      -8.371  29.578  -4.276  1.00  0.00     0.277 HD
ATOM     25  H22 UNL     1      -8.980  28.369  -5.018  1.00  0.00     0.277 HD
ATOM     26  H21 UNL     1      -9.629  28.752  -3.503  1.00  0.00     0.277 HD
ENDBRANCH   1  23
TORSDOF 8
ENDMDL
MODEL 2
REMARK VINA RESULT: -5.932070652      1.158      1.473
REMARK  8 active torsions:
REMARK  status: ('A' for Active; 'I' for Inactive)
REMARK    1  A    between atoms: C3_5  and  C4_6 
REMARK    2  A    between atoms: C4_6  and  C5_7 
REMARK    3  A    between atoms: C5_7  and  O1_8 
REMARK    4  A    between atoms: C6_10  and  C7_11 
REMARK    5  A    between atoms: C8_12  and  C9_13 
REMARK    6  A    between atoms: C9_13  and  N2_14 
REMARK    7  A    between atoms: C12_22  and  C13_23 
REMARK    8  A    between atoms: C13_23  and  N4_24 
ROOT
HETATM    1  C9  UNL     1      -7.829  27.787  -3.430  1.00  0.00     0.367 C 
HETATM    2  C10 UNL     1      -6.496  27.915  -3.988  1.00  0.00     0.105 C 
HETATM    3  N3  UNL     1      -5.431  28.017  -4.416  1.00  0.00    -0.194 NA
ENDROOT
BRANCH   1   4
HETATM    4  C8  UNL     1      -7.735  28.081  -1.999  1.00  0.00    -0.053 C 
HETATM    5  C7  UNL     1      -7.662  28.336  -0.822  1.00  0.00    -0.058 C 
BRANCH   5   6
HETATM    6  C6  UNL     1      -7.572  28.644   0.605  1.00  0.00     0.091 A 
HETATM    7  C3  UNL     1      -6.487  29.281   1.121  1.00  0.00     0.034 A 
HETATM    8  N1  UNL     1      -6.433  29.549   2.421  1.00  0.00    -0.358 N 
HETATM    9  C2  UNL     1      -7.460  29.195   3.274  1.00  0.00     0.038 A 
ATOM     10  H1  UNL     1      -5.614  30.027   2.797  1.00  0.00     0.166 HD
HETATM   11  C1  UNL     1      -7.250  29.530   4.524  1.00  0.00     0.044 C 
HETATM   12  C12 UNL     1      -8.571  28.553   2.807  1.00  0.00     0.057 A 
HETATM   13  C11 UNL     1      -8.602  28.281   1.416  1.00  0.00     0.206 A 
HETATM   14  O2  UNL     1      -9.625  27.686   0.966  1.00  0.00    -0.286 OA
BRANCH   7  15
HETATM   15  C4  UNL     1      -5.357  29.683   0.238  1.00  0.00     0.084 C 
BRANCH  15  16
HETATM   16  C5  UNL     1      -4.231  28.684   0.322  1.00  0.00     0.170 C 
BRANCH  16  17
HETATM   17  O1  UNL     1      -4.100  28.004  -0.892  1.00  0.00    -0.400 OA
ATOM     18  H1  UNL     1      -3.288  28.253  -1.319  1.00  0.00     0.209 HD
ENDBRANCH  16  17
ENDBRANCH  15  16
ENDBRANCH   7  15
BRANCH  12  19
HETATM   19  C13 UNL     1      -9.571  28.188   3.529  1.00  0.00     0.102 C 
BRANCH  19  20
HETATM   20  N4  UNL     1     -10.733  28.720   4.073  1.00  0.00    -0.398 N 
HETATM   21  C14 UNL     1     -11.773  27.837   4.625  1.00  0.00     0.148 C 
HETATM   22  C15 UNL     1     -10.981  30.168   4.045  1.00  0.00     0.148 C 
ENDBRANCH  19  20
ENDBRANCH  12  19
ENDBRANCH   5   6
ENDBRANCH   1   4
BRANCH   1  23
HETATM   23  N2  UNL     1      -8.772  28.701  -4.060  1.00  0.00    -0.052 N 
ATOM     24  H23 UNL     1      -9.330  28.239  -4.779  1.00  0.00     0.277 HD
ATOM     25  H22 UNL     1      -9.530  28.964  -3.431  1.00  0.00     0.277 HD
ATOM     26  H21 UNL     1      -8.276  29.514  -4.424  1.00  0.00     0.277 HD
ENDBRANCH   1  23
TORSDOF 8
ENDMDL
MODEL 3
REMARK VINA RESULT: -5.908643881      3.547      4.930
REMARK  8 active torsions:
REMARK  status: ('A' for Active; 'I' for Inactive)
REMARK    1  A    between atoms: C3_5  and  C4_6 
REMARK    2  A    between atoms: C4_6  and  C5_7 
REMARK    3  A    between atoms: C5_7  and  O1_8 
REMARK    4  A    between atoms: C6_10  and  C7_11 
REMARK    5  A    between atoms: C8_12  and  C9_13 
REMARK    6  A    between atoms: C9_13  and  N2_14 
REMARK    7  A    between atoms: C12_22  and  C13_23 
REMARK    8  A    between atoms: C13_23  and  N4_24 
ROOT
HETATM    1  C9  UNL     1      -4.298  32.088  -0.986  1.00  0.00     0.367 C 
HETATM    2  C10 UNL     1      -3.748  31.293  -2.068  1.00  0.00     0.105 C 
HETATM    3  N3  UNL     1      -3.318  30.650  -2.922  1.00  0.00    -0.194 NA
ENDROOT
BRANCH   1   4
HETATM    4  C8  UNL     1      -4.821  31.158   0.016  1.00  0.00    -0.053 C 
HETATM    5  C7  UNL     1      -5.248  30.381   0.834  1.00  0.00    -0.058 C 
BRANCH   5   6
HETATM    6  C6  UNL     1      -5.768  29.439   1.826  1.00  0.00     0.091 A 
HETATM    7  C3  UNL     1      -6.425  29.874   2.934  1.00  0.00     0.034 A 
HETATM    8  N1  UNL     1      -6.887  28.997   3.817  1.00  0.00    -0.358 N 
HETATM    9  C2  UNL     1      -6.716  27.637   3.640  1.00  0.00     0.038 A 
ATOM     10  H1  UNL     1      -7.378  29.334   4.645  1.00  0.00     0.166 HD
HETATM   11  C1  UNL     1      -7.229  26.909   4.602  1.00  0.00     0.044 C 
HETATM   12  C12 UNL     1      -6.063  27.148   2.546  1.00  0.00     0.057 A 
HETATM   13  C11 UNL     1      -5.581  28.108   1.619  1.00  0.00     0.206 A 
HETATM   14  O2  UNL     1      -4.973  27.672   0.598  1.00  0.00    -0.286 OA
BRANCH   7  15
HETATM   15  C4  UNL     1      -6.633  31.331   3.165  1.00  0.00     0.084 C 
BRANCH  15  16
HETATM   16  C5  UNL     1      -6.979  31.600   4.607  1.00  0.00     0.170 C 
BRANCH  16  17
HETATM   17  O1  UNL     1      -8.343  31.383   4.822  1.00  0.00    -0.400 OA
ATOM     18  H1  UNL     1      -8.647  31.912   5.551  1.00  0.00     0.209 HD
ENDBRANCH  16  17
ENDBRANCH  15  16
ENDBRANCH   7  15
BRANCH  12  19
HETATM   19  C13 UNL     1      -5.860  25.901   2.303  1.00  0.00     0.102 C 
BRANCH  19  20
HETATM   20  N4  UNL     1      -4.864  24.944   2.445  1.00  0.00    -0.398 N 
HETATM   21  C14 UNL     1      -3.830  25.089   3.482  1.00  0.00     0.148 C 
HETATM   22  C15 UNL     1      -4.780  23.805   1.521  1.00  0.00     0.148 C 
ENDBRANCH  19  20
ENDBRANCH  12  19
ENDBRANCH   5   6
ENDBRANCH   1   4
BRANCH   1  23
HETATM   23  N2  UNL     1      -3.293  32.952  -0.382  1.00  0.00    -0.052 N 
ATOM     24  H23 UNL     1      -3.589  33.928  -0.364  1.00  0.00     0.277 HD
ATOM     25  H22 UNL     1      -3.215  32.803   0.624  1.00  0.00     0.277 HD
ATOM     26  H21 UNL     1      -2.400  32.831  -0.858  1.00  0.00     0.277 HD
ENDBRANCH   1  23
TORSDOF 8
ENDMDL
MODEL 4
REMARK VINA RESULT: -5.858138495      3.262      4.360
REMARK  8 active torsions:
REMARK  status: ('A' for Active; 'I' for Inactive)
REMARK    1  A    between atoms: C3_5  and  C4_6 
REMARK    2  A    between atoms: C4_6  and  C5_7 
REMARK    3  A    between atoms: C5_7  and  O1_8 
REMARK    4  A    between atoms: C6_10  and  C7_11 
REMARK    5  A    between atoms: C8_12  and  C9_13 
REMARK    6  A    between atoms: C9_13  and  N2_14 
REMARK    7  A    between atoms: C12_22  and  C13_23 
REMARK    8  A    between atoms: C13_23  and  N4_24 
ROOT
HETATM    1  C9  UNL     1      -3.921  32.200  -1.428  1.00  0.00     0.367 C 
HETATM    2  C10 UNL     1      -4.170  33.608  -1.675  1.00  0.00     0.105 C 
HETATM    3  N3  UNL     1      -4.378  34.726  -1.858  1.00  0.00    -0.194 NA
ENDROOT
BRANCH   1   4
HETATM    4  C8  UNL     1      -4.897  31.750  -0.434  1.00  0.00    -0.053 C 
HETATM    5  C7  UNL     1      -5.696  31.367   0.383  1.00  0.00    -0.058 C 
BRANCH   5   6
HETATM    6  C6  UNL     1      -6.668  30.902   1.374  1.00  0.00     0.091 A 
HETATM    7  C3  UNL     1      -7.845  31.555   1.565  1.00  0.00     0.034 A 
HETATM    8  N1  UNL     1      -8.709  31.110   2.471  1.00  0.00    -0.358 N 
HETATM    9  C2  UNL     1      -8.442  29.989   3.233  1.00  0.00     0.038 A 
ATOM     10  H1  UNL     1      -9.589  31.608   2.607  1.00  0.00     0.166 HD
HETATM   11  C1  UNL     1      -9.395  29.685   4.080  1.00  0.00     0.044 C 
HETATM   12  C12 UNL     1      -7.275  29.298   3.080  1.00  0.00     0.057 A 
HETATM   13  C11 UNL     1      -6.372  29.795   2.106  1.00  0.00     0.206 A 
HETATM   14  O2  UNL     1      -5.285  29.166   1.951  1.00  0.00    -0.286 OA
BRANCH   7  15
HETATM   15  C4  UNL     1      -8.175  32.767   0.766  1.00  0.00     0.084 C 
BRANCH  15  16
HETATM   16  C5  UNL     1      -9.668  32.925   0.623  1.00  0.00     0.170 C 
BRANCH  16  17
HETATM   17  O1  UNL     1     -10.240  31.722   0.199  1.00  0.00    -0.400 OA
ATOM     18  H1  UNL     1     -10.307  31.117   0.930  1.00  0.00     0.209 HD
ENDBRANCH  16  17
ENDBRANCH  15  16
ENDBRANCH   7  15
BRANCH  12  19
HETATM   19  C13 UNL     1      -6.947  28.247   3.746  1.00  0.00     0.102 C 
BRANCH  19  20
HETATM   20  N4  UNL     1      -7.055  26.865   3.662  1.00  0.00    -0.398 N 
HETATM   21  C14 UNL     1      -6.211  25.997   4.497  1.00  0.00     0.148 C 
HETATM   22  C15 UNL     1      -7.962  26.241   2.689  1.00  0.00     0.148 C 
ENDBRANCH  19  20
ENDBRANCH  12  19
ENDBRANCH   5   6
ENDBRANCH   1   4
BRANCH   1  23
HETATM   23  N2  UNL     1      -4.049  31.404  -2.641  1.00  0.00    -0.052 N 
ATOM     24  H23 UNL     1      -4.435  30.479  -2.454  1.00  0.00     0.277 HD
ATOM     25  H22 UNL     1      -4.788  31.753  -3.251  1.00  0.00     0.277 HD
ATOM     26  H21 UNL     1      -3.149  31.354  -3.119  1.00  0.00     0.277 HD
ENDBRANCH   1  23
TORSDOF 8
ENDMDL
MODEL 5
REMARK VINA RESULT: -5.832972154      4.795      6.228
REMARK  8 active torsions:
REMARK  status: ('A' for Active; 'I' for Inactive)
REMARK    1  A    between atoms: C3_5  and  C4_6 
REMARK    2  A    between atoms: C4_6  and  C5_7 
REMARK    3  A    between atoms: C5_7  and  O1_8 
REMARK    4  A    between atoms: C6_10  and  C7_11 
REMARK    5  A    between atoms: C8_12  and  C9_13 
REMARK    6  A    between atoms: C9_13  and  N2_14 
REMARK    7  A    between atoms: C12_22  and  C13_23 
REMARK    8  A    between atoms: C13_23  and  N4_24 
ROOT
HETATM    1  C9  UNL     1      -5.932  25.434   5.720  1.00  0.00     0.367 C 
HETATM    2  C10 UNL     1      -5.630  25.578   7.132  1.00  0.00     0.105 C 
HETATM    3  N3  UNL     1      -5.402  25.703   8.254  1.00  0.00    -0.194 NA
ENDROOT
BRANCH   1   4
HETATM    4  C8  UNL     1      -6.967  26.415   5.392  1.00  0.00    -0.053 C 
HETATM    5  C7  UNL     1      -7.823  27.217   5.110  1.00  0.00    -0.058 C 
BRANCH   5   6
HETATM    6  C6  UNL     1      -8.861  28.191   4.768  1.00  0.00     0.091 A 
HETATM    7  C3  UNL     1      -8.540  29.417   4.277  1.00  0.00     0.034 A 
HETATM    8  N1  UNL     1      -9.503  30.281   3.974  1.00  0.00    -0.358 N 
HETATM    9  C2  UNL     1     -10.837  29.964   4.146  1.00  0.00     0.038 A 
ATOM     10  H1  UNL     1      -9.251  31.199   3.607  1.00  0.00     0.166 HD
HETATM   11  C1  UNL     1     -11.658  30.926   3.801  1.00  0.00     0.044 C 
HETATM   12  C12 UNL     1     -11.211  28.747   4.636  1.00  0.00     0.057 A 
HETATM   13  C11 UNL     1     -10.163  27.845   4.950  1.00  0.00     0.206 A 
HETATM   14  O2  UNL     1     -10.493  26.711   5.406  1.00  0.00    -0.286 OA
BRANCH   7  15
HETATM   15  C4  UNL     1      -7.116  29.801   4.074  1.00  0.00     0.084 C 
BRANCH  15  16
HETATM   16  C5  UNL     1      -6.992  31.279   3.805  1.00  0.00     0.170 C 
BRANCH  16  17
HETATM   17  O1  UNL     1      -7.248  32.003   4.973  1.00  0.00    -0.400 OA
ATOM     18  H1  UNL     1      -7.607  32.856   4.757  1.00  0.00     0.209 HD
ENDBRANCH  16  17
ENDBRANCH  15  16
ENDBRANCH   7  15
BRANCH  12  19
HETATM   19  C13 UNL     1     -12.426  28.371   4.827  1.00  0.00     0.102 C 
BRANCH  19  20
HETATM   20  N4  UNL     1     -13.439  28.502   5.769  1.00  0.00    -0.398 N 
HETATM   21  C14 UNL     1     -13.139  28.421   7.207  1.00  0.00     0.148 C 
HETATM   22  C15 UNL     1     -14.839  28.655   5.350  1.00  0.00     0.148 C 
ENDBRANCH  19  20
ENDBRANCH  12  19
ENDBRANCH   5   6
ENDBRANCH   1   4
BRANCH   1  23
HETATM   23  N2  UNL     1      -4.758  25.656   4.887  1.00  0.00    -0.052 N 
ATOM     24  H23 UNL     1      -4.750  26.591   4.479  1.00  0.00     0.277 HD
ATOM     25  H22 UNL     1      -3.904  25.729   5.440  1.00  0.00     0.277 HD
ATOM     26  H21 UNL     1      -4.694  24.927   4.177  1.00  0.00     0.277 HD
ENDBRANCH   1  23
TORSDOF 8
ENDMDL
