MODEL 1
REMARK VINA RESULT: -6.702046053      0.000      0.000
REMARK  5 active torsions:
REMARK  status: ('A' for Active; 'I' for Inactive)
REMARK    1  A    between atoms: N1_2  and  S1_4 
REMARK    2  A    between atoms: S1_4  and  N2_7 
REMARK    3  A    between atoms: N2_7  and  C2_9 
REMARK    4  A    between atoms: C3_14  and  N5_15 
REMARK    5  A    between atoms: N5_15  and  S2_17 
ROOT
HETATM    1  C2  UNL     1      -7.003  32.179   1.317  1.00  0.00     0.722 A 
HETATM    2  N3  UNL     1      -8.111  32.785   0.900  1.00  0.00    -0.116 N 
ATOM      3  H3  UNL     1      -8.200  33.764   0.627  1.00  0.00     0.206 HD
HETATM    4  N4  UNL     1      -9.071  31.882   0.906  1.00  0.00    -0.117 N 
ATOM      5  H4  UNL     1     -10.038  32.055   0.633  1.00  0.00     0.206 HD
HETATM    6  C3  UNL     1      -8.587  30.702   1.324  1.00  0.00     0.721 A 
HETATM    7  N6  UNL     1      -7.287  30.903   1.579  1.00  0.00    -0.018 N 
ATOM      8  H6  UNL     1      -6.628  30.201   1.915  1.00  0.00     0.203 HD
ENDROOT
BRANCH   1   9
HETATM    9  N2  UNL     1      -5.817  32.686   1.466  1.00  0.00    -0.098 N 
ATOM     10  H2  UNL     1      -5.686  33.447   2.133  1.00  0.00     0.199 HD
BRANCH   9  11
HETATM   11  S1  UNL     1      -4.458  32.115   0.569  1.00  0.00     0.332 S 
HETATM   12  O1  UNL     1      -3.213  32.840   0.938  1.00  0.00    -0.182 OA
HETATM   13  O2  UNL     1      -4.260  30.646   0.880  1.00  0.00    -0.182 OA
BRANCH  11  14
HETATM   14  N1  UNL     1      -4.698  32.252  -1.131  1.00  0.00    -0.307 N 
HETATM   15  C1  UNL     1      -3.932  33.382  -1.609  1.00  0.00     0.161 C 
ATOM     16  H1  UNL     1      -5.282  31.641  -1.702  1.00  0.00     0.173 HD
ENDBRANCH  11  14
ENDBRANCH   9  11
ENDBRANCH   1   9
BRANCH   6  17
HETATM   17  N5  UNL     1      -9.243  29.577   1.459  1.00  0.00    -0.115 N 
ATOM     18  H5  UNL     1     -10.028  29.504   2.106  1.00  0.00     0.197 HD
BRANCH  17  19
HETATM   19  S2  UNL     1      -8.746  28.217   0.512  1.00  0.00     0.240 S 
HETATM   20  C4  UNL     1      -8.310  26.906   1.605  1.00  0.00     0.186 C 
HETATM   21  O3  UNL     1      -9.891  27.862  -0.395  1.00  0.00    -0.206 OA
HETATM   22  O4  UNL     1      -7.546  28.639  -0.323  1.00  0.00    -0.206 OA
ENDBRANCH  17  19
ENDBRANCH   6  17
TORSDOF 5
ENDMDL
MODEL 2
REMARK VINA RESULT: -6.657563864      1.641      1.942
REMARK  5 active torsions:
REMARK  status: ('A' for Active; 'I' for Inactive)
REMARK    1  A    between atoms: N1_2  and  S1_4 
REMARK    2  A    between atoms: S1_4  and  N2_7 
REMARK    3  A    between atoms: N2_7  and  C2_9 
REMARK    4  A    between atoms: C3_14  and  N5_15 
REMARK    5  A    between atoms: N5_15  and  S2_17 
ROOT
HETATM    1  C2  UNL     1      -6.491  31.987   1.907  1.00  0.00     0.722 A 
HETATM    2  N3  UNL     1      -7.108  31.635   3.031  1.00  0.00    -0.116 N 
ATOM      3  H3  UNL     1      -6.816  31.866   3.980  1.00  0.00     0.206 HD
HETATM    4  N4  UNL     1      -8.167  30.930   2.686  1.00  0.00    -0.117 N 
ATOM      5  H4  UNL     1      -8.837  30.523   3.338  1.00  0.00     0.206 HD
HETATM    6  C3  UNL     1      -8.232  30.827   1.349  1.00  0.00     0.721 A 
HETATM    7  N6  UNL     1      -7.174  31.496   0.872  1.00  0.00    -0.018 N 
ATOM      8  H6  UNL     1      -6.932  31.610  -0.112  1.00  0.00     0.203 HD
ENDROOT
BRANCH   1   9
HETATM    9  N2  UNL     1      -5.406  32.688   1.771  1.00  0.00    -0.098 N 
ATOM     10  H2  UNL     1      -5.212  33.431   2.442  1.00  0.00     0.199 HD
BRANCH   9  11
HETATM   11  S1  UNL     1      -4.284  32.401   0.493  1.00  0.00     0.332 S 
HETATM   12  O1  UNL     1      -4.833  32.818  -0.824  1.00  0.00    -0.182 OA
HETATM   13  O2  UNL     1      -3.031  33.209   0.761  1.00  0.00    -0.182 OA
BRANCH  11  14
HETATM   14  N1  UNL     1      -3.815  30.746   0.401  1.00  0.00    -0.307 N 
HETATM   15  C1  UNL     1      -4.249  30.221  -0.875  1.00  0.00     0.161 C 
ATOM     16  H1  UNL     1      -3.317  30.225   1.123  1.00  0.00     0.173 HD
ENDBRANCH  11  14
ENDBRANCH   9  11
ENDBRANCH   1   9
BRANCH   6  17
HETATM   17  N5  UNL     1      -9.142  30.203   0.644  1.00  0.00    -0.115 N 
ATOM     18  H5  UNL     1      -9.865  30.723   0.147  1.00  0.00     0.197 HD
BRANCH  17  19
HETATM   19  S2  UNL     1      -9.087  28.475   0.576  1.00  0.00     0.240 S 
HETATM   20  C4  UNL     1      -7.424  27.981   0.276  1.00  0.00     0.186 C 
HETATM   21  O3  UNL     1      -9.620  27.960   1.884  1.00  0.00    -0.206 OA
HETATM   22  O4  UNL     1      -9.994  28.020  -0.557  1.00  0.00    -0.206 OA
ENDBRANCH  17  19
ENDBRANCH   6  17
TORSDOF 5
ENDMDL
MODEL 3
REMARK VINA RESULT: -6.602121286      2.592      2.802
REMARK  5 active torsions:
REMARK  status: ('A' for Active; 'I' for Inactive)
REMARK    1  A    between atoms: N1_2  and  S1_4 
REMARK    2  A    between atoms: S1_4  and  N2_7 
REMARK    3  A    between atoms: N2_7  and  C2_9 
REMARK    4  A    between atoms: C3_14  and  N5_15 
REMARK    5  A    between atoms: N5_15  and  S2_17 
ROOT
HETATM    1  C2  UNL     1      -6.771  32.108   1.557  1.00  0.00     0.722 A 
HETATM    2  N3  UNL     1      -7.712  32.733   0.857  1.00  0.00    -0.116 N 
ATOM      3  H3  UNL     1      -7.606  33.610   0.345  1.00  0.00     0.206 HD
HETATM    4  N4  UNL     1      -8.809  32.008   0.947  1.00  0.00    -0.117 N 
ATOM      5  H4  UNL     1      -9.701  32.237   0.509  1.00  0.00     0.206 HD
HETATM    6  C3  UNL     1      -8.578  30.922   1.702  1.00  0.00     0.721 A 
HETATM    7  N6  UNL     1      -7.294  30.997   2.078  1.00  0.00    -0.018 N 
ATOM      8  H6  UNL     1      -6.801  30.321   2.662  1.00  0.00     0.203 HD
ENDROOT
BRANCH   1   9
HETATM    9  N2  UNL     1      -5.537  32.465   1.742  1.00  0.00    -0.098 N 
ATOM     10  H2  UNL     1      -5.263  32.846   2.648  1.00  0.00     0.199 HD
BRANCH   9  11
HETATM   11  S1  UNL     1      -4.345  32.314   0.503  1.00  0.00     0.332 S 
HETATM   12  O1  UNL     1      -4.844  32.817  -0.804  1.00  0.00    -0.182 OA
HETATM   13  O2  UNL     1      -3.136  33.137   0.896  1.00  0.00    -0.182 OA
BRANCH  11  14
HETATM   14  N1  UNL     1      -3.815  30.687   0.308  1.00  0.00    -0.307 N 
HETATM   15  C1  UNL     1      -4.401  30.161  -0.905  1.00  0.00     0.161 C 
ATOM     16  H1  UNL     1      -3.195  30.181   0.940  1.00  0.00     0.173 HD
ENDBRANCH  11  14
ENDBRANCH   9  11
ENDBRANCH   1   9
BRANCH   6  17
HETATM   17  N5  UNL     1      -9.427  29.975   2.012  1.00  0.00    -0.115 N 
ATOM     18  H5  UNL     1      -9.649  29.234   1.347  1.00  0.00     0.197 HD
BRANCH  17  19
HETATM   19  S2  UNL     1     -10.161  30.010   3.578  1.00  0.00     0.240 S 
HETATM   20  C4  UNL     1     -10.415  28.352   4.113  1.00  0.00     0.186 C 
HETATM   21  O3  UNL     1      -9.242  30.780   4.485  1.00  0.00    -0.206 OA
HETATM   22  O4  UNL     1     -11.489  30.744   3.458  1.00  0.00    -0.206 OA
ENDBRANCH  17  19
ENDBRANCH   6  17
TORSDOF 5
ENDMDL
MODEL 4
REMARK VINA RESULT: -6.588762695      2.301      2.439
REMARK  5 active torsions:
REMARK  status: ('A' for Active; 'I' for Inactive)
REMARK    1  A    between atoms: N1_2  and  S1_4 
REMARK    2  A    between atoms: S1_4  and  N2_7 
REMARK    3  A    between atoms: N2_7  and  C2_9 
REMARK    4  A    between atoms: C3_14  and  N5_15 
REMARK    5  A    between atoms: N5_15  and  S2_17 
ROOT
HETATM    1  C2  UNL     1      -7.003  32.281   1.433  1.00  0.00     0.722 A 
HETATM    2  N3  UNL     1      -8.039  32.822   0.798  1.00  0.00    -0.116 N 
ATOM      3  H3  UNL     1      -8.044  33.706   0.289  1.00  0.00     0.206 HD
HETATM    4  N4  UNL     1      -9.058  32.000   0.951  1.00  0.00    -0.117 N 
ATOM      5  H4  UNL     1      -9.993  32.149   0.572  1.00  0.00     0.206 HD
HETATM    6  C3  UNL     1      -8.682  30.937   1.680  1.00  0.00     0.721 A 
HETATM    7  N6  UNL     1      -7.389  31.126   1.975  1.00  0.00    -0.018 N 
ATOM      8  H6  UNL     1      -6.802  30.496   2.521  1.00  0.00     0.203 HD
ENDROOT
BRANCH   1   9
HETATM    9  N2  UNL     1      -5.796  32.748   1.543  1.00  0.00    -0.098 N 
ATOM     10  H2  UNL     1      -5.620  33.512   2.195  1.00  0.00     0.199 HD
BRANCH   9  11
HETATM   11  S1  UNL     1      -4.483  32.115   0.620  1.00  0.00     0.332 S 
HETATM   12  O1  UNL     1      -3.199  32.781   0.964  1.00  0.00    -0.182 OA
HETATM   13  O2  UNL     1      -4.347  30.638   0.926  1.00  0.00    -0.182 OA
BRANCH  11  14
HETATM   14  N1  UNL     1      -4.750  32.264  -1.075  1.00  0.00    -0.307 N 
HETATM   15  C1  UNL     1      -3.890  33.312  -1.580  1.00  0.00     0.161 C 
ATOM     16  H1  UNL     1      -5.403  31.709  -1.628  1.00  0.00     0.173 HD
ENDBRANCH  11  14
ENDBRANCH   9  11
ENDBRANCH   1   9
BRANCH   6  17
HETATM   17  N5  UNL     1      -9.421  29.916   2.035  1.00  0.00    -0.115 N 
ATOM     18  H5  UNL     1      -9.537  29.114   1.416  1.00  0.00     0.197 HD
BRANCH  17  19
HETATM   19  S2  UNL     1     -10.198  29.961   3.580  1.00  0.00     0.240 S 
HETATM   20  C4  UNL     1     -10.512  28.306   4.095  1.00  0.00     0.186 C 
HETATM   21  O3  UNL     1      -9.283  30.698   4.518  1.00  0.00    -0.206 OA
HETATM   22  O4  UNL     1     -11.501  30.732   3.430  1.00  0.00    -0.206 OA
ENDBRANCH  17  19
ENDBRANCH   6  17
TORSDOF 5
ENDMDL
MODEL 5
REMARK VINA RESULT: -6.548017099      3.221      3.746
REMARK  5 active torsions:
REMARK  status: ('A' for Active; 'I' for Inactive)
REMARK    1  A    between atoms: N1_2  and  S1_4 
REMARK    2  A    between atoms: S1_4  and  N2_7 
REMARK    3  A    between atoms: N2_7  and  C2_9 
REMARK    4  A    between atoms: C3_14  and  N5_15 
REMARK    5  A    between atoms: N5_15  and  S2_17 
ROOT
HETATM    1  C2  UNL     1      -5.760  31.802   0.520  1.00  0.00     0.722 A 
HETATM    2  N3  UNL     1      -5.592  32.700   1.486  1.00  0.00    -0.116 N 
ATOM      3  H3  UNL     1      -4.852  33.400   1.541  1.00  0.00     0.206 HD
HETATM    4  N4  UNL     1      -6.562  32.515   2.359  1.00  0.00    -0.117 N 
ATOM      5  H4  UNL     1      -6.694  33.059   3.212  1.00  0.00     0.206 HD
HETATM    6  C3  UNL     1      -7.350  31.504   1.959  1.00  0.00     0.721 A 
HETATM    7  N6  UNL     1      -6.835  31.066   0.802  1.00  0.00    -0.018 N 
ATOM      8  H6  UNL     1      -7.202  30.302   0.236  1.00  0.00     0.203 HD
ENDROOT
BRANCH   1   9
HETATM    9  N2  UNL     1      -5.037  31.622  -0.543  1.00  0.00    -0.098 N 
ATOM     10  H2  UNL     1      -4.931  32.391  -1.205  1.00  0.00     0.199 HD
BRANCH   9  11
HETATM   11  S1  UNL     1      -4.250  30.121  -0.872  1.00  0.00     0.332 S 
HETATM   12  O1  UNL     1      -5.217  28.993  -0.920  1.00  0.00    -0.182 OA
HETATM   13  O2  UNL     1      -3.570  30.220  -2.221  1.00  0.00    -0.182 OA
BRANCH  11  14
HETATM   14  N1  UNL     1      -3.032  29.760   0.291  1.00  0.00    -0.307 N 
HETATM   15  C1  UNL     1      -2.604  28.393   0.091  1.00  0.00     0.161 C 
ATOM     16  H1  UNL     1      -2.674  30.401   0.999  1.00  0.00     0.173 HD
ENDBRANCH  11  14
ENDBRANCH   9  11
ENDBRANCH   1   9
BRANCH   6  17
HETATM   17  N5  UNL     1      -8.410  31.035   2.568  1.00  0.00    -0.115 N 
ATOM     18  H5  UNL     1      -9.300  30.952   2.079  1.00  0.00     0.197 HD
BRANCH  17  19
HETATM   19  S2  UNL     1      -8.262  30.558   4.225  1.00  0.00     0.240 S 
HETATM   20  C4  UNL     1      -7.282  29.096   4.299  1.00  0.00     0.186 C 
HETATM   21  O3  UNL     1      -7.645  31.710   4.968  1.00  0.00    -0.206 OA
HETATM   22  O4  UNL     1      -9.660  30.294   4.765  1.00  0.00    -0.206 OA
ENDBRANCH  17  19
ENDBRANCH   6  17
TORSDOF 5
ENDMDL
