MODEL 1
REMARK VINA RESULT: -7.123758705      0.000      0.000
REMARK  5 active torsions:
REMARK  status: ('A' for Active; 'I' for Inactive)
REMARK       I    between atoms: N1_2  and  C3_4 
REMARK    1  A    between atoms: C3_4  and  C4_6 
REMARK    2  A    between atoms: C4_6  and  N2_7 
REMARK    3  A    between atoms: C4_6  and  C8_12 
REMARK    4  A    between atoms: N2_7  and  C5_9 
REMARK       I    between atoms: C8_12  and  N3_14 
REMARK    5  A    between atoms: N3_14  and  C9_16 
ROOT
HETATM    1  C8  UNL     1      17.172   2.959  14.139  1.00  0.00     0.250 C 
HETATM    2  O2  UNL     1      18.323   2.771  14.671  1.00  0.00    -0.271 OA
HETATM    3  N3  UNL     1      16.898   4.105  13.371  1.00  0.00    -0.350 N 
ATOM      4  H3  UNL     1      15.958   4.191  12.985  1.00  0.00     0.163 HD
ENDROOT
BRANCH   1   5
HETATM    5  C4  UNL     1      16.169   1.898  14.394  1.00  0.00     0.263 C 
BRANCH   5   6
HETATM    6  C3  UNL     1      16.533   0.601  13.786  1.00  0.00     0.251 C 
HETATM    7  N1  UNL     1      16.715   0.353  12.435  1.00  0.00    -0.359 N 
HETATM    8  C1  UNL     1      16.570   1.387  11.446  1.00  0.00     0.152 C 
HETATM    9  C2  UNL     1      17.030  -0.983  11.941  1.00  0.00     0.152 C 
HETATM   10  O1  UNL     1      16.686  -0.381  14.596  1.00  0.00    -0.271 OA
ENDBRANCH   5   6
BRANCH   5  11
HETATM   11  N2  UNL     1      16.112   1.756  15.843  1.00  0.00    -0.398 N 
ATOM     12  H2  UNL     1      16.916   1.445  16.388  1.00  0.00     0.154 HD
BRANCH  11  13
HETATM   13  C5  UNL     1      14.885   2.073  16.443  1.00  0.00     0.077 A 
HETATM   14  C6  UNL     1      14.192   0.888  17.108  1.00  0.00     0.027 A 
HETATM   15  C7  UNL     1      14.800   1.945  17.959  1.00  0.00     0.027 A 
ENDBRANCH  11  13
ENDBRANCH   5  11
ENDBRANCH   1   5
BRANCH   3  16
HETATM   16  C9  UNL     1      17.821   5.160  13.083  1.00  0.00     0.034 C 
HETATM   17  C10 UNL     1      17.100   6.364  12.555  1.00  0.00     0.035 C 
HETATM   18  C11 UNL     1      18.080   7.430  12.096  1.00  0.00    -0.012 C 
HETATM   19  C12 UNL     1      18.860   7.873  13.307  1.00  0.00     0.009 C 
HETATM   20  C16 UNL     1      18.960   6.851  11.038  1.00  0.00     0.009 C 
HETATM   21  C13 UNL     1      19.574   6.679  13.868  1.00  0.00    -0.012 C 
HETATM   22  C14 UNL     1      20.578   6.195  12.859  1.00  0.00     0.009 C 
HETATM   23  C18 UNL     1      18.606   5.603  14.302  1.00  0.00     0.035 C 
HETATM   24  C15 UNL     1      19.787   5.740  11.633  1.00  0.00    -0.012 C 
HETATM   25  C17 UNL     1      18.854   4.654  12.090  1.00  0.00     0.035 C 
ENDBRANCH   3  16
TORSDOF 5
ENDMDL
MODEL 2
REMARK VINA RESULT: -7.074271289      0.116      1.534
REMARK  5 active torsions:
REMARK  status: ('A' for Active; 'I' for Inactive)
REMARK       I    between atoms: N1_2  and  C3_4 
REMARK    1  A    between atoms: C3_4  and  C4_6 
REMARK    2  A    between atoms: C4_6  and  N2_7 
REMARK    3  A    between atoms: C4_6  and  C8_12 
REMARK    4  A    between atoms: N2_7  and  C5_9 
REMARK       I    between atoms: C8_12  and  N3_14 
REMARK    5  A    between atoms: N3_14  and  C9_16 
ROOT
HETATM    1  C8  UNL     1      17.150   2.950  14.055  1.00  0.00     0.250 C 
HETATM    2  O2  UNL     1      18.318   2.769  14.551  1.00  0.00    -0.271 OA
HETATM    3  N3  UNL     1      16.846   4.091  13.293  1.00  0.00    -0.350 N 
ATOM      4  H3  UNL     1      15.893   4.172  12.938  1.00  0.00     0.163 HD
ENDROOT
BRANCH   1   5
HETATM    5  C4  UNL     1      16.161   1.885  14.347  1.00  0.00     0.263 C 
BRANCH   5   6
HETATM    6  C3  UNL     1      16.532   0.578  13.765  1.00  0.00     0.251 C 
HETATM    7  N1  UNL     1      16.719   0.304  12.419  1.00  0.00    -0.359 N 
HETATM    8  C1  UNL     1      16.572   1.317  11.410  1.00  0.00     0.152 C 
HETATM    9  C2  UNL     1      17.041  -1.041  11.953  1.00  0.00     0.152 C 
HETATM   10  O1  UNL     1      16.687  -0.388  14.595  1.00  0.00    -0.271 OA
ENDBRANCH   5   6
BRANCH   5  11
HETATM   11  N2  UNL     1      16.121   1.776  15.799  1.00  0.00    -0.398 N 
ATOM     12  H2  UNL     1      16.933   1.481  16.342  1.00  0.00     0.154 HD
BRANCH  11  13
HETATM   13  C5  UNL     1      14.900   2.102  16.406  1.00  0.00     0.077 A 
HETATM   14  C6  UNL     1      14.207   0.925  17.084  1.00  0.00     0.027 A 
HETATM   15  C7  UNL     1      14.824   1.986  17.923  1.00  0.00     0.027 A 
ENDBRANCH  11  13
ENDBRANCH   5  11
ENDBRANCH   1   5
BRANCH   3  16
HETATM   16  C9  UNL     1      17.754   5.150  12.972  1.00  0.00     0.034 C 
HETATM   17  C10 UNL     1      18.729   4.710  11.922  1.00  0.00     0.035 C 
HETATM   18  C11 UNL     1      19.794   5.767  11.688  1.00  0.00    -0.012 C 
HETATM   19  C12 UNL     1      19.097   6.997  11.163  1.00  0.00     0.009 C 
HETATM   20  C16 UNL     1      20.505   6.027  12.975  1.00  0.00     0.009 C 
HETATM   21  C13 UNL     1      18.098   7.444  12.188  1.00  0.00    -0.012 C 
HETATM   22  C14 UNL     1      18.833   7.860  13.432  1.00  0.00     0.009 C 
HETATM   23  C18 UNL     1      17.051   6.387  12.445  1.00  0.00     0.035 C 
HETATM   24  C15 UNL     1      19.534   6.613  13.968  1.00  0.00    -0.012 C 
HETATM   25  C17 UNL     1      18.466   5.591  14.239  1.00  0.00     0.035 C 
ENDBRANCH   3  16
TORSDOF 5
ENDMDL
MODEL 3
REMARK VINA RESULT: -6.970312122      1.113      1.249
REMARK  5 active torsions:
REMARK  status: ('A' for Active; 'I' for Inactive)
REMARK       I    between atoms: N1_2  and  C3_4 
REMARK    1  A    between atoms: C3_4  and  C4_6 
REMARK    2  A    between atoms: C4_6  and  N2_7 
REMARK    3  A    between atoms: C4_6  and  C8_12 
REMARK    4  A    between atoms: N2_7  and  C5_9 
REMARK       I    between atoms: C8_12  and  N3_14 
REMARK    5  A    between atoms: N3_14  and  C9_16 
ROOT
HETATM    1  C8  UNL     1      16.464   3.845  13.790  1.00  0.00     0.250 C 
HETATM    2  O2  UNL     1      15.612   4.784  13.606  1.00  0.00    -0.271 OA
HETATM    3  N3  UNL     1      17.838   4.050  13.580  1.00  0.00    -0.350 N 
ATOM      4  H3  UNL     1      18.456   3.254  13.739  1.00  0.00     0.163 HD
ENDROOT
BRANCH   1   5
HETATM    5  C4  UNL     1      15.897   2.547  14.230  1.00  0.00     0.263 C 
BRANCH   5   6
HETATM    6  C3  UNL     1      16.684   1.386  13.764  1.00  0.00     0.251 C 
HETATM    7  N1  UNL     1      16.680   0.856  12.483  1.00  0.00    -0.359 N 
HETATM    8  C1  UNL     1      15.879   1.418  11.430  1.00  0.00     0.152 C 
HETATM    9  C2  UNL     1      17.466  -0.326  12.146  1.00  0.00     0.152 C 
HETATM   10  O1  UNL     1      17.432   0.821  14.639  1.00  0.00    -0.271 OA
ENDBRANCH   5   6
BRANCH   5  11
HETATM   11  N2  UNL     1      15.910   2.589  15.686  1.00  0.00    -0.398 N 
ATOM     12  H2  UNL     1      16.759   2.790  16.214  1.00  0.00     0.154 HD
BRANCH  11  13
HETATM   13  C5  UNL     1      14.684   2.337  16.318  1.00  0.00     0.077 A 
HETATM   14  C6  UNL     1      14.567   0.939  16.917  1.00  0.00     0.027 A 
HETATM   15  C7  UNL     1      14.713   2.108  17.824  1.00  0.00     0.027 A 
ENDBRANCH  11  13
ENDBRANCH   5  11
ENDBRANCH   1   5
BRANCH   3  16
HETATM   16  C9  UNL     1      18.448   5.276  13.163  1.00  0.00     0.034 C 
HETATM   17  C10 UNL     1      17.937   5.689  11.816  1.00  0.00     0.035 C 
HETATM   18  C11 UNL     1      18.691   6.899  11.293  1.00  0.00    -0.012 C 
HETATM   19  C12 UNL     1      18.422   8.039  12.241  1.00  0.00     0.009 C 
HETATM   20  C16 UNL     1      20.144   6.562  11.212  1.00  0.00     0.009 C 
HETATM   21  C13 UNL     1      18.905   7.641  13.604  1.00  0.00    -0.012 C 
HETATM   22  C14 UNL     1      20.397   7.459  13.556  1.00  0.00     0.009 C 
HETATM   23  C18 UNL     1      18.177   6.421  14.119  1.00  0.00     0.035 C 
HETATM   24  C15 UNL     1      20.670   6.299  12.600  1.00  0.00    -0.012 C 
HETATM   25  C17 UNL     1      19.957   5.097  13.151  1.00  0.00     0.035 C 
ENDBRANCH   3  16
TORSDOF 5
ENDMDL
MODEL 4
REMARK VINA RESULT: -6.961497759      0.533      1.055
REMARK  5 active torsions:
REMARK  status: ('A' for Active; 'I' for Inactive)
REMARK       I    between atoms: N1_2  and  C3_4 
REMARK    1  A    between atoms: C3_4  and  C4_6 
REMARK    2  A    between atoms: C4_6  and  N2_7 
REMARK    3  A    between atoms: C4_6  and  C8_12 
REMARK    4  A    between atoms: N2_7  and  C5_9 
REMARK       I    between atoms: C8_12  and  N3_14 
REMARK    5  A    between atoms: N3_14  and  C9_16 
ROOT
HETATM    1  C8  UNL     1      17.207   2.942  14.238  1.00  0.00     0.250 C 
HETATM    2  O2  UNL     1      18.248   2.860  14.981  1.00  0.00    -0.271 OA
HETATM    3  N3  UNL     1      17.055   3.979  13.301  1.00  0.00    -0.350 N 
ATOM      4  H3  UNL     1      16.197   3.984  12.750  1.00  0.00     0.163 HD
ENDROOT
BRANCH   1   5
HETATM    5  C4  UNL     1      16.192   1.881  14.442  1.00  0.00     0.263 C 
BRANCH   5   6
HETATM    6  C3  UNL     1      16.556   0.601  13.800  1.00  0.00     0.251 C 
HETATM    7  N1  UNL     1      16.699   0.379  12.440  1.00  0.00    -0.359 N 
HETATM    8  C1  UNL     1      16.507   1.427  11.475  1.00  0.00     0.152 C 
HETATM    9  C2  UNL     1      17.020  -0.943  11.913  1.00  0.00     0.152 C 
HETATM   10  O1  UNL     1      16.750  -0.392  14.588  1.00  0.00    -0.271 OA
ENDBRANCH   5   6
BRANCH   5  11
HETATM   11  N2  UNL     1      16.109   1.694  15.885  1.00  0.00    -0.398 N 
ATOM     12  H2  UNL     1      16.889   1.325  16.429  1.00  0.00     0.154 HD
BRANCH  11  13
HETATM   13  C5  UNL     1      14.891   2.053  16.481  1.00  0.00     0.077 A 
HETATM   14  C6  UNL     1      14.161   0.894  17.153  1.00  0.00     0.027 A 
HETATM   15  C7  UNL     1      14.799   1.939  17.998  1.00  0.00     0.027 A 
ENDBRANCH  11  13
ENDBRANCH   5  11
ENDBRANCH   1   5
BRANCH   3  16
HETATM   16  C9  UNL     1      17.997   5.027  13.051  1.00  0.00     0.034 C 
HETATM   17  C10 UNL     1      17.868   6.110  14.078  1.00  0.00     0.035 C 
HETATM   18  C11 UNL     1      18.748   7.298  13.734  1.00  0.00    -0.012 C 
HETATM   19  C12 UNL     1      20.178   6.821  13.766  1.00  0.00     0.009 C 
HETATM   20  C16 UNL     1      18.355   7.814  12.388  1.00  0.00     0.009 C 
HETATM   21  C13 UNL     1      20.328   5.719  12.761  1.00  0.00    -0.012 C 
HETATM   22  C14 UNL     1      20.089   6.280  11.386  1.00  0.00     0.009 C 
HETATM   23  C18 UNL     1      19.434   4.544  13.083  1.00  0.00     0.035 C 
HETATM   24  C15 UNL     1      18.638   6.758  11.351  1.00  0.00    -0.012 C 
HETATM   25  C17 UNL     1      17.775   5.565  11.647  1.00  0.00     0.035 C 
ENDBRANCH   3  16
TORSDOF 5
ENDMDL
MODEL 5
REMARK VINA RESULT: -6.941880245      1.461      3.751
REMARK  5 active torsions:
REMARK  status: ('A' for Active; 'I' for Inactive)
REMARK       I    between atoms: N1_2  and  C3_4 
REMARK    1  A    between atoms: C3_4  and  C4_6 
REMARK    2  A    between atoms: C4_6  and  N2_7 
REMARK    3  A    between atoms: C4_6  and  C8_12 
REMARK    4  A    between atoms: N2_7  and  C5_9 
REMARK       I    between atoms: C8_12  and  N3_14 
REMARK    5  A    between atoms: N3_14  and  C9_16 
ROOT
HETATM    1  C8  UNL     1      17.775   3.436  13.378  1.00  0.00     0.250 C 
HETATM    2  O2  UNL     1      19.014   3.110  13.352  1.00  0.00    -0.271 OA
HETATM    3  N3  UNL     1      17.352   4.739  13.062  1.00  0.00    -0.350 N 
ATOM      4  H3  UNL     1      16.351   4.928  13.112  1.00  0.00     0.163 HD
ENDROOT
BRANCH   1   5
HETATM    5  C4  UNL     1      16.838   2.354  13.766  1.00  0.00     0.263 C 
BRANCH   5   6
HETATM    6  C3  UNL     1      15.738   2.824  14.632  1.00  0.00     0.251 C 
HETATM    7  N1  UNL     1      15.543   2.489  15.963  1.00  0.00    -0.359 N 
HETATM    8  C1  UNL     1      16.443   1.616  16.666  1.00  0.00     0.152 C 
HETATM    9  C2  UNL     1      14.391   2.980  16.711  1.00  0.00     0.152 C 
HETATM   10  O1  UNL     1      14.886   3.613  14.087  1.00  0.00    -0.271 OA
ENDBRANCH   5   6
BRANCH   5  11
HETATM   11  N2  UNL     1      16.289   1.847  12.515  1.00  0.00    -0.398 N 
ATOM     12  H2  UNL     1      15.648   2.397  11.944  1.00  0.00     0.154 HD
BRANCH  11  13
HETATM   13  C5  UNL     1      16.695   0.557  12.144  1.00  0.00     0.077 A 
HETATM   14  C6  UNL     1      16.372   0.194  10.698  1.00  0.00     0.027 A 
HETATM   15  C7  UNL     1      17.785   0.449  11.085  1.00  0.00     0.027 A 
ENDBRANCH  11  13
ENDBRANCH   5  11
ENDBRANCH   1   5
BRANCH   3  16
HETATM   16  C9  UNL     1      18.202   5.824  12.676  1.00  0.00     0.034 C 
HETATM   17  C10 UNL     1      19.158   5.392  11.605  1.00  0.00     0.035 C 
HETATM   18  C11 UNL     1      20.168   6.484  11.301  1.00  0.00    -0.012 C 
HETATM   19  C12 UNL     1      19.401   7.666  10.764  1.00  0.00     0.009 C 
HETATM   20  C16 UNL     1      20.911   6.815  12.553  1.00  0.00     0.009 C 
HETATM   21  C13 UNL     1      18.420   8.104  11.810  1.00  0.00    -0.012 C 
HETATM   22  C14 UNL     1      19.179   8.590  13.014  1.00  0.00     0.009 C 
HETATM   23  C18 UNL     1      17.429   7.012  12.137  1.00  0.00     0.035 C 
HETATM   24  C15 UNL     1      19.951   7.391  13.562  1.00  0.00    -0.012 C 
HETATM   25  C17 UNL     1      18.939   6.334  13.903  1.00  0.00     0.035 C 
ENDBRANCH   3  16
TORSDOF 5
ENDMDL
