MODEL 1
REMARK VINA RESULT: -7.410161462      0.000      0.000
REMARK  5 active torsions:
REMARK  status: ('A' for Active; 'I' for Inactive)
REMARK    1  A    between atoms: N3_9  and  C3_10 
REMARK    2  A    between atoms: C3_10  and  C4_11 
REMARK    3  A    between atoms: C4_11  and  C5_12 
REMARK    4  A    between atoms: N4_18  and  C11_19 
REMARK    5  A    between atoms: C11_19  and  C12_20 
ROOT
HETATM    1  N1  UNL     1      18.090   0.884  10.796  1.00  0.00    -0.387 N 
ATOM      2  H11 UNL     1      18.301   1.639  10.144  1.00  0.00     0.157 HD
ATOM      3  H12 UNL     1      18.374  -0.082  10.638  1.00  0.00     0.157 HD
HETATM    4  C1  UNL     1      17.438   1.166  11.867  1.00  0.00     0.115 C 
HETATM    5  N2  UNL     1      17.142   0.112  12.778  1.00  0.00    -0.297 N 
ATOM      6  H2  UNL     1      17.202  -0.868  12.504  1.00  0.00     0.172 HD
HETATM    7  C2  UNL     1      16.761   0.500  14.083  1.00  0.00     0.324 C 
HETATM    8  O1  UNL     1      16.493  -0.406  14.911  1.00  0.00    -0.247 OA
HETATM    9  N3  UNL     1      16.680   1.867  14.450  1.00  0.00    -0.327 N 
HETATM   10  C8  UNL     1      16.917   2.937  13.526  1.00  0.00     0.131 C 
HETATM   11  C9  UNL     1      18.256   3.617  13.770  1.00  0.00     0.058 C 
HETATM   12  C10 UNL     1      18.387   4.404  12.486  1.00  0.00     0.275 C 
HETATM   13  N4  UNL     1      18.035   3.416  11.479  1.00  0.00     0.102 N 
HETATM   14  C16 UNL     1      17.027   2.563  12.095  1.00  0.00     0.312 C 
ENDROOT
BRANCH  13  15
HETATM   15  C11 UNL     1      17.484   4.069  10.298  1.00  0.00     0.280 C 
BRANCH  15  16
HETATM   16  C12 UNL     1      18.533   4.862   9.606  1.00  0.00     0.040 C 
HETATM   17  C13 UNL     1      19.678   4.019   9.165  1.00  0.00     0.035 C 
HETATM   18  C14 UNL     1      19.847   4.424   7.700  1.00  0.00     0.168 C 
HETATM   19  O2  UNL     1      18.538   4.717   7.281  1.00  0.00    -0.391 OA
HETATM   20  C15 UNL     1      17.924   5.397   8.303  1.00  0.00     0.173 C 
ENDBRANCH  15  16
ENDBRANCH  13  15
BRANCH   9  21
HETATM   21  C3  UNL     1      16.352   2.183  15.812  1.00  0.00     0.128 C 
BRANCH  21  22
HETATM   22  C4  UNL     1      14.915   2.613  16.015  1.00  0.00     0.024 C 
BRANCH  22  23
HETATM   23  C5  UNL     1      14.336   1.709  17.097  1.00  0.00    -0.013 A 
HETATM   24  C6  UNL     1      14.764   1.988  18.515  1.00  0.00     0.005 A 
HETATM   25  C7  UNL     1      15.206   0.736  17.812  1.00  0.00     0.005 A 
ENDBRANCH  22  23
ENDBRANCH  21  22
ENDBRANCH   9  21
TORSDOF 5
ENDMDL
MODEL 2
REMARK VINA RESULT: -7.332778939      1.988      2.263
REMARK  5 active torsions:
REMARK  status: ('A' for Active; 'I' for Inactive)
REMARK    1  A    between atoms: N3_9  and  C3_10 
REMARK    2  A    between atoms: C3_10  and  C4_11 
REMARK    3  A    between atoms: C4_11  and  C5_12 
REMARK    4  A    between atoms: N4_18  and  C11_19 
REMARK    5  A    between atoms: C11_19  and  C12_20 
ROOT
HETATM    1  N1  UNL     1      20.075   1.992  11.380  1.00  0.00    -0.387 N 
ATOM      2  H11 UNL     1      20.550   2.829  11.041  1.00  0.00     0.157 HD
ATOM      3  H12 UNL     1      20.487   1.060  11.327  1.00  0.00     0.157 HD
HETATM    4  C1  UNL     1      18.907   2.119  11.899  1.00  0.00     0.115 C 
HETATM    5  N2  UNL     1      18.244   0.951  12.372  1.00  0.00    -0.297 N 
ATOM      6  H2  UNL     1      18.540   0.015  12.095  1.00  0.00     0.172 HD
HETATM    7  C2  UNL     1      17.154   1.159  13.248  1.00  0.00     0.324 C 
HETATM    8  O1  UNL     1      16.548   0.148  13.683  1.00  0.00    -0.247 OA
HETATM    9  N3  UNL     1      16.752   2.465  13.624  1.00  0.00    -0.327 N 
HETATM   10  C8  UNL     1      17.374   3.650  13.109  1.00  0.00     0.131 C 
HETATM   11  C9  UNL     1      18.265   4.323  14.142  1.00  0.00     0.058 C 
HETATM   12  C10 UNL     1      19.030   5.271  13.247  1.00  0.00     0.275 C 
HETATM   13  N4  UNL     1      19.408   4.413  12.135  1.00  0.00     0.102 N 
HETATM   14  C16 UNL     1      18.312   3.465  11.976  1.00  0.00     0.312 C 
ENDROOT
BRANCH  13  15
HETATM   15  C11 UNL     1      19.570   5.199  10.919  1.00  0.00     0.280 C 
BRANCH  15  16
HETATM   16  C12 UNL     1      21.010   5.454  10.653  1.00  0.00     0.040 C 
HETATM   17  C13 UNL     1      21.882   4.966  11.756  1.00  0.00     0.035 C 
HETATM   18  C14 UNL     1      22.939   4.150  11.011  1.00  0.00     0.168 C 
HETATM   19  O2  UNL     1      22.239   3.619   9.914  1.00  0.00    -0.391 OA
HETATM   20  C15 UNL     1      21.413   4.606   9.439  1.00  0.00     0.173 C 
ENDBRANCH  15  16
ENDBRANCH  13  15
BRANCH   9  21
HETATM   21  C3  UNL     1      15.679   2.597  14.570  1.00  0.00     0.128 C 
BRANCH  21  22
HETATM   22  C4  UNL     1      16.096   2.372  16.008  1.00  0.00     0.024 C 
BRANCH  22  23
HETATM   23  C5  UNL     1      14.816   2.327  16.833  1.00  0.00    -0.013 A 
HETATM   24  C6  UNL     1      14.914   1.712  18.206  1.00  0.00     0.005 A 
HETATM   25  C7  UNL     1      14.142   1.029  17.111  1.00  0.00     0.005 A 
ENDBRANCH  22  23
ENDBRANCH  21  22
ENDBRANCH   9  21
TORSDOF 5
ENDMDL
MODEL 3
REMARK VINA RESULT: -7.073768348      1.958      2.513
REMARK  5 active torsions:
REMARK  status: ('A' for Active; 'I' for Inactive)
REMARK    1  A    between atoms: N3_9  and  C3_10 
REMARK    2  A    between atoms: C3_10  and  C4_11 
REMARK    3  A    between atoms: C4_11  and  C5_12 
REMARK    4  A    between atoms: N4_18  and  C11_19 
REMARK    5  A    between atoms: C11_19  and  C12_20 
ROOT
HETATM    1  N1  UNL     1      18.640   2.989  10.483  1.00  0.00    -0.387 N 
ATOM      2  H11 UNL     1      18.850   3.972  10.309  1.00  0.00     0.157 HD
ATOM      3  H12 UNL     1      19.030   2.231   9.923  1.00  0.00     0.157 HD
HETATM    4  C1  UNL     1      17.850   2.695  11.452  1.00  0.00     0.115 C 
HETATM    5  N2  UNL     1      17.557   1.322  11.695  1.00  0.00    -0.297 N 
ATOM      6  H2  UNL     1      17.739   0.602  10.997  1.00  0.00     0.172 HD
HETATM    7  C2  UNL     1      16.999   1.014  12.957  1.00  0.00     0.324 C 
HETATM    8  O1  UNL     1      16.728  -0.189  13.202  1.00  0.00    -0.247 OA
HETATM    9  N3  UNL     1      16.749   2.026  13.918  1.00  0.00    -0.327 N 
HETATM   10  C8  UNL     1      16.985   3.416  13.664  1.00  0.00     0.131 C 
HETATM   11  C9  UNL     1      18.219   3.929  14.392  1.00  0.00     0.058 C 
HETATM   12  C10 UNL     1      18.416   5.245  13.675  1.00  0.00     0.275 C 
HETATM   13  N4  UNL     1      18.272   4.864  12.279  1.00  0.00     0.102 N 
HETATM   14  C16 UNL     1      17.287   3.790  12.261  1.00  0.00     0.312 C 
ENDROOT
BRANCH  13  15
HETATM   15  C11 UNL     1      17.796   5.994  11.491  1.00  0.00     0.280 C 
BRANCH  15  16
HETATM   16  C12 UNL     1      16.365   5.812  11.134  1.00  0.00     0.040 C 
HETATM   17  C13 UNL     1      15.488   6.822  11.788  1.00  0.00     0.035 C 
HETATM   18  C14 UNL     1      14.657   7.350  10.619  1.00  0.00     0.168 C 
HETATM   19  O2  UNL     1      15.534   7.276   9.524  1.00  0.00    -0.391 OA
HETATM   20  C15 UNL     1      16.224   6.094   9.632  1.00  0.00     0.173 C 
ENDBRANCH  15  16
ENDBRANCH  13  15
BRANCH   9  21
HETATM   21  C3  UNL     1      16.244   1.628  15.203  1.00  0.00     0.128 C 
BRANCH  21  22
HETATM   22  C4  UNL     1      15.209   2.571  15.775  1.00  0.00     0.024 C 
BRANCH  22  23
HETATM   23  C5  UNL     1      14.404   1.773  16.794  1.00  0.00    -0.013 A 
HETATM   24  C6  UNL     1      14.827   1.891  18.236  1.00  0.00     0.005 A 
HETATM   25  C7  UNL     1      15.011   0.602  17.484  1.00  0.00     0.005 A 
ENDBRANCH  22  23
ENDBRANCH  21  22
ENDBRANCH   9  21
TORSDOF 5
ENDMDL
MODEL 4
REMARK VINA RESULT: -7.064630027      1.202      1.465
REMARK  5 active torsions:
REMARK  status: ('A' for Active; 'I' for Inactive)
REMARK    1  A    between atoms: N3_9  and  C3_10 
REMARK    2  A    between atoms: C3_10  and  C4_11 
REMARK    3  A    between atoms: C4_11  and  C5_12 
REMARK    4  A    between atoms: N4_18  and  C11_19 
REMARK    5  A    between atoms: C11_19  and  C12_20 
ROOT
HETATM    1  N1  UNL     1      18.043   0.838  10.747  1.00  0.00    -0.387 N 
ATOM      2  H11 UNL     1      18.263   1.582  10.084  1.00  0.00     0.157 HD
ATOM      3  H12 UNL     1      18.300  -0.137  10.593  1.00  0.00     0.157 HD
HETATM    4  C1  UNL     1      17.416   1.147  11.826  1.00  0.00     0.115 C 
HETATM    5  N2  UNL     1      17.109   0.109  12.751  1.00  0.00    -0.297 N 
ATOM      6  H2  UNL     1      17.140  -0.875  12.486  1.00  0.00     0.172 HD
HETATM    7  C2  UNL     1      16.760   0.518  14.059  1.00  0.00     0.324 C 
HETATM    8  O1  UNL     1      16.483  -0.374  14.900  1.00  0.00    -0.247 OA
HETATM    9  N3  UNL     1      16.720   1.890  14.414  1.00  0.00    -0.327 N 
HETATM   10  C8  UNL     1      16.969   2.945  13.476  1.00  0.00     0.131 C 
HETATM   11  C9  UNL     1      18.330   3.592  13.692  1.00  0.00     0.058 C 
HETATM   12  C10 UNL     1      18.459   4.364  12.399  1.00  0.00     0.275 C 
HETATM   13  N4  UNL     1      18.065   3.376  11.407  1.00  0.00     0.102 N 
HETATM   14  C16 UNL     1      17.046   2.555  12.048  1.00  0.00     0.312 C 
ENDROOT
BRANCH  13  15
HETATM   15  C11 UNL     1      17.511   4.033  10.230  1.00  0.00     0.280 C 
BRANCH  15  16
HETATM   16  C12 UNL     1      17.534   5.510  10.400  1.00  0.00     0.040 C 
HETATM   17  C13 UNL     1      18.226   6.196   9.273  1.00  0.00     0.035 C 
HETATM   18  C14 UNL     1      17.225   7.281   8.877  1.00  0.00     0.168 C 
HETATM   19  O2  UNL     1      15.975   6.694   9.138  1.00  0.00    -0.391 OA
HETATM   20  C15 UNL     1      16.085   6.007  10.321  1.00  0.00     0.173 C 
ENDBRANCH  15  16
ENDBRANCH  13  15
BRANCH   9  21
HETATM   21  C3  UNL     1      16.423   2.226  15.779  1.00  0.00     0.128 C 
BRANCH  21  22
HETATM   22  C4  UNL     1      15.007   2.713  15.998  1.00  0.00     0.024 C 
BRANCH  22  23
HETATM   23  C5  UNL     1      14.377   1.780  17.025  1.00  0.00    -0.013 A 
HETATM   24  C6  UNL     1      14.748   2.009  18.468  1.00  0.00     0.005 A 
HETATM   25  C7  UNL     1      15.209   0.776  17.743  1.00  0.00     0.005 A 
ENDBRANCH  22  23
ENDBRANCH  21  22
ENDBRANCH   9  21
TORSDOF 5
ENDMDL
MODEL 5
REMARK VINA RESULT: -7.041190594      1.998      2.376
REMARK  5 active torsions:
REMARK  status: ('A' for Active; 'I' for Inactive)
REMARK    1  A    between atoms: N3_9  and  C3_10 
REMARK    2  A    between atoms: C3_10  and  C4_11 
REMARK    3  A    between atoms: C4_11  and  C5_12 
REMARK    4  A    between atoms: N4_18  and  C11_19 
REMARK    5  A    between atoms: C11_19  and  C12_20 
ROOT
HETATM    1  N1  UNL     1      18.328   2.146  10.821  1.00  0.00    -0.387 N 
ATOM      2  H11 UNL     1      18.573   3.028  10.371  1.00  0.00     0.157 HD
ATOM      3  H12 UNL     1      18.611   1.238  10.452  1.00  0.00     0.157 HD
HETATM    4  C1  UNL     1      17.634   2.183  11.901  1.00  0.00     0.115 C 
HETATM    5  N2  UNL     1      17.291   0.951  12.529  1.00  0.00    -0.297 N 
ATOM      6  H2  UNL     1      17.354   0.061  12.036  1.00  0.00     0.172 HD
HETATM    7  C2  UNL     1      16.858   1.031  13.873  1.00  0.00     0.324 C 
HETATM    8  O1  UNL     1      16.547  -0.038  14.455  1.00  0.00    -0.247 OA
HETATM    9  N3  UNL     1      16.772   2.277  14.544  1.00  0.00    -0.327 N 
HETATM   10  C8  UNL     1      17.058   3.528  13.905  1.00  0.00     0.131 C 
HETATM   11  C9  UNL     1      18.391   4.107  14.354  1.00  0.00     0.058 C 
HETATM   12  C10 UNL     1      18.583   5.169  13.296  1.00  0.00     0.275 C 
HETATM   13  N4  UNL     1      18.266   4.450  12.072  1.00  0.00     0.102 N 
HETATM   14  C16 UNL     1      17.225   3.495  12.433  1.00  0.00     0.312 C 
ENDROOT
BRANCH  13  15
HETATM   15  C11 UNL     1      17.771   5.370  11.056  1.00  0.00     0.280 C 
BRANCH  15  16
HETATM   16  C12 UNL     1      17.352   6.653  11.677  1.00  0.00     0.040 C 
HETATM   17  C13 UNL     1      17.930   7.834  10.977  1.00  0.00     0.035 C 
HETATM   18  C14 UNL     1      16.706   8.721  10.751  1.00  0.00     0.168 C 
HETATM   19  O2  UNL     1      15.657   7.804  10.568  1.00  0.00    -0.391 OA
HETATM   20  C15 UNL     1      15.837   6.790  11.477  1.00  0.00     0.173 C 
ENDBRANCH  15  16
ENDBRANCH  13  15
BRANCH   9  21
HETATM   21  C3  UNL     1      16.390   2.273  15.929  1.00  0.00     0.128 C 
BRANCH  21  22
HETATM   22  C4  UNL     1      14.958   2.700  16.172  1.00  0.00     0.024 C 
BRANCH  22  23
HETATM   23  C5  UNL     1      14.357   1.686  17.138  1.00  0.00    -0.013 A 
HETATM   24  C6  UNL     1      14.838   1.740  18.565  1.00  0.00     0.005 A 
HETATM   25  C7  UNL     1      15.187   0.576  17.681  1.00  0.00     0.005 A 
ENDBRANCH  22  23
ENDBRANCH  21  22
ENDBRANCH   9  21
TORSDOF 5
ENDMDL
