MODEL 1
REMARK VINA RESULT: -7.302626038      0.000      0.000
REMARK  5 active torsions:
REMARK  status: ('A' for Active; 'I' for Inactive)
REMARK    1  A    between atoms: C2_2  and  N1_3 
REMARK    2  A    between atoms: C2_2  and  C14_18 
REMARK       I    between atoms: N1_3  and  C3_5 
REMARK    3  A    between atoms: C3_5  and  C4_7 
REMARK    4  A    between atoms: N2_10  and  C7_11 
REMARK       I    between atoms: C14_18  and  N3_20 
REMARK    5  A    between atoms: N3_20  and  C15_22 
ROOT
HETATM    1  N1  UNL     1      16.821   2.515  13.496  1.00  0.00    -0.348 N 
ATOM      2  H1  UNL     1      15.858   2.835  13.605  1.00  0.00     0.163 HD
HETATM    3  C3  UNL     1      18.032   3.462  13.192  1.00  0.00     0.224 C 
HETATM    4  O1  UNL     1      19.001   2.900  13.077  1.00  0.00    -0.273 OA
ENDROOT
BRANCH   3   5
HETATM    5  C4  UNL     1      17.432   4.840  13.165  1.00  0.00     0.107 C 
HETATM    6  C5  UNL     1      17.131   5.078  14.664  1.00  0.00     0.046 C 
HETATM    7  C6  UNL     1      17.485   6.502  14.890  1.00  0.00     0.273 C 
HETATM    8  N2  UNL     1      18.415   6.851  13.877  1.00  0.00     0.094 N 
HETATM    9  C13 UNL     1      18.482   5.854  12.857  1.00  0.00     0.287 C 
BRANCH   8  10
HETATM   10  C7  UNL     1      19.709   7.268  14.383  1.00  0.00     0.226 C 
HETATM   11  C8  UNL     1      20.595   7.577  13.189  1.00  0.00     0.036 C 
HETATM   12  C9  UNL     1      20.090   8.894  12.670  1.00  0.00     0.002 C 
HETATM   13  C10 UNL     1      19.097   9.410  13.711  1.00  0.00     0.006 C 
HETATM   14  C11 UNL     1      19.564   8.655  14.963  1.00  0.00     0.015 C 
HETATM   15  C12 UNL     1      20.843   9.203  15.509  1.00  0.00     0.012 C 
ENDBRANCH   8  10
ENDBRANCH   3   5
BRANCH   1  16
HETATM   16  C2  UNL     1      17.227   1.148  13.603  1.00  0.00     0.172 C 
HETATM   17  C1  UNL     1      16.724   0.401  12.373  1.00  0.00     0.042 C 
BRANCH  16  18
HETATM   18  C14 UNL     1      16.608   0.636  14.845  1.00  0.00     0.240 C 
HETATM   19  O2  UNL     1      16.597  -0.642  14.993  1.00  0.00    -0.271 OA
HETATM   20  N3  UNL     1      16.041   1.429  15.827  1.00  0.00    -0.355 N 
ATOM     21  H3  UNL     1      16.022   2.445  15.746  1.00  0.00     0.162 HD
BRANCH  20  22
HETATM   22  C15 UNL     1      15.462   0.730  17.006  1.00  0.00     0.084 A 
HETATM   23  C16 UNL     1      13.967   1.098  17.131  1.00  0.00     0.027 A 
HETATM   24  C17 UNL     1      15.017   1.566  18.119  1.00  0.00     0.027 A 
ENDBRANCH  20  22
ENDBRANCH  16  18
ENDBRANCH   1  16
TORSDOF 5
ENDMDL
MODEL 2
REMARK VINA RESULT: -7.211355146      2.288      3.233
REMARK  5 active torsions:
REMARK  status: ('A' for Active; 'I' for Inactive)
REMARK    1  A    between atoms: C2_2  and  N1_3 
REMARK    2  A    between atoms: C2_2  and  C14_18 
REMARK       I    between atoms: N1_3  and  C3_5 
REMARK    3  A    between atoms: C3_5  and  C4_7 
REMARK    4  A    between atoms: N2_10  and  C7_11 
REMARK       I    between atoms: C14_18  and  N3_20 
REMARK    5  A    between atoms: N3_20  and  C15_22 
ROOT
HETATM    1  N1  UNL     1      17.265   3.377  14.051  1.00  0.00    -0.348 N 
ATOM      2  H1  UNL     1      16.333   3.691  13.784  1.00  0.00     0.163 HD
HETATM    3  C3  UNL     1      18.446   4.341  14.416  1.00  0.00     0.224 C 
HETATM    4  O1  UNL     1      19.399   3.787  14.650  1.00  0.00    -0.273 OA
ENDROOT
BRANCH   3   5
HETATM    5  C4  UNL     1      17.849   5.717  14.320  1.00  0.00     0.107 C 
HETATM    6  C5  UNL     1      19.062   6.550  13.845  1.00  0.00     0.046 C 
HETATM    7  C6  UNL     1      18.492   7.502  12.857  1.00  0.00     0.273 C 
HETATM    8  N2  UNL     1      17.295   6.912  12.375  1.00  0.00     0.094 N 
HETATM    9  C13 UNL     1      16.904   5.790  13.167  1.00  0.00     0.287 C 
BRANCH   8  10
HETATM   10  C7  UNL     1      17.297   6.656  10.947  1.00  0.00     0.226 C 
HETATM   11  C8  UNL     1      15.940   6.081  10.578  1.00  0.00     0.036 C 
HETATM   12  C9  UNL     1      15.003   7.255  10.624  1.00  0.00     0.002 C 
HETATM   13  C10 UNL     1      15.881   8.496  10.784  1.00  0.00     0.006 C 
HETATM   14  C11 UNL     1      17.218   7.984  10.231  1.00  0.00     0.015 C 
HETATM   15  C12 UNL     1      17.200   7.851   8.743  1.00  0.00     0.012 C 
ENDBRANCH   8  10
ENDBRANCH   3   5
BRANCH   1  16
HETATM   16  C2  UNL     1      17.653   2.003  14.139  1.00  0.00     0.172 C 
HETATM   17  C1  UNL     1      17.031   1.254  12.965  1.00  0.00     0.042 C 
BRANCH  16  18
HETATM   18  C14 UNL     1      17.134   1.516  15.435  1.00  0.00     0.240 C 
HETATM   19  O2  UNL     1      18.011   1.227  16.331  1.00  0.00    -0.271 OA
HETATM   20  N3  UNL     1      15.793   1.342  15.730  1.00  0.00    -0.355 N 
ATOM     21  H3  UNL     1      15.066   1.550  15.047  1.00  0.00     0.162 HD
BRANCH  20  22
HETATM   22  C15 UNL     1      15.463   0.837  17.091  1.00  0.00     0.084 A 
HETATM   23  C16 UNL     1      13.935   0.908  17.302  1.00  0.00     0.027 A 
HETATM   24  C17 UNL     1      14.912   1.800  18.040  1.00  0.00     0.027 A 
ENDBRANCH  20  22
ENDBRANCH  16  18
ENDBRANCH   1  16
TORSDOF 5
ENDMDL
MODEL 3
REMARK VINA RESULT: -7.158474475      2.374      4.213
REMARK  5 active torsions:
REMARK  status: ('A' for Active; 'I' for Inactive)
REMARK    1  A    between atoms: C2_2  and  N1_3 
REMARK    2  A    between atoms: C2_2  and  C14_18 
REMARK       I    between atoms: N1_3  and  C3_5 
REMARK    3  A    between atoms: C3_5  and  C4_7 
REMARK    4  A    between atoms: N2_10  and  C7_11 
REMARK       I    between atoms: C14_18  and  N3_20 
REMARK    5  A    between atoms: N3_20  and  C15_22 
ROOT
HETATM    1  N1  UNL     1      16.932   3.059  14.487  1.00  0.00    -0.348 N 
ATOM      2  H1  UNL     1      17.929   3.210  14.337  1.00  0.00     0.163 HD
HETATM    3  C3  UNL     1      15.825   4.122  14.172  1.00  0.00     0.224 C 
HETATM    4  O1  UNL     1      14.792   3.762  14.443  1.00  0.00    -0.273 OA
ENDROOT
BRANCH   3   5
HETATM    5  C4  UNL     1      16.578   5.287  13.593  1.00  0.00     0.107 C 
HETATM    6  C5  UNL     1      17.723   5.457  14.618  1.00  0.00     0.046 C 
HETATM    7  C6  UNL     1      18.916   5.773  13.791  1.00  0.00     0.273 C 
HETATM    8  N2  UNL     1      18.655   5.254  12.497  1.00  0.00     0.094 N 
HETATM    9  C13 UNL     1      17.287   4.874  12.346  1.00  0.00     0.287 C 
BRANCH   8  10
HETATM   10  C7  UNL     1      19.601   4.242  12.065  1.00  0.00     0.226 C 
HETATM   11  C8  UNL     1      19.172   3.765  10.688  1.00  0.00     0.036 C 
HETATM   12  C9  UNL     1      19.556   4.883   9.760  1.00  0.00     0.002 C 
HETATM   13  C10 UNL     1      20.397   5.854  10.587  1.00  0.00     0.006 C 
HETATM   14  C11 UNL     1      20.897   4.931  11.707  1.00  0.00     0.015 C 
HETATM   15  C12 UNL     1      21.954   3.988  11.232  1.00  0.00     0.012 C 
ENDBRANCH   8  10
ENDBRANCH   3   5
BRANCH   1  16
HETATM   16  C2  UNL     1      16.376   1.850  15.011  1.00  0.00     0.172 C 
HETATM   17  C1  UNL     1      16.991   1.594  16.383  1.00  0.00     0.042 C 
BRANCH  16  18
HETATM   18  C14 UNL     1      16.732   0.787  14.046  1.00  0.00     0.240 C 
HETATM   19  O2  UNL     1      16.491  -0.422  14.412  1.00  0.00    -0.271 OA
HETATM   20  N3  UNL     1      17.308   1.010  12.807  1.00  0.00    -0.355 N 
ATOM     21  H3  UNL     1      17.523   1.952  12.481  1.00  0.00     0.162 HD
BRANCH  20  22
HETATM   22  C15 UNL     1      17.599  -0.188  11.974  1.00  0.00     0.084 A 
HETATM   23  C16 UNL     1      18.918   0.036  11.205  1.00  0.00     0.027 A 
HETATM   24  C17 UNL     1      17.565  -0.012  10.524  1.00  0.00     0.027 A 
ENDBRANCH  20  22
ENDBRANCH  16  18
ENDBRANCH   1  16
TORSDOF 5
ENDMDL
MODEL 4
REMARK VINA RESULT: -7.129992353      3.081      6.111
REMARK  5 active torsions:
REMARK  status: ('A' for Active; 'I' for Inactive)
REMARK    1  A    between atoms: C2_2  and  N1_3 
REMARK    2  A    between atoms: C2_2  and  C14_18 
REMARK       I    between atoms: N1_3  and  C3_5 
REMARK    3  A    between atoms: C3_5  and  C4_7 
REMARK    4  A    between atoms: N2_10  and  C7_11 
REMARK       I    between atoms: C14_18  and  N3_20 
REMARK    5  A    between atoms: N3_20  and  C15_22 
ROOT
HETATM    1  N1  UNL     1      17.427   4.164  12.315  1.00  0.00    -0.348 N 
ATOM      2  H1  UNL     1      16.532   4.588  12.557  1.00  0.00     0.163 HD
HETATM    3  C3  UNL     1      18.559   3.849  13.352  1.00  0.00     0.224 C 
HETATM    4  O1  UNL     1      19.478   3.412  12.868  1.00  0.00    -0.273 OA
ENDROOT
BRANCH   3   5
HETATM    5  C4  UNL     1      17.979   4.260  14.677  1.00  0.00     0.107 C 
HETATM    6  C5  UNL     1      16.664   4.947  14.240  1.00  0.00     0.046 C 
HETATM    7  C6  UNL     1      15.668   4.518  15.254  1.00  0.00     0.273 C 
HETATM    8  N2  UNL     1      16.154   3.305  15.806  1.00  0.00     0.094 N 
HETATM    9  C13 UNL     1      17.510   3.060  15.430  1.00  0.00     0.287 C 
BRANCH   8  10
HETATM   10  C7  UNL     1      15.272   2.171  15.609  1.00  0.00     0.226 C 
HETATM   11  C8  UNL     1      16.037   0.916  15.994  1.00  0.00     0.036 C 
HETATM   12  C9  UNL     1      16.082   0.943  17.496  1.00  0.00     0.002 C 
HETATM   13  C10 UNL     1      15.149   2.073  17.930  1.00  0.00     0.006 C 
HETATM   14  C11 UNL     1      14.233   2.186  16.705  1.00  0.00     0.015 C 
HETATM   15  C12 UNL     1      13.265   1.050  16.616  1.00  0.00     0.012 C 
ENDBRANCH   8  10
ENDBRANCH   3   5
BRANCH   1  16
HETATM   16  C2  UNL     1      17.801   3.785  10.988  1.00  0.00     0.172 C 
HETATM   17  C1  UNL     1      17.140   4.751  10.010  1.00  0.00     0.042 C 
BRANCH  16  18
HETATM   18  C14 UNL     1      17.309   2.402  10.806  1.00  0.00     0.240 C 
HETATM   19  O2  UNL     1      16.082   2.274  10.443  1.00  0.00    -0.271 OA
HETATM   20  N3  UNL     1      18.069   1.264  11.012  1.00  0.00    -0.355 N 
ATOM     21  H3  UNL     1      19.043   1.319  11.308  1.00  0.00     0.162 HD
BRANCH  20  22
HETATM   22  C15 UNL     1      17.398  -0.045  10.782  1.00  0.00     0.084 A 
HETATM   23  C16 UNL     1      17.011  -0.664  12.143  1.00  0.00     0.027 A 
HETATM   24  C17 UNL     1      18.095  -1.239  11.254  1.00  0.00     0.027 A 
ENDBRANCH  20  22
ENDBRANCH  16  18
ENDBRANCH   1  16
TORSDOF 5
ENDMDL
MODEL 5
REMARK VINA RESULT: -6.914707858      1.556      3.426
REMARK  5 active torsions:
REMARK  status: ('A' for Active; 'I' for Inactive)
REMARK    1  A    between atoms: C2_2  and  N1_3 
REMARK    2  A    between atoms: C2_2  and  C14_18 
REMARK       I    between atoms: N1_3  and  C3_5 
REMARK    3  A    between atoms: C3_5  and  C4_7 
REMARK    4  A    between atoms: N2_10  and  C7_11 
REMARK       I    between atoms: C14_18  and  N3_20 
REMARK    5  A    between atoms: N3_20  and  C15_22 
ROOT
HETATM    1  N1  UNL     1      17.993   2.642  14.983  1.00  0.00    -0.348 N 
ATOM      2  H1  UNL     1      18.903   2.252  15.225  1.00  0.00     0.163 HD
HETATM    3  C3  UNL     1      17.785   4.061  14.351  1.00  0.00     0.224 C 
HETATM    4  O1  UNL     1      16.698   4.308  14.193  1.00  0.00    -0.273 OA
ENDROOT
BRANCH   3   5
HETATM    5  C4  UNL     1      19.178   4.600  14.175  1.00  0.00     0.107 C 
HETATM    6  C5  UNL     1      19.215   4.874  12.653  1.00  0.00     0.046 C 
HETATM    7  C6  UNL     1      19.957   6.154  12.527  1.00  0.00     0.273 C 
HETATM    8  N2  UNL     1      19.819   6.823  13.770  1.00  0.00     0.094 N 
HETATM    9  C13 UNL     1      19.284   5.962  14.776  1.00  0.00     0.287 C 
BRANCH   8  10
HETATM   10  C7  UNL     1      19.155   8.109  13.678  1.00  0.00     0.226 C 
HETATM   11  C8  UNL     1      19.160   8.733  15.063  1.00  0.00     0.036 C 
HETATM   12  C9  UNL     1      20.576   9.193  15.269  1.00  0.00     0.002 C 
HETATM   13  C10 UNL     1      21.276   9.035  13.919  1.00  0.00     0.006 C 
HETATM   14  C11 UNL     1      20.078   9.065  12.961  1.00  0.00     0.015 C 
HETATM   15  C12 UNL     1      19.506  10.439  12.814  1.00  0.00     0.012 C 
ENDBRANCH   8  10
ENDBRANCH   3   5
BRANCH   1  16
HETATM   16  C2  UNL     1      16.752   1.959  15.178  1.00  0.00     0.172 C 
HETATM   17  C1  UNL     1      16.700   1.461  16.618  1.00  0.00     0.042 C 
BRANCH  16  18
HETATM   18  C14 UNL     1      16.747   0.839  14.212  1.00  0.00     0.240 C 
HETATM   19  O2  UNL     1      16.445  -0.320  14.681  1.00  0.00    -0.271 OA
HETATM   20  N3  UNL     1      17.054   0.958  12.868  1.00  0.00    -0.355 N 
ATOM     21  H3  UNL     1      17.307   1.856  12.456  1.00  0.00     0.162 HD
BRANCH  20  22
HETATM   22  C15 UNL     1      17.000  -0.285  12.052  1.00  0.00     0.084 A 
HETATM   23  C16 UNL     1      17.957  -0.145  10.848  1.00  0.00     0.027 A 
HETATM   24  C17 UNL     1      16.449  -0.169  10.703  1.00  0.00     0.027 A 
ENDBRANCH  20  22
ENDBRANCH  16  18
ENDBRANCH   1  16
TORSDOF 5
ENDMDL
