MODEL 1
REMARK VINA RESULT: -7.279445563      0.000      0.000
REMARK  7 active torsions:
REMARK  status: ('A' for Active; 'I' for Inactive)
REMARK    1  A    between atoms: C1_4  and  C2_5 
REMARK    2  A    between atoms: C1_4  and  N4_22 
REMARK    3  A    between atoms: C2_5  and  C3_6 
REMARK    4  A    between atoms: C2_5  and  C9_12 
REMARK    5  A    between atoms: C3_6  and  C4_7 
REMARK    6  A    between atoms: C9_12  and  N2_13 
REMARK    7  A    between atoms: C12_16  and  N3_17 
ROOT
HETATM    1  C2  UNL     1      16.812   3.096  14.000  1.00  0.00     0.081 C 
ENDROOT
BRANCH   1   2
HETATM    2  C1  UNL     1      17.993   4.056  14.104  1.00  0.00     0.078 C 
HETATM    3  N1  UNL     1      19.036   3.740  14.771  1.00  0.00    -0.389 N 
ATOM      4  H12 UNL     1      19.059   2.831  15.231  1.00  0.00     0.157 HD
ATOM      5  H11 UNL     1      19.826   4.381  14.839  1.00  0.00     0.157 HD
BRANCH   2   6
HETATM    6  N4  UNL     1      17.962   5.313  13.467  1.00  0.00    -0.371 N 
HETATM    7  C14 UNL     1      16.889   5.807  12.638  1.00  0.00     0.124 C 
HETATM    8  C15 UNL     1      17.423   6.996  11.887  1.00  0.00     0.021 C 
HETATM    9  C16 UNL     1      18.570   7.475  12.730  1.00  0.00     0.021 C 
HETATM   10  C17 UNL     1      19.021   6.293  13.559  1.00  0.00     0.124 C 
ENDBRANCH   2   6
ENDBRANCH   1   2
BRANCH   1  11
HETATM   11  C3  UNL     1      16.018   3.339  15.220  1.00  0.00     0.018 C 
BRANCH  11  12
HETATM   12  C4  UNL     1      15.382   2.295  15.972  1.00  0.00    -0.014 C 
HETATM   13  C5  UNL     1      14.158   2.510  16.770  1.00  0.00     0.005 C 
HETATM   14  C6  UNL     1      13.846   1.019  17.111  1.00  0.00     0.000 C 
HETATM   15  C7  UNL     1      15.237   0.455  17.407  1.00  0.00     0.000 C 
HETATM   16  C8  UNL     1      16.236   1.546  16.995  1.00  0.00     0.005 C 
ENDBRANCH  11  12
ENDBRANCH   1  11
BRANCH   1  17
HETATM   17  C9  UNL     1      17.383   1.692  13.903  1.00  0.00     0.284 C 
BRANCH  17  18
HETATM   18  N2  UNL     1      17.106   1.121  12.576  1.00  0.00     0.091 N 
HETATM   19  C10 UNL     1      18.366   1.276  11.832  1.00  0.00     0.274 C 
HETATM   20  C11 UNL     1      18.297   0.250  10.725  1.00  0.00     0.064 C 
HETATM   21  C12 UNL     1      17.432  -0.844  11.299  1.00  0.00     0.213 C 
HETATM   22  C13 UNL     1      17.030  -0.326  12.663  1.00  0.00     0.305 C 
BRANCH  21  23
HETATM   23  N3  UNL     1      18.160  -2.081  11.409  1.00  0.00    -0.073 N 
ATOM     24  H33 UNL     1      18.239  -2.550  10.507  1.00  0.00     0.274 HD
ATOM     25  H32 UNL     1      19.150  -1.918  11.589  1.00  0.00     0.274 HD
ATOM     26  H31 UNL     1      17.747  -2.691  12.114  1.00  0.00     0.274 HD
ENDBRANCH  21  23
ENDBRANCH  17  18
ENDBRANCH   1  17
TORSDOF 7
ENDMDL
MODEL 2
REMARK VINA RESULT: -7.268558162      1.564      5.226
REMARK  7 active torsions:
REMARK  status: ('A' for Active; 'I' for Inactive)
REMARK    1  A    between atoms: C1_4  and  C2_5 
REMARK    2  A    between atoms: C1_4  and  N4_22 
REMARK    3  A    between atoms: C2_5  and  C3_6 
REMARK    4  A    between atoms: C2_5  and  C9_12 
REMARK    5  A    between atoms: C3_6  and  C4_7 
REMARK    6  A    between atoms: C9_12  and  N2_13 
REMARK    7  A    between atoms: C12_16  and  N3_17 
ROOT
HETATM    1  C2  UNL     1      17.283   2.910  14.358  1.00  0.00     0.081 C 
ENDROOT
BRANCH   1   2
HETATM    2  C1  UNL     1      15.999   3.208  15.125  1.00  0.00     0.078 C 
HETATM    3  N1  UNL     1      15.312   4.256  14.869  1.00  0.00    -0.389 N 
ATOM      4  H12 UNL     1      15.644   4.886  14.140  1.00  0.00     0.157 HD
ATOM      5  H11 UNL     1      14.453   4.455  15.381  1.00  0.00     0.157 HD
BRANCH   2   6
HETATM    6  N4  UNL     1      15.539   2.337  16.133  1.00  0.00    -0.371 N 
HETATM    7  C14 UNL     1      14.532   2.652  17.117  1.00  0.00     0.124 C 
HETATM    8  C15 UNL     1      14.619   1.601  18.191  1.00  0.00     0.021 C 
HETATM    9  C16 UNL     1      15.265   0.431  17.503  1.00  0.00     0.021 C 
HETATM   10  C17 UNL     1      16.026   0.989  16.322  1.00  0.00     0.124 C 
ENDBRANCH   2   6
ENDBRANCH   1   2
BRANCH   1  11
HETATM   11  C3  UNL     1      18.220   3.975  14.759  1.00  0.00     0.018 C 
BRANCH  11  12
HETATM   12  C4  UNL     1      18.567   5.085  13.916  1.00  0.00    -0.014 C 
HETATM   13  C5  UNL     1      19.909   5.255  13.323  1.00  0.00     0.005 C 
HETATM   14  C6  UNL     1      19.582   6.439  12.361  1.00  0.00     0.000 C 
HETATM   15  C7  UNL     1      18.668   7.314  13.221  1.00  0.00     0.000 C 
HETATM   16  C8  UNL     1      18.345   6.489  14.475  1.00  0.00     0.005 C 
ENDBRANCH  11  12
ENDBRANCH   1  11
BRANCH   1  17
HETATM   17  C9  UNL     1      16.933   2.917  12.879  1.00  0.00     0.284 C 
BRANCH  17  18
HETATM   18  N2  UNL     1      16.326   1.634  12.494  1.00  0.00     0.091 N 
HETATM   19  C10 UNL     1      16.363   1.631  11.023  1.00  0.00     0.274 C 
HETATM   20  C11 UNL     1      16.274   0.174  10.632  1.00  0.00     0.064 C 
HETATM   21  C12 UNL     1      16.900  -0.553  11.796  1.00  0.00     0.213 C 
HETATM   22  C13 UNL     1      17.241   0.544  12.781  1.00  0.00     0.305 C 
BRANCH  21  23
HETATM   23  N3  UNL     1      18.081  -1.269  11.390  1.00  0.00    -0.073 N 
ATOM     24  H33 UNL     1      17.926  -1.784  10.523  1.00  0.00     0.274 HD
ATOM     25  H32 UNL     1      18.811  -0.634  11.067  1.00  0.00     0.274 HD
ATOM     26  H31 UNL     1      18.417  -1.880  12.134  1.00  0.00     0.274 HD
ENDBRANCH  21  23
ENDBRANCH  17  18
ENDBRANCH   1  17
TORSDOF 7
ENDMDL
MODEL 3
REMARK VINA RESULT: -7.261205479      1.383      1.903
REMARK  7 active torsions:
REMARK  status: ('A' for Active; 'I' for Inactive)
REMARK    1  A    between atoms: C1_4  and  C2_5 
REMARK    2  A    between atoms: C1_4  and  N4_22 
REMARK    3  A    between atoms: C2_5  and  C3_6 
REMARK    4  A    between atoms: C2_5  and  C9_12 
REMARK    5  A    between atoms: C3_6  and  C4_7 
REMARK    6  A    between atoms: C9_12  and  N2_13 
REMARK    7  A    between atoms: C12_16  and  N3_17 
ROOT
HETATM    1  C2  UNL     1      17.549   3.644  14.229  1.00  0.00     0.081 C 
ENDROOT
BRANCH   1   2
HETATM    2  C1  UNL     1      18.892   4.302  14.531  1.00  0.00     0.078 C 
HETATM    3  N1  UNL     1      19.779   3.692  15.220  1.00  0.00    -0.389 N 
ATOM      4  H12 UNL     1      19.566   2.755  15.562  1.00  0.00     0.157 HD
ATOM      5  H11 UNL     1      20.677   4.131  15.421  1.00  0.00     0.157 HD
BRANCH   2   6
HETATM    6  N4  UNL     1      19.186   5.597  14.059  1.00  0.00    -0.371 N 
HETATM    7  C14 UNL     1      20.148   5.916  13.032  1.00  0.00     0.124 C 
HETATM    8  C15 UNL     1      20.399   7.398  13.107  1.00  0.00     0.021 C 
HETATM    9  C16 UNL     1      19.166   7.943  13.771  1.00  0.00     0.021 C 
HETATM   10  C17 UNL     1      18.553   6.801  14.550  1.00  0.00     0.124 C 
ENDBRANCH   2   6
ENDBRANCH   1   2
BRANCH   1  11
HETATM   11  C3  UNL     1      17.464   2.508  15.165  1.00  0.00     0.018 C 
BRANCH  11  12
HETATM   12  C4  UNL     1      16.402   2.343  16.117  1.00  0.00    -0.014 C 
HETATM   13  C5  UNL     1      16.031   1.033  16.689  1.00  0.00     0.005 C 
HETATM   14  C6  UNL     1      15.043   1.536  17.786  1.00  0.00     0.000 C 
HETATM   15  C7  UNL     1      14.282   2.644  17.054  1.00  0.00     0.000 C 
HETATM   16  C8  UNL     1      15.020   2.861  15.725  1.00  0.00     0.005 C 
ENDBRANCH  11  12
ENDBRANCH   1  11
BRANCH   1  17
HETATM   17  C9  UNL     1      17.568   3.241  12.765  1.00  0.00     0.284 C 
BRANCH  17  18
HETATM   18  N2  UNL     1      17.297   1.802  12.629  1.00  0.00     0.091 N 
HETATM   19  C10 UNL     1      16.174   1.721  11.681  1.00  0.00     0.274 C 
HETATM   20  C11 UNL     1      16.239   0.321  11.117  1.00  0.00     0.064 C 
HETATM   21  C12 UNL     1      17.703  -0.034  11.193  1.00  0.00     0.213 C 
HETATM   22  C13 UNL     1      18.345   1.169  11.849  1.00  0.00     0.305 C 
BRANCH  21  23
HETATM   23  N3  UNL     1      18.253  -0.264   9.883  1.00  0.00    -0.073 N 
ATOM     24  H33 UNL     1      19.268  -0.160   9.881  1.00  0.00     0.274 HD
ATOM     25  H32 UNL     1      18.195  -1.247   9.620  1.00  0.00     0.274 HD
ATOM     26  H31 UNL     1      17.813   0.337   9.187  1.00  0.00     0.274 HD
ENDBRANCH  21  23
ENDBRANCH  17  18
ENDBRANCH   1  17
TORSDOF 7
ENDMDL
MODEL 4
REMARK VINA RESULT: -7.241220599      1.325      1.799
REMARK  7 active torsions:
REMARK  status: ('A' for Active; 'I' for Inactive)
REMARK    1  A    between atoms: C1_4  and  C2_5 
REMARK    2  A    between atoms: C1_4  and  N4_22 
REMARK    3  A    between atoms: C2_5  and  C3_6 
REMARK    4  A    between atoms: C2_5  and  C9_12 
REMARK    5  A    between atoms: C3_6  and  C4_7 
REMARK    6  A    between atoms: C9_12  and  N2_13 
REMARK    7  A    between atoms: C12_16  and  N3_17 
ROOT
HETATM    1  C2  UNL     1      16.119   3.951  13.888  1.00  0.00     0.081 C 
ENDROOT
BRANCH   1   2
HETATM    2  C1  UNL     1      16.696   5.351  13.706  1.00  0.00     0.078 C 
HETATM    3  N1  UNL     1      17.486   5.852  14.577  1.00  0.00    -0.389 N 
ATOM      4  H12 UNL     1      17.720   5.291  15.397  1.00  0.00     0.157 HD
ATOM      5  H11 UNL     1      17.872   6.787  14.455  1.00  0.00     0.157 HD
BRANCH   2   6
HETATM    6  N4  UNL     1      16.373   6.125  12.573  1.00  0.00    -0.371 N 
HETATM    7  C14 UNL     1      17.322   6.672  11.633  1.00  0.00     0.124 C 
HETATM    8  C15 UNL     1      16.592   7.707  10.821  1.00  0.00     0.021 C 
HETATM    9  C16 UNL     1      15.148   7.307  10.934  1.00  0.00     0.021 C 
HETATM   10  C17 UNL     1      15.024   6.484  12.196  1.00  0.00     0.124 C 
ENDBRANCH   2   6
ENDBRANCH   1   2
BRANCH   1  11
HETATM   11  C3  UNL     1      15.960   3.793  15.346  1.00  0.00     0.018 C 
BRANCH  11  12
HETATM   12  C4  UNL     1      15.391   2.626  15.959  1.00  0.00    -0.014 C 
HETATM   13  C5  UNL     1      14.304   2.691  16.956  1.00  0.00     0.005 C 
HETATM   14  C6  UNL     1      13.977   1.167  17.032  1.00  0.00     0.000 C 
HETATM   15  C7  UNL     1      15.369   0.533  17.001  1.00  0.00     0.000 C 
HETATM   16  C8  UNL     1      16.347   1.671  16.673  1.00  0.00     0.005 C 
ENDBRANCH  11  12
ENDBRANCH   1  11
BRANCH   1  17
HETATM   17  C9  UNL     1      17.102   2.976  13.263  1.00  0.00     0.284 C 
BRANCH  17  18
HETATM   18  N2  UNL     1      16.390   1.799  12.742  1.00  0.00     0.091 N 
HETATM   19  C10 UNL     1      16.488   1.922  11.279  1.00  0.00     0.274 C 
HETATM   20  C11 UNL     1      16.275   0.522  10.753  1.00  0.00     0.064 C 
HETATM   21  C12 UNL     1      16.779  -0.364  11.865  1.00  0.00     0.213 C 
HETATM   22  C13 UNL     1      17.183   0.602  12.958  1.00  0.00     0.305 C 
BRANCH  21  23
HETATM   23  N3  UNL     1      17.900  -1.156  11.434  1.00  0.00    -0.073 N 
ATOM     24  H33 UNL     1      17.824  -1.408  10.449  1.00  0.00     0.274 HD
ATOM     25  H32 UNL     1      18.755  -0.602  11.389  1.00  0.00     0.274 HD
ATOM     26  H31 UNL     1      18.019  -1.980  12.023  1.00  0.00     0.274 HD
ENDBRANCH  21  23
ENDBRANCH  17  18
ENDBRANCH   1  17
TORSDOF 7
ENDMDL
MODEL 5
REMARK VINA RESULT: -7.119610433      1.506      4.833
REMARK  7 active torsions:
REMARK  status: ('A' for Active; 'I' for Inactive)
REMARK    1  A    between atoms: C1_4  and  C2_5 
REMARK    2  A    between atoms: C1_4  and  N4_22 
REMARK    3  A    between atoms: C2_5  and  C3_6 
REMARK    4  A    between atoms: C2_5  and  C9_12 
REMARK    5  A    between atoms: C3_6  and  C4_7 
REMARK    6  A    between atoms: C9_12  and  N2_13 
REMARK    7  A    between atoms: C12_16  and  N3_17 
ROOT
HETATM    1  C2  UNL     1      17.207   2.683  13.844  1.00  0.00     0.081 C 
ENDROOT
BRANCH   1   2
HETATM    2  C1  UNL     1      17.152   2.201  15.290  1.00  0.00     0.078 C 
HETATM    3  N1  UNL     1      18.226   1.972  15.945  1.00  0.00    -0.389 N 
ATOM      4  H12 UNL     1      19.119   2.121  15.477  1.00  0.00     0.157 HD
ATOM      5  H11 UNL     1      18.189   1.650  16.912  1.00  0.00     0.157 HD
BRANCH   2   6
HETATM    6  N4  UNL     1      15.917   1.995  15.938  1.00  0.00    -0.371 N 
HETATM    7  C14 UNL     1      14.908   3.002  16.157  1.00  0.00     0.124 C 
HETATM    8  C15 UNL     1      13.951   2.454  17.180  1.00  0.00     0.021 C 
HETATM    9  C16 UNL     1      14.120   0.964  17.076  1.00  0.00     0.021 C 
HETATM   10  C17 UNL     1      15.490   0.725  16.482  1.00  0.00     0.124 C 
ENDBRANCH   2   6
ENDBRANCH   1   2
BRANCH   1  11
HETATM   11  C3  UNL     1      16.871   4.117  13.910  1.00  0.00     0.018 C 
BRANCH  11  12
HETATM   12  C4  UNL     1      17.852   5.165  13.863  1.00  0.00    -0.014 C 
HETATM   13  C5  UNL     1      19.306   4.905  13.878  1.00  0.00     0.005 C 
HETATM   14  C6  UNL     1      19.796   6.352  13.561  1.00  0.00     0.000 C 
HETATM   15  C7  UNL     1      18.849   7.209  14.403  1.00  0.00     0.000 C 
HETATM   16  C8  UNL     1      17.767   6.255  14.930  1.00  0.00     0.005 C 
ENDBRANCH  11  12
ENDBRANCH   1  11
BRANCH   1  17
HETATM   17  C9  UNL     1      16.213   1.848  13.056  1.00  0.00     0.284 C 
BRANCH  17  18
HETATM   18  N2  UNL     1      16.836   1.344  11.822  1.00  0.00     0.091 N 
HETATM   19  C10 UNL     1      18.283   1.448  12.066  1.00  0.00     0.274 C 
HETATM   20  C11 UNL     1      18.914   0.470  11.103  1.00  0.00     0.064 C 
HETATM   21  C12 UNL     1      17.855  -0.589  10.917  1.00  0.00     0.213 C 
HETATM   22  C13 UNL     1      16.686  -0.098  11.742  1.00  0.00     0.305 C 
BRANCH  21  23
HETATM   23  N3  UNL     1      18.313  -1.872  11.382  1.00  0.00    -0.073 N 
ATOM     24  H33 UNL     1      18.528  -1.854  12.379  1.00  0.00     0.274 HD
ATOM     25  H32 UNL     1      17.557  -2.556  11.397  1.00  0.00     0.274 HD
ATOM     26  H31 UNL     1      19.107  -2.202  10.833  1.00  0.00     0.274 HD
ENDBRANCH  21  23
ENDBRANCH  17  18
ENDBRANCH   1  17
TORSDOF 7
ENDMDL
