MODEL 1
REMARK VINA RESULT: -7.540791429      0.000      0.000
REMARK  6 active torsions:
REMARK  status: ('A' for Active; 'I' for Inactive)
REMARK    1  A    between atoms: C1_2  and  C2_3 
REMARK       I    between atoms: C1_2  and  N3_19 
REMARK    2  A    between atoms: C2_3  and  N1_4 
REMARK    3  A    between atoms: N1_4  and  C3_6 
REMARK    4  A    between atoms: C3_6  and  N2_7 
REMARK    5  A    between atoms: C3_6  and  C10_16 
REMARK    6  A    between atoms: N2_7  and  C4_10 
ROOT
HETATM    1  C3  UNL     1      17.897   3.621  14.129  1.00  0.00     0.288 C 
ENDROOT
BRANCH   1   2
HETATM    2  N1  UNL     1      18.578   3.133  13.010  1.00  0.00    -0.367 N 
ATOM      3  H1  UNL     1      19.492   2.709  13.174  1.00  0.00     0.161 HD
BRANCH   2   4
HETATM    4  C2  UNL     1      18.133   3.171  11.709  1.00  0.00     0.159 C 
BRANCH   4   5
HETATM    5  C1  UNL     1      18.480   2.045  10.836  1.00  0.00     0.258 C 
HETATM    6  O1  UNL     1      19.418   2.094  10.020  1.00  0.00    -0.267 OA
HETATM    7  N3  UNL     1      17.702   0.845  10.942  1.00  0.00    -0.344 N 
HETATM    8  C13 UNL     1      18.000  -0.330  10.145  1.00  0.00     0.152 C 
HETATM    9  C16 UNL     1      16.599   0.790  11.857  1.00  0.00     0.152 C 
HETATM   10  C14 UNL     1      18.173  -1.447  11.193  1.00  0.00     0.187 C 
HETATM   11  O2  UNL     1      17.022  -1.552  11.938  1.00  0.00    -0.388 OA
HETATM   12  C15 UNL     1      16.848  -0.451  12.732  1.00  0.00     0.187 C 
ENDBRANCH   4   5
ENDBRANCH   2   4
ENDBRANCH   1   2
BRANCH   1  13
HETATM   13  N2  UNL     1      17.800   2.700  15.218  1.00  0.00    -0.050 N 
ATOM     14  H22 UNL     1      18.514   1.974  15.160  1.00  0.00     0.280 HD
ATOM     15  H21 UNL     1      18.083   3.129  16.098  1.00  0.00     0.280 HD
BRANCH  13  16
HETATM   16  C4  UNL     1      16.434   2.117  15.309  1.00  0.00     0.188 C 
HETATM   17  C5  UNL     1      15.467   3.159  15.731  1.00  0.00     0.033 C 
HETATM   18  C6  UNL     1      14.474   2.730  16.764  1.00  0.00     0.002 C 
HETATM   19  C7  UNL     1      15.115   1.868  17.829  1.00  0.00     0.000 C 
HETATM   20  C8  UNL     1      15.497   0.593  17.122  1.00  0.00     0.002 C 
HETATM   21  C9  UNL     1      16.547   0.880  16.114  1.00  0.00     0.033 C 
ENDBRANCH  13  16
ENDBRANCH   1  13
BRANCH   1  22
HETATM   22  C10 UNL     1      18.499   4.949  14.607  1.00  0.00     0.036 A 
HETATM   23  C11 UNL     1      18.310   6.102  13.647  1.00  0.00     0.009 A 
HETATM   24  C12 UNL     1      17.544   6.112  14.886  1.00  0.00     0.009 A 
ENDBRANCH   1  22
TORSDOF 6
ENDMDL
MODEL 2
REMARK VINA RESULT: -7.306066738      2.307      5.447
REMARK  6 active torsions:
REMARK  status: ('A' for Active; 'I' for Inactive)
REMARK    1  A    between atoms: C1_2  and  C2_3 
REMARK       I    between atoms: C1_2  and  N3_19 
REMARK    2  A    between atoms: C2_3  and  N1_4 
REMARK    3  A    between atoms: N1_4  and  C3_6 
REMARK    4  A    between atoms: C3_6  and  N2_7 
REMARK    5  A    between atoms: C3_6  and  C10_16 
REMARK    6  A    between atoms: N2_7  and  C4_10 
ROOT
HETATM    1  C3  UNL     1      18.238   2.664  12.695  1.00  0.00     0.288 C 
ENDROOT
BRANCH   1   2
HETATM    2  N1  UNL     1      18.606   3.359  13.850  1.00  0.00    -0.367 N 
ATOM      3  H1  UNL     1      19.528   3.797  13.852  1.00  0.00     0.161 HD
BRANCH   2   4
HETATM    4  C2  UNL     1      17.842   3.509  14.985  1.00  0.00     0.159 C 
BRANCH   4   5
HETATM    5  C1  UNL     1      17.533   2.304  15.763  1.00  0.00     0.258 C 
HETATM    6  O1  UNL     1      18.418   1.548  16.205  1.00  0.00    -0.267 OA
HETATM    7  N3  UNL     1      16.156   2.002  16.019  1.00  0.00    -0.344 N 
HETATM    8  C13 UNL     1      15.763   0.852  16.812  1.00  0.00     0.152 C 
HETATM    9  C16 UNL     1      15.129   2.849  15.486  1.00  0.00     0.152 C 
HETATM   10  C14 UNL     1      14.880   1.459  17.921  1.00  0.00     0.187 C 
HETATM   11  O2  UNL     1      13.826   2.130  17.345  1.00  0.00    -0.388 OA
HETATM   12  C15 UNL     1      14.257   3.251  16.689  1.00  0.00     0.187 C 
ENDBRANCH   4   5
ENDBRANCH   2   4
ENDBRANCH   1   2
BRANCH   1  13
HETATM   13  N2  UNL     1      16.850   2.748  12.362  1.00  0.00    -0.050 N 
ATOM     14  H22 UNL     1      16.333   3.298  13.048  1.00  0.00     0.280 HD
ATOM     15  H21 UNL     1      16.697   3.336  11.543  1.00  0.00     0.280 HD
BRANCH  13  16
HETATM   16  C4  UNL     1      16.256   1.397  12.184  1.00  0.00     0.188 C 
HETATM   17  C5  UNL     1      17.024   0.400  12.969  1.00  0.00     0.033 C 
HETATM   18  C6  UNL     1      17.306  -0.890  12.264  1.00  0.00     0.002 C 
HETATM   19  C7  UNL     1      17.686  -0.662  10.818  1.00  0.00     0.000 C 
HETATM   20  C8  UNL     1      16.432  -0.141  10.163  1.00  0.00     0.002 C 
HETATM   21  C9  UNL     1      16.091   1.187  10.729  1.00  0.00     0.033 C 
ENDBRANCH  13  16
ENDBRANCH   1  13
BRANCH   1  22
HETATM   22  C10 UNL     1      19.100   3.087  11.497  1.00  0.00     0.036 A 
HETATM   23  C11 UNL     1      20.588   3.067  11.761  1.00  0.00     0.009 A 
HETATM   24  C12 UNL     1      20.038   2.045  10.882  1.00  0.00     0.009 A 
ENDBRANCH   1  22
TORSDOF 6
ENDMDL
MODEL 3
REMARK VINA RESULT: -7.294123929      2.308      5.414
REMARK  6 active torsions:
REMARK  status: ('A' for Active; 'I' for Inactive)
REMARK    1  A    between atoms: C1_2  and  C2_3 
REMARK       I    between atoms: C1_2  and  N3_19 
REMARK    2  A    between atoms: C2_3  and  N1_4 
REMARK    3  A    between atoms: N1_4  and  C3_6 
REMARK    4  A    between atoms: C3_6  and  N2_7 
REMARK    5  A    between atoms: C3_6  and  C10_16 
REMARK    6  A    between atoms: N2_7  and  C4_10 
ROOT
HETATM    1  C3  UNL     1      17.177   1.346  13.271  1.00  0.00     0.288 C 
ENDROOT
BRANCH   1   2
HETATM    2  N1  UNL     1      18.247   2.201  12.990  1.00  0.00    -0.367 N 
ATOM      3  H1  UNL     1      19.170   1.775  12.909  1.00  0.00     0.161 HD
BRANCH   2   4
HETATM    4  C2  UNL     1      18.171   3.564  12.814  1.00  0.00     0.159 C 
BRANCH   4   5
HETATM    5  C1  UNL     1      18.696   4.421  13.883  1.00  0.00     0.258 C 
HETATM    6  O1  UNL     1      19.327   3.967  14.855  1.00  0.00    -0.267 OA
HETATM    7  N3  UNL     1      18.469   5.833  13.788  1.00  0.00    -0.344 N 
HETATM    8  C13 UNL     1      18.986   6.756  14.780  1.00  0.00     0.152 C 
HETATM    9  C16 UNL     1      17.716   6.361  12.688  1.00  0.00     0.152 C 
HETATM   10  C14 UNL     1      19.804   7.764  13.949  1.00  0.00     0.187 C 
HETATM   11  O2  UNL     1      18.985   8.349  13.011  1.00  0.00    -0.388 OA
HETATM   12  C15 UNL     1      18.608   7.444  12.056  1.00  0.00     0.187 C 
ENDBRANCH   4   5
ENDBRANCH   2   4
ENDBRANCH   1   2
BRANCH   1  13
HETATM   13  N2  UNL     1      16.054   1.977  13.891  1.00  0.00    -0.050 N 
ATOM     14  H22 UNL     1      15.876   2.900  13.493  1.00  0.00     0.280 HD
ATOM     15  H21 UNL     1      15.179   1.523  13.632  1.00  0.00     0.280 HD
BRANCH  13  16
HETATM   16  C4  UNL     1      16.220   2.043  15.368  1.00  0.00     0.188 C 
HETATM   17  C5  UNL     1      16.229   0.672  15.936  1.00  0.00     0.033 C 
HETATM   18  C6  UNL     1      15.426   0.493  17.186  1.00  0.00     0.002 C 
HETATM   19  C7  UNL     1      14.110   1.235  17.113  1.00  0.00     0.000 C 
HETATM   20  C8  UNL     1      14.485   2.695  17.114  1.00  0.00     0.002 C 
HETATM   21  C9  UNL     1      15.227   3.018  15.870  1.00  0.00     0.033 C 
ENDBRANCH  13  16
ENDBRANCH   1  13
BRANCH   1  22
HETATM   22  C10 UNL     1      16.734   0.585  12.015  1.00  0.00     0.036 A 
HETATM   23  C11 UNL     1      17.872   0.093  11.149  1.00  0.00     0.009 A 
HETATM   24  C12 UNL     1      17.110  -0.895  11.901  1.00  0.00     0.009 A 
ENDBRANCH   1  22
TORSDOF 6
ENDMDL
MODEL 4
REMARK VINA RESULT: -7.211055960      1.897      3.495
REMARK  6 active torsions:
REMARK  status: ('A' for Active; 'I' for Inactive)
REMARK    1  A    between atoms: C1_2  and  C2_3 
REMARK       I    between atoms: C1_2  and  N3_19 
REMARK    2  A    between atoms: C2_3  and  N1_4 
REMARK    3  A    between atoms: N1_4  and  C3_6 
REMARK    4  A    between atoms: C3_6  and  N2_7 
REMARK    5  A    between atoms: C3_6  and  C10_16 
REMARK    6  A    between atoms: N2_7  and  C4_10 
ROOT
HETATM    1  C3  UNL     1      17.252   2.938  13.638  1.00  0.00     0.288 C 
ENDROOT
BRANCH   1   2
HETATM    2  N1  UNL     1      18.127   1.987  13.104  1.00  0.00    -0.367 N 
ATOM      3  H1  UNL     1      18.807   1.575  13.744  1.00  0.00     0.161 HD
BRANCH   2   4
HETATM    4  C2  UNL     1      18.157   1.555  11.798  1.00  0.00     0.159 C 
BRANCH   4   5
HETATM    5  C1  UNL     1      18.101   2.572  10.742  1.00  0.00     0.258 C 
HETATM    6  O1  UNL     1      17.027   2.980  10.262  1.00  0.00    -0.267 OA
HETATM    7  N3  UNL     1      19.338   3.111  10.258  1.00  0.00    -0.344 N 
HETATM    8  C13 UNL     1      19.373   4.147   9.244  1.00  0.00     0.152 C 
HETATM    9  C16 UNL     1      20.580   2.624  10.783  1.00  0.00     0.152 C 
HETATM   10  C14 UNL     1      20.205   5.269   9.897  1.00  0.00     0.187 C 
HETATM   11  O2  UNL     1      21.442   4.776  10.238  1.00  0.00    -0.388 OA
HETATM   12  C15 UNL     1      21.346   3.871  11.260  1.00  0.00     0.187 C 
ENDBRANCH   4   5
ENDBRANCH   2   4
ENDBRANCH   1   2
BRANCH   1  13
HETATM   13  N2  UNL     1      16.032   2.403  14.158  1.00  0.00    -0.050 N 
ATOM     14  H22 UNL     1      15.222   2.930  13.831  1.00  0.00     0.280 HD
ATOM     15  H21 UNL     1      15.811   1.500  13.739  1.00  0.00     0.280 HD
BRANCH  13  16
HETATM   16  C4  UNL     1      16.069   2.324  15.643  1.00  0.00     0.188 C 
HETATM   17  C5  UNL     1      16.253   0.915  16.069  1.00  0.00     0.033 C 
HETATM   18  C6  UNL     1      15.394   0.475  17.212  1.00  0.00     0.002 C 
HETATM   19  C7  UNL     1      13.986   1.014  17.090  1.00  0.00     0.000 C 
HETATM   20  C8  UNL     1      14.121   2.504  17.272  1.00  0.00     0.002 C 
HETATM   21  C9  UNL     1      14.897   3.074  16.143  1.00  0.00     0.033 C 
ENDBRANCH  13  16
ENDBRANCH   1  13
BRANCH   1  22
HETATM   22  C10 UNL     1      17.951   3.799  14.699  1.00  0.00     0.036 A 
HETATM   23  C11 UNL     1      19.182   4.523  14.203  1.00  0.00     0.009 A 
HETATM   24  C12 UNL     1      17.992   5.313  14.482  1.00  0.00     0.009 A 
ENDBRANCH   1  22
TORSDOF 6
ENDMDL
MODEL 5
REMARK VINA RESULT: -7.205158266      2.346      4.696
REMARK  6 active torsions:
REMARK  status: ('A' for Active; 'I' for Inactive)
REMARK    1  A    between atoms: C1_2  and  C2_3 
REMARK       I    between atoms: C1_2  and  N3_19 
REMARK    2  A    between atoms: C2_3  and  N1_4 
REMARK    3  A    between atoms: N1_4  and  C3_6 
REMARK    4  A    between atoms: C3_6  and  N2_7 
REMARK    5  A    between atoms: C3_6  and  C10_16 
REMARK    6  A    between atoms: N2_7  and  C4_10 
ROOT
HETATM    1  C3  UNL     1      17.215   1.338  13.273  1.00  0.00     0.288 C 
ENDROOT
BRANCH   1   2
HETATM    2  N1  UNL     1      18.333   2.126  12.985  1.00  0.00    -0.367 N 
ATOM      3  H1  UNL     1      19.248   1.692  13.106  1.00  0.00     0.161 HD
BRANCH   2   4
HETATM    4  C2  UNL     1      18.315   3.433  12.554  1.00  0.00     0.159 C 
BRANCH   4   5
HETATM    5  C1  UNL     1      19.486   4.265  12.849  1.00  0.00     0.258 C 
HETATM    6  O1  UNL     1      19.727   4.700  13.990  1.00  0.00    -0.267 OA
HETATM    7  N3  UNL     1      20.381   4.576  11.773  1.00  0.00    -0.344 N 
HETATM    8  C13 UNL     1      21.583   5.360  11.985  1.00  0.00     0.152 C 
HETATM    9  C16 UNL     1      20.094   4.106  10.450  1.00  0.00     0.152 C 
HETATM   10  C14 UNL     1      22.706   4.459  11.434  1.00  0.00     0.187 C 
HETATM   11  O2  UNL     1      22.450   4.170  10.114  1.00  0.00    -0.388 OA
HETATM   12  C15 UNL     1      21.357   3.355   9.993  1.00  0.00     0.187 C 
ENDBRANCH   4   5
ENDBRANCH   2   4
ENDBRANCH   1   2
BRANCH   1  13
HETATM   13  N2  UNL     1      16.113   2.049  13.843  1.00  0.00    -0.050 N 
ATOM     14  H22 UNL     1      16.015   2.978  13.434  1.00  0.00     0.280 HD
ATOM     15  H21 UNL     1      15.221   1.653  13.549  1.00  0.00     0.280 HD
BRANCH  13  16
HETATM   16  C4  UNL     1      16.222   2.112  15.325  1.00  0.00     0.188 C 
HETATM   17  C5  UNL     1      16.292   0.741  15.886  1.00  0.00     0.033 C 
HETATM   18  C6  UNL     1      15.457   0.505  17.105  1.00  0.00     0.002 C 
HETATM   19  C7  UNL     1      14.103   1.168  16.989  1.00  0.00     0.000 C 
HETATM   20  C8  UNL     1      14.390   2.647  17.010  1.00  0.00     0.002 C 
HETATM   21  C9  UNL     1      15.155   3.023  15.796  1.00  0.00     0.033 C 
ENDBRANCH  13  16
ENDBRANCH   1  13
BRANCH   1  22
HETATM   22  C10 UNL     1      16.760   0.551  12.036  1.00  0.00     0.036 A 
HETATM   23  C11 UNL     1      17.888  -0.034  11.219  1.00  0.00     0.009 A 
HETATM   24  C12 UNL     1      17.058  -0.949  11.989  1.00  0.00     0.009 A 
ENDBRANCH   1  22
TORSDOF 6
ENDMDL
