MODEL 1
REMARK VINA RESULT: -6.315287572      0.000      0.000
REMARK  6 active torsions:
REMARK  status: ('A' for Active; 'I' for Inactive)
REMARK    1  A    between atoms: N1_2  and  C2_5 
REMARK    2  A    between atoms: C2_5  and  C4_7 
REMARK       I    between atoms: C4_7  and  N2_9 
REMARK    3  A    between atoms: C8_13  and  N3_14 
REMARK    4  A    between atoms: N3_14  and  C9_16 
REMARK    5  A    between atoms: C9_16  and  C10_17 
REMARK    6  A    between atoms: C9_16  and  C13_20 
ROOT
HETATM    1  C4  UNL     1      19.712   3.339  11.090  1.00  0.00     0.250 C 
HETATM    2  O1  UNL     1      19.918   4.406  11.748  1.00  0.00    -0.271 OA
HETATM    3  N2  UNL     1      18.770   2.375  11.612  1.00  0.00    -0.348 N 
HETATM    4  C5  UNL     1      18.470   1.173  10.885  1.00  0.00     0.126 C 
HETATM    5  C6  UNL     1      17.043   0.734  11.035  1.00  0.00     0.022 C 
HETATM    6  C7  UNL     1      16.692   0.788  12.509  1.00  0.00     0.028 C 
HETATM    7  C8  UNL     1      16.663   2.247  12.867  1.00  0.00     0.095 C 
HETATM    8  C17 UNL     1      18.153   2.652  12.914  1.00  0.00     0.150 C 
ENDROOT
BRANCH   7   9
HETATM    9  N3  UNL     1      15.905   2.759  13.853  1.00  0.00    -0.410 N 
ATOM     10  H3  UNL     1      14.920   2.799  13.591  1.00  0.00     0.154 HD
BRANCH   9  11
HETATM   11  C9  UNL     1      16.117   3.249  15.135  1.00  0.00     0.088 C 
BRANCH  11  12
HETATM   12  C10 UNL     1      15.951   4.701  15.274  1.00  0.00     0.000 C 
HETATM   13  C11 UNL     1      17.102   5.601  14.855  1.00  0.00     0.011 C 
HETATM   14  C12 UNL     1      14.890   5.163  14.183  1.00  0.00     0.011 C 
ENDBRANCH  11  12
BRANCH  11  15
HETATM   15  C13 UNL     1      15.443   2.365  16.180  1.00  0.00    -0.024 A 
HETATM   16  C14 UNL     1      14.264   2.885  16.927  1.00  0.00     0.017 C 
HETATM   17  C15 UNL     1      15.582   0.875  16.038  1.00  0.00     0.012 A 
HETATM   18  C16 UNL     1      16.435   1.551  17.005  1.00  0.00     0.012 A 
ENDBRANCH  11  15
ENDBRANCH   9  11
ENDBRANCH   7   9
BRANCH   1  19
HETATM   19  C2  UNL     1      20.386   3.038   9.821  1.00  0.00     0.272 C 
HETATM   20  C3  UNL     1      21.838   3.471   9.947  1.00  0.00     0.050 C 
BRANCH  19  21
HETATM   21  N1  UNL     1      19.792   3.943   8.823  1.00  0.00    -0.067 N 
HETATM   22  C1  UNL     1      20.616   3.985   7.629  1.00  0.00     0.267 C 
ATOM     23  H12 UNL     1      19.626   4.874   9.205  1.00  0.00     0.277 HD
ATOM     24  H11 UNL     1      18.826   3.693   8.611  1.00  0.00     0.277 HD
ENDBRANCH  19  21
ENDBRANCH   1  19
TORSDOF 6
ENDMDL
MODEL 2
REMARK VINA RESULT: -6.234888935      2.080      3.794
REMARK  6 active torsions:
REMARK  status: ('A' for Active; 'I' for Inactive)
REMARK    1  A    between atoms: N1_2  and  C2_5 
REMARK    2  A    between atoms: C2_5  and  C4_7 
REMARK       I    between atoms: C4_7  and  N2_9 
REMARK    3  A    between atoms: C8_13  and  N3_14 
REMARK    4  A    between atoms: N3_14  and  C9_16 
REMARK    5  A    between atoms: C9_16  and  C10_17 
REMARK    6  A    between atoms: C9_16  and  C13_20 
ROOT
HETATM    1  C4  UNL     1      20.969   3.732  11.649  1.00  0.00     0.250 C 
HETATM    2  O1  UNL     1      20.793   2.475  11.602  1.00  0.00    -0.271 OA
HETATM    3  N2  UNL     1      19.980   4.545  12.321  1.00  0.00    -0.348 N 
HETATM    4  C5  UNL     1      20.154   5.966  12.438  1.00  0.00     0.126 C 
HETATM    5  C6  UNL     1      19.618   6.521  13.725  1.00  0.00     0.022 C 
HETATM    6  C7  UNL     1      18.231   5.947  13.938  1.00  0.00     0.028 C 
HETATM    7  C8  UNL     1      18.435   4.487  14.229  1.00  0.00     0.095 C 
HETATM    8  C17 UNL     1      18.788   3.876  12.854  1.00  0.00     0.150 C 
ENDROOT
BRANCH   7   9
HETATM    9  N3  UNL     1      17.596   3.750  14.978  1.00  0.00    -0.410 N 
ATOM     10  H3  UNL     1      17.954   3.612  15.923  1.00  0.00     0.154 HD
BRANCH   9  11
HETATM   11  C9  UNL     1      16.368   3.127  14.797  1.00  0.00     0.088 C 
BRANCH  11  12
HETATM   12  C10 UNL     1      16.394   1.665  14.929  1.00  0.00     0.000 C 
HETATM   13  C11 UNL     1      16.944   0.848  13.772  1.00  0.00     0.011 C 
HETATM   14  C12 UNL     1      17.504   1.307  16.010  1.00  0.00     0.011 C 
ENDBRANCH  11  12
BRANCH  11  15
HETATM   15  C13 UNL     1      15.258   3.875  15.530  1.00  0.00    -0.024 A 
HETATM   16  C14 UNL     1      14.416   3.148  16.520  1.00  0.00     0.017 C 
HETATM   17  C15 UNL     1      15.397   5.364  15.687  1.00  0.00     0.012 A 
HETATM   18  C16 UNL     1      14.516   4.867  14.641  1.00  0.00     0.012 A 
ENDBRANCH  11  15
ENDBRANCH   9  11
ENDBRANCH   7   9
BRANCH   1  19
HETATM   19  C2  UNL     1      22.131   4.401  11.051  1.00  0.00     0.272 C 
HETATM   20  C3  UNL     1      22.510   3.643   9.789  1.00  0.00     0.050 C 
BRANCH  19  21
HETATM   21  N1  UNL     1      23.246   4.187  11.988  1.00  0.00    -0.067 N 
HETATM   22  C1  UNL     1      23.930   5.441  12.248  1.00  0.00     0.267 C 
ATOM     23  H12 UNL     1      23.886   3.464  11.658  1.00  0.00     0.277 HD
ATOM     24  H11 UNL     1      22.938   3.735  12.848  1.00  0.00     0.277 HD
ENDBRANCH  19  21
ENDBRANCH   1  19
TORSDOF 6
ENDMDL
MODEL 3
REMARK VINA RESULT: -6.085539712      2.074      6.830
REMARK  6 active torsions:
REMARK  status: ('A' for Active; 'I' for Inactive)
REMARK    1  A    between atoms: N1_2  and  C2_5 
REMARK    2  A    between atoms: C2_5  and  C4_7 
REMARK       I    between atoms: C4_7  and  N2_9 
REMARK    3  A    between atoms: C8_13  and  N3_14 
REMARK    4  A    between atoms: N3_14  and  C9_16 
REMARK    5  A    between atoms: C9_16  and  C10_17 
REMARK    6  A    between atoms: C9_16  and  C13_20 
ROOT
HETATM    1  C4  UNL     1      16.118   2.286  16.541  1.00  0.00     0.250 C 
HETATM    2  O1  UNL     1      16.795   1.230  16.744  1.00  0.00    -0.271 OA
HETATM    3  N2  UNL     1      16.569   3.214  15.529  1.00  0.00    -0.348 N 
HETATM    4  C5  UNL     1      15.817   4.401  15.233  1.00  0.00     0.126 C 
HETATM    5  C6  UNL     1      15.867   4.784  13.783  1.00  0.00     0.022 C 
HETATM    6  C7  UNL     1      17.314   4.720  13.334  1.00  0.00     0.028 C 
HETATM    7  C8  UNL     1      17.677   3.262  13.338  1.00  0.00     0.095 C 
HETATM    8  C17 UNL     1      17.828   2.916  14.836  1.00  0.00     0.150 C 
ENDROOT
BRANCH   7   9
HETATM    9  N3  UNL     1      18.612   2.723  12.535  1.00  0.00    -0.410 N 
ATOM     10  H3  UNL     1      19.546   2.800  12.938  1.00  0.00     0.154 HD
BRANCH   9  11
HETATM   11  C9  UNL     1      18.634   2.087  11.301  1.00  0.00     0.088 C 
BRANCH  11  12
HETATM   12  C10 UNL     1      19.907   2.193  10.578  1.00  0.00     0.000 C 
HETATM   13  C11 UNL     1      19.957   3.060   9.330  1.00  0.00     0.011 C 
HETATM   14  C12 UNL     1      20.899   3.042  11.486  1.00  0.00     0.011 C 
ENDBRANCH  11  12
BRANCH  11  15
HETATM   15  C13 UNL     1      17.988   0.707  11.380  1.00  0.00    -0.024 A 
HETATM   16  C14 UNL     1      18.844  -0.508  11.284  1.00  0.00     0.017 C 
HETATM   17  C15 UNL     1      16.674   0.585  12.101  1.00  0.00     0.012 A 
HETATM   18  C16 UNL     1      16.653   0.628  10.647  1.00  0.00     0.012 A 
ENDBRANCH  11  15
ENDBRANCH   9  11
ENDBRANCH   7   9
BRANCH   1  19
HETATM   19  C2  UNL     1      14.896   2.610  17.289  1.00  0.00     0.272 C 
HETATM   20  C3  UNL     1      14.995   1.953  18.656  1.00  0.00     0.050 C 
BRANCH  19  21
HETATM   21  N1  UNL     1      13.802   1.912  16.595  1.00  0.00    -0.067 N 
HETATM   22  C1  UNL     1      13.624   0.582  17.149  1.00  0.00     0.267 C 
ATOM     23  H12 UNL     1      13.945   1.889  15.586  1.00  0.00     0.277 HD
ATOM     24  H11 UNL     1      12.936   2.451  16.612  1.00  0.00     0.277 HD
ENDBRANCH  19  21
ENDBRANCH   1  19
TORSDOF 6
ENDMDL
MODEL 4
REMARK VINA RESULT: -6.045750652      1.069      1.172
REMARK  6 active torsions:
REMARK  status: ('A' for Active; 'I' for Inactive)
REMARK    1  A    between atoms: N1_2  and  C2_5 
REMARK    2  A    between atoms: C2_5  and  C4_7 
REMARK       I    between atoms: C4_7  and  N2_9 
REMARK    3  A    between atoms: C8_13  and  N3_14 
REMARK    4  A    between atoms: N3_14  and  C9_16 
REMARK    5  A    between atoms: C9_16  and  C10_17 
REMARK    6  A    between atoms: C9_16  and  C13_20 
ROOT
HETATM    1  C4  UNL     1      20.761   3.949  10.779  1.00  0.00     0.250 C 
HETATM    2  O1  UNL     1      20.762   5.086  11.347  1.00  0.00    -0.271 OA
HETATM    3  N2  UNL     1      19.916   2.907  11.317  1.00  0.00    -0.348 N 
HETATM    4  C5  UNL     1      19.847   1.618  10.687  1.00  0.00     0.126 C 
HETATM    5  C6  UNL     1      18.484   0.994  10.769  1.00  0.00     0.022 C 
HETATM    6  C7  UNL     1      18.000   1.121  12.200  1.00  0.00     0.028 C 
HETATM    7  C8  UNL     1      17.742   2.585  12.415  1.00  0.00     0.095 C 
HETATM    8  C17 UNL     1      19.154   3.202  12.536  1.00  0.00     0.150 C 
ENDROOT
BRANCH   7   9
HETATM    9  N3  UNL     1      16.838   3.066  13.287  1.00  0.00    -0.410 N 
ATOM     10  H3  UNL     1      15.905   3.108  12.878  1.00  0.00     0.154 HD
BRANCH   9  11
HETATM   11  C9  UNL     1      16.847   3.518  14.599  1.00  0.00     0.088 C 
BRANCH  11  12
HETATM   12  C10 UNL     1      16.586   4.954  14.757  1.00  0.00     0.000 C 
HETATM   13  C11 UNL     1      17.766   5.910  14.702  1.00  0.00     0.011 C 
HETATM   14  C12 UNL     1      15.833   5.445  13.445  1.00  0.00     0.011 C 
ENDBRANCH  11  12
BRANCH  11  15
HETATM   15  C13 UNL     1      16.084   2.565  15.515  1.00  0.00    -0.024 A 
HETATM   16  C14 UNL     1      14.829   3.028  16.171  1.00  0.00     0.017 C 
HETATM   17  C15 UNL     1      16.257   1.088  15.295  1.00  0.00     0.012 A 
HETATM   18  C16 UNL     1      17.000   1.707  16.382  1.00  0.00     0.012 A 
ENDBRANCH  11  15
ENDBRANCH   9  11
ENDBRANCH   7   9
BRANCH   1  19
HETATM   19  C2  UNL     1      21.580   3.642   9.599  1.00  0.00     0.272 C 
HETATM   20  C3  UNL     1      23.038   3.855   9.973  1.00  0.00     0.050 C 
BRANCH  19  21
HETATM   21  N1  UNL     1      21.271   4.687   8.610  1.00  0.00    -0.067 N 
HETATM   22  C1  UNL     1      20.202   4.247   7.732  1.00  0.00     0.267 C 
ATOM     23  H12 UNL     1      22.099   4.974   8.088  1.00  0.00     0.277 HD
ATOM     24  H11 UNL     1      21.056   5.580   9.054  1.00  0.00     0.277 HD
ENDBRANCH  19  21
ENDBRANCH   1  19
TORSDOF 6
ENDMDL
MODEL 5
REMARK VINA RESULT: -6.001620181      1.892      3.478
REMARK  6 active torsions:
REMARK  status: ('A' for Active; 'I' for Inactive)
REMARK    1  A    between atoms: N1_2  and  C2_5 
REMARK    2  A    between atoms: C2_5  and  C4_7 
REMARK       I    between atoms: C4_7  and  N2_9 
REMARK    3  A    between atoms: C8_13  and  N3_14 
REMARK    4  A    between atoms: N3_14  and  C9_16 
REMARK    5  A    between atoms: C9_16  and  C10_17 
REMARK    6  A    between atoms: C9_16  and  C13_20 
ROOT
HETATM    1  C4  UNL     1      18.391   4.320  10.037  1.00  0.00     0.250 C 
HETATM    2  O1  UNL     1      17.414   3.534   9.829  1.00  0.00    -0.271 OA
HETATM    3  N2  UNL     1      18.576   4.857  11.366  1.00  0.00    -0.348 N 
HETATM    4  C5  UNL     1      19.689   5.716  11.662  1.00  0.00     0.126 C 
HETATM    5  C6  UNL     1      20.224   5.529  13.052  1.00  0.00     0.022 C 
HETATM    6  C7  UNL     1      19.046   5.524  14.007  1.00  0.00     0.028 C 
HETATM    7  C8  UNL     1      18.302   4.249  13.729  1.00  0.00     0.095 C 
HETATM    8  C17 UNL     1      17.581   4.518  12.389  1.00  0.00     0.150 C 
ENDROOT
BRANCH   7   9
HETATM    9  N3  UNL     1      17.566   3.598  14.647  1.00  0.00    -0.410 N 
ATOM     10  H3  UNL     1      18.052   3.530  15.542  1.00  0.00     0.154 HD
BRANCH   9  11
HETATM   11  C9  UNL     1      16.317   2.994  14.692  1.00  0.00     0.088 C 
BRANCH  11  12
HETATM   12  C10 UNL     1      16.339   1.553  14.969  1.00  0.00     0.000 C 
HETATM   13  C11 UNL     1      16.884   0.622  13.898  1.00  0.00     0.011 C 
HETATM   14  C12 UNL     1      17.452   1.301  16.078  1.00  0.00     0.011 C 
ENDBRANCH  11  12
BRANCH  11  15
HETATM   15  C13 UNL     1      15.324   3.842  15.482  1.00  0.00    -0.024 A 
HETATM   16  C14 UNL     1      14.472   3.195  16.519  1.00  0.00     0.017 C 
HETATM   17  C15 UNL     1      15.611   5.311  15.627  1.00  0.00     0.012 A 
HETATM   18  C16 UNL     1      14.631   4.901  14.632  1.00  0.00     0.012 A 
ENDBRANCH  11  15
ENDBRANCH   9  11
ENDBRANCH   7   9
BRANCH   1  19
HETATM   19  C2  UNL     1      19.342   4.709   8.988  1.00  0.00     0.272 C 
HETATM   20  C3  UNL     1      18.551   5.019   7.728  1.00  0.00     0.050 C 
BRANCH  19  21
HETATM   21  N1  UNL     1      20.118   3.498   8.677  1.00  0.00    -0.067 N 
HETATM   22  C1  UNL     1      20.904   3.700   7.474  1.00  0.00     0.267 C 
ATOM     23  H12 UNL     1      19.523   2.672   8.610  1.00  0.00     0.277 HD
ATOM     24  H11 UNL     1      20.695   3.203   9.465  1.00  0.00     0.277 HD
ENDBRANCH  19  21
ENDBRANCH   1  19
TORSDOF 6
ENDMDL
