MODEL 1
REMARK VINA RESULT: -7.506048886      0.000      0.000
REMARK  2 active torsions:
REMARK  status: ('A' for Active; 'I' for Inactive)
REMARK    1  A    between atoms: C2_2  and  C4_4 
REMARK    2  A    between atoms: C10_13  and  O1_14 
ROOT
HETATM    1  C4  UNL     1       2.400 -11.869  -5.290  1.00  0.00     0.094 C 
HETATM    2  N1  UNL     1       3.536 -11.291  -4.559  1.00  0.00    -0.378 N 
ATOM      3  H1  UNL     1       3.570 -11.327  -3.540  1.00  0.00     0.160 HD
HETATM    4  C5  UNL     1       4.484 -10.741  -5.226  1.00  0.00     0.076 C 
HETATM    5 CL1  UNL     1       5.882 -10.022  -4.454  1.00  0.00    -0.070 Cl
HETATM    6  C6  UNL     1       4.318 -10.758  -6.702  1.00  0.00     0.075 C 
HETATM    7  C7  UNL     1       2.937 -10.426  -7.132  1.00  0.00     0.008 C 
HETATM    8  C8  UNL     1       2.653 -11.293  -8.369  1.00  0.00     0.015 C 
HETATM    9  C9  UNL     1       3.914 -11.461  -9.197  1.00  0.00     0.013 C 
HETATM   10  C10 UNL     1       1.588 -10.539  -9.143  1.00  0.00     0.122 C 
HETATM   11  C11 UNL     1       0.541 -10.146  -8.142  1.00  0.00     0.033 C 
HETATM   12  C12 UNL     1       0.621 -11.032  -6.884  1.00  0.00     0.014 C 
HETATM   13  C13 UNL     1       1.863 -10.780  -6.100  1.00  0.00    -0.019 C 
HETATM   14  C14 UNL     1       1.588  -9.516  -5.266  1.00  0.00     0.018 C 
ENDROOT
BRANCH   1  15
HETATM   15  C2  UNL     1       1.604 -12.541  -4.278  1.00  0.00     0.001 C 
HETATM   16  C1  UNL     1       1.973 -12.347  -2.839  1.00  0.00     0.011 C 
HETATM   17  C3  UNL     1       1.421 -14.032  -4.500  1.00  0.00     0.011 C 
ENDBRANCH   1  15
BRANCH  10  18
HETATM   18  O1  UNL     1       1.082 -11.293 -10.191  1.00  0.00    -0.395 OA
ATOM     19  H1  UNL     1       0.628 -10.754 -10.827  1.00  0.00     0.210 HD
ENDBRANCH  10  18
TORSDOF 2
ENDMDL
MODEL 2
REMARK VINA RESULT: -5.919534177      2.692      4.180
REMARK  2 active torsions:
REMARK  status: ('A' for Active; 'I' for Inactive)
REMARK    1  A    between atoms: C2_2  and  C4_4 
REMARK    2  A    between atoms: C10_13  and  O1_14 
ROOT
HETATM    1  C4  UNL     1       1.869 -11.488  -2.623  1.00  0.00     0.094 C 
HETATM    2  N1  UNL     1       1.496 -12.861  -2.253  1.00  0.00    -0.378 N 
ATOM      3  H1  UNL     1       1.488 -13.151  -1.274  1.00  0.00     0.160 HD
HETATM    4  C5  UNL     1       1.181 -13.688  -3.181  1.00  0.00     0.076 C 
HETATM    5 CL1  UNL     1       0.723 -15.345  -2.849  1.00  0.00    -0.070 Cl
HETATM    6  C6  UNL     1       1.227 -13.142  -4.562  1.00  0.00     0.075 C 
HETATM    7  C7  UNL     1       2.424 -12.303  -4.813  1.00  0.00     0.008 C 
HETATM    8  C8  UNL     1       1.967 -11.172  -5.748  1.00  0.00     0.015 C 
HETATM    9  C9  UNL     1       0.919 -11.682  -6.719  1.00  0.00     0.013 C 
HETATM   10  C10 UNL     1       3.222 -10.734  -6.480  1.00  0.00     0.122 C 
HETATM   11  C11 UNL     1       4.284 -10.570  -5.431  1.00  0.00     0.033 C 
HETATM   12  C12 UNL     1       3.656 -10.386  -4.036  1.00  0.00     0.014 C 
HETATM   13  C13 UNL     1       2.982 -11.626  -3.557  1.00  0.00    -0.019 C 
HETATM   14  C14 UNL     1       4.098 -12.528  -3.002  1.00  0.00     0.018 C 
ENDROOT
BRANCH   1  15
HETATM   15  C2  UNL     1       2.005 -10.782  -1.361  1.00  0.00     0.001 C 
HETATM   16  C1  UNL     1       1.695 -11.521  -0.096  1.00  0.00     0.011 C 
HETATM   17  C3  UNL     1       1.276  -9.451  -1.297  1.00  0.00     0.011 C 
ENDBRANCH   1  15
BRANCH  10  18
HETATM   18  O1  UNL     1       3.010  -9.582  -7.222  1.00  0.00    -0.395 OA
ATOM     19  H1  UNL     1       3.801  -9.295  -7.663  1.00  0.00     0.210 HD
ENDBRANCH  10  18
TORSDOF 2
ENDMDL
MODEL 3
REMARK VINA RESULT: -5.650394615      3.491      5.311
REMARK  2 active torsions:
REMARK  status: ('A' for Active; 'I' for Inactive)
REMARK    1  A    between atoms: C2_2  and  C4_4 
REMARK    2  A    between atoms: C10_13  and  O1_14 
ROOT
HETATM    1  C4  UNL     1       3.647 -10.041  -4.793  1.00  0.00     0.094 C 
HETATM    2  N1  UNL     1       5.029 -10.535  -4.871  1.00  0.00    -0.378 N 
ATOM      3  H1  UNL     1       5.297 -11.217  -5.581  1.00  0.00     0.160 HD
HETATM    4  C5  UNL     1       5.891 -10.094  -4.030  1.00  0.00     0.076 C 
HETATM    5 CL1  UNL     1       7.562 -10.618  -4.035  1.00  0.00    -0.070 Cl
HETATM    6  C6  UNL     1       5.377  -9.103  -3.051  1.00  0.00     0.075 C 
HETATM    7  C7  UNL     1       4.052  -9.473  -2.495  1.00  0.00     0.008 C 
HETATM    8  C8  UNL     1       3.283  -8.156  -2.305  1.00  0.00     0.015 C 
HETATM    9  C9  UNL     1       4.232  -7.046  -1.893  1.00  0.00     0.013 C 
HETATM   10  C10 UNL     1       2.272  -8.443  -1.211  1.00  0.00     0.122 C 
HETATM   11  C11 UNL     1       1.618  -9.745  -1.575  1.00  0.00     0.033 C 
HETATM   12  C12 UNL     1       1.787 -10.045  -3.076  1.00  0.00     0.014 C 
HETATM   13  C13 UNL     1       3.204 -10.337  -3.434  1.00  0.00    -0.019 C 
HETATM   14  C14 UNL     1       3.443 -11.808  -3.052  1.00  0.00     0.018 C 
ENDROOT
BRANCH   1  15
HETATM   15  C2  UNL     1       2.982 -10.597  -5.958  1.00  0.00     0.001 C 
HETATM   16  C1  UNL     1       3.722 -10.608  -7.261  1.00  0.00     0.011 C 
HETATM   17  C3  UNL     1       1.599 -10.034  -6.229  1.00  0.00     0.011 C 
ENDBRANCH   1  15
BRANCH  10  18
HETATM   18  O1  UNL     1       1.366  -7.404  -1.061  1.00  0.00    -0.395 OA
ATOM     19  H1  UNL     1       0.625  -7.494  -1.648  1.00  0.00     0.210 HD
ENDBRANCH  10  18
TORSDOF 2
ENDMDL
MODEL 4
REMARK VINA RESULT: -5.228893751      2.476      3.813
REMARK  2 active torsions:
REMARK  status: ('A' for Active; 'I' for Inactive)
REMARK    1  A    between atoms: C2_2  and  C4_4 
REMARK    2  A    between atoms: C10_13  and  O1_14 
ROOT
HETATM    1  C4  UNL     1       2.527 -10.595  -2.384  1.00  0.00     0.094 C 
HETATM    2  N1  UNL     1       3.585 -11.315  -1.661  1.00  0.00    -0.378 N 
ATOM      3  H1  UNL     1       4.035 -10.897  -0.847  1.00  0.00     0.160 HD
HETATM    4  C5  UNL     1       3.931 -12.480  -2.072  1.00  0.00     0.076 C 
HETATM    5 CL1  UNL     1       5.179 -13.423  -1.285  1.00  0.00    -0.070 Cl
HETATM    6  C6  UNL     1       3.196 -12.979  -3.263  1.00  0.00     0.075 C 
HETATM    7  C7  UNL     1       3.019 -11.942  -4.310  1.00  0.00     0.008 C 
HETATM    8  C8  UNL     1       1.639 -12.197  -4.936  1.00  0.00     0.015 C 
HETATM    9  C9  UNL     1       1.350 -13.686  -4.986  1.00  0.00     0.013 C 
HETATM   10  C10 UNL     1       1.725 -11.611  -6.333  1.00  0.00     0.122 C 
HETATM   11  C11 UNL     1       2.331 -10.246  -6.178  1.00  0.00     0.033 C 
HETATM   12  C12 UNL     1       2.167  -9.731  -4.736  1.00  0.00     0.014 C 
HETATM   13  C13 UNL     1       2.988 -10.510  -3.766  1.00  0.00    -0.019 C 
HETATM   14  C14 UNL     1       4.416  -9.945  -3.869  1.00  0.00     0.018 C 
ENDROOT
BRANCH   1  15
HETATM   15  C2  UNL     1       2.266  -9.410  -1.585  1.00  0.00     0.001 C 
HETATM   16  C1  UNL     1       3.123  -9.161  -0.381  1.00  0.00     0.011 C 
HETATM   17  C3  UNL     1       0.821  -9.240  -1.153  1.00  0.00     0.011 C 
ENDBRANCH   1  15
BRANCH  10  18
HETATM   18  O1  UNL     1       0.489 -11.588  -6.960  1.00  0.00    -0.395 OA
ATOM     19  H1  UNL     1       0.556 -11.305  -7.864  1.00  0.00     0.210 HD
ENDBRANCH  10  18
TORSDOF 2
ENDMDL
MODEL 5
REMARK VINA RESULT: -5.151697663      2.527      3.878
REMARK  2 active torsions:
REMARK  status: ('A' for Active; 'I' for Inactive)
REMARK    1  A    between atoms: C2_2  and  C4_4 
REMARK    2  A    between atoms: C10_13  and  O1_14 
ROOT
HETATM    1  C4  UNL     1       4.047 -11.434  -2.857  1.00  0.00     0.094 C 
HETATM    2  N1  UNL     1       3.825 -10.236  -2.036  1.00  0.00    -0.378 N 
ATOM      3  H1  UNL     1       4.256 -10.149  -1.116  1.00  0.00     0.160 HD
HETATM    4  C5  UNL     1       3.078  -9.300  -2.498  1.00  0.00     0.076 C 
HETATM    5 CL1  UNL     1       2.748  -7.832  -1.603  1.00  0.00    -0.070 Cl
HETATM    6  C6  UNL     1       2.514  -9.545  -3.850  1.00  0.00     0.075 C 
HETATM    7  C7  UNL     1       2.010 -10.929  -4.025  1.00  0.00     0.008 C 
HETATM    8  C8  UNL     1       2.319 -11.318  -5.479  1.00  0.00     0.015 C 
HETATM    9  C9  UNL     1       2.177 -10.112  -6.389  1.00  0.00     0.013 C 
HETATM   10  C10 UNL     1       1.300 -12.387  -5.827  1.00  0.00     0.122 C 
HETATM   11  C11 UNL     1       1.306 -13.361  -4.684  1.00  0.00     0.033 C 
HETATM   12  C12 UNL     1       2.615 -13.255  -3.878  1.00  0.00     0.014 C 
HETATM   13  C13 UNL     1       2.716 -11.963  -3.142  1.00  0.00    -0.019 C 
HETATM   14  C14 UNL     1       1.874 -12.135  -1.866  1.00  0.00     0.018 C 
ENDROOT
BRANCH   1  15
HETATM   15  C2  UNL     1       5.044 -12.205  -2.135  1.00  0.00     0.001 C 
HETATM   16  C1  UNL     1       5.370 -11.805  -0.729  1.00  0.00     0.011 C 
HETATM   17  C3  UNL     1       6.359 -12.388  -2.869  1.00  0.00     0.011 C 
ENDBRANCH   1  15
BRANCH  10  18
HETATM   18  O1  UNL     1       1.574 -12.982  -7.049  1.00  0.00    -0.395 OA
ATOM     19  H1  UNL     1       1.677 -12.338  -7.740  1.00  0.00     0.210 HD
ENDBRANCH  10  18
TORSDOF 2
ENDMDL
