MODEL 1
REMARK VINA RESULT: -5.833123208      0.000      0.000
REMARK  2 active torsions:
REMARK  status: ('A' for Active; 'I' for Inactive)
REMARK    1  A    between atoms: C2_2  and  C3_3 
REMARK    2  A    between atoms: C12_13  and  O1_14 
ROOT
HETATM    1  C3  UNL     1       1.783 -11.368  -6.980  1.00  0.00    -0.023 C 
HETATM    2  C4  UNL     1       0.612 -10.399  -6.862  1.00  0.00     0.020 C 
HETATM    3  C5  UNL     1       2.986 -10.745  -7.586  1.00  0.00     0.015 C 
HETATM    4  C6  UNL     1       4.033 -10.259  -6.672  1.00  0.00     0.022 C 
HETATM    5  C7  UNL     1       4.223 -11.043  -5.416  1.00  0.00     0.090 C 
HETATM    6 CL1  UNL     1       5.298 -10.117  -4.334  1.00  0.00    -0.124 Cl
HETATM    7  C8  UNL     1       2.892 -11.316  -4.720  1.00  0.00    -0.022 C 
HETATM    8  C9  UNL     1       2.319  -9.991  -4.331  1.00  0.00     0.017 C 
HETATM    9  C10 UNL     1       3.111 -12.127  -3.486  1.00  0.00     0.013 C 
HETATM   10  C11 UNL     1       2.651 -13.538  -3.546  1.00  0.00     0.032 C 
HETATM   11  C12 UNL     1       1.302 -13.751  -4.148  1.00  0.00     0.118 C 
HETATM   12  C13 UNL     1       0.848 -12.589  -5.008  1.00  0.00     0.038 C 
HETATM   13  C14 UNL     1       2.070 -12.078  -5.708  1.00  0.00     0.009 C 
ENDROOT
BRANCH   1  14
HETATM   14  C2  UNL     1       1.318 -12.433  -7.958  1.00  0.00    -0.027 C 
HETATM   15  C1  UNL     1       1.699 -12.386  -9.227  1.00  0.00     0.007 C 
ENDBRANCH   1  14
BRANCH  11  16
HETATM   16  O1  UNL     1       0.336 -14.131  -3.222  1.00  0.00    -0.396 OA
ATOM     17  H1  UNL     1      -0.259 -14.796  -3.548  1.00  0.00     0.210 HD
ENDBRANCH  11  16
TORSDOF 2
ENDMDL
MODEL 2
REMARK VINA RESULT: -5.573425746      2.006      4.228
REMARK  2 active torsions:
REMARK  status: ('A' for Active; 'I' for Inactive)
REMARK    1  A    between atoms: C2_2  and  C3_3 
REMARK    2  A    between atoms: C12_13  and  O1_14 
ROOT
HETATM    1  C3  UNL     1       1.746 -13.069  -3.253  1.00  0.00    -0.023 C 
HETATM    2  C4  UNL     1       2.902 -14.047  -3.433  1.00  0.00     0.020 C 
HETATM    3  C5  UNL     1       1.759 -12.402  -1.928  1.00  0.00     0.015 C 
HETATM    4  C6  UNL     1       2.348 -11.055  -1.851  1.00  0.00     0.022 C 
HETATM    5  C7  UNL     1       2.170 -10.191  -3.055  1.00  0.00     0.090 C 
HETATM    6 CL1  UNL     1       3.211  -8.753  -2.872  1.00  0.00    -0.124 Cl
HETATM    7  C8  UNL     1       2.530 -10.937  -4.337  1.00  0.00    -0.022 C 
HETATM    8  C9  UNL     1       3.983 -11.282  -4.252  1.00  0.00     0.017 C 
HETATM    9  C10 UNL     1       2.313 -10.058  -5.525  1.00  0.00     0.013 C 
HETATM   10  C11 UNL     1       1.159 -10.410  -6.390  1.00  0.00     0.032 C 
HETATM   11  C12 UNL     1       1.010 -11.861  -6.707  1.00  0.00     0.118 C 
HETATM   12  C13 UNL     1       1.749 -12.758  -5.734  1.00  0.00     0.038 C 
HETATM   13  C14 UNL     1       1.618 -12.119  -4.386  1.00  0.00     0.009 C 
ENDROOT
BRANCH   1  14
HETATM   14  C2  UNL     1       0.494 -13.928  -3.284  1.00  0.00    -0.027 C 
HETATM   15  C1  UNL     1       0.099 -14.573  -2.195  1.00  0.00     0.007 C 
ENDBRANCH   1  14
BRANCH  11  16
HETATM   16  O1  UNL     1       1.296 -12.170  -8.033  1.00  0.00    -0.396 OA
ATOM     17  H1  UNL     1       1.629 -13.052  -8.152  1.00  0.00     0.210 HD
ENDBRANCH  11  16
TORSDOF 2
ENDMDL
MODEL 3
REMARK VINA RESULT: -5.571536405      2.591      3.807
REMARK  2 active torsions:
REMARK  status: ('A' for Active; 'I' for Inactive)
REMARK    1  A    between atoms: C2_2  and  C3_3 
REMARK    2  A    between atoms: C12_13  and  O1_14 
ROOT
HETATM    1  C3  UNL     1       2.183 -10.995  -5.407  1.00  0.00    -0.023 C 
HETATM    2  C4  UNL     1       3.609 -10.790  -5.906  1.00  0.00     0.020 C 
HETATM    3  C5  UNL     1       1.585 -12.268  -5.881  1.00  0.00     0.015 C 
HETATM    4  C6  UNL     1       1.617 -13.418  -4.962  1.00  0.00     0.022 C 
HETATM    5  C7  UNL     1       1.495 -13.099  -3.509  1.00  0.00     0.090 C 
HETATM    6 CL1  UNL     1       1.867 -14.575  -2.578  1.00  0.00    -0.124 Cl
HETATM    7  C8  UNL     1       2.441 -11.973  -3.101  1.00  0.00    -0.022 C 
HETATM    8  C9  UNL     1       3.835 -12.464  -3.330  1.00  0.00     0.017 C 
HETATM    9  C10 UNL     1       2.274 -11.657  -1.651  1.00  0.00     0.013 C 
HETATM   10  C11 UNL     1       1.612 -10.364  -1.341  1.00  0.00     0.032 C 
HETATM   11  C12 UNL     1       2.078  -9.193  -2.140  1.00  0.00     0.118 C 
HETATM   12  C13 UNL     1       2.777  -9.593  -3.424  1.00  0.00     0.038 C 
HETATM   13  C14 UNL     1       2.055 -10.799  -3.941  1.00  0.00     0.009 C 
ENDROOT
BRANCH   1  14
HETATM   14  C2  UNL     1       1.375  -9.881  -6.050  1.00  0.00    -0.027 C 
HETATM   15  C1  UNL     1       0.602 -10.135  -7.096  1.00  0.00     0.007 C 
ENDBRANCH   1  14
BRANCH  11  16
HETATM   16  O1  UNL     1       2.817  -8.276  -1.399  1.00  0.00    -0.396 OA
ATOM     17  H1  UNL     1       3.381  -7.728  -1.931  1.00  0.00     0.210 HD
ENDBRANCH  11  16
TORSDOF 2
ENDMDL
MODEL 4
REMARK VINA RESULT: -5.421958369      2.527      4.538
REMARK  2 active torsions:
REMARK  status: ('A' for Active; 'I' for Inactive)
REMARK    1  A    between atoms: C2_2  and  C3_3 
REMARK    2  A    between atoms: C12_13  and  O1_14 
ROOT
HETATM    1  C3  UNL     1       4.478 -11.180  -3.380  1.00  0.00    -0.023 C 
HETATM    2  C4  UNL     1       4.092 -10.052  -2.430  1.00  0.00     0.020 C 
HETATM    3  C5  UNL     1       5.165 -12.301  -2.693  1.00  0.00     0.015 C 
HETATM    4  C6  UNL     1       4.352 -13.470  -2.319  1.00  0.00     0.022 C 
HETATM    5  C7  UNL     1       3.232 -13.813  -3.245  1.00  0.00     0.090 C 
HETATM    6 CL1  UNL     1       2.207 -15.040  -2.454  1.00  0.00    -0.124 Cl
HETATM    7  C8  UNL     1       2.399 -12.583  -3.596  1.00  0.00    -0.022 C 
HETATM    8  C9  UNL     1       1.785 -12.090  -2.324  1.00  0.00     0.017 C 
HETATM    9  C10 UNL     1       1.308 -12.951  -4.546  1.00  0.00     0.013 C 
HETATM   10  C11 UNL     1       1.468 -12.463  -5.940  1.00  0.00     0.032 C 
HETATM   11  C12 UNL     1       1.902 -11.041  -6.078  1.00  0.00     0.118 C 
HETATM   12  C13 UNL     1       2.553 -10.496  -4.823  1.00  0.00     0.038 C 
HETATM   13  C14 UNL     1       3.348 -11.622  -4.236  1.00  0.00     0.009 C 
ENDROOT
BRANCH   1  14
HETATM   14  C2  UNL     1       5.501 -10.569  -4.323  1.00  0.00    -0.027 C 
HETATM   15  C1  UNL     1       6.772 -10.475  -3.958  1.00  0.00     0.007 C 
ENDBRANCH   1  14
BRANCH  11  16
HETATM   16  O1  UNL     1       0.904 -10.203  -6.563  1.00  0.00    -0.396 OA
ATOM     17  H1  UNL     1       1.003  -9.299  -6.287  1.00  0.00     0.210 HD
ENDBRANCH  11  16
TORSDOF 2
ENDMDL
MODEL 5
REMARK VINA RESULT: -5.267391758      2.507      4.244
REMARK  2 active torsions:
REMARK  status: ('A' for Active; 'I' for Inactive)
REMARK    1  A    between atoms: C2_2  and  C3_3 
REMARK    2  A    between atoms: C12_13  and  O1_14 
ROOT
HETATM    1  C3  UNL     1       2.192 -13.396  -3.483  1.00  0.00    -0.023 C 
HETATM    2  C4  UNL     1       1.386 -13.061  -2.232  1.00  0.00     0.020 C 
HETATM    3  C5  UNL     1       1.354 -13.457  -4.706  1.00  0.00     0.015 C 
HETATM    4  C6  UNL     1       1.320 -12.263  -5.567  1.00  0.00     0.022 C 
HETATM    5  C7  UNL     1       2.582 -11.468  -5.635  1.00  0.00     0.090 C 
HETATM    6 CL1  UNL     1       2.229  -9.928  -6.464  1.00  0.00    -0.124 Cl
HETATM    7  C8  UNL     1       3.147 -11.195  -4.244  1.00  0.00    -0.022 C 
HETATM    8  C9  UNL     1       2.140 -10.363  -3.515  1.00  0.00     0.017 C 
HETATM    9  C10 UNL     1       4.422 -10.425  -4.346  1.00  0.00     0.013 C 
HETATM   10  C11 UNL     1       5.661 -11.174  -4.015  1.00  0.00     0.032 C 
HETATM   11  C12 UNL     1       5.593 -12.023  -2.789  1.00  0.00     0.118 C 
HETATM   12  C13 UNL     1       4.172 -12.347  -2.373  1.00  0.00     0.038 C 
HETATM   13  C14 UNL     1       3.393 -12.538  -3.638  1.00  0.00     0.009 C 
ENDROOT
BRANCH   1  14
HETATM   14  C2  UNL     1       2.711 -14.805  -3.252  1.00  0.00    -0.027 C 
HETATM   15  C1  UNL     1       1.869 -15.787  -2.961  1.00  0.00     0.007 C 
ENDBRANCH   1  14
BRANCH  11  16
HETATM   16  O1  UNL     1       6.354 -11.533  -1.734  1.00  0.00    -0.396 OA
ATOM     17  H1  UNL     1       5.838 -11.300  -0.971  1.00  0.00     0.210 HD
ENDBRANCH  11  16
TORSDOF 2
ENDMDL
