MODEL 1
REMARK VINA RESULT: -6.101984855      0.000      0.000
REMARK  2 active torsions:
REMARK  status: ('A' for Active; 'I' for Inactive)
REMARK    1  A    between atoms: C5_6  and  O1_7 
REMARK    2  A    between atoms: C5_6  and  C6_9 
ROOT
HETATM    1  C1  UNL     1       7.448 -11.444  -3.662  1.00  0.00     0.014 C 
HETATM    2  C2  UNL     1       6.307 -11.024  -3.558  1.00  0.00    -0.090 C 
HETATM    3  C3  UNL     1       4.944 -10.495  -3.427  1.00  0.00     0.109 C 
HETATM    4 CL1  UNL     1       5.077  -8.811  -2.911  1.00  0.00    -0.104 Cl
HETATM    5  C4  UNL     1       4.310 -10.555  -4.797  1.00  0.00     0.078 C 
HETATM    6  C5  UNL     1       2.833 -10.308  -4.772  1.00  0.00     0.067 C 
HETATM    7  C8  UNL     1       2.124 -11.173  -3.792  1.00  0.00     0.049 C 
HETATM    8  C9  UNL     1       2.728 -10.914  -2.424  1.00  0.00     0.024 C 
HETATM    9  C10 UNL     1       4.177 -11.337  -2.426  1.00  0.00    -0.010 C 
HETATM   10  C11 UNL     1       4.717 -11.011  -1.033  1.00  0.00     0.018 C 
HETATM   11  C12 UNL     1       4.346 -12.775  -2.765  1.00  0.00     0.016 C 
HETATM   12  C13 UNL     1       3.177 -13.471  -3.351  1.00  0.00     0.034 C 
HETATM   13  C14 UNL     1       2.175 -12.614  -4.022  1.00  0.00    -0.082 C 
HETATM   14  C15 UNL     1       1.327 -13.204  -4.831  1.00  0.00     0.015 C 
ENDROOT
BRANCH   6  15
HETATM   15  O1  UNL     1       2.587  -8.976  -4.344  1.00  0.00    -0.389 OA
ATOM     16  H1  UNL     1       1.903  -8.979  -3.686  1.00  0.00     0.210 HD
ENDBRANCH   6  15
BRANCH   6  17
HETATM   17  C6  UNL     1       2.289 -10.479  -6.158  1.00  0.00     0.034 C 
HETATM   18  C7  UNL     1       3.416 -10.437  -7.186  1.00  0.00     0.008 C 
ENDBRANCH   6  17
TORSDOF 2
ENDMDL
MODEL 2
REMARK VINA RESULT: -5.152149699      1.762      3.297
REMARK  2 active torsions:
REMARK  status: ('A' for Active; 'I' for Inactive)
REMARK    1  A    between atoms: C5_6  and  O1_7 
REMARK    2  A    between atoms: C5_6  and  C6_9 
ROOT
HETATM    1  C1  UNL     1       3.939 -15.487  -2.388  1.00  0.00     0.014 C 
HETATM    2  C2  UNL     1       3.814 -14.274  -2.341  1.00  0.00    -0.090 C 
HETATM    3  C3  UNL     1       3.670 -12.816  -2.259  1.00  0.00     0.109 C 
HETATM    4 CL1  UNL     1       4.025 -12.341  -0.595  1.00  0.00    -0.104 Cl
HETATM    5  C4  UNL     1       4.700 -12.214  -3.186  1.00  0.00     0.078 C 
HETATM    6  C5  UNL     1       4.496 -10.750  -3.420  1.00  0.00     0.067 C 
HETATM    7  C8  UNL     1       3.108 -10.425  -3.845  1.00  0.00     0.049 C 
HETATM    8  C9  UNL     1       2.165 -10.926  -2.767  1.00  0.00     0.024 C 
HETATM    9  C10 UNL     1       2.263 -12.429  -2.672  1.00  0.00    -0.010 C 
HETATM   10  C11 UNL     1       1.316 -12.847  -1.546  1.00  0.00     0.018 C 
HETATM   11  C12 UNL     1       1.929 -13.100  -3.957  1.00  0.00     0.016 C 
HETATM   12  C13 UNL     1       1.881 -12.250  -5.168  1.00  0.00     0.034 C 
HETATM   13  C14 UNL     1       2.655 -10.990  -5.113  1.00  0.00    -0.082 C 
HETATM   14  C15 UNL     1       2.914 -10.394  -6.253  1.00  0.00     0.015 C 
ENDROOT
BRANCH   6  15
HETATM   15  O1  UNL     1       4.690 -10.048  -2.201  1.00  0.00    -0.389 OA
ATOM     16  H1  UNL     1       5.465  -9.504  -2.271  1.00  0.00     0.210 HD
ENDBRANCH   6  15
BRANCH   6  17
HETATM   17  C6  UNL     1       5.507 -10.272  -4.417  1.00  0.00     0.034 C 
HETATM   18  C7  UNL     1       6.919 -10.644  -3.972  1.00  0.00     0.008 C 
ENDBRANCH   6  17
TORSDOF 2
ENDMDL
MODEL 3
REMARK VINA RESULT: -4.901562172      1.742      4.178
REMARK  2 active torsions:
REMARK  status: ('A' for Active; 'I' for Inactive)
REMARK    1  A    between atoms: C5_6  and  O1_7 
REMARK    2  A    between atoms: C5_6  and  C6_9 
ROOT
HETATM    1  C1  UNL     1       1.609 -13.076  -4.985  1.00  0.00     0.014 C 
HETATM    2  C2  UNL     1       2.056 -12.040  -4.521  1.00  0.00    -0.090 C 
HETATM    3  C3  UNL     1       2.584 -10.781  -3.982  1.00  0.00     0.109 C 
HETATM    4 CL1  UNL     1       2.012  -9.477  -5.027  1.00  0.00    -0.104 Cl
HETATM    5  C4  UNL     1       2.001 -10.611  -2.598  1.00  0.00     0.078 C 
HETATM    6  C5  UNL     1       2.657  -9.517  -1.814  1.00  0.00     0.067 C 
HETATM    7  C8  UNL     1       4.139  -9.643  -1.783  1.00  0.00     0.049 C 
HETATM    8  C9  UNL     1       4.634  -9.639  -3.217  1.00  0.00     0.024 C 
HETATM    9  C10 UNL     1       4.098 -10.851  -3.938  1.00  0.00    -0.010 C 
HETATM   10  C11 UNL     1       4.610 -10.752  -5.376  1.00  0.00     0.018 C 
HETATM   11  C12 UNL     1       4.510 -12.124  -3.288  1.00  0.00     0.016 C 
HETATM   12  C13 UNL     1       5.066 -12.032  -1.919  1.00  0.00     0.034 C 
HETATM   13  C14 UNL     1       4.687 -10.833  -1.139  1.00  0.00    -0.082 C 
HETATM   14  C15 UNL     1       4.870 -10.880   0.160  1.00  0.00     0.015 C 
ENDROOT
BRANCH   6  15
HETATM   15  O1  UNL     1       2.399  -8.270  -2.444  1.00  0.00    -0.389 OA
ATOM     16  H1  UNL     1       1.480  -8.054  -2.347  1.00  0.00     0.210 HD
ENDBRANCH   6  15
BRANCH   6  17
HETATM   17  C6  UNL     1       2.073  -9.491  -0.435  1.00  0.00     0.034 C 
HETATM   18  C7  UNL     1       1.078 -10.634  -0.250  1.00  0.00     0.008 C 
ENDBRANCH   6  17
TORSDOF 2
ENDMDL
MODEL 4
REMARK VINA RESULT: -4.886977654      2.018      3.347
REMARK  2 active torsions:
REMARK  status: ('A' for Active; 'I' for Inactive)
REMARK    1  A    between atoms: C5_6  and  O1_7 
REMARK    2  A    between atoms: C5_6  and  C6_9 
ROOT
HETATM    1  C1  UNL     1       4.621 -16.053  -2.352  1.00  0.00     0.014 C 
HETATM    2  C2  UNL     1       4.156 -14.928  -2.271  1.00  0.00    -0.090 C 
HETATM    3  C3  UNL     1       3.602 -13.574  -2.149  1.00  0.00     0.109 C 
HETATM    4 CL1  UNL     1       3.881 -13.035  -0.490  1.00  0.00    -0.104 Cl
HETATM    5  C4  UNL     1       4.374 -12.691  -3.103  1.00  0.00     0.078 C 
HETATM    6  C5  UNL     1       3.747 -11.344  -3.294  1.00  0.00     0.067 C 
HETATM    7  C8  UNL     1       2.307 -11.428  -3.655  1.00  0.00     0.049 C 
HETATM    8  C9  UNL     1       1.598 -12.191  -2.552  1.00  0.00     0.024 C 
HETATM    9  C10 UNL     1       2.127 -13.604  -2.497  1.00  0.00    -0.010 C 
HETATM   10  C11 UNL     1       1.391 -14.289  -1.344  1.00  0.00     0.018 C 
HETATM   11  C12 UNL     1       1.942 -14.328  -3.782  1.00  0.00     0.016 C 
HETATM   12  C13 UNL     1       1.598 -13.514  -4.970  1.00  0.00     0.034 C 
HETATM   13  C14 UNL     1       1.979 -12.085  -4.917  1.00  0.00    -0.082 C 
HETATM   14  C15 UNL     1       2.004 -11.428  -6.052  1.00  0.00     0.015 C 
ENDROOT
BRANCH   6  15
HETATM   15  O1  UNL     1       3.786 -10.630  -2.067  1.00  0.00    -0.389 OA
ATOM     16  H1  UNL     1       3.237 -11.071  -1.430  1.00  0.00     0.210 HD
ENDBRANCH   6  15
BRANCH   6  17
HETATM   17  C6  UNL     1       4.533 -10.585  -4.319  1.00  0.00     0.034 C 
HETATM   18  C7  UNL     1       6.016 -10.934  -4.227  1.00  0.00     0.008 C 
ENDBRANCH   6  17
TORSDOF 2
ENDMDL
MODEL 5
REMARK VINA RESULT: -4.825744918      2.195      3.916
REMARK  2 active torsions:
REMARK  status: ('A' for Active; 'I' for Inactive)
REMARK    1  A    between atoms: C5_6  and  O1_7 
REMARK    2  A    between atoms: C5_6  and  C6_9 
ROOT
HETATM    1  C1  UNL     1       1.414  -8.996  -0.796  1.00  0.00     0.014 C 
HETATM    2  C2  UNL     1       2.017  -9.842  -1.435  1.00  0.00    -0.090 C 
HETATM    3  C3  UNL     1       2.757 -10.866  -2.184  1.00  0.00     0.109 C 
HETATM    4 CL1  UNL     1       3.963 -11.553  -1.092  1.00  0.00    -0.104 Cl
HETATM    5  C4  UNL     1       1.764 -11.935  -2.576  1.00  0.00     0.078 C 
HETATM    6  C5  UNL     1       2.310 -12.906  -3.576  1.00  0.00     0.067 C 
HETATM    7  C8  UNL     1       2.902 -12.234  -4.764  1.00  0.00     0.049 C 
HETATM    8  C9  UNL     1       3.997 -11.306  -4.272  1.00  0.00     0.024 C 
HETATM    9  C10 UNL     1       3.393 -10.229  -3.405  1.00  0.00    -0.010 C 
HETATM   10  C11 UNL     1       4.560  -9.365  -2.924  1.00  0.00     0.018 C 
HETATM   11  C12 UNL     1       2.369  -9.429  -4.128  1.00  0.00     0.016 C 
HETATM   12  C13 UNL     1       1.868  -9.976  -5.409  1.00  0.00     0.034 C 
HETATM   13  C14 UNL     1       1.999 -11.438  -5.591  1.00  0.00    -0.082 C 
HETATM   14  C15 UNL     1       1.275 -11.993  -6.534  1.00  0.00     0.015 C 
ENDROOT
BRANCH   6  15
HETATM   15  O1  UNL     1       3.377 -13.636  -2.987  1.00  0.00    -0.389 OA
ATOM     16  H1  UNL     1       3.203 -14.566  -3.069  1.00  0.00     0.210 HD
ENDBRANCH   6  15
BRANCH   6  17
HETATM   17  C6  UNL     1       1.225 -13.864  -3.964  1.00  0.00     0.034 C 
HETATM   18  C7  UNL     1       0.404 -14.270  -2.743  1.00  0.00     0.008 C 
ENDBRANCH   6  17
TORSDOF 2
ENDMDL
