MODEL 1
REMARK VINA RESULT: -6.689546398      0.000      0.000
REMARK  2 active torsions:
REMARK  status: ('A' for Active; 'I' for Inactive)
REMARK    1  A    between atoms: C8_8  and  O1_9 
REMARK    2  A    between atoms: C10_12  and  N1_13 
ROOT
HETATM    1  C1  UNL     1       1.955 -14.527  -3.852  1.00  0.00     0.015 C 
HETATM    2  C2  UNL     1       2.394 -13.292  -3.637  1.00  0.00    -0.084 C 
HETATM    3  C3  UNL     1       3.463 -13.061  -2.632  1.00  0.00     0.034 C 
HETATM    4  C4  UNL     1       3.376 -11.738  -1.956  1.00  0.00     0.005 C 
HETATM    5  C5  UNL     1       2.613 -10.698  -2.712  1.00  0.00     0.012 C 
HETATM    6  C6  UNL     1       2.595 -10.949  -4.210  1.00  0.00    -0.011 C 
HETATM    7  C7  UNL     1       3.967 -11.020  -4.784  1.00  0.00     0.018 C 
HETATM    8  C8  UNL     1       1.751  -9.836  -4.830  1.00  0.00     0.128 C 
HETATM    9  C9  UNL     1       1.484 -10.046  -6.276  1.00  0.00     0.053 C 
HETATM   10  C10 UNL     1       1.747 -11.399  -6.806  1.00  0.00     0.077 C 
HETATM   11  C12 UNL     1       1.558 -12.527  -5.857  1.00  0.00     0.031 C 
HETATM   12  C13 UNL     1       1.782 -12.207  -4.426  1.00  0.00     0.026 C 
ENDROOT
BRANCH  10  13
HETATM   13  N1  UNL     1       0.958 -11.592  -8.014  1.00  0.00    -0.228 NA
HETATM   14  C11 UNL     1       1.118 -10.539  -8.965  1.00  0.00     0.131 C 
HETATM   15 CL1  UNL     1       1.116 -13.169  -8.678  1.00  0.00    -0.022 Cl
ENDBRANCH  10  13
BRANCH   8  16
HETATM   16  O1  UNL     1       2.341  -8.599  -4.555  1.00  0.00    -0.395 OA
ATOM     17  H1  UNL     1       1.743  -7.903  -4.802  1.00  0.00     0.210 HD
ENDBRANCH   8  16
TORSDOF 2
ENDMDL
MODEL 2
REMARK VINA RESULT: -6.649035128      2.744      4.077
REMARK  2 active torsions:
REMARK  status: ('A' for Active; 'I' for Inactive)
REMARK    1  A    between atoms: C8_8  and  O1_9 
REMARK    2  A    between atoms: C10_12  and  N1_13 
ROOT
HETATM    1  C1  UNL     1       4.203 -10.266  -5.406  1.00  0.00     0.015 C 
HETATM    2  C2  UNL     1       3.145 -11.016  -5.696  1.00  0.00    -0.084 C 
HETATM    3  C3  UNL     1       2.162 -11.338  -4.630  1.00  0.00     0.034 C 
HETATM    4  C4  UNL     1       1.500 -12.659  -4.803  1.00  0.00     0.005 C 
HETATM    5  C5  UNL     1       1.516 -13.190  -6.200  1.00  0.00     0.012 C 
HETATM    6  C6  UNL     1       1.632 -12.095  -7.247  1.00  0.00    -0.011 C 
HETATM    7  C7  UNL     1       0.529 -11.100  -7.146  1.00  0.00     0.018 C 
HETATM    8  C8  UNL     1       1.677 -12.793  -8.606  1.00  0.00     0.128 C 
HETATM    9  C9  UNL     1       1.976 -11.865  -9.727  1.00  0.00     0.053 C 
HETATM   10  C10 UNL     1       2.514 -10.539  -9.360  1.00  0.00     0.077 C 
HETATM   11  C12 UNL     1       3.337 -10.481  -8.124  1.00  0.00     0.031 C 
HETATM   12  C13 UNL     1       3.010 -11.490  -7.086  1.00  0.00     0.026 C 
ENDROOT
BRANCH  10  13
HETATM   13  N1  UNL     1       3.240  -9.995 -10.498  1.00  0.00    -0.228 NA
HETATM   14  C11 UNL     1       3.661  -8.645 -10.303  1.00  0.00     0.131 C 
HETATM   15 CL1  UNL     1       4.475 -11.041 -11.075  1.00  0.00    -0.022 Cl
ENDBRANCH  10  13
BRANCH   8  16
HETATM   16  O1  UNL     1       0.495 -13.517  -8.794  1.00  0.00    -0.395 OA
ATOM     17  H1  UNL     1       0.576 -14.053  -9.574  1.00  0.00     0.210 HD
ENDBRANCH   8  16
TORSDOF 2
ENDMDL
MODEL 3
REMARK VINA RESULT: -6.312253730      1.078      1.078
REMARK  2 active torsions:
REMARK  status: ('A' for Active; 'I' for Inactive)
REMARK    1  A    between atoms: C8_8  and  O1_9 
REMARK    2  A    between atoms: C10_12  and  N1_13 
ROOT
HETATM    1  C1  UNL     1       1.365 -14.463  -3.906  1.00  0.00     0.015 C 
HETATM    2  C2  UNL     1       1.875 -13.291  -3.545  1.00  0.00    -0.084 C 
HETATM    3  C3  UNL     1       2.698 -13.202  -2.312  1.00  0.00     0.034 C 
HETATM    4  C4  UNL     1       2.603 -11.888  -1.619  1.00  0.00     0.005 C 
HETATM    5  C5  UNL     1       2.156 -10.755  -2.485  1.00  0.00     0.012 C 
HETATM    6  C6  UNL     1       2.461 -10.979  -3.957  1.00  0.00    -0.011 C 
HETATM    7  C7  UNL     1       3.913 -11.201  -4.203  1.00  0.00     0.018 C 
HETATM    8  C8  UNL     1       1.912  -9.766  -4.707  1.00  0.00     0.128 C 
HETATM    9  C9  UNL     1       1.969  -9.920  -6.183  1.00  0.00     0.053 C 
HETATM   10  C10 UNL     1       2.198 -11.287  -6.695  1.00  0.00     0.077 C 
HETATM   11  C12 UNL     1       1.670 -12.399  -5.864  1.00  0.00     0.031 C 
HETATM   12  C13 UNL     1       1.588 -12.130  -4.407  1.00  0.00     0.026 C 
ENDROOT
BRANCH  10  13
HETATM   13  N1  UNL     1       1.697 -11.368  -8.059  1.00  0.00    -0.228 NA
HETATM   14  C11 UNL     1       1.287 -12.684  -8.430  1.00  0.00     0.131 C 
HETATM   15 CL1  UNL     1       0.550 -10.144  -8.431  1.00  0.00    -0.022 Cl
ENDBRANCH  10  13
BRANCH   8  16
HETATM   16  O1  UNL     1       2.555  -8.610  -4.251  1.00  0.00    -0.395 OA
ATOM     17  H1  UNL     1       1.927  -7.899  -4.206  1.00  0.00     0.210 HD
ENDBRANCH   8  16
TORSDOF 2
ENDMDL
MODEL 4
REMARK VINA RESULT: -6.103314800      3.662      5.060
REMARK  2 active torsions:
REMARK  status: ('A' for Active; 'I' for Inactive)
REMARK    1  A    between atoms: C8_8  and  O1_9 
REMARK    2  A    between atoms: C10_12  and  N1_13 
ROOT
HETATM    1  C1  UNL     1       0.853 -13.383  -8.320  1.00  0.00     0.015 C 
HETATM    2  C2  UNL     1       1.552 -12.264  -8.163  1.00  0.00    -0.084 C 
HETATM    3  C3  UNL     1       1.990 -11.861  -6.802  1.00  0.00     0.034 C 
HETATM    4  C4  UNL     1       2.081 -10.387  -6.612  1.00  0.00     0.005 C 
HETATM    5  C5  UNL     1       2.234  -9.602  -7.875  1.00  0.00     0.012 C 
HETATM    6  C6  UNL     1       2.860 -10.407  -9.001  1.00  0.00    -0.011 C 
HETATM    7  C7  UNL     1       4.198 -10.946  -8.630  1.00  0.00     0.018 C 
HETATM    8  C8  UNL     1       2.909  -9.488 -10.221  1.00  0.00     0.128 C 
HETATM    9  C9  UNL     1       3.329 -10.190 -11.461  1.00  0.00     0.053 C 
HETATM   10  C10 UNL     1       3.295 -11.666 -11.427  1.00  0.00     0.077 C 
HETATM   11  C12 UNL     1       2.263 -12.282 -10.553  1.00  0.00     0.031 C 
HETATM   12  C13 UNL     1       1.858 -11.478  -9.373  1.00  0.00     0.026 C 
ENDROOT
BRANCH  10  13
HETATM   13  N1  UNL     1       3.192 -12.166 -12.791  1.00  0.00    -0.228 NA
HETATM   14  C11 UNL     1       2.053 -11.662 -13.489  1.00  0.00     0.131 C 
HETATM   15 CL1  UNL     1       4.665 -12.044 -13.667  1.00  0.00    -0.022 Cl
ENDBRANCH  10  13
BRANCH   8  16
HETATM   16  O1  UNL     1       3.699  -8.372  -9.929  1.00  0.00    -0.395 OA
ATOM     17  H1  UNL     1       4.589  -8.655  -9.751  1.00  0.00     0.210 HD
ENDBRANCH   8  16
TORSDOF 2
ENDMDL
MODEL 5
REMARK VINA RESULT: -6.091528687      2.496      4.539
REMARK  2 active torsions:
REMARK  status: ('A' for Active; 'I' for Inactive)
REMARK    1  A    between atoms: C8_8  and  O1_9 
REMARK    2  A    between atoms: C10_12  and  N1_13 
ROOT
HETATM    1  C1  UNL     1       1.024 -13.166  -8.598  1.00  0.00     0.015 C 
HETATM    2  C2  UNL     1       1.655 -12.109  -8.099  1.00  0.00    -0.084 C 
HETATM    3  C3  UNL     1       1.726 -10.857  -8.895  1.00  0.00     0.034 C 
HETATM    4  C4  UNL     1       2.960 -10.060  -8.653  1.00  0.00     0.005 C 
HETATM    5  C5  UNL     1       3.638 -10.337  -7.350  1.00  0.00     0.012 C 
HETATM    6  C6  UNL     1       2.690 -10.875  -6.292  1.00  0.00    -0.011 C 
HETATM    7  C7  UNL     1       1.554  -9.948  -6.031  1.00  0.00     0.018 C 
HETATM    8  C8  UNL     1       3.532 -11.143  -5.045  1.00  0.00     0.128 C 
HETATM    9  C9  UNL     1       2.780 -11.848  -3.976  1.00  0.00     0.053 C 
HETATM   10  C10 UNL     1       1.505 -12.479  -4.372  1.00  0.00     0.077 C 
HETATM   11  C12 UNL     1       1.420 -12.972  -5.772  1.00  0.00     0.031 C 
HETATM   12  C13 UNL     1       2.257 -12.247  -6.759  1.00  0.00     0.026 C 
ENDROOT
BRANCH  10  13
HETATM   13  N1  UNL     1       1.189 -13.537  -3.424  1.00  0.00    -0.228 NA
HETATM   14  C11 UNL     1       1.938 -14.732  -3.645  1.00  0.00     0.131 C 
HETATM   15 CL1  UNL     1       1.184 -13.002  -1.791  1.00  0.00    -0.022 Cl
ENDBRANCH  10  13
BRANCH   8  16
HETATM   16  O1  UNL     1       4.111  -9.947  -4.611  1.00  0.00    -0.395 OA
ATOM     17  H1  UNL     1       5.056 -10.013  -4.675  1.00  0.00     0.210 HD
ENDBRANCH   8  16
TORSDOF 2
ENDMDL
