MODEL 1
REMARK VINA RESULT: -6.199575169      0.000      0.000
REMARK  1 active torsions:
REMARK  status: ('A' for Active; 'I' for Inactive)
REMARK    1  A    between atoms: N1_1  and  C1_4 
ROOT
HETATM    1  C1  UNL     1       1.667  -1.783   2.566  1.00  0.00     0.131 A 
HETATM    2  N2  UNL     1       1.098  -1.152   3.642  1.00  0.00    -0.337 N 
ATOM      3  H2  UNL     1       0.975  -1.665   4.515  1.00  0.00     0.168 HD
HETATM    4  C2  UNL     1       0.702   0.120   3.571  1.00  0.00     0.183 A 
HETATM    5  N3  UNL     1       0.875   0.773   2.412  1.00  0.00    -0.337 N 
ATOM      6  H3  UNL     1       0.573   1.746   2.356  1.00  0.00     0.168 HD
HETATM    7  C3  UNL     1       1.421   0.218   1.330  1.00  0.00     0.140 A 
HETATM    8  N4  UNL     1       1.592   0.874   0.173  1.00  0.00    -0.303 N 
ATOM      9  H4  UNL     1       1.290   1.847   0.117  1.00  0.00     0.171 HD
HETATM   10  C4  UNL     1       2.142   0.314  -0.914  1.00  0.00     0.315 A 
HETATM   11  O1  UNL     1       2.303   0.925  -1.996  1.00  0.00    -0.262 OA
HETATM   12  C5  UNL     1       2.551  -0.996  -0.843  1.00  0.00     0.314 A 
HETATM   13  O2  UNL     1       3.079  -1.562  -1.860  1.00  0.00    -0.262 OA
HETATM   14  N5  UNL     1       2.397  -1.690   0.300  1.00  0.00    -0.313 N 
ATOM     15  H5  UNL     1       2.702  -2.662   0.346  1.00  0.00     0.169 HD
HETATM   16  C6  UNL     1       1.847  -1.116   1.373  1.00  0.00     0.124 A 
ENDROOT
BRANCH   1  17
HETATM   17  N1  UNL     1       2.035  -3.008   2.676  1.00  0.00    -0.383 N 
ATOM     18  H12 UNL     1       2.753  -3.265   3.353  1.00  0.00     0.157 HD
ATOM     19  H11 UNL     1       1.602  -3.716   2.082  1.00  0.00     0.157 HD
ENDBRANCH   1  17
TORSDOF 1
ENDMDL
MODEL 2
REMARK VINA RESULT: -5.967634786      0.894      2.437
REMARK  1 active torsions:
REMARK  status: ('A' for Active; 'I' for Inactive)
REMARK    1  A    between atoms: N1_1  and  C1_4 
ROOT
HETATM    1  C1  UNL     1       0.660   0.406   2.694  1.00  0.00     0.131 A 
HETATM    2  N2  UNL     1       0.852  -0.230   3.893  1.00  0.00    -0.337 N 
ATOM      3  H2  UNL     1       0.310   0.063   4.706  1.00  0.00     0.168 HD
HETATM    4  C2  UNL     1       1.733  -1.225   4.019  1.00  0.00     0.183 A 
HETATM    5  N3  UNL     1       2.432  -1.591   2.935  1.00  0.00    -0.337 N 
ATOM      6  H3  UNL     1       3.106  -2.351   3.029  1.00  0.00     0.168 HD
HETATM    7  C3  UNL     1       2.294  -1.014   1.741  1.00  0.00     0.140 A 
HETATM    8  N4  UNL     1       2.996  -1.383   0.660  1.00  0.00    -0.303 N 
ATOM      9  H4  UNL     1       3.670  -2.143   0.755  1.00  0.00     0.171 HD
HETATM   10  C4  UNL     1       2.855  -0.802  -0.540  1.00  0.00     0.315 A 
HETATM   11  O1  UNL     1       3.510  -1.146  -1.552  1.00  0.00    -0.262 OA
HETATM   12  C5  UNL     1       1.949   0.222  -0.672  1.00  0.00     0.314 A 
HETATM   13  O2  UNL     1       1.788   0.798  -1.801  1.00  0.00    -0.262 OA
HETATM   14  N5  UNL     1       1.224   0.622   0.389  1.00  0.00    -0.313 N 
ATOM     15  H5  UNL     1       0.553   1.383   0.284  1.00  0.00     0.169 HD
HETATM   16  C6  UNL     1       1.378   0.032   1.577  1.00  0.00     0.124 A 
ENDROOT
BRANCH   1  17
HETATM   17  N1  UNL     1      -0.197   1.358   2.614  1.00  0.00    -0.383 N 
ATOM     18  H12 UNL     1      -0.724   1.497   1.752  1.00  0.00     0.157 HD
ATOM     19  H11 UNL     1      -0.344   1.968   3.419  1.00  0.00     0.157 HD
ENDBRANCH   1  17
TORSDOF 1
ENDMDL
MODEL 3
REMARK VINA RESULT: -5.614727474      3.206      4.321
REMARK  1 active torsions:
REMARK  status: ('A' for Active; 'I' for Inactive)
REMARK    1  A    between atoms: N1_1  and  C1_4 
ROOT
HETATM    1  C1  UNL     1       3.187   0.497   1.032  1.00  0.00     0.131 A 
HETATM    2  N2  UNL     1       3.201   0.965  -0.256  1.00  0.00    -0.337 N 
ATOM      3  H2  UNL     1       4.089   1.037  -0.752  1.00  0.00     0.168 HD
HETATM    4  C2  UNL     1       2.076   1.330  -0.874  1.00  0.00     0.183 A 
HETATM    5  N3  UNL     1       0.921   1.225  -0.200  1.00  0.00    -0.337 N 
ATOM      6  H3  UNL     1       0.060   1.503  -0.671  1.00  0.00     0.168 HD
HETATM    7  C3  UNL     1       0.839   0.777   1.053  1.00  0.00     0.140 A 
HETATM    8  N4  UNL     1      -0.318   0.675   1.724  1.00  0.00    -0.303 N 
ATOM      9  H4  UNL     1      -1.179   0.953   1.252  1.00  0.00     0.171 HD
HETATM   10  C4  UNL     1      -0.398   0.224   2.984  1.00  0.00     0.315 A 
HETATM   11  O1  UNL     1      -1.479   0.127   3.612  1.00  0.00    -0.262 OA
HETATM   12  C5  UNL     1       0.759  -0.151   3.623  1.00  0.00     0.314 A 
HETATM   13  O2  UNL     1       0.719  -0.586   4.824  1.00  0.00    -0.262 OA
HETATM   14  N5  UNL     1       1.940  -0.064   2.985  1.00  0.00    -0.313 N 
ATOM     15  H5  UNL     1       2.796  -0.345   3.464  1.00  0.00     0.169 HD
HETATM   16  C6  UNL     1       2.002   0.387   1.729  1.00  0.00     0.124 A 
ENDROOT
BRANCH   1  17
HETATM   17  N1  UNL     1       4.291   0.156   1.592  1.00  0.00    -0.383 N 
ATOM     18  H12 UNL     1       4.808  -0.652   1.246  1.00  0.00     0.157 HD
ATOM     19  H11 UNL     1       4.642   0.701   2.379  1.00  0.00     0.157 HD
ENDBRANCH   1  17
TORSDOF 1
ENDMDL
MODEL 4
REMARK VINA RESULT: -5.346148027      2.619      3.985
REMARK  1 active torsions:
REMARK  status: ('A' for Active; 'I' for Inactive)
REMARK    1  A    between atoms: N1_1  and  C1_4 
ROOT
HETATM    1  C1  UNL     1       2.366  -0.713  -0.656  1.00  0.00     0.131 A 
HETATM    2  N2  UNL     1       2.494   0.505  -1.272  1.00  0.00    -0.337 N 
ATOM      3  H2  UNL     1       2.737   0.542  -2.261  1.00  0.00     0.168 HD
HETATM    4  C2  UNL     1       2.306   1.645  -0.602  1.00  0.00     0.183 A 
HETATM    5  N3  UNL     1       1.985   1.569   0.698  1.00  0.00    -0.337 N 
ATOM      6  H3  UNL     1       1.842   2.439   1.211  1.00  0.00     0.168 HD
HETATM    7  C3  UNL     1       1.846   0.417   1.355  1.00  0.00     0.140 A 
HETATM    8  N4  UNL     1       1.526   0.347   2.656  1.00  0.00    -0.303 N 
ATOM      9  H4  UNL     1       1.382   1.217   3.168  1.00  0.00     0.171 HD
HETATM   10  C4  UNL     1       1.385  -0.812   3.315  1.00  0.00     0.315 A 
HETATM   11  O1  UNL     1       1.086  -0.881   4.530  1.00  0.00    -0.262 OA
HETATM   12  C5  UNL     1       1.578  -1.987   2.628  1.00  0.00     0.314 A 
HETATM   13  O2  UNL     1       1.452  -3.109   3.224  1.00  0.00    -0.262 OA
HETATM   14  N5  UNL     1       1.900  -1.959   1.322  1.00  0.00    -0.313 N 
ATOM     15  H5  UNL     1       2.042  -2.834   0.817  1.00  0.00     0.169 HD
HETATM   16  C6  UNL     1       2.036  -0.795   0.681  1.00  0.00     0.124 A 
ENDROOT
BRANCH   1  17
HETATM   17  N1  UNL     1       2.554  -1.786  -1.335  1.00  0.00    -0.383 N 
ATOM     18  H12 UNL     1       2.261  -1.828  -2.311  1.00  0.00     0.157 HD
ATOM     19  H11 UNL     1       2.998  -2.589  -0.889  1.00  0.00     0.157 HD
ENDBRANCH   1  17
TORSDOF 1
ENDMDL
MODEL 5
REMARK VINA RESULT: -5.264331212      2.656      4.612
REMARK  1 active torsions:
REMARK  status: ('A' for Active; 'I' for Inactive)
REMARK    1  A    between atoms: N1_1  and  C1_4 
ROOT
HETATM    1  C1  UNL     1       1.554   1.139   0.013  1.00  0.00     0.131 A 
HETATM    2  N2  UNL     1       2.105   0.929  -1.224  1.00  0.00    -0.337 N 
ATOM      3  H2  UNL     1       2.090   1.682  -1.912  1.00  0.00     0.168 HD
HETATM    4  C2  UNL     1       2.660  -0.241  -1.548  1.00  0.00     0.183 A 
HETATM    5  N3  UNL     1       2.667  -1.214  -0.625  1.00  0.00    -0.337 N 
ATOM      6  H3  UNL     1       3.090  -2.110  -0.870  1.00  0.00     0.168 HD
HETATM    7  C3  UNL     1       2.148  -1.075   0.596  1.00  0.00     0.140 A 
HETATM    8  N4  UNL     1       2.157  -2.051   1.515  1.00  0.00    -0.303 N 
ATOM      9  H4  UNL     1       2.581  -2.946   1.269  1.00  0.00     0.171 HD
HETATM   10  C4  UNL     1       1.635  -1.908   2.742  1.00  0.00     0.315 A 
HETATM   11  O1  UNL     1       1.642  -2.819   3.603  1.00  0.00    -0.262 OA
HETATM   12  C5  UNL     1       1.063  -0.705   3.077  1.00  0.00     0.314 A 
HETATM   13  O2  UNL     1       0.557  -0.533   4.237  1.00  0.00    -0.262 OA
HETATM   14  N5  UNL     1       1.035   0.300   2.183  1.00  0.00    -0.313 N 
ATOM     15  H5  UNL     1       0.609   1.192   2.437  1.00  0.00     0.169 HD
HETATM   16  C6  UNL     1       1.559   0.141   0.964  1.00  0.00     0.124 A 
ENDROOT
BRANCH   1  17
HETATM   17  N1  UNL     1       1.030   2.279   0.285  1.00  0.00    -0.383 N 
ATOM     18  H12 UNL     1       0.996   2.605   1.251  1.00  0.00     0.157 HD
ATOM     19  H11 UNL     1       0.652   2.850  -0.471  1.00  0.00     0.157 HD
ENDBRANCH   1  17
TORSDOF 1
ENDMDL
