MODEL 1
REMARK VINA RESULT: -6.326248613      0.000      0.000
REMARK  1 active torsions:
REMARK  status: ('A' for Active; 'I' for Inactive)
REMARK    1  A    between atoms: N1_1  and  C1_4 
ROOT
HETATM    1  C1  UNL     1       2.205  -1.032   3.644  1.00  0.00     0.679 A 
HETATM    2  N2  UNL     1       1.579  -1.966   2.905  1.00  0.00    -0.154 N 
ATOM      3  H2  UNL     1       1.167  -2.767   3.384  1.00  0.00     0.187 HD
HETATM    4  C2  UNL     1       1.467  -1.900   1.569  1.00  0.00     0.289 A 
HETATM    5  O1  UNL     1       0.882  -2.770   0.878  1.00  0.00    -0.265 OA
HETATM    6  C3  UNL     1       2.022  -0.820   0.916  1.00  0.00     0.138 A 
HETATM    7  N3  UNL     1       1.926  -0.725  -0.428  1.00  0.00    -0.302 N 
ATOM      8  H3  UNL     1       1.448  -1.441  -0.973  1.00  0.00     0.171 HD
HETATM    9  C4  UNL     1       2.483   0.346  -1.026  1.00  0.00     0.327 A 
HETATM   10  O2  UNL     1       2.417   0.472  -2.271  1.00  0.00    -0.247 OA
HETATM   11  N4  UNL     1       3.120   1.306  -0.341  1.00  0.00    -0.274 N 
ATOM     12  H4  UNL     1       3.530   2.102  -0.830  1.00  0.00     0.173 HD
HETATM   13  C5  UNL     1       3.215   1.209   0.998  1.00  0.00     0.279 A 
HETATM   14  O3  UNL     1       3.794   2.066   1.716  1.00  0.00    -0.265 OA
HETATM   15  C6  UNL     1       2.662   0.127   1.691  1.00  0.00     0.149 A 
HETATM   16  N5  UNL     1       2.758   0.034   3.031  1.00  0.00    -0.184 N 
ATOM     17  H5  UNL     1       3.238   0.754   3.571  1.00  0.00     0.184 HD
ENDROOT
BRANCH   1  18
HETATM   18  N1  UNL     1       2.291  -1.137   4.945  1.00  0.00    -0.234 N 
ATOM     19  H12 UNL     1       2.514  -2.043   5.358  1.00  0.00     0.174 HD
ATOM     20  H11 UNL     1       2.138  -0.334   5.555  1.00  0.00     0.174 HD
ENDBRANCH   1  18
TORSDOF 1
ENDMDL
MODEL 2
REMARK VINA RESULT: -5.618547692      2.464      3.215
REMARK  1 active torsions:
REMARK  status: ('A' for Active; 'I' for Inactive)
REMARK    1  A    between atoms: N1_1  and  C1_4 
ROOT
HETATM    1  C1  UNL     1      -0.938   0.176   2.501  1.00  0.00     0.679 A 
HETATM    2  N2  UNL     1      -0.204  -0.258   3.543  1.00  0.00    -0.154 N 
ATOM      3  H2  UNL     1      -0.694  -0.593   4.373  1.00  0.00     0.187 HD
HETATM    4  C2  UNL     1       1.137  -0.272   3.548  1.00  0.00     0.289 A 
HETATM    5  O1  UNL     1       1.823  -0.677   4.519  1.00  0.00    -0.265 OA
HETATM    6  C3  UNL     1       1.804   0.181   2.430  1.00  0.00     0.138 A 
HETATM    7  N3  UNL     1       3.154   0.180   2.404  1.00  0.00    -0.302 N 
ATOM      8  H3  UNL     1       3.695  -0.153   3.202  1.00  0.00     0.171 HD
HETATM    9  C4  UNL     1       3.765   0.631   1.292  1.00  0.00     0.327 A 
HETATM   10  O2  UNL     1       5.016   0.647   1.227  1.00  0.00    -0.247 OA
HETATM   11  N4  UNL     1       3.087   1.077   0.225  1.00  0.00    -0.274 N 
ATOM     12  H4  UNL     1       3.585   1.412  -0.600  1.00  0.00     0.173 HD
HETATM   13  C5  UNL     1       1.740   1.077   0.252  1.00  0.00     0.279 A 
HETATM   14  O3  UNL     1       1.028   1.476  -0.705  1.00  0.00    -0.265 OA
HETATM   15  C6  UNL     1       1.035   0.624   1.371  1.00  0.00     0.149 A 
HETATM   16  N5  UNL     1      -0.312   0.626   1.395  1.00  0.00    -0.184 N 
ATOM     17  H5  UNL     1      -0.847   0.960   0.593  1.00  0.00     0.184 HD
ENDROOT
BRANCH   1  18
HETATM   18  N1  UNL     1      -2.245   0.173   2.539  1.00  0.00    -0.234 N 
ATOM     19  H12 UNL     1      -2.720  -0.300   3.309  1.00  0.00     0.174 HD
ATOM     20  H11 UNL     1      -2.800   0.630   1.816  1.00  0.00     0.174 HD
ENDBRANCH   1  18
TORSDOF 1
ENDMDL
MODEL 3
REMARK VINA RESULT: -5.427554050      1.416      4.828
REMARK  1 active torsions:
REMARK  status: ('A' for Active; 'I' for Inactive)
REMARK    1  A    between atoms: N1_1  and  C1_4 
ROOT
HETATM    1  C1  UNL     1       2.503   0.357  -0.856  1.00  0.00     0.679 A 
HETATM    2  N2  UNL     1       3.165   1.296  -0.154  1.00  0.00    -0.154 N 
ATOM      3  H2  UNL     1       3.585   2.074  -0.663  1.00  0.00     0.187 HD
HETATM    4  C2  UNL     1       3.300   1.263   1.181  1.00  0.00     0.289 A 
HETATM    5  O1  UNL     1       3.916   2.138   1.837  1.00  0.00    -0.265 OA
HETATM    6  C3  UNL     1       2.735   0.214   1.873  1.00  0.00     0.138 A 
HETATM    7  N3  UNL     1       2.855   0.152   3.217  1.00  0.00    -0.302 N 
ATOM      8  H3  UNL     1       3.359   0.872   3.734  1.00  0.00     0.171 HD
HETATM    9  C4  UNL     1       2.287  -0.891   3.854  1.00  0.00     0.327 A 
HETATM   10  O2  UNL     1       2.375  -0.986   5.100  1.00  0.00    -0.247 OA
HETATM   11  N4  UNL     1       1.618  -1.856   3.207  1.00  0.00    -0.274 N 
ATOM     12  H4  UNL     1       1.203  -2.631   3.725  1.00  0.00     0.173 HD
HETATM   13  C5  UNL     1       1.500  -1.792   1.868  1.00  0.00     0.279 A 
HETATM   14  O3  UNL     1       0.889  -2.655   1.185  1.00  0.00    -0.265 OA
HETATM   15  C6  UNL     1       2.062  -0.741   1.136  1.00  0.00     0.149 A 
HETATM   16  N5  UNL     1       1.941  -0.681  -0.204  1.00  0.00    -0.184 N 
ATOM     17  H5  UNL     1       1.436  -1.405  -0.715  1.00  0.00     0.184 HD
ENDROOT
BRANCH   1  18
HETATM   18  N1  UNL     1       2.396   0.428  -2.157  1.00  0.00    -0.234 N 
ATOM     19  H12 UNL     1       3.193   0.751  -2.706  1.00  0.00     0.174 HD
ATOM     20  H11 UNL     1       1.532   0.170  -2.635  1.00  0.00     0.174 HD
ENDBRANCH   1  18
TORSDOF 1
ENDMDL
MODEL 4
REMARK VINA RESULT: -5.257421199      2.640      3.505
REMARK  1 active torsions:
REMARK  status: ('A' for Active; 'I' for Inactive)
REMARK    1  A    between atoms: N1_1  and  C1_4 
ROOT
HETATM    1  C1  UNL     1      -0.920   0.416   2.603  1.00  0.00     0.679 A 
HETATM    2  N2  UNL     1      -0.736   0.993   1.401  1.00  0.00    -0.154 N 
ATOM      3  H2  UNL     1      -1.556   1.330   0.896  1.00  0.00     0.187 HD
HETATM    4  C2  UNL     1       0.469   1.147   0.831  1.00  0.00     0.289 A 
HETATM    5  O1  UNL     1       0.642   1.686  -0.290  1.00  0.00    -0.265 OA
HETATM    6  C3  UNL     1       1.580   0.693   1.509  1.00  0.00     0.138 A 
HETATM    7  N3  UNL     1       2.807   0.833   0.961  1.00  0.00    -0.302 N 
ATOM      8  H3  UNL     1       2.928   1.273   0.049  1.00  0.00     0.171 HD
HETATM    9  C4  UNL     1       3.865   0.375   1.658  1.00  0.00     0.327 A 
HETATM   10  O2  UNL     1       5.020   0.486   1.185  1.00  0.00    -0.247 OA
HETATM   11  N4  UNL     1       3.743  -0.209   2.858  1.00  0.00    -0.274 N 
ATOM     12  H4  UNL     1       4.568  -0.544   3.354  1.00  0.00     0.173 HD
HETATM   13  C5  UNL     1       2.519  -0.348   3.402  1.00  0.00     0.279 A 
HETATM   14  O3  UNL     1       2.316  -0.883   4.523  1.00  0.00    -0.265 OA
HETATM   15  C6  UNL     1       1.372   0.102   2.740  1.00  0.00     0.149 A 
HETATM   16  N5  UNL     1       0.149  -0.038   3.288  1.00  0.00    -0.184 N 
ATOM     17  H5  UNL     1       0.035  -0.479   4.201  1.00  0.00     0.184 HD
ENDROOT
BRANCH   1  18
HETATM   18  N1  UNL     1      -2.113   0.286   3.122  1.00  0.00    -0.234 N 
ATOM     19  H12 UNL     1      -2.525   1.070   3.628  1.00  0.00     0.174 HD
ATOM     20  H11 UNL     1      -2.640  -0.584   3.032  1.00  0.00     0.174 HD
ENDBRANCH   1  18
TORSDOF 1
ENDMDL
MODEL 5
REMARK VINA RESULT: -5.241982297      1.029      1.029
REMARK  1 active torsions:
REMARK  status: ('A' for Active; 'I' for Inactive)
REMARK    1  A    between atoms: N1_1  and  C1_4 
ROOT
HETATM    1  C1  UNL     1       3.686  -0.664   3.571  1.00  0.00     0.679 A 
HETATM    2  N2  UNL     1       3.021  -1.750   3.137  1.00  0.00    -0.154 N 
ATOM      3  H2  UNL     1       2.929  -2.546   3.769  1.00  0.00     0.187 HD
HETATM    4  C2  UNL     1       2.473  -1.843   1.916  1.00  0.00     0.289 A 
HETATM    5  O1  UNL     1       1.851  -2.856   1.509  1.00  0.00    -0.265 OA
HETATM    6  C3  UNL     1       2.595  -0.771   1.057  1.00  0.00     0.138 A 
HETATM    7  N3  UNL     1       2.054  -0.834  -0.179  1.00  0.00    -0.302 N 
ATOM      8  H3  UNL     1       1.553  -1.665  -0.492  1.00  0.00     0.171 HD
HETATM    9  C4  UNL     1       2.198   0.235  -0.985  1.00  0.00     0.327 A 
HETATM   10  O2  UNL     1       1.711   0.218  -2.140  1.00  0.00    -0.247 OA
HETATM   11  N4  UNL     1       2.851   1.343  -0.608  1.00  0.00    -0.274 N 
ATOM     12  H4  UNL     1       2.939   2.133  -1.248  1.00  0.00     0.173 HD
HETATM   13  C5  UNL     1       3.389   1.403   0.625  1.00  0.00     0.279 A 
HETATM   14  O3  UNL     1       4.016   2.405   1.058  1.00  0.00    -0.265 OA
HETATM   15  C6  UNL     1       3.282   0.334   1.519  1.00  0.00     0.149 A 
HETATM   16  N5  UNL     1       3.822   0.398   2.752  1.00  0.00    -0.184 N 
ATOM     17  H5  UNL     1       4.323   1.233   3.059  1.00  0.00     0.184 HD
ENDROOT
BRANCH   1  18
HETATM   18  N1  UNL     1       4.206  -0.617   4.770  1.00  0.00    -0.234 N 
ATOM     19  H12 UNL     1       4.152  -1.440   5.369  1.00  0.00     0.174 HD
ATOM     20  H11 UNL     1       4.662   0.227   5.120  1.00  0.00     0.174 HD
ENDBRANCH   1  18
TORSDOF 1
ENDMDL
