MODEL 1
REMARK VINA RESULT: -3.455017491      0.000      0.000
REMARK  2 active torsions:
REMARK  status: ('A' for Active; 'I' for Inactive)
REMARK    1  A    between atoms: C3_5  and  N2_6 
REMARK       I    between atoms: N2_6  and  C4_8 
REMARK       I    between atoms: C4_8  and  N3_9 
REMARK       I    between atoms: C4_8  and  N4_13 
REMARK    2  A    between atoms: C5_19  and  N6_20 
ROOT
HETATM    1  C1  UNL     1       2.316   1.133  -0.645  1.00  0.00     0.070 C 
HETATM    2  C2  UNL     1       1.939   0.462   0.624  1.00  0.00     0.047 A 
HETATM    3  N1  UNL     1       0.655   0.174   0.892  1.00  0.00    -0.194 N 
ATOM      4  H1  UNL     1      -0.079   0.413   0.225  1.00  0.00     0.184 HD
HETATM    5  C3  UNL     1       0.351  -0.435   2.054  1.00  0.00     0.683 A 
HETATM    6  N5  UNL     1       1.252  -0.779   2.977  1.00  0.00    -0.176 N 
ATOM      7  H5  UNL     1       0.966  -1.240   3.841  1.00  0.00     0.186 HD
HETATM    8  C5  UNL     1       2.548  -0.504   2.738  1.00  0.00     0.137 A 
HETATM    9  C6  UNL     1       2.907   0.125   1.548  1.00  0.00     0.111 A 
HETATM   10  C7  UNL     1       4.285   0.434   1.260  1.00  0.00     0.105 C 
HETATM   11  N7  UNL     1       5.386   0.690   1.023  1.00  0.00    -0.191 NA
ENDROOT
BRANCH   8  12
HETATM   12  N6  UNL     1       3.486  -0.794   3.558  1.00  0.00    -0.384 N 
ATOM     13  H62 UNL     1       3.231  -0.923   4.538  1.00  0.00     0.157 HD
ATOM     14  H61 UNL     1       4.460  -0.899   3.275  1.00  0.00     0.157 HD
ENDBRANCH   8  12
BRANCH   5  15
HETATM   15  N2  UNL     1      -0.896  -0.689   2.263  1.00  0.00    -0.173 N 
HETATM   16  C4  UNL     1      -1.959   0.261   2.154  1.00  0.00     0.494 C 
HETATM   17  N3  UNL     1      -1.843   1.176   3.292  1.00  0.00    -0.032 N 
HETATM   18  N4  UNL     1      -3.218  -0.447   2.319  1.00  0.00    -0.032 N 
ATOM     19  H33 UNL     1      -1.828   0.694   4.191  1.00  0.00     0.278 HD
ATOM     20  H32 UNL     1      -0.924   1.612   3.360  1.00  0.00     0.278 HD
ATOM     21  H31 UNL     1      -2.601   1.854   3.214  1.00  0.00     0.278 HD
ATOM     22  H43 UNL     1      -3.319  -1.226   1.669  1.00  0.00     0.278 HD
ATOM     23  H42 UNL     1      -3.257  -0.984   3.185  1.00  0.00     0.278 HD
ATOM     24  H41 UNL     1      -3.976   0.231   2.241  1.00  0.00     0.278 HD
ATOM     25  H2  UNL     1      -1.144  -1.643   2.526  1.00  0.00     0.181 HD
ENDBRANCH   5  15
TORSDOF 2
ENDMDL
MODEL 2
REMARK VINA RESULT: -3.256925177      2.095      4.412
REMARK  2 active torsions:
REMARK  status: ('A' for Active; 'I' for Inactive)
REMARK    1  A    between atoms: C3_5  and  N2_6 
REMARK       I    between atoms: N2_6  and  C4_8 
REMARK       I    between atoms: C4_8  and  N3_9 
REMARK       I    between atoms: C4_8  and  N4_13 
REMARK    2  A    between atoms: C5_19  and  N6_20 
ROOT
HETATM    1  C1  UNL     1      -0.505   0.235   3.154  1.00  0.00     0.070 C 
HETATM    2  C2  UNL     1       0.879   0.191   2.623  1.00  0.00     0.047 A 
HETATM    3  N1  UNL     1       1.149   0.612   1.376  1.00  0.00    -0.194 N 
ATOM      4  H1  UNL     1       0.404   0.969   0.778  1.00  0.00     0.184 HD
HETATM    5  C3  UNL     1       2.418   0.556   0.928  1.00  0.00     0.683 A 
HETATM    6  N5  UNL     1       3.446   0.102   1.648  1.00  0.00    -0.176 N 
ATOM      7  H5  UNL     1       4.389   0.082   1.258  1.00  0.00     0.186 HD
HETATM    8  C5  UNL     1       3.209  -0.328   2.901  1.00  0.00     0.137 A 
HETATM    9  C6  UNL     1       1.911  -0.287   3.405  1.00  0.00     0.111 A 
HETATM   10  C7  UNL     1       1.621  -0.740   4.742  1.00  0.00     0.105 C 
HETATM   11  N7  UNL     1       1.378  -1.104   5.811  1.00  0.00    -0.191 NA
ENDROOT
BRANCH   8  12
HETATM   12  N6  UNL     1       4.126  -0.780   3.670  1.00  0.00    -0.384 N 
ATOM     13  H62 UNL     1       4.940  -0.185   3.832  1.00  0.00     0.157 HD
ATOM     14  H61 UNL     1       4.076  -1.695   4.118  1.00  0.00     0.157 HD
ENDBRANCH   8  12
BRANCH   5  15
HETATM   15  N2  UNL     1       2.624   0.973  -0.275  1.00  0.00    -0.173 N 
HETATM   16  C4  UNL     1       2.127   0.345  -1.460  1.00  0.00     0.494 C 
HETATM   17  N3  UNL     1       2.882  -0.896  -1.644  1.00  0.00    -0.032 N 
HETATM   18  N4  UNL     1       2.447   1.197  -2.593  1.00  0.00    -0.032 N 
ATOM     19  H33 UNL     1       3.892  -0.750  -1.663  1.00  0.00     0.278 HD
ATOM     20  H32 UNL     1       2.853  -1.506  -0.827  1.00  0.00     0.278 HD
ATOM     21  H31 UNL     1       2.528  -1.344  -2.489  1.00  0.00     0.278 HD
ATOM     22  H43 UNL     1       2.103   2.150  -2.478  1.00  0.00     0.278 HD
ATOM     23  H42 UNL     1       3.441   1.417  -2.651  1.00  0.00     0.278 HD
ATOM     24  H41 UNL     1       2.093   0.748  -3.437  1.00  0.00     0.278 HD
ATOM     25  H2  UNL     1       3.185   1.816  -0.391  1.00  0.00     0.181 HD
ENDBRANCH   5  15
TORSDOF 2
ENDMDL
MODEL 3
REMARK VINA RESULT: -2.948520145      0.759      2.217
REMARK  2 active torsions:
REMARK  status: ('A' for Active; 'I' for Inactive)
REMARK    1  A    between atoms: C3_5  and  N2_6 
REMARK       I    between atoms: N2_6  and  C4_8 
REMARK       I    between atoms: C4_8  and  N3_9 
REMARK       I    between atoms: C4_8  and  N4_13 
REMARK    2  A    between atoms: C5_19  and  N6_20 
ROOT
HETATM    1  C1  UNL     1       3.599  -0.613   3.534  1.00  0.00     0.070 C 
HETATM    2  C2  UNL     1       2.530  -0.291   2.558  1.00  0.00     0.047 A 
HETATM    3  N1  UNL     1       1.250  -0.608   2.815  1.00  0.00    -0.194 N 
ATOM      4  H1  UNL     1       0.997  -1.074   3.686  1.00  0.00     0.184 HD
HETATM    5  C3  UNL     1       0.306  -0.300   1.905  1.00  0.00     0.683 A 
HETATM    6  N5  UNL     1       0.556   0.308   0.743  1.00  0.00    -0.176 N 
ATOM      7  H5  UNL     1      -0.199   0.518   0.090  1.00  0.00     0.186 HD
HETATM    8  C5  UNL     1       1.829   0.638   0.456  1.00  0.00     0.137 A 
HETATM    9  C6  UNL     1       2.837   0.339   1.370  1.00  0.00     0.111 A 
HETATM   10  C7  UNL     1       4.211   0.679   1.095  1.00  0.00     0.105 C 
HETATM   11  N7  UNL     1       5.314   0.943   0.881  1.00  0.00    -0.191 NA
ENDROOT
BRANCH   8  12
HETATM   12  N6  UNL     1       2.171   1.223  -0.629  1.00  0.00    -0.384 N 
ATOM     13  H62 UNL     1       1.626   1.017  -1.467  1.00  0.00     0.157 HD
ATOM     14  H61 UNL     1       2.953   1.876  -0.688  1.00  0.00     0.157 HD
ENDBRANCH   8  12
BRANCH   5  15
HETATM   15  N2  UNL     1      -0.907  -0.626   2.199  1.00  0.00    -0.173 N 
HETATM   16  C4  UNL     1      -2.031   0.257   2.149  1.00  0.00     0.494 C 
HETATM   17  N3  UNL     1      -1.897   1.196   3.264  1.00  0.00    -0.032 N 
HETATM   18  N4  UNL     1      -3.231  -0.522   2.406  1.00  0.00    -0.032 N 
ATOM     19  H33 UNL     1      -1.794   0.732   4.167  1.00  0.00     0.278 HD
ATOM     20  H32 UNL     1      -1.004   1.688   3.266  1.00  0.00     0.278 HD
ATOM     21  H31 UNL     1      -2.698   1.826   3.228  1.00  0.00     0.278 HD
ATOM     22  H43 UNL     1      -3.326  -1.318   1.774  1.00  0.00     0.278 HD
ATOM     23  H42 UNL     1      -3.181  -1.046   3.279  1.00  0.00     0.278 HD
ATOM     24  H41 UNL     1      -4.032   0.108   2.369  1.00  0.00     0.278 HD
ATOM     25  H2  UNL     1      -1.078  -1.588   2.491  1.00  0.00     0.181 HD
ENDBRANCH   5  15
TORSDOF 2
ENDMDL
MODEL 4
REMARK VINA RESULT: -2.605940268      1.565      2.735
REMARK  2 active torsions:
REMARK  status: ('A' for Active; 'I' for Inactive)
REMARK    1  A    between atoms: C3_5  and  N2_6 
REMARK       I    between atoms: N2_6  and  C4_8 
REMARK       I    between atoms: C4_8  and  N3_9 
REMARK       I    between atoms: C4_8  and  N4_13 
REMARK    2  A    between atoms: C5_19  and  N6_20 
ROOT
HETATM    1  C1  UNL     1       2.454  -0.838   3.559  1.00  0.00     0.070 C 
HETATM    2  C2  UNL     1       1.315  -0.248   2.814  1.00  0.00     0.047 A 
HETATM    3  N1  UNL     1       0.049  -0.526   3.166  1.00  0.00    -0.194 N 
ATOM      4  H1  UNL     1      -0.146  -1.146   3.951  1.00  0.00     0.184 HD
HETATM    5  C3  UNL     1      -0.959   0.028   2.465  1.00  0.00     0.683 A 
HETATM    6  N5  UNL     1      -0.787   0.848   1.426  1.00  0.00    -0.176 N 
ATOM      7  H5  UNL     1      -1.588   1.239   0.931  1.00  0.00     0.186 HD
HETATM    8  C5  UNL     1       0.470   1.145   1.049  1.00  0.00     0.137 A 
HETATM    9  C6  UNL     1       1.543   0.595   1.746  1.00  0.00     0.111 A 
HETATM   10  C7  UNL     1       2.902   0.892   1.368  1.00  0.00     0.105 C 
HETATM   11  N7  UNL     1       3.994   1.120   1.071  1.00  0.00    -0.191 NA
ENDROOT
BRANCH   8  12
HETATM   12  N6  UNL     1       0.739   1.920   0.067  1.00  0.00    -0.384 N 
ATOM     13  H62 UNL     1       0.276   2.829   0.044  1.00  0.00     0.157 HD
ATOM     14  H61 UNL     1       1.388   1.669  -0.680  1.00  0.00     0.157 HD
ENDBRANCH   8  12
BRANCH   5  15
HETATM   15  N2  UNL     1      -2.156  -0.270   2.844  1.00  0.00    -0.173 N 
HETATM   16  C4  UNL     1      -3.120  -0.966   2.050  1.00  0.00     0.494 C 
HETATM   17  N3  UNL     1      -3.564  -0.048   0.999  1.00  0.00    -0.032 N 
HETATM   18  N4  UNL     1      -4.281  -1.237   2.881  1.00  0.00    -0.032 N 
ATOM     19  H33 UNL     1      -3.913   0.838   1.365  1.00  0.00     0.278 HD
ATOM     20  H32 UNL     1      -2.794   0.330   0.449  1.00  0.00     0.278 HD
ATOM     21  H31 UNL     1      -4.252  -0.545   0.433  1.00  0.00     0.278 HD
ATOM     22  H43 UNL     1      -4.044  -1.735   3.739  1.00  0.00     0.278 HD
ATOM     23  H42 UNL     1      -4.661  -0.394   3.313  1.00  0.00     0.278 HD
ATOM     24  H41 UNL     1      -4.969  -1.733   2.315  1.00  0.00     0.278 HD
ATOM     25  H2  UNL     1      -2.437   0.013   3.782  1.00  0.00     0.181 HD
ENDBRANCH   5  15
TORSDOF 2
ENDMDL
MODEL 5
REMARK VINA RESULT: -2.564288326      1.328      1.564
REMARK  2 active torsions:
REMARK  status: ('A' for Active; 'I' for Inactive)
REMARK    1  A    between atoms: C3_5  and  N2_6 
REMARK       I    between atoms: N2_6  and  C4_8 
REMARK       I    between atoms: C4_8  and  N3_9 
REMARK       I    between atoms: C4_8  and  N4_13 
REMARK    2  A    between atoms: C5_19  and  N6_20 
ROOT
HETATM    1  C1  UNL     1       3.627   0.592   0.889  1.00  0.00     0.070 C 
HETATM    2  C2  UNL     1       2.549   0.062   1.760  1.00  0.00     0.047 A 
HETATM    3  N1  UNL     1       1.281   0.005   1.322  1.00  0.00    -0.194 N 
ATOM      4  H1  UNL     1       1.042   0.325   0.384  1.00  0.00     0.184 HD
HETATM    5  C3  UNL     1       0.329  -0.482   2.141  1.00  0.00     0.683 A 
HETATM    6  N5  UNL     1       0.560  -0.920   3.381  1.00  0.00    -0.176 N 
ATOM      7  H5  UNL     1      -0.199  -1.280   3.959  1.00  0.00     0.186 HD
HETATM    8  C5  UNL     1       1.821  -0.875   3.848  1.00  0.00     0.137 A 
HETATM    9  C6  UNL     1       2.837  -0.380   3.035  1.00  0.00     0.111 A 
HETATM   10  C7  UNL     1       4.199  -0.318   3.504  1.00  0.00     0.105 C 
HETATM   11  N7  UNL     1       5.292  -0.260   3.872  1.00  0.00    -0.191 NA
ENDROOT
BRANCH   8  12
HETATM   12  N6  UNL     1       2.146  -1.272   5.022  1.00  0.00    -0.384 N 
ATOM     13  H62 UNL     1       1.399  -1.360   5.711  1.00  0.00     0.157 HD
ATOM     14  H61 UNL     1       3.104  -1.498   5.288  1.00  0.00     0.157 HD
ENDBRANCH   8  12
BRANCH   5  15
HETATM   15  N2  UNL     1      -0.873  -0.516   1.673  1.00  0.00    -0.173 N 
HETATM   16  C4  UNL     1      -1.928   0.371   2.052  1.00  0.00     0.494 C 
HETATM   17  N3  UNL     1      -2.332   0.012   3.413  1.00  0.00    -0.032 N 
HETATM   18  N4  UNL     1      -3.073   0.105   1.197  1.00  0.00    -0.032 N 
ATOM     19  H33 UNL     1      -2.584  -0.972   3.508  1.00  0.00     0.278 HD
ATOM     20  H32 UNL     1      -1.554   0.013   4.073  1.00  0.00     0.278 HD
ATOM     21  H31 UNL     1      -3.084   0.645   3.683  1.00  0.00     0.278 HD
ATOM     22  H43 UNL     1      -2.845   0.165   0.205  1.00  0.00     0.278 HD
ATOM     23  H42 UNL     1      -3.357  -0.875   1.213  1.00  0.00     0.278 HD
ATOM     24  H41 UNL     1      -3.825   0.738   1.467  1.00  0.00     0.278 HD
ATOM     25  H2  UNL     1      -1.087  -1.231   0.979  1.00  0.00     0.181 HD
ENDBRANCH   5  15
TORSDOF 2
ENDMDL
