MODEL 1
REMARK VINA RESULT: -5.173434787      0.000      0.000
REMARK  4 active torsions:
REMARK  status: ('A' for Active; 'I' for Inactive)
REMARK    1  A    between atoms: C3_7  and  N3_8 
REMARK    2  A    between atoms: C4_13  and  C5_14 
REMARK    3  A    between atoms: C5_14  and  O1_15 
REMARK    4  A    between atoms: O1_15  and  N5_16 
ROOT
HETATM    1  C1  UNL     1       2.449   0.736  -1.641  1.00  0.00     0.147 C 
HETATM    2  N1  UNL     1       2.459  -0.313  -0.725  1.00  0.00    -0.379 N 
ATOM      3  H1  UNL     1       3.073  -1.062  -1.044  1.00  0.00     0.160 HD
HETATM    4  C2  UNL     1       1.947  -0.604   0.357  1.00  0.00     0.139 A 
HETATM    5  N2  UNL     1       2.268  -1.810   0.917  1.00  0.00    -0.176 N 
ATOM      6  H2  UNL     1       2.914  -2.437   0.438  1.00  0.00     0.186 HD
HETATM    7  C3  UNL     1       1.733  -2.174   2.097  1.00  0.00     0.677 A 
HETATM    8  N4  UNL     1       0.878  -1.385   2.769  1.00  0.00    -0.192 N 
ATOM      9  H4  UNL     1       0.494  -1.695   3.662  1.00  0.00     0.184 HD
HETATM   10  C4  UNL     1       0.527  -0.188   2.269  1.00  0.00     0.077 A 
HETATM   11  C6  UNL     1       1.082   0.190   1.040  1.00  0.00     0.114 A 
HETATM   12  C7  UNL     1       0.695   1.455   0.535  1.00  0.00     0.105 C 
HETATM   13  N6  UNL     1       0.364   2.495   0.141  1.00  0.00    -0.191 NA
ENDROOT
BRANCH  10  14
HETATM   14  C5  UNL     1      -0.417   0.702   2.992  1.00  0.00     0.259 C 
BRANCH  14  15
HETATM   15  O1  UNL     1      -1.564   0.054   3.382  1.00  0.00    -0.281 OA
BRANCH  15  16
HETATM   16  N5  UNL     1      -2.378  -0.062   2.332  1.00  0.00    -0.311 N 
ATOM     17  H52 UNL     1      -2.441   0.611   1.568  1.00  0.00     0.184 HD
ATOM     18  H51 UNL     1      -2.917  -0.924   2.421  1.00  0.00     0.184 HD
ENDBRANCH  15  16
ENDBRANCH  14  15
ENDBRANCH  10  14
BRANCH   7  19
HETATM   19  N3  UNL     1       2.027  -3.320   2.647  1.00  0.00    -0.234 N 
ATOM     20  H32 UNL     1       2.248  -4.088   2.012  1.00  0.00     0.174 HD
ATOM     21  H31 UNL     1       2.032  -3.434   3.660  1.00  0.00     0.174 HD
ENDBRANCH   7  19
TORSDOF 4
ENDMDL
MODEL 2
REMARK VINA RESULT: -4.876650238      1.814      3.509
REMARK  4 active torsions:
REMARK  status: ('A' for Active; 'I' for Inactive)
REMARK    1  A    between atoms: C3_7  and  N3_8 
REMARK    2  A    between atoms: C4_13  and  C5_14 
REMARK    3  A    between atoms: C5_14  and  O1_15 
REMARK    4  A    between atoms: O1_15  and  N5_16 
ROOT
HETATM    1  C1  UNL     1       4.196  -0.869   3.621  1.00  0.00     0.147 C 
HETATM    2  N1  UNL     1       3.837  -0.317   2.394  1.00  0.00    -0.379 N 
ATOM      3  H1  UNL     1       4.646  -0.258   1.776  1.00  0.00     0.160 HD
HETATM    4  C2  UNL     1       2.831   0.121   1.833  1.00  0.00     0.139 A 
HETATM    5  N2  UNL     1       2.959   0.585   0.553  1.00  0.00    -0.176 N 
ATOM      6  H2  UNL     1       3.868   0.561   0.092  1.00  0.00     0.186 HD
HETATM    7  C3  UNL     1       1.889   1.074  -0.101  1.00  0.00     0.677 A 
HETATM    8  N4  UNL     1       0.669   1.127   0.460  1.00  0.00    -0.192 N 
ATOM      9  H4  UNL     1      -0.117   1.505  -0.068  1.00  0.00     0.184 HD
HETATM   10  C4  UNL     1       0.483   0.685   1.715  1.00  0.00     0.077 A 
HETATM   11  C6  UNL     1       1.596   0.177   2.397  1.00  0.00     0.114 A 
HETATM   12  C7  UNL     1       1.372  -0.282   3.717  1.00  0.00     0.105 C 
HETATM   13  N6  UNL     1       1.165  -0.652   4.797  1.00  0.00    -0.191 NA
ENDROOT
BRANCH  10  14
HETATM   14  C5  UNL     1      -0.856   0.733   2.358  1.00  0.00     0.259 C 
BRANCH  14  15
HETATM   15  O1  UNL     1      -1.511  -0.473   2.309  1.00  0.00    -0.281 OA
BRANCH  15  16
HETATM   16  N5  UNL     1      -2.816  -0.254   2.139  1.00  0.00    -0.311 N 
ATOM     17  H52 UNL     1      -3.307   0.589   2.436  1.00  0.00     0.184 HD
ATOM     18  H51 UNL     1      -3.231  -1.059   1.669  1.00  0.00     0.184 HD
ENDBRANCH  15  16
ENDBRANCH  14  15
ENDBRANCH  10  14
BRANCH   7  19
HETATM   19  N3  UNL     1       1.992   1.522  -1.322  1.00  0.00    -0.234 N 
ATOM     20  H32 UNL     1       1.679   2.479  -1.487  1.00  0.00     0.174 HD
ATOM     21  H31 UNL     1       2.367   0.937  -2.069  1.00  0.00     0.174 HD
ENDBRANCH   7  19
TORSDOF 4
ENDMDL
MODEL 3
REMARK VINA RESULT: -4.794900336      2.478      4.637
REMARK  4 active torsions:
REMARK  status: ('A' for Active; 'I' for Inactive)
REMARK    1  A    between atoms: C3_7  and  N3_8 
REMARK    2  A    between atoms: C4_13  and  C5_14 
REMARK    3  A    between atoms: C5_14  and  O1_15 
REMARK    4  A    between atoms: O1_15  and  N5_16 
ROOT
HETATM    1  C1  UNL     1      -1.458   0.693   3.119  1.00  0.00     0.147 C 
HETATM    2  N1  UNL     1      -0.710   0.853   1.956  1.00  0.00    -0.379 N 
ATOM      3  H1  UNL     1      -1.274   1.286   1.224  1.00  0.00     0.160 HD
HETATM    4  C2  UNL     1       0.430   0.628   1.548  1.00  0.00     0.139 A 
HETATM    5  N2  UNL     1       0.734   0.975   0.260  1.00  0.00    -0.176 N 
ATOM      6  H2  UNL     1       0.023   1.408  -0.330  1.00  0.00     0.186 HD
HETATM    7  C3  UNL     1       1.966   0.748  -0.231  1.00  0.00     0.677 A 
HETATM    8  N4  UNL     1       2.937   0.182   0.505  1.00  0.00    -0.192 N 
ATOM      9  H4  UNL     1       3.859   0.027   0.097  1.00  0.00     0.184 HD
HETATM   10  C4  UNL     1       2.698  -0.179   1.777  1.00  0.00     0.077 A 
HETATM   11  C6  UNL     1       1.416   0.056   2.289  1.00  0.00     0.114 A 
HETATM   12  C7  UNL     1       1.190  -0.334   3.630  1.00  0.00     0.105 C 
HETATM   13  N6  UNL     1       1.028  -0.662   4.732  1.00  0.00    -0.191 NA
ENDROOT
BRANCH  10  14
HETATM   14  C5  UNL     1       3.755  -0.807   2.611  1.00  0.00     0.259 C 
BRANCH  14  15
HETATM   15  O1  UNL     1       4.306   0.068   3.516  1.00  0.00    -0.281 OA
BRANCH  15  16
HETATM   16  N5  UNL     1       5.187  -0.585   4.275  1.00  0.00    -0.311 N 
ATOM     17  H52 UNL     1       5.029  -1.506   4.685  1.00  0.00     0.184 HD
ATOM     18  H51 UNL     1       6.029  -0.018   4.371  1.00  0.00     0.184 HD
ENDBRANCH  15  16
ENDBRANCH  14  15
ENDBRANCH  10  14
BRANCH   7  19
HETATM   19  N3  UNL     1       2.273   1.072  -1.457  1.00  0.00    -0.234 N 
ATOM     20  H32 UNL     1       2.603   0.318  -2.061  1.00  0.00     0.174 HD
ATOM     21  H31 UNL     1       2.186   2.033  -1.787  1.00  0.00     0.174 HD
ENDBRANCH   7  19
TORSDOF 4
ENDMDL
MODEL 4
REMARK VINA RESULT: -4.699140296      1.425      1.536
REMARK  4 active torsions:
REMARK  status: ('A' for Active; 'I' for Inactive)
REMARK    1  A    between atoms: C3_7  and  N3_8 
REMARK    2  A    between atoms: C4_13  and  C5_14 
REMARK    3  A    between atoms: C5_14  and  O1_15 
REMARK    4  A    between atoms: O1_15  and  N5_16 
ROOT
HETATM    1  C1  UNL     1       3.356  -0.561  -0.664  1.00  0.00     0.147 C 
HETATM    2  N1  UNL     1       3.185  -0.907   0.674  1.00  0.00    -0.379 N 
ATOM      3  H1  UNL     1       3.893  -1.582   0.963  1.00  0.00     0.160 HD
HETATM    4  C2  UNL     1       2.432  -0.641   1.612  1.00  0.00     0.139 A 
HETATM    5  N2  UNL     1       2.657  -1.255   2.813  1.00  0.00    -0.176 N 
ATOM      6  H2  UNL     1       3.432  -1.912   2.910  1.00  0.00     0.186 HD
HETATM    7  C3  UNL     1       1.862  -0.997   3.867  1.00  0.00     0.677 A 
HETATM    8  N4  UNL     1       0.830  -0.139   3.792  1.00  0.00    -0.192 N 
ATOM      9  H4  UNL     1       0.249   0.030   4.614  1.00  0.00     0.184 HD
HETATM   10  C4  UNL     1       0.560   0.495   2.638  1.00  0.00     0.077 A 
HETATM   11  C6  UNL     1       1.387   0.225   1.541  1.00  0.00     0.114 A 
HETATM   12  C7  UNL     1       1.081   0.906   0.338  1.00  0.00     0.105 C 
HETATM   13  N6  UNL     1       0.811   1.475  -0.637  1.00  0.00    -0.191 NA
ENDROOT
BRANCH  10  14
HETATM   14  C5  UNL     1      -0.576   1.447   2.530  1.00  0.00     0.259 C 
BRANCH  14  15
HETATM   15  O1  UNL     1      -1.724   0.970   3.113  1.00  0.00    -0.281 OA
BRANCH  15  16
HETATM   16  N5  UNL     1      -2.243   0.015   2.340  1.00  0.00    -0.311 N 
ATOM     17  H52 UNL     1      -2.628  -0.865   2.684  1.00  0.00     0.184 HD
ATOM     18  H51 UNL     1      -2.190   0.309   1.366  1.00  0.00     0.184 HD
ENDBRANCH  15  16
ENDBRANCH  14  15
ENDBRANCH  10  14
BRANCH   7  19
HETATM   19  N3  UNL     1       2.061  -1.574   5.020  1.00  0.00    -0.234 N 
ATOM     20  H32 UNL     1       2.276  -2.571   5.002  1.00  0.00     0.174 HD
ATOM     21  H31 UNL     1       2.003  -1.046   5.891  1.00  0.00     0.174 HD
ENDBRANCH   7  19
TORSDOF 4
ENDMDL
MODEL 5
REMARK VINA RESULT: -4.681478035      1.680      3.502
REMARK  4 active torsions:
REMARK  status: ('A' for Active; 'I' for Inactive)
REMARK    1  A    between atoms: C3_7  and  N3_8 
REMARK    2  A    between atoms: C4_13  and  C5_14 
REMARK    3  A    between atoms: C5_14  and  O1_15 
REMARK    4  A    between atoms: O1_15  and  N5_16 
ROOT
HETATM    1  C1  UNL     1       2.102   1.221  -1.240  1.00  0.00     0.147 C 
HETATM    2  N1  UNL     1       1.090   1.369  -0.294  1.00  0.00    -0.379 N 
ATOM      3  H1  UNL     1       0.368   2.002  -0.637  1.00  0.00     0.160 HD
HETATM    4  C2  UNL     1       0.809   0.962   0.834  1.00  0.00     0.139 A 
HETATM    5  N2  UNL     1      -0.355   1.399   1.404  1.00  0.00    -0.176 N 
ATOM      6  H2  UNL     1      -0.960   2.043   0.895  1.00  0.00     0.186 HD
HETATM    7  C3  UNL     1      -0.706   0.984   2.635  1.00  0.00     0.677 A 
HETATM    8  N4  UNL     1       0.055   0.135   3.347  1.00  0.00    -0.192 N 
ATOM      9  H4  UNL     1      -0.245  -0.157   4.278  1.00  0.00     0.184 HD
HETATM   10  C4  UNL     1       1.209  -0.329   2.839  1.00  0.00     0.077 A 
HETATM   11  C6  UNL     1       1.574   0.104   1.558  1.00  0.00     0.114 A 
HETATM   12  C7  UNL     1       2.794  -0.399   1.046  1.00  0.00     0.105 C 
HETATM   13  N6  UNL     1       3.797  -0.824   0.647  1.00  0.00    -0.191 NA
ENDROOT
BRANCH  10  14
HETATM   14  C5  UNL     1       2.067  -1.267   3.607  1.00  0.00     0.259 C 
BRANCH  14  15
HETATM   15  O1  UNL     1       1.578  -2.551   3.610  1.00  0.00    -0.281 OA
BRANCH  15  16
HETATM   16  N5  UNL     1       1.960  -3.166   2.489  1.00  0.00    -0.311 N 
ATOM     17  H52 UNL     1       2.739  -2.870   1.901  1.00  0.00     0.184 HD
ATOM     18  H51 UNL     1       1.352  -3.968   2.324  1.00  0.00     0.184 HD
ENDBRANCH  15  16
ENDBRANCH  14  15
ENDBRANCH  10  14
BRANCH   7  19
HETATM   19  N3  UNL     1      -1.812   1.390   3.195  1.00  0.00    -0.234 N 
ATOM     20  H32 UNL     1      -1.939   2.399   3.277  1.00  0.00     0.174 HD
ATOM     21  H31 UNL     1      -2.508   0.725   3.532  1.00  0.00     0.174 HD
ENDBRANCH   7  19
TORSDOF 4
ENDMDL
