MODEL 1
REMARK VINA RESULT: -6.285212600      0.000      0.000
REMARK  3 active torsions:
REMARK  status: ('A' for Active; 'I' for Inactive)
REMARK    1  A    between atoms: N1_1  and  C1_4 
REMARK    2  A    between atoms: C2_7  and  N3_8 
REMARK    3  A    between atoms: N3_8  and  N4_10 
ROOT
HETATM    1  C1  UNL     1      -0.245   0.880   2.571  1.00  0.00     0.678 A 
HETATM    2  N2  UNL     1       0.383  -0.173   3.168  1.00  0.00    -0.173 N 
ATOM      3  H2  UNL     1       0.123  -0.446   4.116  1.00  0.00     0.186 HD
HETATM    4  C2  UNL     1       1.342  -0.854   2.518  1.00  0.00     0.165 A 
HETATM    5  C3  UNL     1       1.675  -0.466   1.237  1.00  0.00     0.121 A 
HETATM    6  N5  UNL     1       2.635  -1.144   0.578  1.00  0.00    -0.292 N 
ATOM      7  H5  UNL     1       3.084  -1.926   1.055  1.00  0.00     0.187 HD
HETATM    8  N6  UNL     1       3.028  -0.853  -0.651  1.00  0.00    -0.266 N 
ATOM      9  H6  UNL     1       3.759  -1.389  -1.120  1.00  0.00     0.190 HD
HETATM   10  C4  UNL     1       2.417   0.183  -1.250  1.00  0.00     0.262 A 
HETATM   11  O1  UNL     1       2.758   0.495  -2.418  1.00  0.00    -0.267 OA
HETATM   12  C5  UNL     1       1.425   0.938  -0.660  1.00  0.00     0.108 A 
HETATM   13  C6  UNL     1       1.032   0.615   0.621  1.00  0.00     0.086 A 
HETATM   14  N7  UNL     1       0.088   1.256   1.313  1.00  0.00    -0.190 N 
ATOM     15  H7  UNL     1      -0.394   2.046   0.885  1.00  0.00     0.184 HD
ENDROOT
BRANCH   4  16
HETATM   16  N3  UNL     1       1.958  -1.843   3.028  1.00  0.00    -0.290 N 
ATOM     17  H3  UNL     1       2.752  -1.622   3.630  1.00  0.00     0.188 HD
BRANCH  16  18
HETATM   18  N4  UNL     1       1.674  -3.170   2.859  1.00  0.00    -0.344 N 
ATOM     19  H42 UNL     1       0.995  -3.557   3.514  1.00  0.00     0.176 HD
ATOM     20  H41 UNL     1       2.065  -3.799   2.157  1.00  0.00     0.176 HD
ENDBRANCH  16  18
ENDBRANCH   4  16
BRANCH   1  21
HETATM   21  N1  UNL     1      -1.162   1.506   3.241  1.00  0.00    -0.234 N 
ATOM     22  H12 UNL     1      -1.044   1.717   4.232  1.00  0.00     0.174 HD
ATOM     23  H11 UNL     1      -2.011   1.783   2.750  1.00  0.00     0.174 HD
ENDBRANCH   1  21
TORSDOF 3
ENDMDL
MODEL 2
REMARK VINA RESULT: -5.975217678      1.313      2.958
REMARK  3 active torsions:
REMARK  status: ('A' for Active; 'I' for Inactive)
REMARK    1  A    between atoms: N1_1  and  C1_4 
REMARK    2  A    between atoms: C2_7  and  N3_8 
REMARK    3  A    between atoms: N3_8  and  N4_10 
ROOT
HETATM    1  C1  UNL     1       1.805  -0.892   3.719  1.00  0.00     0.678 A 
HETATM    2  N2  UNL     1       0.781   0.010   3.722  1.00  0.00    -0.173 N 
ATOM      3  H2  UNL     1       0.268   0.189   4.585  1.00  0.00     0.186 HD
HETATM    4  C2  UNL     1       0.445   0.664   2.598  1.00  0.00     0.165 A 
HETATM    5  C3  UNL     1       1.156   0.405   1.444  1.00  0.00     0.121 A 
HETATM    6  N5  UNL     1       0.825   1.056   0.313  1.00  0.00    -0.292 N 
ATOM      7  H5  UNL     1       0.054   1.724   0.351  1.00  0.00     0.187 HD
HETATM    8  N6  UNL     1       1.442   0.881  -0.844  1.00  0.00    -0.266 N 
ATOM      9  H6  UNL     1       1.165   1.392  -1.682  1.00  0.00     0.190 HD
HETATM   10  C4  UNL     1       2.452  -0.005  -0.860  1.00  0.00     0.262 A 
HETATM   11  O1  UNL     1       3.067  -0.205  -1.937  1.00  0.00    -0.267 OA
HETATM   12  C5  UNL     1       2.866  -0.722   0.245  1.00  0.00     0.108 A 
HETATM   13  C6  UNL     1       2.207  -0.521   1.438  1.00  0.00     0.086 A 
HETATM   14  N7  UNL     1       2.498  -1.142   2.583  1.00  0.00    -0.190 N 
ATOM     15  H7  UNL     1       3.260  -1.820   2.602  1.00  0.00     0.184 HD
ENDROOT
BRANCH   4  16
HETATM   16  N3  UNL     1      -0.500   1.514   2.546  1.00  0.00    -0.290 N 
ATOM     17  H3  UNL     1      -0.303   2.382   2.046  1.00  0.00     0.188 HD
BRANCH  16  18
HETATM   18  N4  UNL     1      -1.750   1.394   3.086  1.00  0.00    -0.344 N 
ATOM     19  H42 UNL     1      -2.395   0.800   2.564  1.00  0.00     0.176 HD
ATOM     20  H41 UNL     1      -2.096   1.829   3.940  1.00  0.00     0.176 HD
ENDBRANCH  16  18
ENDBRANCH   4  16
BRANCH   1  21
HETATM   21  N1  UNL     1       2.090  -1.497   4.830  1.00  0.00    -0.234 N 
ATOM     22  H12 UNL     1       1.646  -1.231   5.709  1.00  0.00     0.174 HD
ATOM     23  H11 UNL     1       2.774  -2.253   4.804  1.00  0.00     0.174 HD
ENDBRANCH   1  21
TORSDOF 3
ENDMDL
MODEL 3
REMARK VINA RESULT: -5.061185148      2.515      3.707
REMARK  3 active torsions:
REMARK  status: ('A' for Active; 'I' for Inactive)
REMARK    1  A    between atoms: N1_1  and  C1_4 
REMARK    2  A    between atoms: C2_7  and  N3_8 
REMARK    3  A    between atoms: N3_8  and  N4_10 
ROOT
HETATM    1  C1  UNL     1      -0.736   0.245   2.239  1.00  0.00     0.678 A 
HETATM    2  N2  UNL     1      -0.362   0.804   1.051  1.00  0.00    -0.173 N 
ATOM      3  H2  UNL     1      -1.076   1.124   0.396  1.00  0.00     0.186 HD
HETATM    4  C2  UNL     1       0.937   0.934   0.738  1.00  0.00     0.165 A 
HETATM    5  C3  UNL     1       1.883   0.494   1.640  1.00  0.00     0.121 A 
HETATM    6  N5  UNL     1       3.188   0.622   1.333  1.00  0.00    -0.292 N 
ATOM      7  H5  UNL     1       3.432   1.043   0.437  1.00  0.00     0.187 HD
HETATM    8  N6  UNL     1       4.172   0.232   2.128  1.00  0.00    -0.266 N 
ATOM      9  H6  UNL     1       5.151   0.345   1.863  1.00  0.00     0.190 HD
HETATM   10  C4  UNL     1       3.817  -0.320   3.300  1.00  0.00     0.262 A 
HETATM   11  O1  UNL     1       4.717  -0.704   4.087  1.00  0.00    -0.267 OA
HETATM   12  C5  UNL     1       2.509  -0.494   3.705  1.00  0.00     0.108 A 
HETATM   13  C6  UNL     1       1.503  -0.080   2.860  1.00  0.00     0.086 A 
HETATM   14  N7  UNL     1       0.198  -0.185   3.120  1.00  0.00    -0.190 N 
ATOM     15  H7  UNL     1      -0.102  -0.600   4.002  1.00  0.00     0.184 HD
ENDROOT
BRANCH   4  16
HETATM   16  N3  UNL     1       1.340   1.447  -0.355  1.00  0.00    -0.290 N 
ATOM     17  H3  UNL     1       1.256   2.461  -0.438  1.00  0.00     0.188 HD
BRANCH  16  18
HETATM   18  N4  UNL     1       1.871   0.791  -1.430  1.00  0.00    -0.344 N 
ATOM     19  H42 UNL     1       1.273   0.074  -1.842  1.00  0.00     0.176 HD
ATOM     20  H41 UNL     1       2.787   0.941  -1.852  1.00  0.00     0.176 HD
ENDBRANCH  16  18
ENDBRANCH   4  16
BRANCH   1  21
HETATM   21  N1  UNL     1      -2.003   0.140   2.493  1.00  0.00    -0.234 N 
ATOM     22  H12 UNL     1      -2.343  -0.004   3.444  1.00  0.00     0.174 HD
ATOM     23  H11 UNL     1      -2.657   0.206   1.714  1.00  0.00     0.174 HD
ENDBRANCH   1  21
TORSDOF 3
ENDMDL
MODEL 4
REMARK VINA RESULT: -4.920478305      2.657      4.509
REMARK  3 active torsions:
REMARK  status: ('A' for Active; 'I' for Inactive)
REMARK    1  A    between atoms: N1_1  and  C1_4 
REMARK    2  A    between atoms: C2_7  and  N3_8 
REMARK    3  A    between atoms: N3_8  and  N4_10 
ROOT
HETATM    1  C1  UNL     1       3.749  -0.327   3.087  1.00  0.00     0.678 A 
HETATM    2  N2  UNL     1       3.872   0.226   1.846  1.00  0.00    -0.173 N 
ATOM      3  H2  UNL     1       4.798   0.341   1.433  1.00  0.00     0.186 HD
HETATM    4  C2  UNL     1       2.784   0.621   1.165  1.00  0.00     0.165 A 
HETATM    5  C3  UNL     1       1.544   0.455   1.745  1.00  0.00     0.121 A 
HETATM    6  N5  UNL     1       0.448   0.849   1.067  1.00  0.00    -0.292 N 
ATOM      7  H5  UNL     1       0.576   1.258   0.142  1.00  0.00     0.187 HD
HETATM    8  N6  UNL     1      -0.785   0.734   1.533  1.00  0.00    -0.266 N 
ATOM      9  H6  UNL     1      -1.593   1.043   0.992  1.00  0.00     0.190 HD
HETATM   10  C4  UNL     1      -0.919   0.191   2.755  1.00  0.00     0.262 A 
HETATM   11  O1  UNL     1      -2.071   0.062   3.238  1.00  0.00    -0.267 OA
HETATM   12  C5  UNL     1       0.140  -0.242   3.526  1.00  0.00     0.108 A 
HETATM   13  C6  UNL     1       1.414  -0.112   3.019  1.00  0.00     0.086 A 
HETATM   14  N7  UNL     1       2.528  -0.487   3.651  1.00  0.00    -0.190 N 
ATOM     15  H7  UNL     1       2.458  -0.902   4.580  1.00  0.00     0.184 HD
ENDROOT
BRANCH   4  16
HETATM   16  N3  UNL     1       2.843   1.142   0.005  1.00  0.00    -0.290 N 
ATOM     17  H3  UNL     1       3.150   2.114  -0.041  1.00  0.00     0.188 HD
BRANCH  16  18
HETATM   18  N4  UNL     1       2.540   0.543  -1.186  1.00  0.00    -0.344 N 
ATOM     19  H42 UNL     1       1.575   0.654  -1.497  1.00  0.00     0.176 HD
ATOM     20  H41 UNL     1       3.169   0.005  -1.782  1.00  0.00     0.176 HD
ENDBRANCH  16  18
ENDBRANCH   4  16
BRANCH   1  21
HETATM   21  N1  UNL     1       4.830  -0.691   3.705  1.00  0.00    -0.234 N 
ATOM     22  H12 UNL     1       5.255  -1.603   3.538  1.00  0.00     0.174 HD
ATOM     23  H11 UNL     1       5.249  -0.038   4.367  1.00  0.00     0.174 HD
ENDBRANCH   1  21
TORSDOF 3
ENDMDL
MODEL 5
REMARK VINA RESULT: -4.756116637      2.299      2.881
REMARK  3 active torsions:
REMARK  status: ('A' for Active; 'I' for Inactive)
REMARK    1  A    between atoms: N1_1  and  C1_4 
REMARK    2  A    between atoms: C2_7  and  N3_8 
REMARK    3  A    between atoms: N3_8  and  N4_10 
ROOT
HETATM    1  C1  UNL     1       1.704  -2.497   2.642  1.00  0.00     0.678 A 
HETATM    2  N2  UNL     1       2.626  -1.774   3.341  1.00  0.00    -0.173 N 
ATOM      3  H2  UNL     1       2.841  -2.026   4.305  1.00  0.00     0.186 HD
HETATM    4  C2  UNL     1       3.252  -0.733   2.768  1.00  0.00     0.165 A 
HETATM    5  C3  UNL     1       2.944  -0.413   1.462  1.00  0.00     0.121 A 
HETATM    6  N5  UNL     1       3.568   0.630   0.881  1.00  0.00    -0.292 N 
ATOM      7  H5  UNL     1       4.252   1.149   1.432  1.00  0.00     0.187 HD
HETATM    8  N6  UNL     1       3.345   1.019  -0.364  1.00  0.00    -0.266 N 
ATOM      9  H6  UNL     1       3.836   1.814  -0.773  1.00  0.00     0.190 HD
HETATM   10  C4  UNL     1       2.439   0.315  -1.062  1.00  0.00     0.262 A 
HETATM   11  O1  UNL     1       2.194   0.648  -2.248  1.00  0.00    -0.267 OA
HETATM   12  C5  UNL     1       1.748  -0.767  -0.556  1.00  0.00     0.108 A 
HETATM   13  C6  UNL     1       1.998  -1.153   0.742  1.00  0.00     0.086 A 
HETATM   14  N7  UNL     1       1.406  -2.177   1.360  1.00  0.00    -0.190 N 
ATOM     15  H7  UNL     1       0.713  -2.730   0.856  1.00  0.00     0.184 HD
ENDROOT
BRANCH   4  16
HETATM   16  N3  UNL     1       4.120  -0.026   3.374  1.00  0.00    -0.290 N 
ATOM     17  H3  UNL     1       4.109   0.975   3.175  1.00  0.00     0.188 HD
BRANCH  16  18
HETATM   18  N4  UNL     1       5.065  -0.460   4.260  1.00  0.00    -0.344 N 
ATOM     19  H42 UNL     1       5.785  -1.067   3.868  1.00  0.00     0.176 HD
ATOM     20  H41 UNL     1       5.122  -0.244   5.256  1.00  0.00     0.176 HD
ENDBRANCH  16  18
ENDBRANCH   4  16
BRANCH   1  21
HETATM   21  N1  UNL     1       1.126  -3.493   3.241  1.00  0.00    -0.234 N 
ATOM     22  H12 UNL     1       1.400  -4.457   3.052  1.00  0.00     0.174 HD
ATOM     23  H11 UNL     1       0.384  -3.286   3.909  1.00  0.00     0.174 HD
ENDBRANCH   1  21
TORSDOF 3
ENDMDL
