MODEL 1
REMARK VINA RESULT: -8.772909910      0.000      0.000
REMARK  3 active torsions:
REMARK  status: ('A' for Active; 'I' for Inactive)
REMARK    1  A    between atoms: O1_1  and  C1_3 
REMARK    2  A    between atoms: C7_14  and  C8_15 
REMARK    3  A    between atoms: C9_16  and  C10_17 
ROOT
HETATM    1  C1  UNL     1     -16.106 -13.149 -12.175  1.00  0.00     0.198 A 
HETATM    2  O2  UNL     1     -15.786 -14.309 -12.673  1.00  0.00    -0.263 OA
HETATM    3  C2  UNL     1     -14.841 -15.118 -12.371  1.00  0.00     0.201 A 
HETATM    4  N1  UNL     1     -14.703 -16.232 -13.000  1.00  0.00    -0.294 N 
ATOM      5  H1  UNL     1     -13.949 -16.874 -12.757  1.00  0.00     0.177 HD
HETATM    6  S1  UNL     1     -15.836 -16.626 -14.282  1.00  0.00     0.044 SA
HETATM    7  S2  UNL     1     -13.853 -14.561 -11.107  1.00  0.00    -0.045 SA
HETATM    8  C3  UNL     1     -14.348 -13.022 -10.511  1.00  0.00     0.024 A 
HETATM    9  C4  UNL     1     -13.660 -12.384  -9.495  1.00  0.00     0.020 A 
HETATM   10  C5  UNL     1     -14.078 -11.148  -9.065  1.00  0.00     0.002 A 
HETATM   11  C6  UNL     1     -15.176 -10.613  -9.681  1.00  0.00     0.012 A 
HETATM   12  C7  UNL     1     -15.895 -11.212 -10.701  1.00  0.00    -0.020 A 
HETATM   13  C16 UNL     1     -15.468 -12.483 -11.150  1.00  0.00     0.050 A 
ENDROOT
BRANCH  12  14
HETATM   14  C8  UNL     1     -16.996 -10.536 -11.292  1.00  0.00     0.013 C 
HETATM   15  C9  UNL     1     -17.257  -9.322 -11.675  1.00  0.00     0.012 C 
BRANCH  15  16
HETATM   16  C10 UNL     1     -16.588  -8.082 -11.710  1.00  0.00    -0.036 A 
HETATM   17  C11 UNL     1     -15.451  -7.717 -11.032  1.00  0.00     0.011 A 
HETATM   18  C12 UNL     1     -14.897  -6.447 -11.056  1.00  0.00     0.001 A 
HETATM   19  C13 UNL     1     -15.496  -5.465 -11.797  1.00  0.00     0.000 A 
HETATM   20  C14 UNL     1     -16.634  -5.779 -12.494  1.00  0.00     0.001 A 
HETATM   21  C15 UNL     1     -17.176  -7.042 -12.463  1.00  0.00     0.011 A 
ENDBRANCH  15  16
ENDBRANCH  12  14
BRANCH   1  22
HETATM   22  O1  UNL     1     -17.135 -12.570 -12.719  1.00  0.00    -0.340 OA
ATOM     23  H1  UNL     1     -17.108 -11.621 -12.738  1.00  0.00     0.220 HD
ENDBRANCH   1  22
TORSDOF 3
ENDMDL
MODEL 2
REMARK VINA RESULT: -8.726694529      3.928      6.419
REMARK  3 active torsions:
REMARK  status: ('A' for Active; 'I' for Inactive)
REMARK    1  A    between atoms: O1_1  and  C1_3 
REMARK    2  A    between atoms: C7_14  and  C8_15 
REMARK    3  A    between atoms: C9_16  and  C10_17 
ROOT
HETATM    1  C1  UNL     1     -17.401  -9.755 -11.575  1.00  0.00     0.198 A 
HETATM    2  O2  UNL     1     -18.410  -9.171 -12.157  1.00  0.00    -0.263 OA
HETATM    3  C2  UNL     1     -18.555  -7.970 -12.573  1.00  0.00     0.201 A 
HETATM    4  N1  UNL     1     -19.652  -7.594 -13.129  1.00  0.00    -0.294 N 
ATOM      5  H1  UNL     1     -19.765  -6.636 -13.459  1.00  0.00     0.177 HD
HETATM    6  S1  UNL     1     -20.953  -8.761 -13.309  1.00  0.00     0.044 SA
HETATM    7  S2  UNL     1     -17.189  -6.994 -12.311  1.00  0.00    -0.045 SA
HETATM    8  C3  UNL     1     -15.906  -7.848 -11.539  1.00  0.00     0.024 A 
HETATM    9  C4  UNL     1     -14.714  -7.225 -11.217  1.00  0.00     0.020 A 
HETATM   10  C5  UNL     1     -13.726  -7.940 -10.583  1.00  0.00     0.002 A 
HETATM   11  C6  UNL     1     -13.989  -9.253 -10.303  1.00  0.00     0.012 A 
HETATM   12  C7  UNL     1     -15.165  -9.917 -10.605  1.00  0.00    -0.020 A 
HETATM   13  C16 UNL     1     -16.187  -9.187 -11.255  1.00  0.00     0.050 A 
ENDROOT
BRANCH  12  14
HETATM   14  C8  UNL     1     -15.336 -11.276 -10.225  1.00  0.00     0.013 C 
HETATM   15  C9  UNL     1     -14.572 -12.231  -9.785  1.00  0.00     0.012 C 
BRANCH  15  16
HETATM   16  C10 UNL     1     -13.213 -12.400  -9.454  1.00  0.00    -0.036 A 
HETATM   17  C11 UNL     1     -12.259 -13.111 -10.141  1.00  0.00     0.011 A 
HETATM   18  C12 UNL     1     -10.957 -13.298  -9.706  1.00  0.00     0.001 A 
HETATM   19  C13 UNL     1     -10.558 -12.749  -8.518  1.00  0.00     0.000 A 
HETATM   20  C14 UNL     1     -11.473 -12.028  -7.795  1.00  0.00     0.001 A 
HETATM   21  C15 UNL     1     -12.763 -11.849  -8.234  1.00  0.00     0.011 A 
ENDBRANCH  15  16
ENDBRANCH  12  14
BRANCH   1  22
HETATM   22  O1  UNL     1     -17.580 -11.006 -11.267  1.00  0.00    -0.340 OA
ATOM     23  H1  UNL     1     -17.322 -11.251 -10.386  1.00  0.00     0.220 HD
ENDBRANCH   1  22
TORSDOF 3
ENDMDL
MODEL 3
REMARK VINA RESULT: -8.682200504      2.796      3.882
REMARK  3 active torsions:
REMARK  status: ('A' for Active; 'I' for Inactive)
REMARK    1  A    between atoms: O1_1  and  C1_3 
REMARK    2  A    between atoms: C7_14  and  C8_15 
REMARK    3  A    between atoms: C9_16  and  C10_17 
ROOT
HETATM    1  C1  UNL     1     -11.967 -11.765  -9.791  1.00  0.00     0.198 A 
HETATM    2  O2  UNL     1     -11.096 -12.729  -9.699  1.00  0.00    -0.263 OA
HETATM    3  C2  UNL     1     -11.213 -13.986  -9.909  1.00  0.00     0.201 A 
HETATM    4  N1  UNL     1     -10.209 -14.775  -9.757  1.00  0.00    -0.294 N 
ATOM      5  H1  UNL     1     -10.305 -15.776  -9.925  1.00  0.00     0.177 HD
HETATM    6  S1  UNL     1      -8.668 -14.096  -9.255  1.00  0.00     0.044 SA
HETATM    7  S2  UNL     1     -12.776 -14.449 -10.387  1.00  0.00    -0.045 SA
HETATM    8  C3  UNL     1     -13.860 -13.113 -10.483  1.00  0.00     0.024 A 
HETATM    9  C4  UNL     1     -15.187 -13.281 -10.834  1.00  0.00     0.020 A 
HETATM   10  C5  UNL     1     -16.020 -12.190 -10.878  1.00  0.00     0.002 A 
HETATM   11  C6  UNL     1     -15.473 -10.975 -10.565  1.00  0.00     0.012 A 
HETATM   12  C7  UNL     1     -14.154 -10.758 -10.208  1.00  0.00    -0.020 A 
HETATM   13  C16 UNL     1     -13.291 -11.878 -10.158  1.00  0.00     0.050 A 
ENDROOT
BRANCH  12  14
HETATM   14  C8  UNL     1     -13.713  -9.453  -9.864  1.00  0.00     0.013 C 
HETATM   15  C9  UNL     1     -14.080  -8.235 -10.133  1.00  0.00     0.012 C 
BRANCH  15  16
HETATM   16  C10 UNL     1     -15.092  -7.602 -10.881  1.00  0.00    -0.036 A 
HETATM   17  C11 UNL     1     -16.203  -8.174 -11.452  1.00  0.00     0.011 A 
HETATM   18  C12 UNL     1     -17.115  -7.495 -12.244  1.00  0.00     0.001 A 
HETATM   19  C13 UNL     1     -16.929  -6.163 -12.495  1.00  0.00     0.000 A 
HETATM   20  C14 UNL     1     -15.836  -5.544 -11.946  1.00  0.00     0.001 A 
HETATM   21  C15 UNL     1     -14.936  -6.226 -11.162  1.00  0.00     0.011 A 
ENDBRANCH  15  16
ENDBRANCH  12  14
BRANCH   1  22
HETATM   22  O1  UNL     1     -11.524 -10.579  -9.497  1.00  0.00    -0.340 OA
ATOM     23  H1  UNL     1     -12.047  -9.855  -9.820  1.00  0.00     0.220 HD
ENDBRANCH   1  22
TORSDOF 3
ENDMDL
MODEL 4
REMARK VINA RESULT: -8.475096606      4.111      6.727
REMARK  3 active torsions:
REMARK  status: ('A' for Active; 'I' for Inactive)
REMARK    1  A    between atoms: O1_1  and  C1_3 
REMARK    2  A    between atoms: C7_14  and  C8_15 
REMARK    3  A    between atoms: C9_16  and  C10_17 
ROOT
HETATM    1  C1  UNL     1     -16.181  -9.460 -11.086  1.00  0.00     0.198 A 
HETATM    2  O2  UNL     1     -17.149  -8.811 -11.667  1.00  0.00    -0.263 OA
HETATM    3  C2  UNL     1     -17.240  -7.585 -12.023  1.00  0.00     0.201 A 
HETATM    4  N1  UNL     1     -18.305  -7.142 -12.592  1.00  0.00    -0.294 N 
ATOM      5  H1  UNL     1     -18.374  -6.165 -12.874  1.00  0.00     0.177 HD
HETATM    6  S1  UNL     1     -19.637  -8.252 -12.875  1.00  0.00     0.044 SA
HETATM    7  S2  UNL     1     -15.852  -6.673 -11.667  1.00  0.00    -0.045 SA
HETATM    8  C3  UNL     1     -14.625  -7.611 -10.901  1.00  0.00     0.024 A 
HETATM    9  C4  UNL     1     -13.423  -7.049 -10.509  1.00  0.00     0.020 A 
HETATM   10  C5  UNL     1     -12.482  -7.829  -9.883  1.00  0.00     0.002 A 
HETATM   11  C6  UNL     1     -12.797  -9.145  -9.683  1.00  0.00     0.012 A 
HETATM   12  C7  UNL     1     -13.984  -9.751 -10.056  1.00  0.00    -0.020 A 
HETATM   13  C16 UNL     1     -14.959  -8.953 -10.698  1.00  0.00     0.050 A 
ENDROOT
BRANCH  12  14
HETATM   14  C8  UNL     1     -14.213 -11.121  -9.755  1.00  0.00     0.013 C 
HETATM   15  C9  UNL     1     -13.562 -12.072  -9.155  1.00  0.00     0.012 C 
BRANCH  15  16
HETATM   16  C10 UNL     1     -12.324 -12.224  -8.499  1.00  0.00    -0.036 A 
HETATM   17  C11 UNL     1     -11.983 -11.810  -7.235  1.00  0.00     0.011 A 
HETATM   18  C12 UNL     1     -10.714 -11.925  -6.688  1.00  0.00     0.001 A 
HETATM   19  C13 UNL     1      -9.710 -12.486  -7.428  1.00  0.00     0.000 A 
HETATM   20  C14 UNL     1     -10.000 -12.918  -8.696  1.00  0.00     0.001 A 
HETATM   21  C15 UNL     1     -11.261 -12.799  -9.231  1.00  0.00     0.011 A 
ENDBRANCH  15  16
ENDBRANCH  12  14
BRANCH   1  22
HETATM   22  O1  UNL     1     -16.411 -10.718 -10.851  1.00  0.00    -0.340 OA
ATOM     23  H1  UNL     1     -17.192 -10.902 -10.342  1.00  0.00     0.220 HD
ENDBRANCH   1  22
TORSDOF 3
ENDMDL
MODEL 5
REMARK VINA RESULT: -8.450696923      1.929      2.121
REMARK  3 active torsions:
REMARK  status: ('A' for Active; 'I' for Inactive)
REMARK    1  A    between atoms: O1_1  and  C1_3 
REMARK    2  A    between atoms: C7_14  and  C8_15 
REMARK    3  A    between atoms: C9_16  and  C10_17 
ROOT
HETATM    1  C1  UNL     1     -15.062 -13.489 -10.722  1.00  0.00     0.198 A 
HETATM    2  O2  UNL     1     -14.782 -14.712 -10.372  1.00  0.00    -0.263 OA
HETATM    3  C2  UNL     1     -13.660 -15.322 -10.286  1.00  0.00     0.201 A 
HETATM    4  N1  UNL     1     -13.607 -16.552  -9.913  1.00  0.00    -0.294 N 
ATOM      5  H1  UNL     1     -12.711 -17.035  -9.846  1.00  0.00     0.177 HD
HETATM    6  S1  UNL     1     -15.104 -17.384  -9.523  1.00  0.00     0.044 SA
HETATM    7  S2  UNL     1     -12.330 -14.351 -10.702  1.00  0.00    -0.045 SA
HETATM    8  C3  UNL     1     -12.793 -12.753 -11.150  1.00  0.00     0.024 A 
HETATM    9  C4  UNL     1     -11.859 -11.813 -11.545  1.00  0.00     0.020 A 
HETATM   10  C5  UNL     1     -12.275 -10.557 -11.914  1.00  0.00     0.002 A 
HETATM   11  C6  UNL     1     -13.620 -10.307 -11.865  1.00  0.00     0.012 A 
HETATM   12  C7  UNL     1     -14.590 -11.215 -11.478  1.00  0.00    -0.020 A 
HETATM   13  C16 UNL     1     -14.169 -12.510 -11.100  1.00  0.00     0.050 A 
ENDROOT
BRANCH  12  14
HETATM   14  C8  UNL     1     -15.963 -10.849 -11.509  1.00  0.00     0.013 C 
HETATM   15  C9  UNL     1     -16.639  -9.740 -11.545  1.00  0.00     0.012 C 
BRANCH  15  16
HETATM   16  C10 UNL     1     -16.361  -8.359 -11.583  1.00  0.00    -0.036 A 
HETATM   17  C11 UNL     1     -15.408  -7.671 -10.874  1.00  0.00     0.011 A 
HETATM   18  C12 UNL     1     -15.248  -6.295 -10.906  1.00  0.00     0.001 A 
HETATM   19  C13 UNL     1     -16.077  -5.539 -11.688  1.00  0.00     0.000 A 
HETATM   20  C14 UNL     1     -17.045  -6.179 -12.418  1.00  0.00     0.001 A 
HETATM   21  C15 UNL     1     -17.196  -7.544 -12.379  1.00  0.00     0.011 A 
ENDBRANCH  15  16
ENDBRANCH  12  14
BRANCH   1  22
HETATM   22  O1  UNL     1     -16.325 -13.179 -10.712  1.00  0.00    -0.340 OA
ATOM     23  H1  UNL     1     -16.564 -12.421 -11.233  1.00  0.00     0.220 HD
ENDBRANCH   1  22
TORSDOF 3
ENDMDL
