MODEL 1
REMARK VINA RESULT: -9.842825570      0.000      0.000
REMARK  4 active torsions:
REMARK  status: ('A' for Active; 'I' for Inactive)
REMARK    1  A    between atoms: C1_4  and  N2_5 
REMARK    2  A    between atoms: C1_4  and  C11_18 
REMARK    3  A    between atoms: N2_5  and  C2_7 
REMARK    4  A    between atoms: C15_22  and  N3_23 
ROOT
HETATM    1  N1  UNL     1     -12.430  -9.622 -12.029  1.00  0.00    -0.385 N 
ATOM      2  H11 UNL     1     -11.732 -10.161 -12.540  1.00  0.00     0.157 HD
ATOM      3  H12 UNL     1     -12.853  -8.825 -12.504  1.00  0.00     0.157 HD
HETATM    4  C1  UNL     1     -12.769  -9.915 -10.856  1.00  0.00     0.109 C 
ENDROOT
BRANCH   4   5
HETATM    5  N2  UNL     1     -13.761  -9.149 -10.130  1.00  0.00    -0.341 N 
ATOM      6  H2  UNL     1     -14.147  -9.515  -9.259  1.00  0.00     0.167 HD
BRANCH   5   7
HETATM    7  C2  UNL     1     -14.191  -7.913 -10.615  1.00  0.00     0.052 A 
HETATM    8  C3  UNL     1     -13.339  -6.811 -10.473  1.00  0.00     0.113 A 
HETATM    9  C4  UNL     1     -13.795  -5.613 -10.962  1.00  0.00     0.290 A 
HETATM   10  O1  UNL     1     -13.008  -4.618 -10.827  1.00  0.00    -0.260 OA
HETATM   11  O2  UNL     1     -14.968  -5.495 -11.534  1.00  0.00    -0.275 OA
HETATM   12  C5  UNL     1     -15.788  -6.505 -11.681  1.00  0.00     0.091 A 
HETATM   13  C6  UNL     1     -17.023  -6.372 -12.286  1.00  0.00     0.038 A 
HETATM   14  C10 UNL     1     -15.439  -7.781 -11.225  1.00  0.00     0.025 A 
HETATM   15  C7  UNL     1     -17.914  -7.410 -12.459  1.00  0.00     0.003 A 
HETATM   16  C8  UNL     1     -17.518  -8.656 -11.988  1.00  0.00     0.001 A 
HETATM   17  C9  UNL     1     -16.302  -8.836 -11.381  1.00  0.00     0.016 A 
ENDBRANCH   5   7
ENDBRANCH   4   5
BRANCH   4  18
HETATM   18  C11 UNL     1     -12.159 -11.064 -10.172  1.00  0.00     0.010 A 
HETATM   19  C12 UNL     1     -12.112 -12.261 -10.861  1.00  0.00     0.015 A 
HETATM   20  C13 UNL     1     -11.567 -13.393 -10.318  1.00  0.00     0.003 A 
HETATM   21  C14 UNL     1     -11.042 -13.355  -9.047  1.00  0.00     0.036 A 
HETATM   22  C15 UNL     1     -11.085 -12.147  -8.345  1.00  0.00     0.103 A 
HETATM   23  C16 UNL     1     -11.643 -11.016  -8.917  1.00  0.00     0.051 A 
BRANCH  22  24
HETATM   24  N3  UNL     1     -10.552 -12.077  -7.035  1.00  0.00    -0.116 N 
HETATM   25  O3  UNL     1     -11.267 -11.953  -6.022  1.00  0.00    -0.532 OA
HETATM   26  O4  UNL     1      -9.194 -12.149  -6.876  1.00  0.00    -0.532 OA
ENDBRANCH  22  24
ENDBRANCH   4  18
TORSDOF 4
ENDMDL
MODEL 2
REMARK VINA RESULT: -9.468210659      2.041      2.267
REMARK  4 active torsions:
REMARK  status: ('A' for Active; 'I' for Inactive)
REMARK    1  A    between atoms: C1_4  and  N2_5 
REMARK    2  A    between atoms: C1_4  and  C11_18 
REMARK    3  A    between atoms: N2_5  and  C2_7 
REMARK    4  A    between atoms: C15_22  and  N3_23 
ROOT
HETATM    1  N1  UNL     1     -12.495  -9.662 -12.113  1.00  0.00    -0.385 N 
ATOM      2  H11 UNL     1     -11.852 -10.226 -12.667  1.00  0.00     0.157 HD
ATOM      3  H12 UNL     1     -12.879  -8.822 -12.544  1.00  0.00     0.157 HD
HETATM    4  C1  UNL     1     -12.813  -9.975 -10.939  1.00  0.00     0.109 C 
ENDROOT
BRANCH   4   5
HETATM    5  N2  UNL     1     -13.727  -9.174 -10.151  1.00  0.00    -0.341 N 
ATOM      6  H2  UNL     1     -14.054  -9.517  -9.248  1.00  0.00     0.167 HD
BRANCH   5   7
HETATM    7  C2  UNL     1     -14.161  -7.933 -10.622  1.00  0.00     0.052 A 
HETATM    8  C3  UNL     1     -13.309  -6.832 -10.475  1.00  0.00     0.113 A 
HETATM    9  C4  UNL     1     -13.768  -5.630 -10.949  1.00  0.00     0.290 A 
HETATM   10  O1  UNL     1     -12.981  -4.635 -10.809  1.00  0.00    -0.260 OA
HETATM   11  O2  UNL     1     -14.945  -5.507 -11.512  1.00  0.00    -0.275 OA
HETATM   12  C5  UNL     1     -15.765  -6.517 -11.664  1.00  0.00     0.091 A 
HETATM   13  C6  UNL     1     -17.005  -6.378 -12.259  1.00  0.00     0.038 A 
HETATM   14  C10 UNL     1     -15.412  -7.797 -11.222  1.00  0.00     0.025 A 
HETATM   15  C7  UNL     1     -17.896  -7.416 -12.437  1.00  0.00     0.003 A 
HETATM   16  C8  UNL     1     -17.496  -8.666 -11.980  1.00  0.00     0.001 A 
HETATM   17  C9  UNL     1     -16.275  -8.851 -11.383  1.00  0.00     0.016 A 
ENDBRANCH   5   7
ENDBRANCH   4   5
BRANCH   4  18
HETATM   18  C11 UNL     1     -12.259 -11.187 -10.318  1.00  0.00     0.010 A 
HETATM   19  C12 UNL     1     -11.677 -11.053  -9.072  1.00  0.00     0.015 A 
HETATM   20  C13 UNL     1     -11.131 -12.115  -8.405  1.00  0.00     0.003 A 
HETATM   21  C14 UNL     1     -11.152 -13.365  -8.979  1.00  0.00     0.036 A 
HETATM   22  C15 UNL     1     -11.740 -13.508 -10.239  1.00  0.00     0.103 A 
HETATM   23  C16 UNL     1     -12.286 -12.417 -10.894  1.00  0.00     0.051 A 
BRANCH  22  24
HETATM   24  N3  UNL     1     -11.777 -14.783 -10.856  1.00  0.00    -0.116 N 
HETATM   25  O3  UNL     1     -12.699 -15.138 -11.616  1.00  0.00    -0.532 OA
HETATM   26  O4  UNL     1     -10.757 -15.661 -10.605  1.00  0.00    -0.532 OA
ENDBRANCH  22  24
ENDBRANCH   4  18
TORSDOF 4
ENDMDL
MODEL 3
REMARK VINA RESULT: -9.353830482      1.129      1.830
REMARK  4 active torsions:
REMARK  status: ('A' for Active; 'I' for Inactive)
REMARK    1  A    between atoms: C1_4  and  N2_5 
REMARK    2  A    between atoms: C1_4  and  C11_18 
REMARK    3  A    between atoms: N2_5  and  C2_7 
REMARK    4  A    between atoms: C15_22  and  N3_23 
ROOT
HETATM    1  N1  UNL     1     -12.530  -8.999 -12.004  1.00  0.00    -0.385 N 
ATOM      2  H11 UNL     1     -11.778  -9.474 -12.502  1.00  0.00     0.157 HD
ATOM      3  H12 UNL     1     -12.844  -8.099 -12.367  1.00  0.00     0.157 HD
HETATM    4  C1  UNL     1     -13.063  -9.489 -10.977  1.00  0.00     0.109 C 
ENDROOT
BRANCH   4   5
HETATM    5  N2  UNL     1     -14.131  -8.815 -10.270  1.00  0.00    -0.341 N 
ATOM      6  H2  UNL     1     -14.133  -8.797  -9.250  1.00  0.00     0.167 HD
BRANCH   5   7
HETATM    7  C2  UNL     1     -15.159  -8.188 -10.977  1.00  0.00     0.052 A 
HETATM    8  C3  UNL     1     -15.035  -6.821 -11.256  1.00  0.00     0.113 A 
HETATM    9  C4  UNL     1     -16.063  -6.239 -11.952  1.00  0.00     0.290 A 
HETATM   10  O1  UNL     1     -15.937  -4.993 -12.200  1.00  0.00    -0.260 OA
HETATM   11  O2  UNL     1     -17.114  -6.919 -12.342  1.00  0.00    -0.275 OA
HETATM   12  C5  UNL     1     -17.259  -8.197 -12.097  1.00  0.00     0.091 A 
HETATM   13  C6  UNL     1     -18.371  -8.906 -12.511  1.00  0.00     0.038 A 
HETATM   14  C10 UNL     1     -16.279  -8.906 -11.394  1.00  0.00     0.025 A 
HETATM   15  C7  UNL     1     -18.561 -10.251 -12.273  1.00  0.00     0.003 A 
HETATM   16  C8  UNL     1     -17.557 -10.908 -11.571  1.00  0.00     0.001 A 
HETATM   17  C9  UNL     1     -16.437 -10.245 -11.140  1.00  0.00     0.016 A 
ENDBRANCH   5   7
ENDBRANCH   4   5
BRANCH   4  18
HETATM   18  C11 UNL     1     -12.610 -10.786 -10.454  1.00  0.00     0.010 A 
HETATM   19  C12 UNL     1     -12.928 -11.913 -11.187  1.00  0.00     0.015 A 
HETATM   20  C13 UNL     1     -12.556 -13.169 -10.791  1.00  0.00     0.003 A 
HETATM   21  C14 UNL     1     -11.841 -13.333  -9.628  1.00  0.00     0.036 A 
HETATM   22  C15 UNL     1     -11.514 -12.197  -8.882  1.00  0.00     0.103 A 
HETATM   23  C16 UNL     1     -11.903 -10.937  -9.304  1.00  0.00     0.051 A 
BRANCH  22  24
HETATM   24  N3  UNL     1     -10.778 -12.335  -7.680  1.00  0.00    -0.116 N 
HETATM   25  O3  UNL     1      -9.603 -12.749  -7.652  1.00  0.00    -0.532 OA
HETATM   26  O4  UNL     1     -11.384 -11.997  -6.499  1.00  0.00    -0.532 OA
ENDBRANCH  22  24
ENDBRANCH   4  18
TORSDOF 4
ENDMDL
MODEL 4
REMARK VINA RESULT: -9.271849077      1.410      1.677
REMARK  4 active torsions:
REMARK  status: ('A' for Active; 'I' for Inactive)
REMARK    1  A    between atoms: C1_4  and  N2_5 
REMARK    2  A    between atoms: C1_4  and  C11_18 
REMARK    3  A    between atoms: N2_5  and  C2_7 
REMARK    4  A    between atoms: C15_22  and  N3_23 
ROOT
HETATM    1  N1  UNL     1     -12.263  -9.545 -12.187  1.00  0.00    -0.385 N 
ATOM      2  H11 UNL     1     -11.717 -10.128 -12.822  1.00  0.00     0.157 HD
ATOM      3  H12 UNL     1     -12.324  -8.549 -12.393  1.00  0.00     0.157 HD
HETATM    4  C1  UNL     1     -12.845 -10.022 -11.181  1.00  0.00     0.109 C 
ENDROOT
BRANCH   4   5
HETATM    5  N2  UNL     1     -13.620  -9.195 -10.279  1.00  0.00    -0.341 N 
ATOM      6  H2  UNL     1     -13.819  -9.524  -9.335  1.00  0.00     0.167 HD
BRANCH   5   7
HETATM    7  C2  UNL     1     -14.095  -7.951 -10.697  1.00  0.00     0.052 A 
HETATM    8  C3  UNL     1     -13.265  -6.835 -10.533  1.00  0.00     0.113 A 
HETATM    9  C4  UNL     1     -13.765  -5.628 -10.955  1.00  0.00     0.290 A 
HETATM   10  O1  UNL     1     -12.998  -4.620 -10.800  1.00  0.00    -0.260 OA
HETATM   11  O2  UNL     1     -14.958  -5.516 -11.485  1.00  0.00    -0.275 OA
HETATM   12  C5  UNL     1     -15.757  -6.539 -11.651  1.00  0.00     0.091 A 
HETATM   13  C6  UNL     1     -17.015  -6.412 -12.211  1.00  0.00     0.038 A 
HETATM   14  C10 UNL     1     -15.364  -7.824 -11.261  1.00  0.00     0.025 A 
HETATM   15  C7  UNL     1     -17.885  -7.464 -12.402  1.00  0.00     0.003 A 
HETATM   16  C8  UNL     1     -17.445  -8.718 -11.998  1.00  0.00     0.001 A 
HETATM   17  C9  UNL     1     -16.205  -8.893 -11.437  1.00  0.00     0.016 A 
ENDBRANCH   5   7
ENDBRANCH   4   5
BRANCH   4  18
HETATM   18  C11 UNL     1     -12.757 -11.459 -10.885  1.00  0.00     0.010 A 
HETATM   19  C12 UNL     1     -13.860 -12.237 -11.179  1.00  0.00     0.015 A 
HETATM   20  C13 UNL     1     -13.885 -13.585 -10.944  1.00  0.00     0.003 A 
HETATM   21  C14 UNL     1     -12.784 -14.201 -10.396  1.00  0.00     0.036 A 
HETATM   22  C15 UNL     1     -11.664 -13.421 -10.096  1.00  0.00     0.103 A 
HETATM   23  C16 UNL     1     -11.664 -12.059 -10.344  1.00  0.00     0.051 A 
BRANCH  22  24
HETATM   24  N3  UNL     1     -10.515 -14.027  -9.532  1.00  0.00    -0.116 N 
HETATM   25  O3  UNL     1     -10.191 -15.208  -9.767  1.00  0.00    -0.532 OA
HETATM   26  O4  UNL     1      -9.728 -13.284  -8.693  1.00  0.00    -0.532 OA
ENDBRANCH  22  24
ENDBRANCH   4  18
TORSDOF 4
ENDMDL
MODEL 5
REMARK VINA RESULT: -9.234060636      1.957      2.949
REMARK  4 active torsions:
REMARK  status: ('A' for Active; 'I' for Inactive)
REMARK    1  A    between atoms: C1_4  and  N2_5 
REMARK    2  A    between atoms: C1_4  and  C11_18 
REMARK    3  A    between atoms: N2_5  and  C2_7 
REMARK    4  A    between atoms: C15_22  and  N3_23 
ROOT
HETATM    1  N1  UNL     1     -12.403  -9.382 -11.782  1.00  0.00    -0.385 N 
ATOM      2  H11 UNL     1     -11.563  -9.734 -12.239  1.00  0.00     0.157 HD
ATOM      3  H12 UNL     1     -12.842  -8.549 -12.173  1.00  0.00     0.157 HD
HETATM    4  C1  UNL     1     -12.896  -9.943 -10.772  1.00  0.00     0.109 C 
ENDROOT
BRANCH   4   5
HETATM    5  N2  UNL     1     -14.091  -9.444 -10.123  1.00  0.00    -0.341 N 
ATOM      6  H2  UNL     1     -14.033  -9.058  -9.181  1.00  0.00     0.167 HD
BRANCH   5   7
HETATM    7  C2  UNL     1     -15.321  -9.487 -10.782  1.00  0.00     0.052 A 
HETATM    8  C3  UNL     1     -15.953 -10.728 -10.927  1.00  0.00     0.113 A 
HETATM    9  C4  UNL     1     -17.160 -10.732 -11.580  1.00  0.00     0.290 A 
HETATM   10  O1  UNL     1     -17.725 -11.870 -11.704  1.00  0.00    -0.260 OA
HETATM   11  O2  UNL     1     -17.702  -9.635 -12.048  1.00  0.00    -0.275 OA
HETATM   12  C5  UNL     1     -17.136  -8.461 -11.929  1.00  0.00     0.091 A 
HETATM   13  C6  UNL     1     -17.715  -7.308 -12.427  1.00  0.00     0.038 A 
HETATM   14  C10 UNL     1     -15.903  -8.323 -11.283  1.00  0.00     0.025 A 
HETATM   15  C7  UNL     1     -17.152  -6.054 -12.322  1.00  0.00     0.003 A 
HETATM   16  C8  UNL     1     -15.927  -5.973 -11.671  1.00  0.00     0.001 A 
HETATM   17  C9  UNL     1     -15.315  -7.090 -11.161  1.00  0.00     0.016 A 
ENDBRANCH   5   7
ENDBRANCH   4   5
BRANCH   4  18
HETATM   18  C11 UNL     1     -12.265 -11.144 -10.209  1.00  0.00     0.010 A 
HETATM   19  C12 UNL     1     -12.402 -12.325 -10.914  1.00  0.00     0.015 A 
HETATM   20  C13 UNL     1     -11.855 -13.501 -10.480  1.00  0.00     0.003 A 
HETATM   21  C14 UNL     1     -11.141 -13.528  -9.304  1.00  0.00     0.036 A 
HETATM   22  C15 UNL     1     -10.997 -12.338  -8.586  1.00  0.00     0.103 A 
HETATM   23  C16 UNL     1     -11.561 -11.160  -9.047  1.00  0.00     0.051 A 
BRANCH  22  24
HETATM   24  N3  UNL     1     -10.267 -12.334  -7.372  1.00  0.00    -0.116 N 
HETATM   25  O3  UNL     1      -9.051 -12.601  -7.315  1.00  0.00    -0.532 OA
HETATM   26  O4  UNL     1     -10.926 -12.023  -6.213  1.00  0.00    -0.532 OA
ENDBRANCH  22  24
ENDBRANCH   4  18
TORSDOF 4
ENDMDL
