MODEL 1
REMARK VINA RESULT: -7.591419534      0.000      0.000
REMARK  4 active torsions:
REMARK  status: ('A' for Active; 'I' for Inactive)
REMARK    1  A    between atoms: C3_5  and  C4_6 
REMARK    2  A    between atoms: C7_9  and  O3_10 
REMARK    3  A    between atoms: C12_17  and  C13_18 
REMARK    4  A    between atoms: C16_21  and  O5_22 
ROOT
HETATM    1  O1  UNL     1     -12.000  -9.988 -10.438  1.00  0.00    -0.259 OA
HETATM    2  C1  UNL     1     -13.168 -10.419 -10.713  1.00  0.00     0.302 A 
HETATM    3  O2  UNL     1     -14.083  -9.813 -11.534  1.00  0.00    -0.271 OA
HETATM    4  C2  UNL     1     -15.277 -10.532 -11.630  1.00  0.00     0.131 A 
HETATM    5  C3  UNL     1     -16.326 -10.173 -12.348  1.00  0.00     0.053 C 
HETATM    6  C10 UNL     1     -15.125 -11.686 -10.812  1.00  0.00     0.222 A 
HETATM    7  O4  UNL     1     -15.939 -12.620 -10.586  1.00  0.00    -0.284 OA
HETATM    8  C11 UNL     1     -13.769 -11.640 -10.206  1.00  0.00     0.093 A 
HETATM    9  C12 UNL     1     -13.330 -12.584  -9.415  1.00  0.00     0.033 C 
ENDROOT
BRANCH   5  10
HETATM   10  C4  UNL     1     -17.560 -10.900 -12.467  1.00  0.00    -0.033 A 
HETATM   11  C5  UNL     1     -18.644 -10.641 -11.613  1.00  0.00     0.014 A 
HETATM   12  C6  UNL     1     -19.832 -11.301 -11.774  1.00  0.00     0.037 A 
HETATM   13  C7  UNL     1     -20.050 -12.239 -12.756  1.00  0.00     0.065 A 
HETATM   14  C8  UNL     1     -18.994 -12.498 -13.599  1.00  0.00     0.037 A 
HETATM   15  C9  UNL     1     -17.788 -11.846 -13.455  1.00  0.00     0.014 A 
BRANCH  13  16
HETATM   16  O3  UNL     1     -21.259 -12.901 -12.909  1.00  0.00    -0.361 OA
ATOM     17  H3  UNL     1     -21.321 -13.797 -13.217  1.00  0.00     0.217 HD
ENDBRANCH  13  16
ENDBRANCH   5  10
BRANCH   9  18
HETATM   18  C13 UNL     1     -12.009 -12.617  -8.818  1.00  0.00    -0.035 A 
HETATM   19  C14 UNL     1     -10.908 -13.233  -9.333  1.00  0.00     0.014 A 
HETATM   20  C15 UNL     1      -9.648 -13.216  -8.733  1.00  0.00     0.037 A 
HETATM   21  C16 UNL     1      -9.505 -12.533  -7.543  1.00  0.00     0.065 A 
HETATM   22  C17 UNL     1     -10.587 -11.891  -6.975  1.00  0.00     0.037 A 
HETATM   23  C18 UNL     1     -11.812 -11.936  -7.603  1.00  0.00     0.014 A 
BRANCH  21  24
HETATM   24  O5  UNL     1      -8.301 -12.453  -6.865  1.00  0.00    -0.361 OA
ATOM     25  H5  UNL     1      -8.010 -11.663  -6.423  1.00  0.00     0.217 HD
ENDBRANCH  21  24
ENDBRANCH   9  18
TORSDOF 4
ENDMDL
MODEL 2
REMARK VINA RESULT: -7.576681106      0.395      1.439
REMARK  4 active torsions:
REMARK  status: ('A' for Active; 'I' for Inactive)
REMARK    1  A    between atoms: C3_5  and  C4_6 
REMARK    2  A    between atoms: C7_9  and  O3_10 
REMARK    3  A    between atoms: C12_17  and  C13_18 
REMARK    4  A    between atoms: C16_21  and  O5_22 
ROOT
HETATM    1  O1  UNL     1     -12.318  -9.529  -9.838  1.00  0.00    -0.259 OA
HETATM    2  C1  UNL     1     -13.420 -10.029 -10.240  1.00  0.00     0.302 A 
HETATM    3  O2  UNL     1     -14.352  -9.409 -11.029  1.00  0.00    -0.271 OA
HETATM    4  C2  UNL     1     -15.458 -10.221 -11.293  1.00  0.00     0.131 A 
HETATM    5  C3  UNL     1     -16.503  -9.871 -12.023  1.00  0.00     0.053 C 
HETATM    6  C10 UNL     1     -15.226 -11.456 -10.626  1.00  0.00     0.222 A 
HETATM    7  O4  UNL     1     -15.947 -12.487 -10.576  1.00  0.00    -0.284 OA
HETATM    8  C11 UNL     1     -13.913 -11.362  -9.936  1.00  0.00     0.093 A 
HETATM    9  C12 UNL     1     -13.416 -12.357  -9.250  1.00  0.00     0.033 C 
ENDROOT
BRANCH   5  10
HETATM   10  C4  UNL     1     -17.646 -10.691 -12.312  1.00  0.00    -0.033 A 
HETATM   11  C5  UNL     1     -17.629 -11.624 -13.361  1.00  0.00     0.014 A 
HETATM   12  C6  UNL     1     -18.705 -12.438 -13.589  1.00  0.00     0.037 A 
HETATM   13  C7  UNL     1     -19.852 -12.407 -12.830  1.00  0.00     0.065 A 
HETATM   14  C8  UNL     1     -19.878 -11.497 -11.799  1.00  0.00     0.037 A 
HETATM   15  C9  UNL     1     -18.805 -10.668 -11.551  1.00  0.00     0.014 A 
BRANCH  13  16
HETATM   16  O3  UNL     1     -20.935 -13.238 -13.071  1.00  0.00    -0.361 OA
ATOM     17  H3  UNL     1     -20.966 -14.143 -12.781  1.00  0.00     0.217 HD
ENDBRANCH  13  16
ENDBRANCH   5  10
BRANCH   9  18
HETATM   18  C13 UNL     1     -12.129 -12.344  -8.581  1.00  0.00    -0.035 A 
HETATM   19  C14 UNL     1     -11.867 -11.822  -7.350  1.00  0.00     0.014 A 
HETATM   20  C15 UNL     1     -10.615 -11.856  -6.736  1.00  0.00     0.037 A 
HETATM   21  C16 UNL     1      -9.574 -12.455  -7.416  1.00  0.00     0.065 A 
HETATM   22  C17 UNL     1      -9.782 -12.999  -8.668  1.00  0.00     0.037 A 
HETATM   23  C18 UNL     1     -11.037 -12.941  -9.234  1.00  0.00     0.014 A 
BRANCH  21  24
HETATM   24  O5  UNL     1      -8.293 -12.542  -6.900  1.00  0.00    -0.361 OA
ATOM     25  H5  UNL     1      -8.117 -12.755  -5.990  1.00  0.00     0.217 HD
ENDBRANCH  21  24
ENDBRANCH   9  18
TORSDOF 4
ENDMDL
MODEL 3
REMARK VINA RESULT: -7.338126952      4.168      6.547
REMARK  4 active torsions:
REMARK  status: ('A' for Active; 'I' for Inactive)
REMARK    1  A    between atoms: C3_5  and  C4_6 
REMARK    2  A    between atoms: C7_9  and  O3_10 
REMARK    3  A    between atoms: C12_17  and  C13_18 
REMARK    4  A    between atoms: C16_21  and  O5_22 
ROOT
HETATM    1  O1  UNL     1     -18.063 -13.872 -12.278  1.00  0.00    -0.259 OA
HETATM    2  C1  UNL     1     -17.482 -12.741 -12.171  1.00  0.00     0.302 A 
HETATM    3  O2  UNL     1     -18.092 -11.535 -11.946  1.00  0.00    -0.271 OA
HETATM    4  C2  UNL     1     -17.182 -10.477 -11.883  1.00  0.00     0.131 A 
HETATM    5  C3  UNL     1     -17.499  -9.210 -11.681  1.00  0.00     0.053 C 
HETATM    6  C10 UNL     1     -15.889 -11.038 -12.084  1.00  0.00     0.222 A 
HETATM    7  O4  UNL     1     -14.766 -10.469 -12.113  1.00  0.00    -0.284 OA
HETATM    8  C11 UNL     1     -16.053 -12.503 -12.272  1.00  0.00     0.093 A 
HETATM    9  C12 UNL     1     -15.031 -13.296 -12.459  1.00  0.00     0.033 C 
ENDROOT
BRANCH   5  10
HETATM   10  C4  UNL     1     -16.581  -8.108 -11.607  1.00  0.00    -0.033 A 
HETATM   11  C5  UNL     1     -16.720  -6.984 -12.436  1.00  0.00     0.014 A 
HETATM   12  C6  UNL     1     -15.872  -5.917 -12.314  1.00  0.00     0.037 A 
HETATM   13  C7  UNL     1     -14.848  -5.865 -11.398  1.00  0.00     0.065 A 
HETATM   14  C8  UNL     1     -14.703  -6.962 -10.580  1.00  0.00     0.037 A 
HETATM   15  C9  UNL     1     -15.546  -8.048 -10.684  1.00  0.00     0.014 A 
BRANCH  13  16
HETATM   16  O3  UNL     1     -13.994  -4.778 -11.284  1.00  0.00    -0.361 OA
ATOM     17  H3  UNL     1     -14.285  -3.881 -11.398  1.00  0.00     0.217 HD
ENDBRANCH  13  16
ENDBRANCH   5  10
BRANCH   9  18
HETATM   18  C13 UNL     1     -15.117 -14.736 -12.616  1.00  0.00    -0.035 A 
HETATM   19  C14 UNL     1     -14.970 -15.664 -11.630  1.00  0.00     0.014 A 
HETATM   20  C15 UNL     1     -15.088 -17.040 -11.825  1.00  0.00     0.037 A 
HETATM   21  C16 UNL     1     -15.371 -17.493 -13.097  1.00  0.00     0.065 A 
HETATM   22  C17 UNL     1     -15.528 -16.598 -14.136  1.00  0.00     0.037 A 
HETATM   23  C18 UNL     1     -15.403 -15.247 -13.895  1.00  0.00     0.014 A 
BRANCH  21  24
HETATM   24  O5  UNL     1     -15.508 -18.837 -13.401  1.00  0.00    -0.361 OA
ATOM     25  H5  UNL     1     -15.708 -19.149 -14.276  1.00  0.00     0.217 HD
ENDBRANCH  21  24
ENDBRANCH   9  18
TORSDOF 4
ENDMDL
MODEL 4
REMARK VINA RESULT: -7.267894798      3.634      6.437
REMARK  4 active torsions:
REMARK  status: ('A' for Active; 'I' for Inactive)
REMARK    1  A    between atoms: C3_5  and  C4_6 
REMARK    2  A    between atoms: C7_9  and  O3_10 
REMARK    3  A    between atoms: C12_17  and  C13_18 
REMARK    4  A    between atoms: C16_21  and  O5_22 
ROOT
HETATM    1  O1  UNL     1     -13.106  -9.708 -11.833  1.00  0.00    -0.259 OA
HETATM    2  C1  UNL     1     -13.660 -10.834 -11.608  1.00  0.00     0.302 A 
HETATM    3  O2  UNL     1     -13.047 -12.060 -11.638  1.00  0.00    -0.271 OA
HETATM    4  C2  UNL     1     -13.927 -13.107 -11.350  1.00  0.00     0.131 A 
HETATM    5  C3  UNL     1     -13.602 -14.387 -11.316  1.00  0.00     0.053 C 
HETATM    6  C10 UNL     1     -15.201 -12.517 -11.118  1.00  0.00     0.222 A 
HETATM    7  O4  UNL     1     -16.297 -13.067 -10.830  1.00  0.00    -0.284 OA
HETATM    8  C11 UNL     1     -15.059 -11.046 -11.277  1.00  0.00     0.093 A 
HETATM    9  C12 UNL     1     -16.064 -10.229 -11.104  1.00  0.00     0.033 C 
ENDROOT
BRANCH   5  10
HETATM   10  C4  UNL     1     -14.487 -15.478 -11.017  1.00  0.00    -0.033 A 
HETATM   11  C5  UNL     1     -15.093 -16.227 -12.038  1.00  0.00     0.014 A 
HETATM   12  C6  UNL     1     -15.888 -17.300 -11.738  1.00  0.00     0.037 A 
HETATM   13  C7  UNL     1     -16.148 -17.714 -10.453  1.00  0.00     0.065 A 
HETATM   14  C8  UNL     1     -15.558 -16.986  -9.445  1.00  0.00     0.037 A 
HETATM   15  C9  UNL     1     -14.752 -15.903  -9.724  1.00  0.00     0.014 A 
BRANCH  13  16
HETATM   16  O3  UNL     1     -16.956 -18.803 -10.162  1.00  0.00    -0.361 OA
ATOM     17  H3  UNL     1     -17.862 -18.714  -9.889  1.00  0.00     0.217 HD
ENDBRANCH  13  16
ENDBRANCH   5  10
BRANCH   9  18
HETATM   18  C13 UNL     1     -15.986  -8.785 -11.211  1.00  0.00    -0.035 A 
HETATM   19  C14 UNL     1     -15.183  -7.965 -10.477  1.00  0.00     0.014 A 
HETATM   20  C15 UNL     1     -15.125  -6.580 -10.634  1.00  0.00     0.037 A 
HETATM   21  C16 UNL     1     -15.929  -6.001 -11.593  1.00  0.00     0.065 A 
HETATM   22  C17 UNL     1     -16.765  -6.783 -12.365  1.00  0.00     0.037 A 
HETATM   23  C18 UNL     1     -16.789  -8.147 -12.174  1.00  0.00     0.014 A 
BRANCH  21  24
HETATM   24  O5  UNL     1     -15.950  -4.637 -11.831  1.00  0.00    -0.361 OA
ATOM     25  H5  UNL     1     -16.706  -4.093 -11.644  1.00  0.00     0.217 HD
ENDBRANCH  21  24
ENDBRANCH   9  18
TORSDOF 4
ENDMDL
MODEL 5
REMARK VINA RESULT: -7.241809067      3.860      5.721
REMARK  4 active torsions:
REMARK  status: ('A' for Active; 'I' for Inactive)
REMARK    1  A    between atoms: C3_5  and  C4_6 
REMARK    2  A    between atoms: C7_9  and  O3_10 
REMARK    3  A    between atoms: C12_17  and  C13_18 
REMARK    4  A    between atoms: C16_21  and  O5_22 
ROOT
HETATM    1  O1  UNL     1     -13.662 -11.401  -9.016  1.00  0.00    -0.259 OA
HETATM    2  C1  UNL     1     -14.112 -12.331  -9.765  1.00  0.00     0.302 A 
HETATM    3  O2  UNL     1     -14.109 -13.672  -9.484  1.00  0.00    -0.271 OA
HETATM    4  C2  UNL     1     -14.670 -14.437 -10.509  1.00  0.00     0.131 A 
HETATM    5  C3  UNL     1     -14.789 -15.752 -10.500  1.00  0.00     0.053 C 
HETATM    6  C10 UNL     1     -15.064 -13.526 -11.529  1.00  0.00     0.222 A 
HETATM    7  O4  UNL     1     -15.609 -13.756 -12.641  1.00  0.00    -0.284 OA
HETATM    8  C11 UNL     1     -14.715 -12.154 -11.074  1.00  0.00     0.093 A 
HETATM    9  C12 UNL     1     -14.976 -11.097 -11.797  1.00  0.00     0.033 C 
ENDROOT
BRANCH   5  10
HETATM   10  C4  UNL     1     -15.367 -16.558 -11.539  1.00  0.00    -0.033 A 
HETATM   11  C5  UNL     1     -16.753 -16.766 -11.615  1.00  0.00     0.014 A 
HETATM   12  C6  UNL     1     -17.295 -17.488 -12.644  1.00  0.00     0.037 A 
HETATM   13  C7  UNL     1     -16.547 -18.048 -13.652  1.00  0.00     0.065 A 
HETATM   14  C8  UNL     1     -15.187 -17.849 -13.587  1.00  0.00     0.037 A 
HETATM   15  C9  UNL     1     -14.619 -17.124 -12.561  1.00  0.00     0.014 A 
BRANCH  13  16
HETATM   16  O3  UNL     1     -17.108 -18.778 -14.689  1.00  0.00    -0.361 OA
ATOM     17  H3  UNL     1     -17.970 -18.591 -15.044  1.00  0.00     0.217 HD
ENDBRANCH  13  16
ENDBRANCH   5  10
BRANCH   9  18
HETATM   18  C13 UNL     1     -14.694  -9.731 -11.400  1.00  0.00    -0.035 A 
HETATM   19  C14 UNL     1     -15.569  -8.864 -10.819  1.00  0.00     0.014 A 
HETATM   20  C15 UNL     1     -15.243  -7.565 -10.430  1.00  0.00     0.037 A 
HETATM   21  C16 UNL     1     -13.953  -7.127 -10.645  1.00  0.00     0.065 A 
HETATM   22  C17 UNL     1     -13.023  -7.962 -11.232  1.00  0.00     0.037 A 
HETATM   23  C18 UNL     1     -13.392  -9.237 -11.600  1.00  0.00     0.014 A 
BRANCH  21  24
HETATM   24  O5  UNL     1     -13.523  -5.857 -10.298  1.00  0.00    -0.361 OA
ATOM     25  H5  UNL     1     -13.419  -5.157 -10.932  1.00  0.00     0.217 HD
ENDBRANCH  21  24
ENDBRANCH   9  18
TORSDOF 4
ENDMDL
