MODEL 1
REMARK VINA RESULT: -9.866144715      0.000      0.000
REMARK  4 active torsions:
REMARK  status: ('A' for Active; 'I' for Inactive)
REMARK    1  A    between atoms: N1_1  and  C1_4 
REMARK    2  A    between atoms: C8_13  and  N3_14 
REMARK    3  A    between atoms: N3_14  and  N4_16 
REMARK    4  A    between atoms: C9_18  and  C10_19 
ROOT
HETATM    1  N3  UNL     1     -11.489 -11.063  -9.229  1.00  0.00    -0.297 N 
ATOM      2  H3  UNL     1     -10.817 -10.569  -8.640  1.00  0.00     0.187 HD
ENDROOT
BRANCH   1   3
HETATM    3  C8  UNL     1     -11.298 -12.313  -9.434  1.00  0.00     0.104 A 
HETATM    4  C1  UNL     1     -10.235 -13.199  -9.016  1.00  0.00     0.129 A 
HETATM    5  N2  UNL     1     -10.530 -14.517  -9.553  1.00  0.00    -0.340 N 
HETATM    6  C2  UNL     1     -11.738 -14.459 -10.284  1.00  0.00     0.046 A 
ATOM      7  H2  UNL     1      -9.957 -15.350  -9.424  1.00  0.00     0.167 HD
HETATM    8  C3  UNL     1     -12.427 -15.437 -10.972  1.00  0.00     0.030 A 
HETATM    9  C7  UNL     1     -12.215 -13.172 -10.231  1.00  0.00     0.022 A 
HETATM   10  C4  UNL     1     -13.614 -15.158 -11.630  1.00  0.00     0.002 A 
HETATM   11  C5  UNL     1     -14.093 -13.869 -11.578  1.00  0.00     0.001 A 
HETATM   12  C6  UNL     1     -13.390 -12.907 -10.885  1.00  0.00     0.016 A 
BRANCH   4  13
HETATM   13  N1  UNL     1      -9.219 -12.917  -8.304  1.00  0.00    -0.384 N 
ATOM     14  H12 UNL     1      -9.151 -12.908  -7.286  1.00  0.00     0.157 HD
ATOM     15  H11 UNL     1      -8.304 -12.662  -8.673  1.00  0.00     0.157 HD
ENDBRANCH   4  13
ENDBRANCH   1   3
BRANCH   1  16
HETATM   16  N4  UNL     1     -12.525 -10.347  -9.743  1.00  0.00    -0.310 N 
HETATM   17  C9  UNL     1     -12.502  -9.099 -10.090  1.00  0.00     0.124 C 
ATOM     18  H4  UNL     1     -13.408 -10.842  -9.868  1.00  0.00     0.186 HD
BRANCH  17  19
HETATM   19  C10 UNL     1     -13.724  -8.491 -10.629  1.00  0.00     0.057 A 
HETATM   20  C11 UNL     1     -14.807  -9.246 -11.003  1.00  0.00     0.033 A 
HETATM   21  C12 UNL     1     -15.929  -8.589 -11.509  1.00  0.00    -0.001 A 
HETATM   22  C13 UNL     1     -17.043  -9.305 -11.899  1.00  0.00     0.014 A 
HETATM   23  C17 UNL     1     -15.951  -7.211 -11.632  1.00  0.00     0.089 A 
HETATM   24  C14 UNL     1     -18.188  -8.730 -12.408  1.00  0.00     0.001 A 
HETATM   25  C15 UNL     1     -18.196  -7.351 -12.525  1.00  0.00     0.003 A 
HETATM   26  C16 UNL     1     -17.095  -6.624 -12.142  1.00  0.00     0.038 A 
HETATM   27  O1  UNL     1     -14.905  -6.541 -11.268  1.00  0.00    -0.274 OA
HETATM   28  C18 UNL     1     -13.815  -7.115 -10.780  1.00  0.00     0.300 A 
HETATM   29  O2  UNL     1     -12.803  -6.441 -10.429  1.00  0.00    -0.259 OA
ENDBRANCH  17  19
ENDBRANCH   1  16
TORSDOF 4
ENDMDL
MODEL 2
REMARK VINA RESULT: -9.695104665      2.075      3.587
REMARK  4 active torsions:
REMARK  status: ('A' for Active; 'I' for Inactive)
REMARK    1  A    between atoms: N1_1  and  C1_4 
REMARK    2  A    between atoms: C8_13  and  N3_14 
REMARK    3  A    between atoms: N3_14  and  N4_16 
REMARK    4  A    between atoms: C9_18  and  C10_19 
ROOT
HETATM    1  N3  UNL     1     -13.800 -13.268  -9.889  1.00  0.00    -0.297 N 
ATOM      2  H3  UNL     1     -14.424 -14.009  -9.570  1.00  0.00     0.187 HD
ENDROOT
BRANCH   1   3
HETATM    3  C8  UNL     1     -12.538 -13.465  -9.786  1.00  0.00     0.104 A 
HETATM    4  C1  UNL     1     -11.619 -14.226 -10.601  1.00  0.00     0.129 A 
HETATM    5  N2  UNL     1     -10.302 -14.110  -9.998  1.00  0.00    -0.340 N 
HETATM    6  C2  UNL     1     -10.392 -13.301  -8.843  1.00  0.00     0.046 A 
ATOM      7  H2  UNL     1      -9.449 -14.542 -10.352  1.00  0.00     0.167 HD
HETATM    8  C3  UNL     1      -9.427 -12.901  -7.942  1.00  0.00     0.030 A 
HETATM    9  C7  UNL     1     -11.698 -12.906  -8.692  1.00  0.00     0.022 A 
HETATM   10  C4  UNL     1      -9.738 -12.094  -6.859  1.00  0.00     0.002 A 
HETATM   11  C5  UNL     1     -11.047 -11.696  -6.707  1.00  0.00     0.001 A 
HETATM   12  C6  UNL     1     -11.996 -12.106  -7.619  1.00  0.00     0.016 A 
BRANCH   4  13
HETATM   13  N1  UNL     1     -11.876 -14.884 -11.661  1.00  0.00    -0.384 N 
ATOM     14  H12 UNL     1     -11.765 -15.885 -11.818  1.00  0.00     0.157 HD
ATOM     15  H11 UNL     1     -12.246 -14.478 -12.520  1.00  0.00     0.157 HD
ENDBRANCH   4  13
ENDBRANCH   1   3
BRANCH   1  16
HETATM   16  N4  UNL     1     -14.365 -12.139 -10.394  1.00  0.00    -0.310 N 
HETATM   17  C9  UNL     1     -14.933 -11.192  -9.717  1.00  0.00     0.124 C 
ATOM     18  H4  UNL     1     -14.339 -12.026 -11.408  1.00  0.00     0.186 HD
BRANCH  17  19
HETATM   19  C10 UNL     1     -15.492 -10.042 -10.438  1.00  0.00     0.057 A 
HETATM   20  C11 UNL     1     -14.924  -8.795 -10.367  1.00  0.00     0.033 A 
HETATM   21  C12 UNL     1     -15.519  -7.755 -11.081  1.00  0.00    -0.001 A 
HETATM   22  C13 UNL     1     -14.986  -6.483 -11.042  1.00  0.00     0.014 A 
HETATM   23  C17 UNL     1     -16.655  -7.973 -11.841  1.00  0.00     0.089 A 
HETATM   24  C14 UNL     1     -15.516  -5.404 -11.718  1.00  0.00     0.001 A 
HETATM   25  C15 UNL     1     -16.651  -5.637 -12.475  1.00  0.00     0.003 A 
HETATM   26  C16 UNL     1     -17.195  -6.898 -12.524  1.00  0.00     0.038 A 
HETATM   27  O1  UNL     1     -17.156  -9.167 -11.876  1.00  0.00    -0.274 OA
HETATM   28  C18 UNL     1     -16.630 -10.189 -11.218  1.00  0.00     0.300 A 
HETATM   29  O2  UNL     1     -17.135 -11.348 -11.266  1.00  0.00    -0.259 OA
ENDBRANCH  17  19
ENDBRANCH   1  16
TORSDOF 4
ENDMDL
MODEL 3
REMARK VINA RESULT: -9.410482162      1.719      2.307
REMARK  4 active torsions:
REMARK  status: ('A' for Active; 'I' for Inactive)
REMARK    1  A    between atoms: N1_1  and  C1_4 
REMARK    2  A    between atoms: C8_13  and  N3_14 
REMARK    3  A    between atoms: N3_14  and  N4_16 
REMARK    4  A    between atoms: C9_18  and  C10_19 
ROOT
HETATM    1  N3  UNL     1     -12.221 -11.882  -8.591  1.00  0.00    -0.297 N 
ATOM      2  H3  UNL     1     -12.035 -11.637  -7.618  1.00  0.00     0.187 HD
ENDROOT
BRANCH   1   3
HETATM    3  C8  UNL     1     -11.657 -12.933  -9.060  1.00  0.00     0.104 A 
HETATM    4  C1  UNL     1     -10.288 -13.392  -8.997  1.00  0.00     0.129 A 
HETATM    5  N2  UNL     1     -10.217 -14.649  -9.723  1.00  0.00    -0.340 N 
HETATM    6  C2  UNL     1     -11.499 -14.967 -10.225  1.00  0.00     0.046 A 
ATOM      7  H2  UNL     1      -9.376 -15.212  -9.851  1.00  0.00     0.167 HD
HETATM    8  C3  UNL     1     -11.937 -16.043 -10.969  1.00  0.00     0.030 A 
HETATM    9  C7  UNL     1     -12.369 -13.973  -9.850  1.00  0.00     0.022 A 
HETATM   10  C4  UNL     1     -13.261 -16.160 -11.362  1.00  0.00     0.002 A 
HETATM   11  C5  UNL     1     -14.134 -15.165 -10.986  1.00  0.00     0.001 A 
HETATM   12  C6  UNL     1     -13.676 -14.099 -10.243  1.00  0.00     0.016 A 
BRANCH   4  13
HETATM   13  N1  UNL     1      -9.303 -12.833  -8.416  1.00  0.00    -0.384 N 
ATOM     14  H12 UNL     1      -8.312 -13.055  -8.513  1.00  0.00     0.157 HD
ATOM     15  H11 UNL     1      -9.380 -12.057  -7.760  1.00  0.00     0.157 HD
ENDBRANCH   4  13
ENDBRANCH   1   3
BRANCH   1  16
HETATM   16  N4  UNL     1     -13.052 -11.071  -9.299  1.00  0.00    -0.310 N 
HETATM   17  C9  UNL     1     -14.335 -10.969  -9.157  1.00  0.00     0.124 C 
ATOM     18  H4  UNL     1     -12.621 -10.485 -10.015  1.00  0.00     0.186 HD
BRANCH  17  19
HETATM   19  C10 UNL     1     -15.071 -10.034 -10.017  1.00  0.00     0.057 A 
HETATM   20  C11 UNL     1     -14.783  -8.693 -10.045  1.00  0.00     0.033 A 
HETATM   21  C12 UNL     1     -15.533  -7.873 -10.889  1.00  0.00    -0.001 A 
HETATM   22  C13 UNL     1     -15.282  -6.517 -10.953  1.00  0.00     0.014 A 
HETATM   23  C17 UNL     1     -16.542  -8.397 -11.677  1.00  0.00     0.089 A 
HETATM   24  C14 UNL     1     -15.978  -5.643 -11.760  1.00  0.00     0.001 A 
HETATM   25  C15 UNL     1     -16.984  -6.181 -12.543  1.00  0.00     0.003 A 
HETATM   26  C16 UNL     1     -17.247  -7.528 -12.491  1.00  0.00     0.038 A 
HETATM   27  O1  UNL     1     -16.778  -9.669 -11.615  1.00  0.00    -0.274 OA
HETATM   28  C18 UNL     1     -16.096 -10.492 -10.832  1.00  0.00     0.300 A 
HETATM   29  O2  UNL     1     -16.343 -11.732 -10.787  1.00  0.00    -0.259 OA
ENDBRANCH  17  19
ENDBRANCH   1  16
TORSDOF 4
ENDMDL
MODEL 4
REMARK VINA RESULT: -9.344757519      2.637      7.438
REMARK  4 active torsions:
REMARK  status: ('A' for Active; 'I' for Inactive)
REMARK    1  A    between atoms: N1_1  and  C1_4 
REMARK    2  A    between atoms: C8_13  and  N3_14 
REMARK    3  A    between atoms: N3_14  and  N4_16 
REMARK    4  A    between atoms: C9_18  and  C10_19 
ROOT
HETATM    1  N3  UNL     1     -13.327  -7.649 -10.045  1.00  0.00    -0.297 N 
ATOM      2  H3  UNL     1     -12.715  -7.214  -9.354  1.00  0.00     0.187 HD
ENDROOT
BRANCH   1   3
HETATM    3  C8  UNL     1     -14.120  -6.888 -10.704  1.00  0.00     0.104 A 
HETATM    4  C1  UNL     1     -14.012  -5.499 -11.088  1.00  0.00     0.129 A 
HETATM    5  N2  UNL     1     -15.223  -5.152 -11.813  1.00  0.00    -0.340 N 
HETATM    6  C2  UNL     1     -16.063  -6.286 -11.881  1.00  0.00     0.046 A 
ATOM      7  H2  UNL     1     -15.433  -4.236 -12.210  1.00  0.00     0.167 HD
HETATM    8  C3  UNL     1     -17.304  -6.459 -12.458  1.00  0.00     0.030 A 
HETATM    9  C7  UNL     1     -15.439  -7.325 -11.236  1.00  0.00     0.022 A 
HETATM   10  C4  UNL     1     -17.962  -7.678 -12.407  1.00  0.00     0.002 A 
HETATM   11  C5  UNL     1     -17.338  -8.720 -11.761  1.00  0.00     0.001 A 
HETATM   12  C6  UNL     1     -16.098  -8.527 -11.191  1.00  0.00     0.016 A 
BRANCH   4  13
HETATM   13  N1  UNL     1     -13.049  -4.698 -10.860  1.00  0.00    -0.384 N 
ATOM     14  H12 UNL     1     -12.598  -4.060 -11.515  1.00  0.00     0.157 HD
ATOM     15  H11 UNL     1     -12.592  -4.582  -9.956  1.00  0.00     0.157 HD
ENDBRANCH   4  13
ENDBRANCH   1   3
BRANCH   1  16
HETATM   16  N4  UNL     1     -13.245  -8.997 -10.204  1.00  0.00    -0.310 N 
HETATM   17  C9  UNL     1     -12.243  -9.656 -10.693  1.00  0.00     0.124 C 
ATOM     18  H4  UNL     1     -14.053  -9.545  -9.907  1.00  0.00     0.186 HD
BRANCH  17  19
HETATM   19  C10 UNL     1     -12.334 -11.118 -10.787  1.00  0.00     0.057 A 
HETATM   20  C11 UNL     1     -11.439 -11.943 -10.153  1.00  0.00     0.033 A 
HETATM   21  C12 UNL     1     -11.595 -13.322 -10.297  1.00  0.00    -0.001 A 
HETATM   22  C13 UNL     1     -10.721 -14.194  -9.680  1.00  0.00     0.014 A 
HETATM   23  C17 UNL     1     -12.624 -13.846 -11.059  1.00  0.00     0.089 A 
HETATM   24  C14 UNL     1     -10.808 -15.567  -9.774  1.00  0.00     0.001 A 
HETATM   25  C15 UNL     1     -11.842 -16.077 -10.539  1.00  0.00     0.003 A 
HETATM   26  C16 UNL     1     -12.721 -15.223 -11.160  1.00  0.00     0.038 A 
HETATM   27  O1  UNL     1     -13.443 -13.027 -11.639  1.00  0.00    -0.274 OA
HETATM   28  C18 UNL     1     -13.341 -11.711 -11.535  1.00  0.00     0.300 A 
HETATM   29  O2  UNL     1     -14.152 -10.928 -12.110  1.00  0.00    -0.259 OA
ENDBRANCH  17  19
ENDBRANCH   1  16
TORSDOF 4
ENDMDL
MODEL 5
REMARK VINA RESULT: -9.320881674      2.771      7.083
REMARK  4 active torsions:
REMARK  status: ('A' for Active; 'I' for Inactive)
REMARK    1  A    between atoms: N1_1  and  C1_4 
REMARK    2  A    between atoms: C8_13  and  N3_14 
REMARK    3  A    between atoms: N3_14  and  N4_16 
REMARK    4  A    between atoms: C9_18  and  C10_19 
ROOT
HETATM    1  N3  UNL     1     -13.027  -7.719 -10.497  1.00  0.00    -0.297 N 
ATOM      2  H3  UNL     1     -12.251  -7.301  -9.982  1.00  0.00     0.187 HD
ENDROOT
BRANCH   1   3
HETATM    3  C8  UNL     1     -13.925  -6.933 -10.963  1.00  0.00     0.104 A 
HETATM    4  C1  UNL     1     -13.929  -5.503 -11.174  1.00  0.00     0.129 A 
HETATM    5  N2  UNL     1     -15.230  -5.146 -11.715  1.00  0.00    -0.340 N 
HETATM    6  C2  UNL     1     -16.016  -6.314 -11.838  1.00  0.00     0.046 A 
ATOM      7  H2  UNL     1     -15.528  -4.203 -11.965  1.00  0.00     0.167 HD
HETATM    8  C3  UNL     1     -17.305  -6.492 -12.297  1.00  0.00     0.030 A 
HETATM    9  C7  UNL     1     -15.274  -7.383 -11.402  1.00  0.00     0.022 A 
HETATM   10  C4  UNL     1     -17.894  -7.745 -12.333  1.00  0.00     0.002 A 
HETATM   11  C5  UNL     1     -17.150  -8.819 -11.897  1.00  0.00     0.001 A 
HETATM   12  C6  UNL     1     -15.864  -8.620 -11.443  1.00  0.00     0.016 A 
BRANCH   4  13
HETATM   13  N1  UNL     1     -12.986  -4.678 -10.949  1.00  0.00    -0.384 N 
ATOM     14  H12 UNL     1     -13.054  -3.668 -10.829  1.00  0.00     0.157 HD
ATOM     15  H11 UNL     1     -12.004  -4.932 -10.850  1.00  0.00     0.157 HD
ENDBRANCH   4  13
ENDBRANCH   1   3
BRANCH   1  16
HETATM   16  N4  UNL     1     -13.035  -9.071 -10.641  1.00  0.00    -0.310 N 
HETATM   17  C9  UNL     1     -12.878  -9.947  -9.700  1.00  0.00     0.124 C 
ATOM     18  H4  UNL     1     -13.180  -9.432 -11.584  1.00  0.00     0.186 HD
BRANCH  17  19
HETATM   19  C10 UNL     1     -12.918 -11.373 -10.046  1.00  0.00     0.057 A 
HETATM   20  C11 UNL     1     -13.838 -11.881 -10.927  1.00  0.00     0.033 A 
HETATM   21  C12 UNL     1     -13.809 -13.250 -11.199  1.00  0.00    -0.001 A 
HETATM   22  C13 UNL     1     -14.714 -13.809 -12.078  1.00  0.00     0.014 A 
HETATM   23  C17 UNL     1     -12.876 -14.075 -10.596  1.00  0.00     0.089 A 
HETATM   24  C14 UNL     1     -14.750 -15.150 -12.397  1.00  0.00     0.001 A 
HETATM   25  C15 UNL     1     -13.811 -15.963 -11.787  1.00  0.00     0.003 A 
HETATM   26  C16 UNL     1     -12.903 -15.422 -10.909  1.00  0.00     0.038 A 
HETATM   27  O1  UNL     1     -12.028 -13.549  -9.770  1.00  0.00    -0.274 OA
HETATM   28  C18 UNL     1     -12.012 -12.257  -9.477  1.00  0.00     0.300 A 
HETATM   29  O2  UNL     1     -11.174 -11.764  -8.668  1.00  0.00    -0.259 OA
ENDBRANCH  17  19
ENDBRANCH   1  16
TORSDOF 4
ENDMDL
