MODEL 1
REMARK VINA RESULT: -8.069614366      0.000      0.000
REMARK  5 active torsions:
REMARK  status: ('A' for Active; 'I' for Inactive)
REMARK    1  A    between atoms: O1_2  and  C2_3 
REMARK    2  A    between atoms: C2_3  and  C3_5 
REMARK    3  A    between atoms: C4_6  and  O3_7 
REMARK    4  A    between atoms: C5_9  and  C6_10 
REMARK    5  A    between atoms: C10_15  and  O5_16 
ROOT
HETATM    1  C3  UNL     1       8.673  57.931  -0.779  1.00  0.00     0.107 A 
HETATM    2  C4  UNL     1       7.929  59.085  -0.732  1.00  0.00     0.099 A 
HETATM    3  C5  UNL     1       6.597  59.096  -0.163  1.00  0.00     0.055 A 
HETATM    4  C8  UNL     1       6.126  57.878   0.344  1.00  0.00    -0.004 A 
HETATM    5  C9  UNL     1       6.866  56.714   0.294  1.00  0.00    -0.004 A 
HETATM    6  C10 UNL     1       8.154  56.795  -0.286  1.00  0.00     0.092 A 
HETATM    7  C11 UNL     1       6.425  55.414   0.761  1.00  0.00    -0.014 C 
HETATM    8  C12 UNL     1       7.484  54.619   1.489  1.00  0.00     0.020 C 
HETATM    9  C13 UNL     1       6.137  54.572  -0.511  1.00  0.00     0.020 C 
HETATM   10  C14 UNL     1       5.199  55.433   1.540  1.00  0.00     0.041 C 
HETATM   11  C15 UNL     1       4.483  56.681   1.579  1.00  0.00    -0.018 C 
HETATM   12  C16 UNL     1       4.844  57.872   1.047  1.00  0.00    -0.054 C 
HETATM   13  C17 UNL     1       4.010  59.029   1.368  1.00  0.00     0.049 C 
ENDROOT
BRANCH   1  14
HETATM   14  C2  UNL     1      10.023  57.998  -1.376  1.00  0.00     0.298 C 
HETATM   15  O2  UNL     1      11.055  57.573  -0.787  1.00  0.00    -0.259 OA
BRANCH  14  16
HETATM   16  O1  UNL     1      10.236  58.529  -2.611  1.00  0.00    -0.322 OA
HETATM   17  C1  UNL     1      11.373  59.220  -3.039  1.00  0.00     0.213 C 
ENDBRANCH  14  16
ENDBRANCH   1  14
BRANCH   2  18
HETATM   18  O3  UNL     1       8.418  60.209  -1.208  1.00  0.00    -0.359 OA
ATOM     19  H3  UNL     1       8.237  61.032  -0.771  1.00  0.00     0.217 HD
ENDBRANCH   2  18
BRANCH   6  20
HETATM   20  O5  UNL     1       8.813  55.619  -0.300  1.00  0.00    -0.359 OA
ATOM     21  H5  UNL     1       8.698  54.952   0.367  1.00  0.00     0.217 HD
ENDBRANCH   6  20
BRANCH   3  22
HETATM   22  C6  UNL     1       5.839  60.279  -0.291  1.00  0.00     0.159 C 
HETATM   23  C7  UNL     1       5.956  61.301   0.873  1.00  0.00     0.097 C 
HETATM   24  O4  UNL     1       5.085  60.766  -1.066  1.00  0.00    -0.293 OA
ENDBRANCH   3  22
TORSDOF 5
ENDMDL
MODEL 2
REMARK VINA RESULT: -7.878978850      2.262      4.980
REMARK  5 active torsions:
REMARK  status: ('A' for Active; 'I' for Inactive)
REMARK    1  A    between atoms: O1_2  and  C2_3 
REMARK    2  A    between atoms: C2_3  and  C3_5 
REMARK    3  A    between atoms: C4_6  and  O3_7 
REMARK    4  A    between atoms: C5_9  and  C6_10 
REMARK    5  A    between atoms: C10_15  and  O5_16 
ROOT
HETATM    1  C3  UNL     1       9.318  55.318   0.402  1.00  0.00     0.107 A 
HETATM    2  C4  UNL     1      10.266  55.881  -0.418  1.00  0.00     0.099 A 
HETATM    3  C5  UNL     1      10.036  57.159  -1.061  1.00  0.00     0.055 A 
HETATM    4  C8  UNL     1       8.813  57.783  -0.789  1.00  0.00    -0.004 A 
HETATM    5  C9  UNL     1       7.854  57.219   0.028  1.00  0.00    -0.004 A 
HETATM    6  C10 UNL     1       8.161  55.966   0.609  1.00  0.00     0.092 A 
HETATM    7  C11 UNL     1       6.553  57.790   0.320  1.00  0.00    -0.014 C 
HETATM    8  C12 UNL     1       6.118  57.651   1.761  1.00  0.00     0.020 C 
HETATM    9  C13 UNL     1       5.521  56.936  -0.464  1.00  0.00     0.020 C 
HETATM   10  C14 UNL     1       6.382  59.165  -0.118  1.00  0.00     0.041 C 
HETATM   11  C15 UNL     1       7.426  59.709  -0.945  1.00  0.00    -0.018 C 
HETATM   12  C16 UNL     1       8.595  59.133  -1.309  1.00  0.00    -0.054 C 
HETATM   13  C17 UNL     1       9.558  59.965  -2.027  1.00  0.00     0.049 C 
ENDROOT
BRANCH   1  14
HETATM   14  C2  UNL     1       9.623  54.012   1.023  1.00  0.00     0.298 C 
HETATM   15  O2  UNL     1      10.759  53.723   1.489  1.00  0.00    -0.259 OA
BRANCH  14  16
HETATM   16  O1  UNL     1       8.683  53.032   1.128  1.00  0.00    -0.322 OA
HETATM   17  C1  UNL     1       8.416  52.249   2.254  1.00  0.00     0.213 C 
ENDBRANCH  14  16
ENDBRANCH   1  14
BRANCH   2  18
HETATM   18  O3  UNL     1      11.406  55.264  -0.634  1.00  0.00    -0.359 OA
ATOM     19  H3  UNL     1      11.842  55.345  -1.474  1.00  0.00     0.217 HD
ENDBRANCH   2  18
BRANCH   6  20
HETATM   20  O5  UNL     1       7.176  55.480   1.392  1.00  0.00    -0.359 OA
ATOM     21  H5  UNL     1       6.532  56.034   1.819  1.00  0.00     0.217 HD
ENDBRANCH   6  20
BRANCH   3  22
HETATM   22  C6  UNL     1      10.988  57.596  -2.006  1.00  0.00     0.159 C 
HETATM   23  C7  UNL     1      10.744  57.166  -3.479  1.00  0.00     0.097 C 
HETATM   24  O4  UNL     1      11.988  58.233  -2.024  1.00  0.00    -0.293 OA
ENDBRANCH   3  22
TORSDOF 5
ENDMDL
MODEL 3
REMARK VINA RESULT: -7.817211618      2.181      4.615
REMARK  5 active torsions:
REMARK  status: ('A' for Active; 'I' for Inactive)
REMARK    1  A    between atoms: O1_2  and  C2_3 
REMARK    2  A    between atoms: C2_3  and  C3_5 
REMARK    3  A    between atoms: C4_6  and  O3_7 
REMARK    4  A    between atoms: C5_9  and  C6_10 
REMARK    5  A    between atoms: C10_15  and  O5_16 
ROOT
HETATM    1  C3  UNL     1       9.696  54.891   0.830  1.00  0.00     0.107 A 
HETATM    2  C4  UNL     1      10.308  55.601  -0.174  1.00  0.00     0.099 A 
HETATM    3  C5  UNL     1       9.690  56.781  -0.743  1.00  0.00     0.055 A 
HETATM    4  C8  UNL     1       8.454  57.159  -0.204  1.00  0.00    -0.004 A 
HETATM    5  C9  UNL     1       7.831  56.446   0.801  1.00  0.00    -0.004 A 
HETATM    6  C10 UNL     1       8.504  55.302   1.292  1.00  0.00     0.092 A 
HETATM    7  C11 UNL     1       6.535  56.756   1.375  1.00  0.00    -0.014 C 
HETATM    8  C12 UNL     1       6.461  56.588   2.876  1.00  0.00     0.020 C 
HETATM    9  C13 UNL     1       5.554  55.683   0.833  1.00  0.00     0.020 C 
HETATM   10  C14 UNL     1       5.998  58.051   0.996  1.00  0.00     0.041 C 
HETATM   11  C15 UNL     1       6.705  58.761  -0.037  1.00  0.00    -0.018 C 
HETATM   12  C16 UNL     1       7.859  58.416  -0.654  1.00  0.00    -0.054 C 
HETATM   13  C17 UNL     1       8.453  59.397  -1.560  1.00  0.00     0.049 C 
ENDROOT
BRANCH   1  14
HETATM   14  C2  UNL     1      10.387  53.697   1.359  1.00  0.00     0.298 C 
HETATM   15  O2  UNL     1      11.613  53.690   1.658  1.00  0.00    -0.259 OA
BRANCH  14  16
HETATM   16  O1  UNL     1       9.733  52.520   1.558  1.00  0.00    -0.322 OA
HETATM   17  C1  UNL     1       9.235  51.664   0.572  1.00  0.00     0.213 C 
ENDBRANCH  14  16
ENDBRANCH   1  14
BRANCH   2  18
HETATM   18  O3  UNL     1      11.476  55.216  -0.641  1.00  0.00    -0.359 OA
ATOM     19  H3  UNL     1      11.561  54.383  -1.088  1.00  0.00     0.217 HD
ENDBRANCH   2  18
BRANCH   6  20
HETATM   20  O5  UNL     1       7.832  54.660   2.269  1.00  0.00    -0.359 OA
ATOM     21  H5  UNL     1       7.578  55.077   3.083  1.00  0.00     0.217 HD
ENDBRANCH   6  20
BRANCH   3  22
HETATM   22  C6  UNL     1      10.304  57.363  -1.872  1.00  0.00     0.159 C 
HETATM   23  C7  UNL     1      11.494  58.322  -1.591  1.00  0.00     0.097 C 
HETATM   24  O4  UNL     1      10.181  57.348  -3.051  1.00  0.00    -0.293 OA
ENDBRANCH   3  22
TORSDOF 5
ENDMDL
MODEL 4
REMARK VINA RESULT: -7.745231298      1.976      4.696
REMARK  5 active torsions:
REMARK  status: ('A' for Active; 'I' for Inactive)
REMARK    1  A    between atoms: O1_2  and  C2_3 
REMARK    2  A    between atoms: C2_3  and  C3_5 
REMARK    3  A    between atoms: C4_6  and  O3_7 
REMARK    4  A    between atoms: C5_9  and  C6_10 
REMARK    5  A    between atoms: C10_15  and  O5_16 
ROOT
HETATM    1  C3  UNL     1       6.710  55.376   0.339  1.00  0.00     0.107 A 
HETATM    2  C4  UNL     1       5.589  56.106   0.650  1.00  0.00     0.099 A 
HETATM    3  C5  UNL     1       5.549  57.540   0.451  1.00  0.00     0.055 A 
HETATM    4  C8  UNL     1       6.702  58.128  -0.085  1.00  0.00    -0.004 A 
HETATM    5  C9  UNL     1       7.834  57.401  -0.394  1.00  0.00    -0.004 A 
HETATM    6  C10 UNL     1       7.786  56.006  -0.161  1.00  0.00     0.092 A 
HETATM    7  C11 UNL     1       9.072  57.949  -0.912  1.00  0.00    -0.014 C 
HETATM    8  C12 UNL     1       9.720  57.116  -1.994  1.00  0.00     0.020 C 
HETATM    9  C13 UNL     1      10.091  57.895   0.257  1.00  0.00     0.020 C 
HETATM   10  C14 UNL     1       8.991  59.336  -1.337  1.00  0.00     0.041 C 
HETATM   11  C15 UNL     1       7.776  60.036  -1.012  1.00  0.00    -0.018 C 
HETATM   12  C16 UNL     1       6.658  59.549  -0.426  1.00  0.00    -0.054 C 
HETATM   13  C17 UNL     1       5.499  60.437  -0.353  1.00  0.00     0.049 C 
ENDROOT
BRANCH   1  14
HETATM   14  C2  UNL     1       6.677  53.917   0.569  1.00  0.00     0.298 C 
HETATM   15  O2  UNL     1       7.623  53.287   1.117  1.00  0.00    -0.259 OA
BRANCH  14  16
HETATM   16  O1  UNL     1       5.609  53.157   0.199  1.00  0.00    -0.322 OA
HETATM   17  C1  UNL     1       5.111  52.035   0.866  1.00  0.00     0.213 C 
ENDBRANCH  14  16
ENDBRANCH   1  14
BRANCH   2  18
HETATM   18  O3  UNL     1       4.525  55.509   1.139  1.00  0.00    -0.359 OA
ATOM     19  H3  UNL     1       3.873  56.009   1.618  1.00  0.00     0.217 HD
ENDBRANCH   2  18
BRANCH   6  20
HETATM   20  O5  UNL     1       8.928  55.366  -0.485  1.00  0.00    -0.359 OA
ATOM     21  H5  UNL     1       8.952  54.459  -0.766  1.00  0.00     0.217 HD
ENDBRANCH   6  20
BRANCH   3  22
HETATM   22  C6  UNL     1       4.424  58.238   0.938  1.00  0.00     0.159 C 
HETATM   23  C7  UNL     1       4.558  58.858   2.356  1.00  0.00     0.097 C 
HETATM   24  O4  UNL     1       3.329  58.514   0.574  1.00  0.00    -0.293 OA
ENDBRANCH   3  22
TORSDOF 5
ENDMDL
MODEL 5
REMARK VINA RESULT: -7.645274319      2.042      3.226
REMARK  5 active torsions:
REMARK  status: ('A' for Active; 'I' for Inactive)
REMARK    1  A    between atoms: O1_2  and  C2_3 
REMARK    2  A    between atoms: C2_3  and  C3_5 
REMARK    3  A    between atoms: C4_6  and  O3_7 
REMARK    4  A    between atoms: C5_9  and  C6_10 
REMARK    5  A    between atoms: C10_15  and  O5_16 
ROOT
HETATM    1  C3  UNL     1       9.632  55.309   0.669  1.00  0.00     0.107 A 
HETATM    2  C4  UNL     1       9.710  56.618   0.260  1.00  0.00     0.099 A 
HETATM    3  C5  UNL     1       8.529  57.454   0.192  1.00  0.00     0.055 A 
HETATM    4  C8  UNL     1       7.321  56.860   0.577  1.00  0.00    -0.004 A 
HETATM    5  C9  UNL     1       7.235  55.543   0.984  1.00  0.00    -0.004 A 
HETATM    6  C10 UNL     1       8.438  54.799   1.013  1.00  0.00     0.092 A 
HETATM    7  C11 UNL     1       6.014  54.854   1.356  1.00  0.00    -0.014 C 
HETATM    8  C12 UNL     1       6.152  53.944   2.555  1.00  0.00     0.020 C 
HETATM    9  C13 UNL     1       5.692  53.884   0.188  1.00  0.00     0.020 C 
HETATM   10  C14 UNL     1       4.857  55.716   1.520  1.00  0.00     0.041 C 
HETATM   11  C15 UNL     1       5.013  57.086   1.106  1.00  0.00    -0.018 C 
HETATM   12  C16 UNL     1       6.129  57.703   0.652  1.00  0.00    -0.054 C 
HETATM   13  C17 UNL     1       6.058  59.149   0.449  1.00  0.00     0.049 C 
ENDROOT
BRANCH   1  14
HETATM   14  C2  UNL     1      10.879  54.518   0.713  1.00  0.00     0.298 C 
HETATM   15  O2  UNL     1      11.428  54.161   1.792  1.00  0.00    -0.259 OA
BRANCH  14  16
HETATM   16  O1  UNL     1      11.518  54.124  -0.423  1.00  0.00    -0.322 OA
HETATM   17  C1  UNL     1      11.582  52.826  -0.938  1.00  0.00     0.213 C 
ENDBRANCH  14  16
ENDBRANCH   1  14
BRANCH   2  18
HETATM   18  O3  UNL     1      10.868  57.138  -0.080  1.00  0.00    -0.359 OA
ATOM     19  H3  UNL     1      11.328  56.820  -0.848  1.00  0.00     0.217 HD
ENDBRANCH   2  18
BRANCH   6  20
HETATM   20  O5  UNL     1       8.273  53.524   1.418  1.00  0.00    -0.359 OA
ATOM     21  H5  UNL     1       7.442  53.182   1.727  1.00  0.00     0.217 HD
ENDBRANCH   6  20
BRANCH   3  22
HETATM   22  C6  UNL     1       8.665  58.735  -0.384  1.00  0.00     0.159 C 
HETATM   23  C7  UNL     1       8.882  58.780  -1.921  1.00  0.00     0.097 C 
HETATM   24  O4  UNL     1       8.668  59.868  -0.030  1.00  0.00    -0.293 OA
ENDBRANCH   3  22
TORSDOF 5
ENDMDL
