MODEL 1
REMARK VINA RESULT: -9.465292506      0.000      0.000
REMARK  3 active torsions:
REMARK  status: ('A' for Active; 'I' for Inactive)
REMARK       I    between atoms: C1_2  and  N2_4 
REMARK    1  A    between atoms: N3_6  and  C2_8 
REMARK    2  A    between atoms: C5_11  and  O2_12 
REMARK    3  A    between atoms: C9_18  and  C10_19 
ROOT
HETATM    1  C2  UNL     1       5.202  57.228   0.910  1.00  0.00     0.083 A 
HETATM    2  C3  UNL     1       4.210  58.060   1.378  1.00  0.00     0.036 A 
HETATM    3  C4  UNL     1       4.325  59.410   1.145  1.00  0.00     0.040 A 
HETATM    4  C5  UNL     1       5.424  59.933   0.451  1.00  0.00     0.083 A 
HETATM    5  C6  UNL     1       6.385  59.075   0.003  1.00  0.00     0.086 A 
HETATM    6  C7  UNL     1       6.316  57.704   0.212  1.00  0.00     0.121 A 
HETATM    7  O3  UNL     1       7.420  57.089  -0.348  1.00  0.00    -0.303 OA
HETATM    8  C8  UNL     1       8.255  58.030  -0.944  1.00  0.00     0.128 A 
HETATM    9  C9  UNL     1       9.368  57.725  -1.544  1.00  0.00     0.053 C 
HETATM   10  C16 UNL     1       7.625  59.304  -0.737  1.00  0.00     0.221 A 
HETATM   11  O4  UNL     1       8.033  60.443  -1.107  1.00  0.00    -0.284 OA
ENDROOT
BRANCH   1  12
HETATM   12  N3  UNL     1       5.099  55.849   1.137  1.00  0.00    -0.294 N 
HETATM   13  N2  UNL     1       5.710  55.138   1.949  1.00  0.00    -0.254 N 
HETATM   14  C1  UNL     1       6.685  55.495   2.882  1.00  0.00     0.347 C 
ATOM     15  H2  UNL     1       5.464  54.148   1.932  1.00  0.00     0.191 HD
HETATM   16  N1  UNL     1       7.956  55.988   2.502  1.00  0.00    -0.038 NA
HETATM   17  O1  UNL     1       6.429  55.378   4.105  1.00  0.00    -0.249 OA
ATOM     18  H3  UNL     1       4.425  55.360   0.548  1.00  0.00     0.187 HD
ENDBRANCH   1  12
BRANCH   4  19
HETATM   19  O2  UNL     1       5.491  61.281   0.246  1.00  0.00    -0.360 OA
ATOM     20  H2  UNL     1       6.194  61.628  -0.291  1.00  0.00     0.217 HD
ENDBRANCH   4  19
BRANCH   9  21
HETATM   21  C10 UNL     1      10.304  58.598  -2.194  1.00  0.00    -0.034 A 
HETATM   22  C11 UNL     1      11.647  58.254  -2.236  1.00  0.00     0.011 A 
HETATM   23  C12 UNL     1      12.573  59.034  -2.887  1.00  0.00     0.001 A 
HETATM   24  C13 UNL     1      12.198  60.200  -3.533  1.00  0.00     0.000 A 
HETATM   25  C14 UNL     1      10.863  60.561  -3.503  1.00  0.00     0.001 A 
HETATM   26  C15 UNL     1       9.955  59.761  -2.843  1.00  0.00     0.011 A 
ENDBRANCH   9  21
TORSDOF 3
ENDMDL
MODEL 2
REMARK VINA RESULT: -9.425339529      3.321      5.528
REMARK  3 active torsions:
REMARK  status: ('A' for Active; 'I' for Inactive)
REMARK       I    between atoms: C1_2  and  N2_4 
REMARK    1  A    between atoms: N3_6  and  C2_8 
REMARK    2  A    between atoms: C5_11  and  O2_12 
REMARK    3  A    between atoms: C9_18  and  C10_19 
ROOT
HETATM    1  C2  UNL     1       7.716  52.386   1.095  1.00  0.00     0.083 A 
HETATM    2  C3  UNL     1       8.907  51.803   1.464  1.00  0.00     0.036 A 
HETATM    3  C4  UNL     1      10.018  52.603   1.581  1.00  0.00     0.040 A 
HETATM    4  C5  UNL     1       9.948  53.980   1.331  1.00  0.00     0.083 A 
HETATM    5  C6  UNL     1       8.748  54.518   0.967  1.00  0.00     0.086 A 
HETATM    6  C7  UNL     1       7.597  53.754   0.835  1.00  0.00     0.121 A 
HETATM    7  O3  UNL     1       6.539  54.561   0.458  1.00  0.00    -0.303 OA
HETATM    8  C8  UNL     1       6.955  55.884   0.329  1.00  0.00     0.128 A 
HETATM    9  C9  UNL     1       6.162  56.854  -0.018  1.00  0.00     0.053 C 
HETATM   10  C16 UNL     1       8.356  55.890   0.645  1.00  0.00     0.221 A 
HETATM   11  O4  UNL     1       9.147  56.877   0.653  1.00  0.00    -0.284 OA
ENDROOT
BRANCH   1  12
HETATM   12  N3  UNL     1       6.573  51.584   0.973  1.00  0.00    -0.294 N 
HETATM   13  N2  UNL     1       5.966  50.942   1.844  1.00  0.00    -0.254 N 
HETATM   14  C1  UNL     1       6.237  50.824   3.208  1.00  0.00     0.347 C 
ATOM     15  H2  UNL     1       5.150  50.426   1.515  1.00  0.00     0.191 HD
HETATM   16  N1  UNL     1       7.408  50.198   3.698  1.00  0.00    -0.038 NA
HETATM   17  O1  UNL     1       5.416  51.289   4.035  1.00  0.00    -0.249 OA
ATOM     18  H3  UNL     1       6.185  51.519   0.032  1.00  0.00     0.187 HD
ENDBRANCH   1  12
BRANCH   4  19
HETATM   19  O2  UNL     1      11.080  54.731   1.461  1.00  0.00    -0.360 OA
ATOM     20  H2  UNL     1      11.808  54.568   0.873  1.00  0.00     0.217 HD
ENDBRANCH   4  19
BRANCH   9  21
HETATM   21  C10 UNL     1       6.470  58.247  -0.180  1.00  0.00    -0.034 A 
HETATM   22  C11 UNL     1       5.699  59.199   0.471  1.00  0.00     0.011 A 
HETATM   23  C12 UNL     1       5.983  60.541   0.385  1.00  0.00     0.001 A 
HETATM   24  C13 UNL     1       7.058  60.998  -0.359  1.00  0.00     0.000 A 
HETATM   25  C14 UNL     1       7.839  60.065  -1.016  1.00  0.00     0.001 A 
HETATM   26  C15 UNL     1       7.532  58.725  -0.913  1.00  0.00     0.011 A 
ENDBRANCH   9  21
TORSDOF 3
ENDMDL
MODEL 3
REMARK VINA RESULT: -9.400281580      5.332      7.780
REMARK  3 active torsions:
REMARK  status: ('A' for Active; 'I' for Inactive)
REMARK       I    between atoms: C1_2  and  N2_4 
REMARK    1  A    between atoms: N3_6  and  C2_8 
REMARK    2  A    between atoms: C5_11  and  O2_12 
REMARK    3  A    between atoms: C9_18  and  C10_19 
ROOT
HETATM    1  C2  UNL     1       9.962  50.594   1.139  1.00  0.00     0.083 A 
HETATM    2  C3  UNL     1      11.331  50.574   1.284  1.00  0.00     0.036 A 
HETATM    3  C4  UNL     1      11.997  51.774   1.358  1.00  0.00     0.040 A 
HETATM    4  C5  UNL     1      11.307  52.991   1.287  1.00  0.00     0.083 A 
HETATM    5  C6  UNL     1       9.951  52.966   1.144  1.00  0.00     0.086 A 
HETATM    6  C7  UNL     1       9.230  51.782   1.063  1.00  0.00     0.121 A 
HETATM    7  O3  UNL     1       7.884  52.061   0.922  1.00  0.00    -0.303 OA
HETATM    8  C8  UNL     1       7.668  53.437   0.903  1.00  0.00     0.128 A 
HETATM    9  C9  UNL     1       6.492  53.978   0.778  1.00  0.00     0.053 C 
HETATM   10  C16 UNL     1       8.964  54.041   1.041  1.00  0.00     0.221 A 
HETATM   11  O4  UNL     1       9.248  55.274   1.071  1.00  0.00    -0.284 OA
ENDROOT
BRANCH   1  12
HETATM   12  N3  UNL     1       9.267  49.379   1.063  1.00  0.00    -0.294 N 
HETATM   13  N2  UNL     1       9.265  48.529   0.160  1.00  0.00    -0.254 N 
HETATM   14  C1  UNL     1       9.953  48.525  -1.055  1.00  0.00     0.347 C 
ATOM     15  H2  UNL     1       8.674  47.715   0.329  1.00  0.00     0.191 HD
HETATM   16  N1  UNL     1       9.698  49.472  -2.075  1.00  0.00    -0.038 NA
HETATM   17  O1  UNL     1      10.831  47.651  -1.254  1.00  0.00    -0.249 OA
ATOM     18  H3  UNL     1       8.678  49.164   1.867  1.00  0.00     0.187 HD
ENDBRANCH   1  12
BRANCH   4  19
HETATM   19  O2  UNL     1      12.015  54.155   1.366  1.00  0.00    -0.360 OA
ATOM     20  H2  UNL     1      11.668  54.932   0.944  1.00  0.00     0.217 HD
ENDBRANCH   4  19
BRANCH   9  21
HETATM   21  C10 UNL     1       6.146  55.371   0.749  1.00  0.00    -0.034 A 
HETATM   22  C11 UNL     1       5.712  55.993   1.911  1.00  0.00     0.011 A 
HETATM   23  C12 UNL     1       5.414  57.334   1.945  1.00  0.00     0.001 A 
HETATM   24  C13 UNL     1       5.538  58.123   0.812  1.00  0.00     0.000 A 
HETATM   25  C14 UNL     1       5.969  57.521  -0.356  1.00  0.00     0.001 A 
HETATM   26  C15 UNL     1       6.262  56.174  -0.362  1.00  0.00     0.011 A 
ENDBRANCH   9  21
TORSDOF 3
ENDMDL
MODEL 4
REMARK VINA RESULT: -9.208279866      1.175      1.487
REMARK  3 active torsions:
REMARK  status: ('A' for Active; 'I' for Inactive)
REMARK       I    between atoms: C1_2  and  N2_4 
REMARK    1  A    between atoms: N3_6  and  C2_8 
REMARK    2  A    between atoms: C5_11  and  O2_12 
REMARK    3  A    between atoms: C9_18  and  C10_19 
ROOT
HETATM    1  C2  UNL     1       6.160  57.374   0.276  1.00  0.00     0.083 A 
HETATM    2  C3  UNL     1       5.266  58.344   0.671  1.00  0.00     0.036 A 
HETATM    3  C4  UNL     1       5.551  59.655   0.374  1.00  0.00     0.040 A 
HETATM    4  C5  UNL     1       6.722  60.004  -0.313  1.00  0.00     0.083 A 
HETATM    5  C6  UNL     1       7.581  59.013  -0.687  1.00  0.00     0.086 A 
HETATM    6  C7  UNL     1       7.340  57.673  -0.411  1.00  0.00     0.121 A 
HETATM    7  O3  UNL     1       8.373  56.900  -0.905  1.00  0.00    -0.303 OA
HETATM    8  C8  UNL     1       9.332  57.700  -1.523  1.00  0.00     0.128 A 
HETATM    9  C9  UNL     1      10.412  57.230  -2.073  1.00  0.00     0.053 C 
HETATM   10  C16 UNL     1       8.857  59.050  -1.400  1.00  0.00     0.221 A 
HETATM   11  O4  UNL     1       9.410  60.109  -1.816  1.00  0.00    -0.284 OA
ENDROOT
BRANCH   1  12
HETATM   12  N3  UNL     1       5.884  56.032   0.570  1.00  0.00    -0.294 N 
HETATM   13  N2  UNL     1       6.276  55.338   1.520  1.00  0.00    -0.254 N 
HETATM   14  C1  UNL     1       7.112  55.683   2.583  1.00  0.00     0.347 C 
ATOM     15  H2  UNL     1       5.940  54.375   1.524  1.00  0.00     0.191 HD
HETATM   16  N1  UNL     1       8.472  56.031   2.399  1.00  0.00    -0.038 NA
HETATM   17  O1  UNL     1       6.645  55.687   3.748  1.00  0.00    -0.249 OA
ATOM     18  H3  UNL     1       5.272  55.558  -0.094  1.00  0.00     0.187 HD
ENDBRANCH   1  12
BRANCH   4  19
HETATM   19  O2  UNL     1       6.958  61.321  -0.584  1.00  0.00    -0.360 OA
ATOM     20  H2  UNL     1       7.520  61.544  -1.317  1.00  0.00     0.217 HD
ENDBRANCH   4  19
BRANCH   9  21
HETATM   21  C10 UNL     1      11.463  57.948  -2.738  1.00  0.00    -0.034 A 
HETATM   22  C11 UNL     1      11.692  57.730  -4.089  1.00  0.00     0.011 A 
HETATM   23  C12 UNL     1      12.654  58.427  -4.780  1.00  0.00     0.001 A 
HETATM   24  C13 UNL     1      13.437  59.381  -4.150  1.00  0.00     0.000 A 
HETATM   25  C14 UNL     1      13.224  59.613  -2.804  1.00  0.00     0.001 A 
HETATM   26  C15 UNL     1      12.252  58.900  -2.135  1.00  0.00     0.011 A 
ENDBRANCH   9  21
TORSDOF 3
ENDMDL
MODEL 5
REMARK VINA RESULT: -9.162002519      3.759      6.050
REMARK  3 active torsions:
REMARK  status: ('A' for Active; 'I' for Inactive)
REMARK       I    between atoms: C1_2  and  N2_4 
REMARK    1  A    between atoms: N3_6  and  C2_8 
REMARK    2  A    between atoms: C5_11  and  O2_12 
REMARK    3  A    between atoms: C9_18  and  C10_19 
ROOT
HETATM    1  C2  UNL     1       9.522  52.495   0.682  1.00  0.00     0.083 A 
HETATM    2  C3  UNL     1       9.113  51.580   1.626  1.00  0.00     0.036 A 
HETATM    3  C4  UNL     1       8.103  51.936   2.486  1.00  0.00     0.040 A 
HETATM    4  C5  UNL     1       7.499  53.199   2.411  1.00  0.00     0.083 A 
HETATM    5  C6  UNL     1       7.934  54.076   1.461  1.00  0.00     0.086 A 
HETATM    6  C7  UNL     1       8.951  53.765   0.568  1.00  0.00     0.121 A 
HETATM    7  O3  UNL     1       9.178  54.837  -0.275  1.00  0.00    -0.303 OA
HETATM    8  C8  UNL     1       8.320  55.892   0.032  1.00  0.00     0.128 A 
HETATM    9  C9  UNL     1       8.322  57.026  -0.604  1.00  0.00     0.053 C 
HETATM   10  C16 UNL     1       7.517  55.439   1.133  1.00  0.00     0.221 A 
HETATM   11  O4  UNL     1       6.605  56.070   1.742  1.00  0.00    -0.284 OA
ENDROOT
BRANCH   1  12
HETATM   12  N3  UNL     1      10.549  52.147  -0.205  1.00  0.00    -0.294 N 
HETATM   13  N2  UNL     1      11.770  52.057   0.001  1.00  0.00    -0.254 N 
HETATM   14  C1  UNL     1      12.488  52.276   1.178  1.00  0.00     0.347 C 
ATOM     15  H2  UNL     1      12.329  51.784  -0.807  1.00  0.00     0.191 HD
HETATM   16  N1  UNL     1      12.574  53.549   1.789  1.00  0.00    -0.038 NA
HETATM   17  O1  UNL     1      13.080  51.310   1.718  1.00  0.00    -0.249 OA
ATOM     18  H3  UNL     1      10.251  51.937  -1.158  1.00  0.00     0.187 HD
ENDBRANCH   1  12
BRANCH   4  19
HETATM   19  O2  UNL     1       6.500  53.503   3.289  1.00  0.00    -0.360 OA
ATOM     20  H2  UNL     1       6.640  54.200   3.920  1.00  0.00     0.217 HD
ENDBRANCH   4  19
BRANCH   9  21
HETATM   21  C10 UNL     1       7.491  58.176  -0.385  1.00  0.00    -0.034 A 
HETATM   22  C11 UNL     1       8.062  59.440  -0.370  1.00  0.00     0.011 A 
HETATM   23  C12 UNL     1       7.302  60.575  -0.212  1.00  0.00     0.001 A 
HETATM   24  C13 UNL     1       5.927  60.499  -0.061  1.00  0.00     0.000 A 
HETATM   25  C14 UNL     1       5.338  59.247  -0.074  1.00  0.00     0.001 A 
HETATM   26  C15 UNL     1       6.124  58.126  -0.234  1.00  0.00     0.011 A 
ENDBRANCH   9  21
TORSDOF 3
ENDMDL
