MODEL 1
REMARK VINA RESULT: -9.075796284      0.000      0.000
REMARK  3 active torsions:
REMARK  status: ('A' for Active; 'I' for Inactive)
REMARK    1  A    between atoms: C4_4  and  N1_5 
REMARK    2  A    between atoms: N1_5  and  C5_7 
REMARK    3  A    between atoms: N4_13  and  C7_15 
ROOT
HETATM    1  C5  UNL     1      10.899  54.502   0.771  1.00  0.00     0.167 A 
HETATM    2  N2  UNL     1      11.483  54.551  -0.428  1.00  0.00    -0.278 N 
ATOM      3  H2  UNL     1      12.230  53.899  -0.667  1.00  0.00     0.189 HD
HETATM    4  N3  UNL     1      11.093  55.424  -1.272  1.00  0.00    -0.277 N 
ATOM      5  H3  UNL     1      11.524  55.480  -2.194  1.00  0.00     0.189 HD
HETATM    6  C6  UNL     1      10.116  56.260  -0.932  1.00  0.00     0.168 A 
HETATM    7  N4  UNL     1       9.582  57.220  -1.658  1.00  0.00    -0.316 N 
ATOM      8  H4  UNL     1       9.920  57.388  -2.607  1.00  0.00     0.170 HD
HETATM    9  S1  UNL     1       9.753  55.763   0.662  1.00  0.00    -0.015 SA
ENDROOT
BRANCH   7  10
HETATM   10  C7  UNL     1       8.538  58.019  -1.124  1.00  0.00     0.150 A 
HETATM   11  C8  UNL     1       8.491  59.407  -1.043  1.00  0.00     0.070 A 
HETATM   12  C9  UNL     1       7.281  59.689  -0.452  1.00  0.00     0.002 A 
HETATM   13  C10 UNL     1       6.668  60.879  -0.108  1.00  0.00     0.014 A 
HETATM   14  C14 UNL     1       6.652  58.485  -0.200  1.00  0.00     0.088 A 
HETATM   15  C11 UNL     1       5.420  60.842   0.489  1.00  0.00     0.001 A 
HETATM   16  C12 UNL     1       4.758  59.658   0.757  1.00  0.00     0.003 A 
HETATM   17  C13 UNL     1       5.407  58.490   0.397  1.00  0.00     0.038 A 
HETATM   18  O1  UNL     1       7.435  57.523  -0.616  1.00  0.00    -0.293 OA
ENDBRANCH   7  10
BRANCH   1  19
HETATM   19  N1  UNL     1      11.146  53.691   1.775  1.00  0.00    -0.335 N 
ATOM     20  H1  UNL     1      11.704  54.001   2.571  1.00  0.00     0.168 HD
BRANCH  19  21
HETATM   21  C4  UNL     1      10.619  52.380   1.728  1.00  0.00     0.034 A 
HETATM   22  C3  UNL     1       9.322  52.104   2.115  1.00  0.00     0.029 A 
HETATM   23  C2  UNL     1       8.812  50.828   2.069  1.00  0.00     0.002 A 
HETATM   24  C1  UNL     1       9.569  49.758   1.635  1.00  0.00     0.000 A 
HETATM   25  C16 UNL     1      10.864  50.030   1.249  1.00  0.00     0.002 A 
HETATM   26  C15 UNL     1      11.384  51.307   1.292  1.00  0.00     0.029 A 
ENDBRANCH  19  21
ENDBRANCH   1  19
TORSDOF 3
ENDMDL
MODEL 2
REMARK VINA RESULT: -8.865730358      2.665      3.627
REMARK  3 active torsions:
REMARK  status: ('A' for Active; 'I' for Inactive)
REMARK    1  A    between atoms: C4_4  and  N1_5 
REMARK    2  A    between atoms: N1_5  and  C5_7 
REMARK    3  A    between atoms: N4_13  and  C7_15 
ROOT
HETATM    1  C5  UNL     1       7.306  53.023   2.830  1.00  0.00     0.167 A 
HETATM    2  N2  UNL     1       6.026  52.643   2.843  1.00  0.00    -0.278 N 
ATOM      3  H2  UNL     1       5.759  51.736   3.223  1.00  0.00     0.189 HD
HETATM    4  N3  UNL     1       5.142  53.432   2.371  1.00  0.00    -0.277 N 
ATOM      5  H3  UNL     1       4.158  53.164   2.370  1.00  0.00     0.189 HD
HETATM    6  C6  UNL     1       5.521  54.609   1.882  1.00  0.00     0.168 A 
HETATM    7  N4  UNL     1       4.763  55.550   1.358  1.00  0.00    -0.316 N 
ATOM      8  H4  UNL     1       3.754  55.414   1.293  1.00  0.00     0.170 HD
HETATM    9  S1  UNL     1       7.213  54.569   2.114  1.00  0.00    -0.015 SA
ENDROOT
BRANCH   7  10
HETATM   10  C7  UNL     1       5.349  56.754   0.883  1.00  0.00     0.150 A 
HETATM   11  C8  UNL     1       4.901  58.053   1.095  1.00  0.00     0.070 A 
HETATM   12  C9  UNL     1       5.806  58.853   0.435  1.00  0.00     0.002 A 
HETATM   13  C10 UNL     1       5.897  60.224   0.281  1.00  0.00     0.014 A 
HETATM   14  C14 UNL     1       6.748  58.025  -0.142  1.00  0.00     0.088 A 
HETATM   15  C11 UNL     1       6.944  60.747  -0.458  1.00  0.00     0.001 A 
HETATM   16  C12 UNL     1       7.908  59.952  -1.050  1.00  0.00     0.003 A 
HETATM   17  C13 UNL     1       7.779  58.585  -0.870  1.00  0.00     0.038 A 
HETATM   18  O1  UNL     1       6.437  56.789   0.152  1.00  0.00    -0.293 OA
ENDBRANCH   7  10
BRANCH   1  19
HETATM   19  N1  UNL     1       8.362  52.371   3.261  1.00  0.00    -0.335 N 
ATOM     20  H1  UNL     1       8.578  52.327   4.258  1.00  0.00     0.168 HD
BRANCH  19  21
HETATM   21  C4  UNL     1       9.193  51.731   2.313  1.00  0.00     0.034 A 
HETATM   22  C3  UNL     1       9.041  50.394   2.001  1.00  0.00     0.029 A 
HETATM   23  C2  UNL     1       9.850  49.772   1.079  1.00  0.00     0.002 A 
HETATM   24  C1  UNL     1      10.856  50.452   0.419  1.00  0.00     0.000 A 
HETATM   25  C16 UNL     1      11.010  51.787   0.729  1.00  0.00     0.002 A 
HETATM   26  C15 UNL     1      10.202  52.417   1.653  1.00  0.00     0.029 A 
ENDBRANCH  19  21
ENDBRANCH   1  19
TORSDOF 3
ENDMDL
MODEL 3
REMARK VINA RESULT: -8.857521612      2.666      3.654
REMARK  3 active torsions:
REMARK  status: ('A' for Active; 'I' for Inactive)
REMARK    1  A    between atoms: C4_4  and  N1_5 
REMARK    2  A    between atoms: N1_5  and  C5_7 
REMARK    3  A    between atoms: N4_13  and  C7_15 
ROOT
HETATM    1  C5  UNL     1       7.304  53.025   2.833  1.00  0.00     0.167 A 
HETATM    2  N2  UNL     1       6.023  52.646   2.845  1.00  0.00    -0.278 N 
ATOM      3  H2  UNL     1       5.756  51.739   3.226  1.00  0.00     0.189 HD
HETATM    4  N3  UNL     1       5.140  53.435   2.373  1.00  0.00    -0.277 N 
ATOM      5  H3  UNL     1       4.156  53.168   2.372  1.00  0.00     0.189 HD
HETATM    6  C6  UNL     1       5.520  54.612   1.883  1.00  0.00     0.168 A 
HETATM    7  N4  UNL     1       4.762  55.553   1.358  1.00  0.00    -0.316 N 
ATOM      8  H4  UNL     1       3.753  55.417   1.293  1.00  0.00     0.170 HD
HETATM    9  S1  UNL     1       7.212  54.571   2.115  1.00  0.00    -0.015 SA
ENDROOT
BRANCH   7  10
HETATM   10  C7  UNL     1       5.349  56.756   0.883  1.00  0.00     0.150 A 
HETATM   11  C8  UNL     1       4.903  58.056   1.096  1.00  0.00     0.070 A 
HETATM   12  C9  UNL     1       5.808  58.855   0.435  1.00  0.00     0.002 A 
HETATM   13  C10 UNL     1       5.900  60.226   0.281  1.00  0.00     0.014 A 
HETATM   14  C14 UNL     1       6.748  58.026  -0.143  1.00  0.00     0.088 A 
HETATM   15  C11 UNL     1       6.947  60.747  -0.459  1.00  0.00     0.001 A 
HETATM   16  C12 UNL     1       7.909  59.951  -1.053  1.00  0.00     0.003 A 
HETATM   17  C13 UNL     1       7.778  58.584  -0.874  1.00  0.00     0.038 A 
HETATM   18  O1  UNL     1       6.436  56.790   0.150  1.00  0.00    -0.293 OA
ENDBRANCH   7  10
BRANCH   1  19
HETATM   19  N1  UNL     1       8.360  52.372   3.264  1.00  0.00    -0.335 N 
ATOM     20  H1  UNL     1       8.576  52.331   4.260  1.00  0.00     0.168 HD
BRANCH  19  21
HETATM   21  C4  UNL     1       9.189  51.729   2.317  1.00  0.00     0.034 A 
HETATM   22  C3  UNL     1      10.192  52.408   1.651  1.00  0.00     0.029 A 
HETATM   23  C2  UNL     1      10.997  51.781   0.730  1.00  0.00     0.002 A 
HETATM   24  C1  UNL     1      10.845  50.443   0.423  1.00  0.00     0.000 A 
HETATM   25  C16 UNL     1       9.845  49.763   1.085  1.00  0.00     0.002 A 
HETATM   26  C15 UNL     1       9.032  50.385   2.010  1.00  0.00     0.029 A 
ENDBRANCH  19  21
ENDBRANCH   1  19
TORSDOF 3
ENDMDL
MODEL 4
REMARK VINA RESULT: -8.833150995      0.865      1.562
REMARK  3 active torsions:
REMARK  status: ('A' for Active; 'I' for Inactive)
REMARK    1  A    between atoms: C4_4  and  N1_5 
REMARK    2  A    between atoms: N1_5  and  C5_7 
REMARK    3  A    between atoms: N4_13  and  C7_15 
ROOT
HETATM    1  C5  UNL     1      10.934  54.550   0.804  1.00  0.00     0.167 A 
HETATM    2  N2  UNL     1      11.494  54.581  -0.407  1.00  0.00    -0.278 N 
ATOM      3  H2  UNL     1      12.244  53.932  -0.647  1.00  0.00     0.189 HD
HETATM    4  N3  UNL     1      11.079  55.433  -1.260  1.00  0.00    -0.277 N 
ATOM      5  H3  UNL     1      11.492  55.475  -2.191  1.00  0.00     0.189 HD
HETATM    6  C6  UNL     1      10.100  56.265  -0.917  1.00  0.00     0.168 A 
HETATM    7  N4  UNL     1       9.542  57.204  -1.653  1.00  0.00    -0.316 N 
ATOM      8  H4  UNL     1       9.860  57.358  -2.610  1.00  0.00     0.170 HD
HETATM    9  S1  UNL     1       9.773  55.796   0.693  1.00  0.00    -0.015 SA
ENDROOT
BRANCH   7  10
HETATM   10  C7  UNL     1       8.499  58.003  -1.114  1.00  0.00     0.150 A 
HETATM   11  C8  UNL     1       8.450  59.391  -1.037  1.00  0.00     0.070 A 
HETATM   12  C9  UNL     1       7.243  59.672  -0.439  1.00  0.00     0.002 A 
HETATM   13  C10 UNL     1       6.629  60.862  -0.094  1.00  0.00     0.014 A 
HETATM   14  C14 UNL     1       6.618  58.468  -0.180  1.00  0.00     0.088 A 
HETATM   15  C11 UNL     1       5.384  60.823   0.510  1.00  0.00     0.001 A 
HETATM   16  C12 UNL     1       4.727  59.639   0.785  1.00  0.00     0.003 A 
HETATM   17  C13 UNL     1       5.377  58.471   0.424  1.00  0.00     0.038 A 
HETATM   18  O1  UNL     1       7.400  57.506  -0.599  1.00  0.00    -0.293 OA
ENDBRANCH   7  10
BRANCH   1  19
HETATM   19  N1  UNL     1      11.209  53.761   1.819  1.00  0.00    -0.335 N 
ATOM     20  H1  UNL     1      11.008  54.054   2.776  1.00  0.00     0.168 HD
BRANCH  19  21
HETATM   21  C4  UNL     1      11.786  52.499   1.556  1.00  0.00     0.034 A 
HETATM   22  C3  UNL     1      13.155  52.312   1.559  1.00  0.00     0.029 A 
HETATM   23  C2  UNL     1      13.716  51.083   1.302  1.00  0.00     0.002 A 
HETATM   24  C1  UNL     1      12.941  49.974   1.027  1.00  0.00     0.000 A 
HETATM   25  C16 UNL     1      11.574  50.157   1.022  1.00  0.00     0.002 A 
HETATM   26  C15 UNL     1      11.004  51.387   1.279  1.00  0.00     0.029 A 
ENDBRANCH  19  21
ENDBRANCH   1  19
TORSDOF 3
ENDMDL
MODEL 5
REMARK VINA RESULT: -8.601925149      0.541      1.586
REMARK  3 active torsions:
REMARK  status: ('A' for Active; 'I' for Inactive)
REMARK    1  A    between atoms: C4_4  and  N1_5 
REMARK    2  A    between atoms: N1_5  and  C5_7 
REMARK    3  A    between atoms: N4_13  and  C7_15 
ROOT
HETATM    1  C5  UNL     1      10.867  54.426   0.877  1.00  0.00     0.167 A 
HETATM    2  N2  UNL     1      11.474  54.550  -0.306  1.00  0.00    -0.278 N 
ATOM      3  H2  UNL     1      12.262  53.950  -0.549  1.00  0.00     0.189 HD
HETATM    4  N3  UNL     1      11.053  55.429  -1.128  1.00  0.00    -0.277 N 
ATOM      5  H3  UNL     1      11.501  55.542  -2.037  1.00  0.00     0.189 HD
HETATM    6  C6  UNL     1      10.023  56.197  -0.783  1.00  0.00     0.168 A 
HETATM    7  N4  UNL     1       9.452  57.150  -1.490  1.00  0.00    -0.316 N 
ATOM      8  H4  UNL     1       9.800  57.371  -2.423  1.00  0.00     0.170 HD
HETATM    9  S1  UNL     1       9.654  55.623   0.783  1.00  0.00    -0.015 SA
ENDROOT
BRANCH   7  10
HETATM   10  C7  UNL     1       8.351  57.870  -0.954  1.00  0.00     0.150 A 
HETATM   11  C8  UNL     1       7.166  57.349  -0.444  1.00  0.00     0.070 A 
HETATM   12  C9  UNL     1       6.433  58.446  -0.055  1.00  0.00     0.002 A 
HETATM   13  C10 UNL     1       5.181  58.574   0.519  1.00  0.00     0.014 A 
HETATM   14  C14 UNL     1       7.186  59.569  -0.338  1.00  0.00     0.088 A 
HETATM   15  C11 UNL     1       4.701  59.840   0.802  1.00  0.00     0.001 A 
HETATM   16  C12 UNL     1       5.423  60.988   0.534  1.00  0.00     0.003 A 
HETATM   17  C13 UNL     1       6.671  60.815  -0.040  1.00  0.00     0.038 A 
HETATM   18  O1  UNL     1       8.315  59.178  -0.869  1.00  0.00    -0.293 OA
ENDBRANCH   7  10
BRANCH   1  19
HETATM   19  N1  UNL     1      11.137  53.595   1.858  1.00  0.00    -0.335 N 
ATOM     20  H1  UNL     1      11.699  53.895   2.656  1.00  0.00     0.168 HD
BRANCH  19  21
HETATM   21  C4  UNL     1      10.633  52.277   1.784  1.00  0.00     0.034 A 
HETATM   22  C3  UNL     1      11.402  51.232   1.307  1.00  0.00     0.029 A 
HETATM   23  C2  UNL     1      10.910  49.949   1.235  1.00  0.00     0.002 A 
HETATM   24  C1  UNL     1       9.624  49.641   1.634  1.00  0.00     0.000 A 
HETATM   25  C16 UNL     1       8.855  50.682   2.110  1.00  0.00     0.002 A 
HETATM   26  C15 UNL     1       9.341  51.971   2.185  1.00  0.00     0.029 A 
ENDBRANCH  19  21
ENDBRANCH   1  19
TORSDOF 3
ENDMDL
