MODEL 1
REMARK VINA RESULT: -10.013661600      0.000      0.000
REMARK  4 active torsions:
REMARK  status: ('A' for Active; 'I' for Inactive)
REMARK    1  A    between atoms: C10_11  and  N2_12 
REMARK    2  A    between atoms: N2_12  and  C11_14 
REMARK    3  A    between atoms: C12_19  and  S1_20 
REMARK    4  A    between atoms: S1_20  and  C13_21 
ROOT
HETATM    1  C11 UNL     1       4.816  55.205   2.299  1.00  0.00     0.246 A 
HETATM    2  N3  UNL     1       5.568  55.237   3.413  1.00  0.00    -0.262 N 
ATOM      3  H3  UNL     1       5.767  56.042   4.008  1.00  0.00     0.190 HD
HETATM    4  N4  UNL     1       5.996  53.985   3.568  1.00  0.00    -0.271 N 
ATOM      5  H4  UNL     1       6.597  53.660   4.325  1.00  0.00     0.189 HD
HETATM    6  C12 UNL     1       5.522  53.220   2.581  1.00  0.00     0.210 A 
HETATM    7  O1  UNL     1       4.801  53.980   1.811  1.00  0.00    -0.253 OA
ENDROOT
BRANCH   1   8
HETATM    8  N2  UNL     1       4.194  56.209   1.766  1.00  0.00    -0.319 N 
ATOM      9  H2  UNL     1       3.178  56.278   1.821  1.00  0.00     0.169 HD
BRANCH   8  10
HETATM   10  C10 UNL     1       4.956  57.216   1.098  1.00  0.00     0.060 A 
HETATM   11  C1  UNL     1       4.504  58.526   1.059  1.00  0.00     0.074 A 
HETATM   12  N1  UNL     1       3.279  58.900   1.677  1.00  0.00    -0.100 NA
HETATM   13  C2  UNL     1       5.241  59.496   0.414  1.00  0.00     0.041 A 
HETATM   14  C3  UNL     1       6.443  59.196  -0.210  1.00  0.00    -0.024 A 
HETATM   15  C4  UNL     1       7.174  60.186  -0.855  1.00  0.00     0.012 A 
HETATM   16  C8  UNL     1       6.900  57.889  -0.173  1.00  0.00    -0.024 A 
HETATM   17  C5  UNL     1       8.367  59.865  -1.468  1.00  0.00     0.001 A 
HETATM   18  C6  UNL     1       8.848  58.572  -1.450  1.00  0.00     0.001 A 
HETATM   19  C7  UNL     1       8.095  57.618  -0.799  1.00  0.00     0.012 A 
HETATM   20  C9  UNL     1       6.153  56.939   0.473  1.00  0.00     0.043 A 
ENDBRANCH   8  10
ENDBRANCH   1   8
BRANCH   6  21
HETATM   21  S1  UNL     1       5.810  51.485   2.346  1.00  0.00    -0.045 SA
BRANCH  21  22
HETATM   22  C13 UNL     1       4.474  50.543   3.081  1.00  0.00     0.009 A 
HETATM   23  C14 UNL     1       4.671  49.838   4.254  1.00  0.00     0.019 A 
HETATM   24  C15 UNL     1       3.660  49.096   4.855  1.00  0.00     0.001 A 
HETATM   25  C16 UNL     1       2.427  49.096   4.212  1.00  0.00     0.000 A 
HETATM   26  C17 UNL     1       2.227  49.798   3.042  1.00  0.00     0.001 A 
HETATM   27  C18 UNL     1       3.257  50.531   2.465  1.00  0.00     0.019 A 
ENDBRANCH  21  22
ENDBRANCH   6  21
TORSDOF 4
ENDMDL
MODEL 2
REMARK VINA RESULT: -9.904256444      2.907      4.128
REMARK  4 active torsions:
REMARK  status: ('A' for Active; 'I' for Inactive)
REMARK    1  A    between atoms: C10_11  and  N2_12 
REMARK    2  A    between atoms: N2_12  and  C11_14 
REMARK    3  A    between atoms: C12_19  and  S1_20 
REMARK    4  A    between atoms: S1_20  and  C13_21 
ROOT
HETATM    1  C11 UNL     1       9.204  55.527   0.028  1.00  0.00     0.246 A 
HETATM    2  N3  UNL     1      10.248  55.642   0.869  1.00  0.00    -0.262 N 
ATOM      3  H3  UNL     1      10.896  56.425   0.954  1.00  0.00     0.190 HD
HETATM    4  N4  UNL     1      10.246  54.507   1.566  1.00  0.00    -0.271 N 
ATOM      5  H4  UNL     1      10.914  54.268   2.298  1.00  0.00     0.189 HD
HETATM    6  C12 UNL     1       9.237  53.730   1.163  1.00  0.00     0.210 A 
HETATM    7  O1  UNL     1       8.608  54.366   0.220  1.00  0.00    -0.253 OA
ENDROOT
BRANCH   1   8
HETATM    8  N2  UNL     1       8.824  56.405  -0.845  1.00  0.00    -0.319 N 
ATOM      9  H2  UNL     1       9.248  56.433  -1.772  1.00  0.00     0.169 HD
BRANCH   8  10
HETATM   10  C10 UNL     1       7.800  57.335  -0.487  1.00  0.00     0.060 A 
HETATM   11  C1  UNL     1       7.900  58.666  -0.863  1.00  0.00     0.074 A 
HETATM   12  N1  UNL     1       9.014  59.138  -1.608  1.00  0.00    -0.100 NA
HETATM   13  C2  UNL     1       6.910  59.561  -0.515  1.00  0.00     0.041 A 
HETATM   14  C3  UNL     1       5.798  59.164   0.213  1.00  0.00    -0.024 A 
HETATM   15  C4  UNL     1       4.811  60.078   0.554  1.00  0.00     0.012 A 
HETATM   16  C8  UNL     1       5.694  57.835   0.590  1.00  0.00    -0.024 A 
HETATM   17  C5  UNL     1       3.713  59.662   1.278  1.00  0.00     0.001 A 
HETATM   18  C6  UNL     1       3.581  58.345   1.669  1.00  0.00     0.001 A 
HETATM   19  C7  UNL     1       4.581  57.467   1.311  1.00  0.00     0.012 A 
HETATM   20  C9  UNL     1       6.688  56.961   0.235  1.00  0.00     0.043 A 
ENDBRANCH   8  10
ENDBRANCH   1   8
BRANCH   6  21
HETATM   21  S1  UNL     1       8.817  52.122   1.784  1.00  0.00    -0.045 SA
BRANCH  21  22
HETATM   22  C13 UNL     1       7.034  51.951   1.867  1.00  0.00     0.009 A 
HETATM   23  C14 UNL     1       6.223  52.559   0.927  1.00  0.00     0.019 A 
HETATM   24  C15 UNL     1       4.837  52.450   0.958  1.00  0.00     0.001 A 
HETATM   25  C16 UNL     1       4.300  51.691   1.992  1.00  0.00     0.000 A 
HETATM   26  C17 UNL     1       5.106  51.083   2.931  1.00  0.00     0.001 A 
HETATM   27  C18 UNL     1       6.489  51.210   2.874  1.00  0.00     0.019 A 
ENDBRANCH  21  22
ENDBRANCH   6  21
TORSDOF 4
ENDMDL
MODEL 3
REMARK VINA RESULT: -9.858488528      1.296      1.772
REMARK  4 active torsions:
REMARK  status: ('A' for Active; 'I' for Inactive)
REMARK    1  A    between atoms: C10_11  and  N2_12 
REMARK    2  A    between atoms: N2_12  and  C11_14 
REMARK    3  A    between atoms: C12_19  and  S1_20 
REMARK    4  A    between atoms: S1_20  and  C13_21 
ROOT
HETATM    1  C11 UNL     1       5.797  56.300   2.108  1.00  0.00     0.246 A 
HETATM    2  N3  UNL     1       6.153  56.257   3.404  1.00  0.00    -0.262 N 
ATOM      3  H3  UNL     1       6.175  57.029   4.070  1.00  0.00     0.190 HD
HETATM    4  N4  UNL     1       6.469  54.982   3.625  1.00  0.00    -0.271 N 
ATOM      5  H4  UNL     1       6.784  54.603   4.518  1.00  0.00     0.189 HD
HETATM    6  C12 UNL     1       6.312  54.276   2.502  1.00  0.00     0.210 A 
HETATM    7  O1  UNL     1       5.901  55.095   1.581  1.00  0.00    -0.253 OA
ENDROOT
BRANCH   1   8
HETATM    8  N2  UNL     1       5.411  57.349   1.454  1.00  0.00    -0.319 N 
ATOM      9  H2  UNL     1       4.468  57.719   1.575  1.00  0.00     0.169 HD
BRANCH   8  10
HETATM   10  C10 UNL     1       6.329  57.981   0.559  1.00  0.00     0.060 A 
HETATM   11  C1  UNL     1       6.107  59.280   0.130  1.00  0.00     0.074 A 
HETATM   12  N1  UNL     1       4.969  60.014   0.563  1.00  0.00    -0.100 NA
HETATM   13  C2  UNL     1       6.995  59.887  -0.734  1.00  0.00     0.041 A 
HETATM   14  C3  UNL     1       8.123  59.224  -1.196  1.00  0.00    -0.024 A 
HETATM   15  C4  UNL     1       9.007  59.850  -2.065  1.00  0.00     0.012 A 
HETATM   16  C8  UNL     1       8.349  57.926  -0.769  1.00  0.00    -0.024 A 
HETATM   17  C5  UNL     1      10.123  59.173  -2.510  1.00  0.00     0.001 A 
HETATM   18  C6  UNL     1      10.376  57.878  -2.104  1.00  0.00     0.001 A 
HETATM   19  C7  UNL     1       9.476  57.291  -1.240  1.00  0.00     0.012 A 
HETATM   20  C9  UNL     1       7.456  57.340   0.090  1.00  0.00     0.043 A 
ENDBRANCH   8  10
ENDBRANCH   1   8
BRANCH   6  21
HETATM   21  S1  UNL     1       6.606  52.539   2.286  1.00  0.00    -0.045 SA
BRANCH  21  22
HETATM   22  C13 UNL     1       5.047  51.655   2.294  1.00  0.00     0.009 A 
HETATM   23  C14 UNL     1       4.763  50.736   3.287  1.00  0.00     0.019 A 
HETATM   24  C15 UNL     1       3.566  50.030   3.327  1.00  0.00     0.001 A 
HETATM   25  C16 UNL     1       2.657  50.295   2.309  1.00  0.00     0.000 A 
HETATM   26  C17 UNL     1       2.937  51.211   1.317  1.00  0.00     0.001 A 
HETATM   27  C18 UNL     1       4.143  51.901   1.303  1.00  0.00     0.019 A 
ENDBRANCH  21  22
ENDBRANCH   6  21
TORSDOF 4
ENDMDL
MODEL 4
REMARK VINA RESULT: -9.767878330      3.485      4.587
REMARK  4 active torsions:
REMARK  status: ('A' for Active; 'I' for Inactive)
REMARK    1  A    between atoms: C10_11  and  N2_12 
REMARK    2  A    between atoms: N2_12  and  C11_14 
REMARK    3  A    between atoms: C12_19  and  S1_20 
REMARK    4  A    between atoms: S1_20  and  C13_21 
ROOT
HETATM    1  C11 UNL     1      10.253  54.867   0.125  1.00  0.00     0.246 A 
HETATM    2  N3  UNL     1      11.246  54.530   0.967  1.00  0.00    -0.262 N 
ATOM      3  H3  UNL     1      12.188  54.919   1.007  1.00  0.00     0.190 HD
HETATM    4  N4  UNL     1      10.725  53.576   1.737  1.00  0.00    -0.271 N 
ATOM      5  H4  UNL     1      11.218  53.097   2.490  1.00  0.00     0.189 HD
HETATM    6  C12 UNL     1       9.461  53.341   1.375  1.00  0.00     0.210 A 
HETATM    7  O1  UNL     1       9.185  54.139   0.386  1.00  0.00    -0.253 OA
ENDROOT
BRANCH   1   8
HETATM    8  N2  UNL     1      10.312  55.764  -0.808  1.00  0.00    -0.319 N 
ATOM      9  H2  UNL     1      11.014  55.702  -1.545  1.00  0.00     0.169 HD
BRANCH   8  10
HETATM   10  C10 UNL     1       9.375  56.843  -0.787  1.00  0.00     0.060 A 
HETATM   11  C1  UNL     1       9.655  58.026  -1.453  1.00  0.00     0.074 A 
HETATM   12  N1  UNL     1      10.870  58.198  -2.170  1.00  0.00    -0.100 NA
HETATM   13  C2  UNL     1       8.749  59.066  -1.430  1.00  0.00     0.041 A 
HETATM   14  C3  UNL     1       7.546  58.964  -0.747  1.00  0.00    -0.024 A 
HETATM   15  C4  UNL     1       6.645  60.020  -0.735  1.00  0.00     0.012 A 
HETATM   16  C8  UNL     1       7.262  57.783  -0.080  1.00  0.00    -0.024 A 
HETATM   17  C5  UNL     1       5.455  59.896  -0.050  1.00  0.00     0.001 A 
HETATM   18  C6  UNL     1       5.143  58.733   0.625  1.00  0.00     0.001 A 
HETATM   19  C7  UNL     1       6.062  57.707   0.589  1.00  0.00     0.012 A 
HETATM   20  C9  UNL     1       8.175  56.761  -0.115  1.00  0.00     0.043 A 
ENDBRANCH   8  10
ENDBRANCH   1   8
BRANCH   6  21
HETATM   21  S1  UNL     1       8.348  52.163   2.096  1.00  0.00    -0.045 SA
BRANCH  21  22
HETATM   22  C13 UNL     1       6.661  52.752   1.945  1.00  0.00     0.009 A 
HETATM   23  C14 UNL     1       5.675  51.938   1.421  1.00  0.00     0.019 A 
HETATM   24  C15 UNL     1       4.356  52.358   1.289  1.00  0.00     0.001 A 
HETATM   25  C16 UNL     1       4.073  53.652   1.713  1.00  0.00     0.000 A 
HETATM   26  C17 UNL     1       5.055  54.467   2.236  1.00  0.00     0.001 A 
HETATM   27  C18 UNL     1       6.365  54.019   2.356  1.00  0.00     0.019 A 
ENDBRANCH  21  22
ENDBRANCH   6  21
TORSDOF 4
ENDMDL
MODEL 5
REMARK VINA RESULT: -9.754296914      3.487      4.728
REMARK  4 active torsions:
REMARK  status: ('A' for Active; 'I' for Inactive)
REMARK    1  A    between atoms: C10_11  and  N2_12 
REMARK    2  A    between atoms: N2_12  and  C11_14 
REMARK    3  A    between atoms: C12_19  and  S1_20 
REMARK    4  A    between atoms: S1_20  and  C13_21 
ROOT
HETATM    1  C11 UNL     1       6.188  53.688   1.544  1.00  0.00     0.246 A 
HETATM    2  N3  UNL     1       6.688  54.103   2.722  1.00  0.00    -0.262 N 
ATOM      3  H3  UNL     1       6.443  54.947   3.240  1.00  0.00     0.190 HD
HETATM    4  N4  UNL     1       7.572  53.167   3.062  1.00  0.00    -0.271 N 
ATOM      5  H4  UNL     1       8.135  53.174   3.912  1.00  0.00     0.189 HD
HETATM    6  C12 UNL     1       7.609  52.217   2.123  1.00  0.00     0.210 A 
HETATM    7  O1  UNL     1       6.758  52.550   1.200  1.00  0.00    -0.253 OA
ENDROOT
BRANCH   1   8
HETATM    8  N2  UNL     1       5.289  54.296   0.837  1.00  0.00    -0.319 N 
ATOM      9  H2  UNL     1       4.533  53.772   0.397  1.00  0.00     0.169 HD
BRANCH   8  10
HETATM   10  C10 UNL     1       5.374  55.714   0.684  1.00  0.00     0.060 A 
HETATM   11  C1  UNL     1       4.386  56.535   1.204  1.00  0.00     0.074 A 
HETATM   12  N1  UNL     1       3.268  55.994   1.897  1.00  0.00    -0.100 NA
HETATM   13  C2  UNL     1       4.470  57.904   1.055  1.00  0.00     0.041 A 
HETATM   14  C3  UNL     1       5.534  58.494   0.388  1.00  0.00    -0.024 A 
HETATM   15  C4  UNL     1       5.604  59.874   0.247  1.00  0.00     0.012 A 
HETATM   16  C8  UNL     1       6.524  57.678  -0.133  1.00  0.00    -0.024 A 
HETATM   17  C5  UNL     1       6.670  60.440  -0.420  1.00  0.00     0.001 A 
HETATM   18  C6  UNL     1       7.673  59.654  -0.950  1.00  0.00     0.001 A 
HETATM   19  C7  UNL     1       7.568  58.289  -0.789  1.00  0.00     0.012 A 
HETATM   20  C9  UNL     1       6.422  56.321   0.026  1.00  0.00     0.043 A 
ENDBRANCH   8  10
ENDBRANCH   1   8
BRANCH   6  21
HETATM   21  S1  UNL     1       8.626  50.763   2.118  1.00  0.00    -0.045 SA
BRANCH  21  22
HETATM   22  C13 UNL     1      10.126  51.076   1.187  1.00  0.00     0.009 A 
HETATM   23  C14 UNL     1      11.184  50.188   1.237  1.00  0.00     0.019 A 
HETATM   24  C15 UNL     1      12.364  50.396   0.529  1.00  0.00     0.001 A 
HETATM   25  C16 UNL     1      12.428  51.553  -0.240  1.00  0.00     0.000 A 
HETATM   26  C17 UNL     1      11.374  52.440  -0.292  1.00  0.00     0.001 A 
HETATM   27  C18 UNL     1      10.208  52.206   0.427  1.00  0.00     0.019 A 
ENDBRANCH  21  22
ENDBRANCH   6  21
TORSDOF 4
ENDMDL
