MODEL 1
REMARK VINA RESULT: -7.894458670      0.000      0.000
REMARK  5 active torsions:
REMARK  status: ('A' for Active; 'I' for Inactive)
REMARK    1  A    between atoms: C4_5  and  N1_6 
REMARK    2  A    between atoms: N1_6  and  C5_8 
REMARK    3  A    between atoms: C5_8  and  N2_10 
REMARK       I    between atoms: N2_10  and  C6_12 
REMARK    4  A    between atoms: C6_12  and  C7_14 
REMARK    5  A    between atoms: C9_16  and  C10_17 
ROOT
HETATM    1  N2  UNL     1       6.436  52.580   1.723  1.00  0.00    -0.298 N 
ATOM      2  H2  UNL     1       7.179  52.268   2.350  1.00  0.00     0.171 HD
HETATM    3  C6  UNL     1       5.182  51.998   1.901  1.00  0.00     0.276 C 
HETATM    4  O1  UNL     1       4.143  52.223   1.246  1.00  0.00    -0.266 OA
ENDROOT
BRANCH   1   5
HETATM    5  C5  UNL     1       6.779  53.545   0.774  1.00  0.00     0.179 C 
HETATM    6  S2  UNL     1       8.404  53.792   0.577  1.00  0.00    -0.040 SA
BRANCH   5   7
HETATM    7  N1  UNL     1       5.887  54.326   0.064  1.00  0.00    -0.327 N 
ATOM      8  H1  UNL     1       5.420  53.877  -0.724  1.00  0.00     0.169 HD
BRANCH   7   9
HETATM    9  C4  UNL     1       5.546  55.689   0.307  1.00  0.00     0.076 A 
HETATM   10  S1  UNL     1       4.382  56.181   1.516  1.00  0.00    -0.084 SA
HETATM   11  C3  UNL     1       4.459  57.866   1.305  1.00  0.00     0.058 A 
HETATM   12  C2  UNL     1       5.381  58.015   0.307  1.00  0.00    -0.053 A 
HETATM   13  C1  UNL     1       5.737  59.423  -0.166  1.00  0.00     0.049 C 
HETATM   14  C14 UNL     1       5.932  56.880  -0.197  1.00  0.00     0.044 A 
ENDBRANCH   7   9
ENDBRANCH   5   7
ENDBRANCH   1   5
BRANCH   3  15
HETATM   15  C7  UNL     1       4.982  50.977   2.973  1.00  0.00     0.125 A 
HETATM   16  C8  UNL     1       3.843  50.242   3.192  1.00  0.00     0.072 A 
HETATM   17  C9  UNL     1       4.046  49.435   4.313  1.00  0.00     0.086 A 
HETATM   18  O2  UNL     1       5.246  49.704   4.708  1.00  0.00    -0.241 OA
HETATM   19  N3  UNL     1       5.821  50.607   3.942  1.00  0.00    -0.256 N 
ATOM     20  H3  UNL     1       6.766  50.969   4.069  1.00  0.00     0.195 HD
BRANCH  17  21
HETATM   21  C10 UNL     1       3.006  48.512   4.819  1.00  0.00     0.000 C 
HETATM   22  C11 UNL     1       1.775  48.636   3.935  1.00  0.00     0.021 C 
HETATM   23  C12 UNL     1       2.585  48.822   6.229  1.00  0.00     0.021 C 
HETATM   24  C13 UNL     1       3.536  47.085   4.797  1.00  0.00     0.021 C 
ENDBRANCH  17  21
ENDBRANCH   3  15
TORSDOF 5
ENDMDL
MODEL 2
REMARK VINA RESULT: -7.780815804      1.367      1.676
REMARK  5 active torsions:
REMARK  status: ('A' for Active; 'I' for Inactive)
REMARK    1  A    between atoms: C4_5  and  N1_6 
REMARK    2  A    between atoms: N1_6  and  C5_8 
REMARK    3  A    between atoms: C5_8  and  N2_10 
REMARK       I    between atoms: N2_10  and  C6_12 
REMARK    4  A    between atoms: C6_12  and  C7_14 
REMARK    5  A    between atoms: C9_16  and  C10_17 
ROOT
HETATM    1  N2  UNL     1       5.480  53.186   3.166  1.00  0.00    -0.298 N 
ATOM      2  H2  UNL     1       5.540  53.074   4.178  1.00  0.00     0.171 HD
HETATM    3  C6  UNL     1       5.193  52.041   2.424  1.00  0.00     0.276 C 
HETATM    4  O1  UNL     1       5.084  51.949   1.184  1.00  0.00    -0.266 OA
ENDROOT
BRANCH   1   5
HETATM    5  C5  UNL     1       5.694  54.471   2.662  1.00  0.00     0.179 C 
HETATM    6  S2  UNL     1       6.423  55.524   3.711  1.00  0.00    -0.040 SA
BRANCH   5   7
HETATM    7  N1  UNL     1       5.294  54.925   1.420  1.00  0.00    -0.327 N 
ATOM      8  H1  UNL     1       4.836  54.243   0.815  1.00  0.00     0.169 HD
BRANCH   7   9
HETATM    9  C4  UNL     1       5.447  56.239   0.888  1.00  0.00     0.076 A 
HETATM   10  S1  UNL     1       4.226  57.481   1.043  1.00  0.00    -0.084 SA
HETATM   11  C3  UNL     1       5.018  58.751   0.238  1.00  0.00     0.058 A 
HETATM   12  C2  UNL     1       6.209  58.192  -0.133  1.00  0.00    -0.053 A 
HETATM   13  C1  UNL     1       7.224  59.047  -0.889  1.00  0.00     0.049 C 
HETATM   14  C14 UNL     1       6.414  56.894   0.210  1.00  0.00     0.044 A 
ENDBRANCH   7   9
ENDBRANCH   5   7
ENDBRANCH   1   5
BRANCH   3  15
HETATM   15  C7  UNL     1       4.987  50.736   3.123  1.00  0.00     0.125 A 
HETATM   16  C8  UNL     1       3.788  50.236   3.569  1.00  0.00     0.072 A 
HETATM   17  C9  UNL     1       4.029  49.016   4.206  1.00  0.00     0.086 A 
HETATM   18  O2  UNL     1       5.305  48.838   4.121  1.00  0.00    -0.241 OA
HETATM   19  N3  UNL     1       5.895  49.833   3.492  1.00  0.00    -0.256 N 
ATOM     20  H3  UNL     1       6.897  49.901   3.312  1.00  0.00     0.195 HD
BRANCH  17  21
HETATM   21  C10 UNL     1       2.940  48.210   4.801  1.00  0.00     0.000 C 
HETATM   22  C11 UNL     1       2.656  48.733   6.200  1.00  0.00     0.021 C 
HETATM   23  C12 UNL     1       3.291  46.753   4.924  1.00  0.00     0.021 C 
HETATM   24  C13 UNL     1       1.695  48.314   3.931  1.00  0.00     0.021 C 
ENDBRANCH  17  21
ENDBRANCH   3  15
TORSDOF 5
ENDMDL
MODEL 3
REMARK VINA RESULT: -7.745735724      1.706      2.168
REMARK  5 active torsions:
REMARK  status: ('A' for Active; 'I' for Inactive)
REMARK    1  A    between atoms: C4_5  and  N1_6 
REMARK    2  A    between atoms: N1_6  and  C5_8 
REMARK    3  A    between atoms: C5_8  and  N2_10 
REMARK       I    between atoms: N2_10  and  C6_12 
REMARK    4  A    between atoms: C6_12  and  C7_14 
REMARK    5  A    between atoms: C9_16  and  C10_17 
ROOT
HETATM    1  N2  UNL     1       6.133  51.998   2.990  1.00  0.00    -0.298 N 
ATOM      2  H2  UNL     1       6.103  51.690   3.963  1.00  0.00     0.171 HD
HETATM    3  C6  UNL     1       5.089  51.579   2.168  1.00  0.00     0.276 C 
HETATM    4  O1  UNL     1       4.933  51.830   0.954  1.00  0.00    -0.266 OA
ENDROOT
BRANCH   1   5
HETATM    5  C5  UNL     1       7.217  52.797   2.617  1.00  0.00     0.179 C 
HETATM    6  S2  UNL     1       8.531  51.972   2.038  1.00  0.00    -0.040 SA
BRANCH   5   7
HETATM    7  N1  UNL     1       7.290  54.169   2.756  1.00  0.00    -0.327 N 
ATOM      8  H1  UNL     1       7.860  54.516   3.528  1.00  0.00     0.169 HD
BRANCH   7   9
HETATM    9  C4  UNL     1       6.659  55.157   1.944  1.00  0.00     0.076 A 
HETATM   10  S1  UNL     1       6.787  55.184   0.200  1.00  0.00    -0.084 SA
HETATM   11  C3  UNL     1       5.828  56.547  -0.128  1.00  0.00     0.058 A 
HETATM   12  C2  UNL     1       5.427  56.954   1.113  1.00  0.00    -0.053 A 
HETATM   13  C1  UNL     1       4.518  58.176   1.234  1.00  0.00     0.049 C 
HETATM   14  C14 UNL     1       5.866  56.225   2.173  1.00  0.00     0.044 A 
ENDBRANCH   7   9
ENDBRANCH   5   7
ENDBRANCH   1   5
BRANCH   3  15
HETATM   15  C7  UNL     1       3.999  50.726   2.729  1.00  0.00     0.125 A 
HETATM   16  C8  UNL     1       4.119  49.835   3.767  1.00  0.00     0.072 A 
HETATM   17  C9  UNL     1       2.886  49.206   3.955  1.00  0.00     0.086 A 
HETATM   18  O2  UNL     1       2.107  49.721   3.062  1.00  0.00    -0.241 OA
HETATM   19  N3  UNL     1       2.732  50.615   2.326  1.00  0.00    -0.256 N 
ATOM     20  H3  UNL     1       2.311  51.145   1.563  1.00  0.00     0.195 HD
BRANCH  17  21
HETATM   21  C10 UNL     1       2.673  48.186   5.005  1.00  0.00     0.000 C 
HETATM   22  C11 UNL     1       2.671  48.876   6.360  1.00  0.00     0.021 C 
HETATM   23  C12 UNL     1       3.753  47.139   5.030  1.00  0.00     0.021 C 
HETATM   24  C13 UNL     1       1.347  47.477   4.766  1.00  0.00     0.021 C 
ENDBRANCH  17  21
ENDBRANCH   3  15
TORSDOF 5
ENDMDL
MODEL 4
REMARK VINA RESULT: -7.645443081      1.314      1.904
REMARK  5 active torsions:
REMARK  status: ('A' for Active; 'I' for Inactive)
REMARK    1  A    between atoms: C4_5  and  N1_6 
REMARK    2  A    between atoms: N1_6  and  C5_8 
REMARK    3  A    between atoms: C5_8  and  N2_10 
REMARK       I    between atoms: N2_10  and  C6_12 
REMARK    4  A    between atoms: C6_12  and  C7_14 
REMARK    5  A    between atoms: C9_16  and  C10_17 
ROOT
HETATM    1  N2  UNL     1       5.576  53.178   3.136  1.00  0.00    -0.298 N 
ATOM      2  H2  UNL     1       5.623  53.073   4.150  1.00  0.00     0.171 HD
HETATM    3  C6  UNL     1       5.267  52.035   2.400  1.00  0.00     0.276 C 
HETATM    4  O1  UNL     1       5.168  51.937   1.160  1.00  0.00    -0.266 OA
ENDROOT
BRANCH   1   5
HETATM    5  C5  UNL     1       5.828  54.453   2.625  1.00  0.00     0.179 C 
HETATM    6  S2  UNL     1       6.371  55.559   3.731  1.00  0.00    -0.040 SA
BRANCH   5   7
HETATM    7  N1  UNL     1       5.598  54.858   1.324  1.00  0.00    -0.327 N 
ATOM      8  H1  UNL     1       5.094  54.201   0.728  1.00  0.00     0.169 HD
BRANCH   7   9
HETATM    9  C4  UNL     1       5.985  56.090   0.720  1.00  0.00     0.076 A 
HETATM   10  S1  UNL     1       7.511  56.312  -0.104  1.00  0.00    -0.084 SA
HETATM   11  C3  UNL     1       7.335  57.933  -0.583  1.00  0.00     0.058 A 
HETATM   12  C2  UNL     1       6.102  58.270  -0.100  1.00  0.00    -0.053 A 
HETATM   13  C1  UNL     1       5.571  59.681  -0.345  1.00  0.00     0.049 C 
HETATM   14  C14 UNL     1       5.418  57.307   0.571  1.00  0.00     0.044 A 
ENDBRANCH   7   9
ENDBRANCH   5   7
ENDBRANCH   1   5
BRANCH   3  15
HETATM   15  C7  UNL     1       5.021  50.742   3.107  1.00  0.00     0.125 A 
HETATM   16  C8  UNL     1       3.804  50.269   3.533  1.00  0.00     0.072 A 
HETATM   17  C9  UNL     1       4.007  49.051   4.186  1.00  0.00     0.086 A 
HETATM   18  O2  UNL     1       5.281  48.848   4.129  1.00  0.00    -0.241 OA
HETATM   19  N3  UNL     1       5.904  49.824   3.502  1.00  0.00    -0.256 N 
ATOM     20  H3  UNL     1       6.910  49.871   3.342  1.00  0.00     0.195 HD
BRANCH  17  21
HETATM   21  C10 UNL     1       2.891  48.272   4.766  1.00  0.00     0.000 C 
HETATM   22  C11 UNL     1       2.626  48.778   6.175  1.00  0.00     0.021 C 
HETATM   23  C12 UNL     1       3.191  46.801   4.860  1.00  0.00     0.021 C 
HETATM   24  C13 UNL     1       1.650  48.437   3.899  1.00  0.00     0.021 C 
ENDBRANCH  17  21
ENDBRANCH   3  15
TORSDOF 5
ENDMDL
MODEL 5
REMARK VINA RESULT: -7.570410194      1.290      2.077
REMARK  5 active torsions:
REMARK  status: ('A' for Active; 'I' for Inactive)
REMARK    1  A    between atoms: C4_5  and  N1_6 
REMARK    2  A    between atoms: N1_6  and  C5_8 
REMARK    3  A    between atoms: C5_8  and  N2_10 
REMARK       I    between atoms: N2_10  and  C6_12 
REMARK    4  A    between atoms: C6_12  and  C7_14 
REMARK    5  A    between atoms: C9_16  and  C10_17 
ROOT
HETATM    1  N2  UNL     1       4.864  53.585   2.347  1.00  0.00    -0.298 N 
ATOM      2  H2  UNL     1       4.610  53.743   3.323  1.00  0.00     0.171 HD
HETATM    3  C6  UNL     1       5.099  52.265   1.967  1.00  0.00     0.276 C 
HETATM    4  O1  UNL     1       5.427  51.849   0.836  1.00  0.00    -0.266 OA
ENDROOT
BRANCH   1   5
HETATM    5  C5  UNL     1       4.941  54.713   1.528  1.00  0.00     0.179 C 
HETATM    6  S2  UNL     1       3.837  55.901   1.861  1.00  0.00    -0.040 SA
BRANCH   5   7
HETATM    7  N1  UNL     1       5.798  54.870   0.455  1.00  0.00    -0.327 N 
ATOM      8  H1  UNL     1       5.770  54.140  -0.257  1.00  0.00     0.169 HD
BRANCH   7   9
HETATM    9  C4  UNL     1       6.718  55.937   0.231  1.00  0.00     0.076 A 
HETATM   10  S1  UNL     1       8.410  55.846   0.664  1.00  0.00    -0.084 SA
HETATM   11  C3  UNL     1       8.915  57.379   0.132  1.00  0.00     0.058 A 
HETATM   12  C2  UNL     1       7.769  57.929  -0.371  1.00  0.00    -0.053 A 
HETATM   13  C1  UNL     1       7.823  59.335  -0.967  1.00  0.00     0.049 C 
HETATM   14  C14 UNL     1       6.644  57.171  -0.311  1.00  0.00     0.044 A 
ENDBRANCH   7   9
ENDBRANCH   5   7
ENDBRANCH   1   5
BRANCH   3  15
HETATM   15  C7  UNL     1       4.969  51.168   2.973  1.00  0.00     0.125 A 
HETATM   16  C8  UNL     1       3.849  50.406   3.202  1.00  0.00     0.072 A 
HETATM   17  C9  UNL     1       4.122  49.524   4.251  1.00  0.00     0.086 A 
HETATM   18  O2  UNL     1       5.341  49.779   4.596  1.00  0.00    -0.241 OA
HETATM   19  N3  UNL     1       5.864  50.741   3.864  1.00  0.00    -0.256 N 
ATOM     20  H3  UNL     1       6.812  51.104   3.964  1.00  0.00     0.195 HD
BRANCH  17  21
HETATM   21  C10 UNL     1       3.120  48.556   4.747  1.00  0.00     0.000 C 
HETATM   22  C11 UNL     1       1.899  48.613   3.842  1.00  0.00     0.021 C 
HETATM   23  C12 UNL     1       2.660  48.855   6.147  1.00  0.00     0.021 C 
HETATM   24  C13 UNL     1       3.719  47.156   4.746  1.00  0.00     0.021 C 
ENDBRANCH  17  21
ENDBRANCH   3  15
TORSDOF 5
ENDMDL
