MODEL 1
REMARK VINA RESULT: -9.681534389      0.000      0.000
REMARK  4 active torsions:
REMARK  status: ('A' for Active; 'I' for Inactive)
REMARK    1  A    between atoms: C4_4  and  O1_5 
REMARK    2  A    between atoms: C5_7  and  C6_8 
REMARK    3  A    between atoms: N1_9  and  N2_11 
REMARK       I    between atoms: N2_11  and  C7_13 
REMARK    4  A    between atoms: C7_13  and  C8_15 
ROOT
HETATM    1  N2  UNL     1       4.924  52.344   2.653  1.00  0.00    -0.265 N 
ATOM      2  H2  UNL     1       5.382  52.950   3.334  1.00  0.00     0.190 HD
HETATM    3  C7  UNL     1       4.838  52.744   1.295  1.00  0.00     0.293 C 
HETATM    4  O2  UNL     1       4.283  52.011   0.465  1.00  0.00    -0.264 OA
ENDROOT
BRANCH   1   5
HETATM    5  N1  UNL     1       4.390  51.143   3.054  1.00  0.00    -0.308 N 
HETATM    6  C6  UNL     1       4.926  50.404   3.935  1.00  0.00     0.129 C 
ATOM      7  H1  UNL     1       3.520  50.830   2.622  1.00  0.00     0.186 HD
BRANCH   6   8
HETATM    8  C5  UNL     1       4.308  49.137   4.318  1.00  0.00     0.055 A 
HETATM    9  C4  UNL     1       3.028  48.742   4.525  1.00  0.00     0.085 A 
HETATM   10  C3  UNL     1       2.819  47.452   4.881  1.00  0.00     0.052 A 
HETATM   11  C2  UNL     1       3.904  46.642   5.005  1.00  0.00    -0.018 A 
HETATM   12  C1  UNL     1       3.917  45.177   5.388  1.00  0.00     0.056 C 
HETATM   13  S1  UNL     1       5.199  47.673   4.630  1.00  0.00    -0.091 SA
BRANCH   9  14
HETATM   14  O1  UNL     1       1.931  49.623   4.383  1.00  0.00    -0.359 OA
ATOM     15  H1  UNL     1       2.056  50.559   4.489  1.00  0.00     0.217 HD
ENDBRANCH   9  14
ENDBRANCH   6   8
ENDBRANCH   1   5
BRANCH   3  16
HETATM   16  C8  UNL     1       5.413  54.034   0.870  1.00  0.00     0.146 A 
HETATM   17  C9  UNL     1       6.667  54.226   0.347  1.00  0.00     0.057 A 
HETATM   18  C10 UNL     1       6.772  55.582   0.097  1.00  0.00     0.001 A 
HETATM   19  C11 UNL     1       7.799  56.371  -0.429  1.00  0.00     0.021 A 
HETATM   20  C17 UNL     1       5.581  56.149   0.478  1.00  0.00     0.087 A 
HETATM   21  C12 UNL     1       7.582  57.715  -0.551  1.00  0.00    -0.055 A 
HETATM   22  C13 UNL     1       8.671  58.560  -1.109  1.00  0.00     0.049 C 
HETATM   23  C14 UNL     1       6.401  58.273  -0.171  1.00  0.00    -0.053 A 
HETATM   24  C15 UNL     1       6.228  59.758  -0.331  1.00  0.00     0.049 C 
HETATM   25  C16 UNL     1       5.391  57.517   0.343  1.00  0.00     0.045 A 
HETATM   26  O3  UNL     1       4.812  55.194   0.928  1.00  0.00    -0.304 OA
ENDBRANCH   3  16
TORSDOF 4
ENDMDL
MODEL 2
REMARK VINA RESULT: -9.507884683      1.576      2.140
REMARK  4 active torsions:
REMARK  status: ('A' for Active; 'I' for Inactive)
REMARK    1  A    between atoms: C4_4  and  O1_5 
REMARK    2  A    between atoms: C5_7  and  C6_8 
REMARK    3  A    between atoms: N1_9  and  N2_11 
REMARK       I    between atoms: N2_11  and  C7_13 
REMARK    4  A    between atoms: C7_13  and  C8_15 
ROOT
HETATM    1  N2  UNL     1       5.749  52.485   2.954  1.00  0.00    -0.265 N 
ATOM      2  H2  UNL     1       5.489  53.239   3.590  1.00  0.00     0.190 HD
HETATM    3  C7  UNL     1       6.183  52.786   1.638  1.00  0.00     0.293 C 
HETATM    4  O2  UNL     1       6.500  51.874   0.863  1.00  0.00    -0.264 OA
ENDROOT
BRANCH   1   5
HETATM    5  N1  UNL     1       5.678  51.178   3.375  1.00  0.00    -0.308 N 
HETATM    6  C6  UNL     1       4.587  50.604   3.674  1.00  0.00     0.129 C 
ATOM      7  H1  UNL     1       6.544  50.645   3.449  1.00  0.00     0.186 HD
BRANCH   6   8
HETATM    8  C5  UNL     1       4.578  49.210   4.114  1.00  0.00     0.055 A 
HETATM    9  C4  UNL     1       5.487  48.206   4.066  1.00  0.00     0.085 A 
HETATM   10  C3  UNL     1       5.126  47.009   4.586  1.00  0.00     0.052 A 
HETATM   11  C2  UNL     1       3.881  46.896   5.120  1.00  0.00    -0.018 A 
HETATM   12  C1  UNL     1       3.261  45.668   5.753  1.00  0.00     0.056 C 
HETATM   13  S1  UNL     1       3.224  48.445   4.896  1.00  0.00    -0.091 SA
BRANCH   9  14
HETATM   14  O1  UNL     1       6.772  48.372   3.499  1.00  0.00    -0.359 OA
ATOM     15  H1  UNL     1       7.032  49.217   3.152  1.00  0.00     0.217 HD
ENDBRANCH   9  14
ENDBRANCH   6   8
ENDBRANCH   1   5
BRANCH   3  16
HETATM   16  C8  UNL     1       6.257  54.190   1.191  1.00  0.00     0.146 A 
HETATM   17  C9  UNL     1       5.281  55.141   1.350  1.00  0.00     0.057 A 
HETATM   18  C10 UNL     1       5.781  56.299   0.785  1.00  0.00     0.001 A 
HETATM   19  C11 UNL     1       5.255  57.587   0.643  1.00  0.00     0.021 A 
HETATM   20  C17 UNL     1       7.034  56.000   0.310  1.00  0.00     0.087 A 
HETATM   21  C12 UNL     1       6.022  58.532   0.021  1.00  0.00    -0.055 A 
HETATM   22  C13 UNL     1       5.469  59.903  -0.134  1.00  0.00     0.049 C 
HETATM   23  C14 UNL     1       7.263  58.232  -0.448  1.00  0.00    -0.053 A 
HETATM   24  C15 UNL     1       8.054  59.318  -1.123  1.00  0.00     0.049 C 
HETATM   25  C16 UNL     1       7.789  56.981  -0.317  1.00  0.00     0.045 A 
HETATM   26  O3  UNL     1       7.269  54.743   0.574  1.00  0.00    -0.304 OA
ENDBRANCH   3  16
TORSDOF 4
ENDMDL
MODEL 3
REMARK VINA RESULT: -9.398800382      0.570      1.463
REMARK  4 active torsions:
REMARK  status: ('A' for Active; 'I' for Inactive)
REMARK    1  A    between atoms: C4_4  and  O1_5 
REMARK    2  A    between atoms: C5_7  and  C6_8 
REMARK    3  A    between atoms: N1_9  and  N2_11 
REMARK       I    between atoms: N2_11  and  C7_13 
REMARK    4  A    between atoms: C7_13  and  C8_15 
ROOT
HETATM    1  N2  UNL     1       4.935  52.404   2.649  1.00  0.00    -0.265 N 
ATOM      2  H2  UNL     1       5.365  53.021   3.338  1.00  0.00     0.190 HD
HETATM    3  C7  UNL     1       4.891  52.787   1.284  1.00  0.00     0.293 C 
HETATM    4  O2  UNL     1       4.370  52.040   0.445  1.00  0.00    -0.264 OA
ENDROOT
BRANCH   1   5
HETATM    5  N1  UNL     1       4.400  51.201   3.045  1.00  0.00    -0.308 N 
HETATM    6  C6  UNL     1       4.937  50.457   3.921  1.00  0.00     0.129 C 
ATOM      7  H1  UNL     1       3.528  50.892   2.613  1.00  0.00     0.186 HD
BRANCH   6   8
HETATM    8  C5  UNL     1       4.316  49.189   4.299  1.00  0.00     0.055 A 
HETATM    9  C4  UNL     1       3.036  48.797   4.509  1.00  0.00     0.085 A 
HETATM   10  C3  UNL     1       2.825  47.506   4.858  1.00  0.00     0.052 A 
HETATM   11  C2  UNL     1       3.908  46.692   4.974  1.00  0.00    -0.018 A 
HETATM   12  C1  UNL     1       3.920  45.225   5.349  1.00  0.00     0.056 C 
HETATM   13  S1  UNL     1       5.205  47.722   4.600  1.00  0.00    -0.091 SA
BRANCH   9  14
HETATM   14  O1  UNL     1       1.941  49.681   4.376  1.00  0.00    -0.359 OA
ATOM     15  H1  UNL     1       1.727  50.282   5.080  1.00  0.00     0.217 HD
ENDBRANCH   9  14
ENDBRANCH   6   8
ENDBRANCH   1   5
BRANCH   3  16
HETATM   16  C8  UNL     1       5.467  54.079   0.864  1.00  0.00     0.146 A 
HETATM   17  C9  UNL     1       4.856  55.303   0.956  1.00  0.00     0.057 A 
HETATM   18  C10 UNL     1       5.760  56.219   0.449  1.00  0.00     0.001 A 
HETATM   19  C11 UNL     1       5.709  57.606   0.282  1.00  0.00     0.021 A 
HETATM   20  C17 UNL     1       6.874  55.511   0.074  1.00  0.00     0.087 A 
HETATM   21  C12 UNL     1       6.796  58.230  -0.262  1.00  0.00    -0.055 A 
HETATM   22  C13 UNL     1       6.749  59.705  -0.443  1.00  0.00     0.049 C 
HETATM   23  C14 UNL     1       7.899  57.525  -0.633  1.00  0.00    -0.053 A 
HETATM   24  C15 UNL     1       9.060  58.273  -1.226  1.00  0.00     0.049 C 
HETATM   25  C16 UNL     1       7.963  56.173  -0.476  1.00  0.00     0.045 A 
HETATM   26  O3  UNL     1       6.652  54.252   0.340  1.00  0.00    -0.304 OA
ENDBRANCH   3  16
TORSDOF 4
ENDMDL
MODEL 4
REMARK VINA RESULT: -9.370045598      1.607      1.961
REMARK  4 active torsions:
REMARK  status: ('A' for Active; 'I' for Inactive)
REMARK    1  A    between atoms: C4_4  and  O1_5 
REMARK    2  A    between atoms: C5_7  and  C6_8 
REMARK    3  A    between atoms: N1_9  and  N2_11 
REMARK       I    between atoms: N2_11  and  C7_13 
REMARK    4  A    between atoms: C7_13  and  C8_15 
ROOT
HETATM    1  N2  UNL     1       5.443  52.320   3.129  1.00  0.00    -0.265 N 
ATOM      2  H2  UNL     1       5.521  53.022   3.865  1.00  0.00     0.190 HD
HETATM    3  C7  UNL     1       5.292  52.724   1.778  1.00  0.00     0.293 C 
HETATM    4  O2  UNL     1       5.197  51.875   0.882  1.00  0.00    -0.264 OA
ENDROOT
BRANCH   1   5
HETATM    5  N1  UNL     1       5.485  50.984   3.449  1.00  0.00    -0.308 N 
HETATM    6  C6  UNL     1       4.506  50.363   3.965  1.00  0.00     0.129 C 
ATOM      7  H1  UNL     1       6.344  50.466   3.261  1.00  0.00     0.186 HD
BRANCH   6   8
HETATM    8  C5  UNL     1       4.613  48.940   4.281  1.00  0.00     0.055 A 
HETATM    9  C4  UNL     1       5.581  48.009   4.099  1.00  0.00     0.085 A 
HETATM   10  C3  UNL     1       5.328  46.750   4.529  1.00  0.00     0.052 A 
HETATM   11  C2  UNL     1       4.126  46.506   5.114  1.00  0.00    -0.018 A 
HETATM   12  C1  UNL     1       3.623  45.189   5.667  1.00  0.00     0.056 C 
HETATM   13  S1  UNL     1       3.358  48.018   5.061  1.00  0.00    -0.091 SA
BRANCH   9  14
HETATM   14  O1  UNL     1       6.818  48.312   3.485  1.00  0.00    -0.359 OA
ATOM     15  H1  UNL     1       7.340  49.041   3.800  1.00  0.00     0.217 HD
ENDBRANCH   9  14
ENDBRANCH   6   8
ENDBRANCH   1   5
BRANCH   3  16
HETATM   16  C8  UNL     1       5.248  54.159   1.441  1.00  0.00     0.146 A 
HETATM   17  C9  UNL     1       6.093  54.813   0.580  1.00  0.00     0.057 A 
HETATM   18  C10 UNL     1       5.683  56.133   0.571  1.00  0.00     0.001 A 
HETATM   19  C11 UNL     1       6.149  57.265  -0.104  1.00  0.00     0.021 A 
HETATM   20  C17 UNL     1       4.611  56.221   1.425  1.00  0.00     0.087 A 
HETATM   21  C12 UNL     1       5.508  58.453   0.110  1.00  0.00    -0.055 A 
HETATM   22  C13 UNL     1       5.999  59.661  -0.605  1.00  0.00     0.049 C 
HETATM   23  C14 UNL     1       4.447  58.536   0.957  1.00  0.00    -0.053 A 
HETATM   24  C15 UNL     1       3.788  59.874   1.148  1.00  0.00     0.049 C 
HETATM   25  C16 UNL     1       3.982  57.442   1.622  1.00  0.00     0.045 A 
HETATM   26  O3  UNL     1       4.394  55.029   1.913  1.00  0.00    -0.304 OA
ENDBRANCH   3  16
TORSDOF 4
ENDMDL
MODEL 5
REMARK VINA RESULT: -9.064313032      3.301     10.095
REMARK  4 active torsions:
REMARK  status: ('A' for Active; 'I' for Inactive)
REMARK    1  A    between atoms: C4_4  and  O1_5 
REMARK    2  A    between atoms: C5_7  and  C6_8 
REMARK    3  A    between atoms: N1_9  and  N2_11 
REMARK       I    between atoms: N2_11  and  C7_13 
REMARK    4  A    between atoms: C7_13  and  C8_15 
ROOT
HETATM    1  N2  UNL     1       3.486  51.103   2.426  1.00  0.00    -0.265 N 
ATOM      2  H2  UNL     1       2.643  51.253   1.872  1.00  0.00     0.190 HD
HETATM    3  C7  UNL     1       3.530  50.055   3.381  1.00  0.00     0.293 C 
HETATM    4  O2  UNL     1       4.552  49.870   4.055  1.00  0.00    -0.264 OA
ENDROOT
BRANCH   1   5
HETATM    5  N1  UNL     1       4.579  51.918   2.247  1.00  0.00    -0.308 N 
HETATM    6  C6  UNL     1       4.715  52.685   1.245  1.00  0.00     0.129 C 
ATOM      7  H1  UNL     1       5.315  51.906   2.953  1.00  0.00     0.186 HD
BRANCH   6   8
HETATM    8  C5  UNL     1       5.901  53.529   1.112  1.00  0.00     0.055 A 
HETATM    9  C4  UNL     1       7.100  53.567   1.742  1.00  0.00     0.085 A 
HETATM   10  C3  UNL     1       7.986  54.513   1.348  1.00  0.00     0.052 A 
HETATM   11  C2  UNL     1       7.614  55.356   0.349  1.00  0.00    -0.018 A 
HETATM   12  C1  UNL     1       8.429  56.481  -0.255  1.00  0.00     0.056 C 
HETATM   13  S1  UNL     1       6.045  54.834  -0.032  1.00  0.00    -0.091 SA
BRANCH   9  14
HETATM   14  O1  UNL     1       7.442  52.667   2.778  1.00  0.00    -0.359 OA
ATOM     15  H1  UNL     1       7.102  52.800   3.655  1.00  0.00     0.217 HD
ENDBRANCH   9  14
ENDBRANCH   6   8
ENDBRANCH   1   5
BRANCH   3  16
HETATM   16  C8  UNL     1       2.356  49.183   3.569  1.00  0.00     0.146 A 
HETATM   17  C9  UNL     1       2.246  48.161   4.477  1.00  0.00     0.057 A 
HETATM   18  C10 UNL     1       0.984  47.626   4.300  1.00  0.00     0.001 A 
HETATM   19  C11 UNL     1       0.304  46.577   4.925  1.00  0.00     0.021 A 
HETATM   20  C17 UNL     1       0.386  48.346   3.295  1.00  0.00     0.087 A 
HETATM   21  C12 UNL     1      -0.966  46.292   4.507  1.00  0.00    -0.055 A 
HETATM   22  C13 UNL     1      -1.695  45.177   5.167  1.00  0.00     0.049 C 
HETATM   23  C14 UNL     1      -1.555  47.007   3.511  1.00  0.00    -0.053 A 
HETATM   24  C15 UNL     1      -2.954  46.641   3.099  1.00  0.00     0.049 C 
HETATM   25  C16 UNL     1      -0.904  48.033   2.893  1.00  0.00     0.045 A 
HETATM   26  O3  UNL     1       1.236  49.253   2.897  1.00  0.00    -0.304 OA
ENDBRANCH   3  16
TORSDOF 4
ENDMDL
