MODEL 1
REMARK VINA RESULT: -9.437364492      0.000      0.000
REMARK  6 active torsions:
REMARK  status: ('A' for Active; 'I' for Inactive)
REMARK    1  A    between atoms: C1_4  and  N2_5 
REMARK    2  A    between atoms: C1_4  and  C8_17 
REMARK    3  A    between atoms: N2_5  and  O1_7 
REMARK    4  A    between atoms: O1_7  and  C2_8 
REMARK    5  A    between atoms: C2_8  and  C3_10 
REMARK    6  A    between atoms: C11_20  and  C12_21 
ROOT
HETATM    1  N1  UNL     1       8.095  52.477   2.794  1.00  0.00    -0.383 N 
ATOM      2  H11 UNL     1       8.794  53.220   2.812  1.00  0.00     0.157 HD
ATOM      3  H12 UNL     1       8.269  51.621   3.320  1.00  0.00     0.157 HD
HETATM    4  C1  UNL     1       7.018  52.607   2.131  1.00  0.00     0.136 C 
ENDROOT
BRANCH   4   5
HETATM    5  N2  UNL     1       6.061  51.590   2.106  1.00  0.00    -0.240 N 
ATOM      6  H2  UNL     1       6.215  50.811   1.466  1.00  0.00     0.196 HD
BRANCH   5   7
HETATM    7  O1  UNL     1       4.927  51.562   2.882  1.00  0.00    -0.193 OA
BRANCH   7   8
HETATM    8  C2  UNL     1       3.896  50.675   2.717  1.00  0.00     0.316 C 
HETATM    9  O2  UNL     1       3.178  50.802   1.691  1.00  0.00    -0.257 OA
BRANCH   8  10
HETATM   10  C3  UNL     1       3.585  49.601   3.653  1.00  0.00     0.056 A 
HETATM   11  C4  UNL     1       2.276  49.234   3.882  1.00  0.00     0.020 A 
HETATM   12  C5  UNL     1       1.956  48.205   4.776  1.00  0.00     0.018 A 
HETATM   13  C6  UNL     1       2.984  47.560   5.431  1.00  0.00     0.087 A 
HETATM   14  N3  UNL     1       4.250  47.924   5.202  1.00  0.00    -0.374 N 
HETATM   15  C7  UNL     1       4.572  48.926   4.331  1.00  0.00     0.105 A 
ATOM     16  H3  UNL     1       5.000  47.438   5.693  1.00  0.00     0.164 HD
ENDBRANCH   8  10
ENDBRANCH   7   8
ENDBRANCH   5   7
ENDBRANCH   4   5
BRANCH   4  17
HETATM   17  C8  UNL     1       6.769  53.832   1.379  1.00  0.00     0.051 A 
HETATM   18  C9  UNL     1       6.124  53.981   0.186  1.00  0.00     0.024 A 
HETATM   19  C10 UNL     1       6.011  55.215  -0.324  1.00  0.00     0.021 A 
HETATM   20  C11 UNL     1       6.555  56.244   0.398  1.00  0.00     0.016 A 
HETATM   21  S1  UNL     1       7.206  55.457   1.758  1.00  0.00    -0.086 SA
BRANCH  20  22
HETATM   22  C12 UNL     1       6.576  57.672   0.078  1.00  0.00    -0.019 A 
HETATM   23  C13 UNL     1       5.530  58.484   0.445  1.00  0.00     0.013 A 
HETATM   24  C14 UNL     1       5.579  59.842   0.127  1.00  0.00     0.001 A 
HETATM   25  C15 UNL     1       6.651  60.374  -0.542  1.00  0.00     0.000 A 
HETATM   26  C16 UNL     1       7.694  59.557  -0.907  1.00  0.00     0.001 A 
HETATM   27  C17 UNL     1       7.634  58.221  -0.588  1.00  0.00     0.013 A 
ENDBRANCH  20  22
ENDBRANCH   4  17
TORSDOF 6
ENDMDL
MODEL 2
REMARK VINA RESULT: -9.401859146      0.973      1.684
REMARK  6 active torsions:
REMARK  status: ('A' for Active; 'I' for Inactive)
REMARK    1  A    between atoms: C1_4  and  N2_5 
REMARK    2  A    between atoms: C1_4  and  C8_17 
REMARK    3  A    between atoms: N2_5  and  O1_7 
REMARK    4  A    between atoms: O1_7  and  C2_8 
REMARK    5  A    between atoms: C2_8  and  C3_10 
REMARK    6  A    between atoms: C11_20  and  C12_21 
ROOT
HETATM    1  N1  UNL     1       7.750  52.512   2.954  1.00  0.00    -0.383 N 
ATOM      2  H11 UNL     1       8.406  53.280   3.095  1.00  0.00     0.157 HD
ATOM      3  H12 UNL     1       7.874  51.650   3.485  1.00  0.00     0.157 HD
HETATM    4  C1  UNL     1       6.788  52.616   2.129  1.00  0.00     0.136 C 
ENDROOT
BRANCH   4   5
HETATM    5  N2  UNL     1       5.890  51.564   1.934  1.00  0.00    -0.240 N 
ATOM      6  H2  UNL     1       6.020  50.977   1.110  1.00  0.00     0.196 HD
BRANCH   5   7
HETATM    7  O1  UNL     1       4.845  51.261   2.773  1.00  0.00    -0.193 OA
BRANCH   7   8
HETATM    8  C2  UNL     1       4.844  50.224   3.669  1.00  0.00     0.316 C 
HETATM    9  O2  UNL     1       5.926  49.965   4.260  1.00  0.00    -0.257 OA
BRANCH   8  10
HETATM   10  C3  UNL     1       3.674  49.411   3.976  1.00  0.00     0.056 A 
HETATM   11  C4  UNL     1       3.752  48.403   4.913  1.00  0.00     0.020 A 
HETATM   12  C5  UNL     1       2.639  47.611   5.223  1.00  0.00     0.018 A 
HETATM   13  C6  UNL     1       1.453  47.860   4.566  1.00  0.00     0.087 A 
HETATM   14  N3  UNL     1       1.388  48.840   3.659  1.00  0.00    -0.374 N 
HETATM   15  C7  UNL     1       2.467  49.617   3.351  1.00  0.00     0.105 A 
ATOM     16  H3  UNL     1       0.503  49.012   3.182  1.00  0.00     0.164 HD
ENDBRANCH   8  10
ENDBRANCH   7   8
ENDBRANCH   5   7
ENDBRANCH   4   5
BRANCH   4  17
HETATM   17  C8  UNL     1       6.611  53.847   1.368  1.00  0.00     0.051 A 
HETATM   18  C9  UNL     1       6.048  54.013   0.135  1.00  0.00     0.024 A 
HETATM   19  C10 UNL     1       5.991  55.251  -0.374  1.00  0.00     0.021 A 
HETATM   20  C11 UNL     1       6.505  56.267   0.387  1.00  0.00     0.016 A 
HETATM   21  S1  UNL     1       7.050  55.463   1.783  1.00  0.00    -0.086 SA
BRANCH  20  22
HETATM   22  C12 UNL     1       6.572  57.696   0.076  1.00  0.00    -0.019 A 
HETATM   23  C13 UNL     1       7.657  58.214  -0.590  1.00  0.00     0.013 A 
HETATM   24  C14 UNL     1       7.691  59.580  -0.873  1.00  0.00     0.001 A 
HETATM   25  C15 UNL     1       6.664  60.407  -0.497  1.00  0.00     0.000 A 
HETATM   26  C16 UNL     1       5.582  59.884   0.169  1.00  0.00     0.001 A 
HETATM   27  C17 UNL     1       5.559  58.536   0.442  1.00  0.00     0.013 A 
ENDBRANCH  20  22
ENDBRANCH   4  17
TORSDOF 6
ENDMDL
MODEL 3
REMARK VINA RESULT: -9.356460133      1.605      2.009
REMARK  6 active torsions:
REMARK  status: ('A' for Active; 'I' for Inactive)
REMARK    1  A    between atoms: C1_4  and  N2_5 
REMARK    2  A    between atoms: C1_4  and  C8_17 
REMARK    3  A    between atoms: N2_5  and  O1_7 
REMARK    4  A    between atoms: O1_7  and  C2_8 
REMARK    5  A    between atoms: C2_8  and  C3_10 
REMARK    6  A    between atoms: C11_20  and  C12_21 
ROOT
HETATM    1  N1  UNL     1       5.917  51.805   1.300  1.00  0.00    -0.383 N 
ATOM      2  H11 UNL     1       6.844  52.180   1.100  1.00  0.00     0.157 HD
ATOM      3  H12 UNL     1       5.801  50.797   1.404  1.00  0.00     0.157 HD
HETATM    4  C1  UNL     1       4.911  52.575   1.420  1.00  0.00     0.136 C 
ENDROOT
BRANCH   4   5
HETATM    5  N2  UNL     1       3.641  52.062   1.693  1.00  0.00    -0.240 N 
ATOM      6  H2  UNL     1       2.862  52.720   1.725  1.00  0.00     0.196 HD
BRANCH   5   7
HETATM    7  O1  UNL     1       3.365  50.736   1.922  1.00  0.00    -0.193 OA
BRANCH   7   8
HETATM    8  C2  UNL     1       3.461  50.123   3.145  1.00  0.00     0.316 C 
HETATM    9  O2  UNL     1       4.449  50.419   3.868  1.00  0.00    -0.257 OA
BRANCH   8  10
HETATM   10  C3  UNL     1       2.495  49.158   3.652  1.00  0.00     0.056 A 
HETATM   11  C4  UNL     1       2.735  48.484   4.831  1.00  0.00     0.020 A 
HETATM   12  C5  UNL     1       1.819  47.554   5.336  1.00  0.00     0.018 A 
HETATM   13  C6  UNL     1       0.661  47.320   4.626  1.00  0.00     0.087 A 
HETATM   14  N3  UNL     1       0.437  47.978   3.484  1.00  0.00    -0.374 N 
HETATM   15  C7  UNL     1       1.324  48.888   2.984  1.00  0.00     0.105 A 
ATOM     16  H3  UNL     1      -0.425  47.795   2.969  1.00  0.00     0.164 HD
ENDBRANCH   8  10
ENDBRANCH   7   8
ENDBRANCH   5   7
ENDBRANCH   4   5
BRANCH   4  17
HETATM   17  C8  UNL     1       5.076  54.016   1.270  1.00  0.00     0.051 A 
HETATM   18  C9  UNL     1       4.443  55.019   1.946  1.00  0.00     0.024 A 
HETATM   19  C10 UNL     1       4.756  56.286   1.639  1.00  0.00     0.021 A 
HETATM   20  C11 UNL     1       5.697  56.481   0.664  1.00  0.00     0.016 A 
HETATM   21  S1  UNL     1       6.111  54.896   0.207  1.00  0.00    -0.086 SA
BRANCH  20  22
HETATM   22  C12 UNL     1       6.219  57.744   0.139  1.00  0.00    -0.019 A 
HETATM   23  C13 UNL     1       5.478  58.898   0.233  1.00  0.00     0.013 A 
HETATM   24  C14 UNL     1       6.003  60.086  -0.276  1.00  0.00     0.001 A 
HETATM   25  C15 UNL     1       7.242  60.118  -0.865  1.00  0.00     0.000 A 
HETATM   26  C16 UNL     1       7.978  58.961  -0.956  1.00  0.00     0.001 A 
HETATM   27  C17 UNL     1       7.450  57.797  -0.451  1.00  0.00     0.013 A 
ENDBRANCH  20  22
ENDBRANCH   4  17
TORSDOF 6
ENDMDL
MODEL 4
REMARK VINA RESULT: -9.306295212      3.783      8.676
REMARK  6 active torsions:
REMARK  status: ('A' for Active; 'I' for Inactive)
REMARK    1  A    between atoms: C1_4  and  N2_5 
REMARK    2  A    between atoms: C1_4  and  C8_17 
REMARK    3  A    between atoms: N2_5  and  O1_7 
REMARK    4  A    between atoms: O1_7  and  C2_8 
REMARK    5  A    between atoms: C2_8  and  C3_10 
REMARK    6  A    between atoms: C11_20  and  C12_21 
ROOT
HETATM    1  N1  UNL     1      10.690  54.149   1.642  1.00  0.00    -0.383 N 
ATOM      2  H11 UNL     1      10.452  53.444   2.339  1.00  0.00     0.157 HD
ATOM      3  H12 UNL     1      11.644  54.510   1.607  1.00  0.00     0.157 HD
HETATM    4  C1  UNL     1       9.818  54.581   0.822  1.00  0.00     0.136 C 
ENDROOT
BRANCH   4   5
HETATM    5  N2  UNL     1      10.144  55.547  -0.132  1.00  0.00    -0.240 N 
ATOM      6  H2  UNL     1      10.637  55.237  -0.969  1.00  0.00     0.196 HD
BRANCH   5   7
HETATM    7  O1  UNL     1       9.847  56.884  -0.025  1.00  0.00    -0.193 OA
BRANCH   7   8
HETATM    8  C2  UNL     1       9.144  57.600  -0.960  1.00  0.00     0.316 C 
HETATM    9  O2  UNL     1       9.529  57.530  -2.156  1.00  0.00    -0.257 OA
BRANCH   8  10
HETATM   10  C3  UNL     1       7.986  58.429  -0.650  1.00  0.00     0.056 A 
HETATM   11  C4  UNL     1       6.790  57.848  -0.285  1.00  0.00     0.020 A 
HETATM   12  C5  UNL     1       5.667  58.627   0.018  1.00  0.00     0.018 A 
HETATM   13  C6  UNL     1       5.778  59.999  -0.059  1.00  0.00     0.087 A 
HETATM   14  N3  UNL     1       6.942  60.552  -0.414  1.00  0.00    -0.374 N 
HETATM   15  C7  UNL     1       8.043  59.802  -0.710  1.00  0.00     0.105 A 
ATOM     16  H3  UNL     1       7.009  61.569  -0.466  1.00  0.00     0.164 HD
ENDBRANCH   8  10
ENDBRANCH   7   8
ENDBRANCH   5   7
ENDBRANCH   4   5
BRANCH   4  17
HETATM   17  C8  UNL     1       8.455  54.066   0.873  1.00  0.00     0.051 A 
HETATM   18  C9  UNL     1       7.357  54.495   0.184  1.00  0.00     0.024 A 
HETATM   19  C10 UNL     1       6.193  53.865   0.391  1.00  0.00     0.021 A 
HETATM   20  C11 UNL     1       6.191  52.827   1.285  1.00  0.00     0.016 A 
HETATM   21  S1  UNL     1       7.809  52.767   1.806  1.00  0.00    -0.086 SA
BRANCH  20  22
HETATM   22  C12 UNL     1       5.071  51.978   1.695  1.00  0.00    -0.019 A 
HETATM   23  C13 UNL     1       3.932  51.909   0.929  1.00  0.00     0.013 A 
HETATM   24  C14 UNL     1       2.882  51.089   1.346  1.00  0.00     0.001 A 
HETATM   25  C15 UNL     1       2.972  50.356   2.502  1.00  0.00     0.000 A 
HETATM   26  C16 UNL     1       4.113  50.429   3.263  1.00  0.00     0.001 A 
HETATM   27  C17 UNL     1       5.141  51.240   2.842  1.00  0.00     0.013 A 
ENDBRANCH  20  22
ENDBRANCH   4  17
TORSDOF 6
ENDMDL
MODEL 5
REMARK VINA RESULT: -9.254352902      1.562      2.248
REMARK  6 active torsions:
REMARK  status: ('A' for Active; 'I' for Inactive)
REMARK    1  A    between atoms: C1_4  and  N2_5 
REMARK    2  A    between atoms: C1_4  and  C8_17 
REMARK    3  A    between atoms: N2_5  and  O1_7 
REMARK    4  A    between atoms: O1_7  and  C2_8 
REMARK    5  A    between atoms: C2_8  and  C3_10 
REMARK    6  A    between atoms: C11_20  and  C12_21 
ROOT
HETATM    1  N1  UNL     1       6.064  51.528   1.780  1.00  0.00    -0.383 N 
ATOM      2  H11 UNL     1       7.026  51.789   1.563  1.00  0.00     0.157 HD
ATOM      3  H12 UNL     1       5.874  50.595   2.147  1.00  0.00     0.157 HD
HETATM    4  C1  UNL     1       5.107  52.346   1.601  1.00  0.00     0.136 C 
ENDROOT
BRANCH   4   5
HETATM    5  N2  UNL     1       3.790  51.989   1.898  1.00  0.00    -0.240 N 
ATOM      6  H2  UNL     1       3.113  52.741   2.028  1.00  0.00     0.196 HD
BRANCH   5   7
HETATM    7  O1  UNL     1       3.339  50.697   2.030  1.00  0.00    -0.193 OA
BRANCH   7   8
HETATM    8  C2  UNL     1       3.318  49.999   3.209  1.00  0.00     0.316 C 
HETATM    9  O2  UNL     1       4.262  50.197   4.019  1.00  0.00    -0.257 OA
BRANCH   8  10
HETATM   10  C3  UNL     1       2.275  49.051   3.577  1.00  0.00     0.056 A 
HETATM   11  C4  UNL     1       2.348  48.361   4.768  1.00  0.00     0.020 A 
HETATM   12  C5  UNL     1       1.356  47.446   5.141  1.00  0.00     0.018 A 
HETATM   13  C6  UNL     1       0.294  47.243   4.285  1.00  0.00     0.087 A 
HETATM   14  N3  UNL     1       0.233  47.917   3.132  1.00  0.00    -0.374 N 
HETATM   15  C7  UNL     1       1.195  48.811   2.760  1.00  0.00     0.105 A 
ATOM     16  H3  UNL     1      -0.559  47.756   2.509  1.00  0.00     0.164 HD
ENDBRANCH   8  10
ENDBRANCH   7   8
ENDBRANCH   5   7
ENDBRANCH   4   5
BRANCH   4  17
HETATM   17  C8  UNL     1       5.378  53.680   1.076  1.00  0.00     0.051 A 
HETATM   18  C9  UNL     1       6.151  54.032   0.008  1.00  0.00     0.024 A 
HETATM   19  C10 UNL     1       6.257  55.333  -0.295  1.00  0.00     0.021 A 
HETATM   20  C11 UNL     1       5.575  56.220   0.495  1.00  0.00     0.016 A 
HETATM   21  S1  UNL     1       4.812  55.211   1.633  1.00  0.00    -0.086 SA
BRANCH  20  22
HETATM   22  C12 UNL     1       5.517  57.679   0.391  1.00  0.00    -0.019 A 
HETATM   23  C13 UNL     1       6.484  58.367  -0.303  1.00  0.00     0.013 A 
HETATM   24  C14 UNL     1       6.401  59.757  -0.385  1.00  0.00     0.001 A 
HETATM   25  C15 UNL     1       5.374  60.442   0.212  1.00  0.00     0.000 A 
HETATM   26  C16 UNL     1       4.411  59.749   0.904  1.00  0.00     0.001 A 
HETATM   27  C17 UNL     1       4.503  58.379   0.979  1.00  0.00     0.013 A 
ENDBRANCH  20  22
ENDBRANCH   4  17
TORSDOF 6
ENDMDL
