MODEL 1
REMARK VINA RESULT: -9.528845650      0.000      0.000
REMARK  5 active torsions:
REMARK  status: ('A' for Active; 'I' for Inactive)
REMARK    1  A    between atoms: C3_3  and  C4_4 
REMARK    2  A    between atoms: C7_7  and  C8_8 
REMARK    3  A    between atoms: C12_13  and  O2_14 
REMARK    4  A    between atoms: C14_17  and  O3_18 
REMARK    5  A    between atoms: C17_23  and  O5_24 
ROOT
HETATM    1  C8  UNL     1       5.814  53.502   0.469  1.00  0.00     0.055 C 
HETATM    2  C9  UNL     1       5.692  54.806   0.485  1.00  0.00     0.128 A 
HETATM    3  O1  UNL     1       6.481  55.710  -0.272  1.00  0.00    -0.305 OA
HETATM    4  C10 UNL     1       6.089  57.000  -0.023  1.00  0.00     0.096 A 
HETATM    5  C11 UNL     1       6.556  58.212  -0.520  1.00  0.00     0.075 A 
HETATM    6  C12 UNL     1       6.011  59.405  -0.131  1.00  0.00     0.071 A 
HETATM    7  C13 UNL     1       4.979  59.440   0.770  1.00  0.00     0.074 A 
HETATM    8  C14 UNL     1       4.494  58.259   1.281  1.00  0.00     0.085 A 
HETATM    9  C15 UNL     1       5.059  57.076   0.873  1.00  0.00     0.084 A 
HETATM   10  C16 UNL     1       4.784  55.653   1.217  1.00  0.00     0.221 A 
HETATM   11  O4  UNL     1       3.887  55.318   2.022  1.00  0.00    -0.284 OA
ENDROOT
BRANCH   1  12
HETATM   12  C7  UNL     1       5.056  52.530   1.212  1.00  0.00     0.000 A 
HETATM   13  C6  UNL     1       3.792  52.106   0.868  1.00  0.00     0.015 A 
HETATM   14  C5  UNL     1       3.171  51.156   1.626  1.00  0.00     0.012 A 
HETATM   15  C4  UNL     1       3.783  50.612   2.729  1.00  0.00    -0.034 A 
HETATM   16  C19 UNL     1       5.054  51.051   3.061  1.00  0.00     0.049 A 
HETATM   17  C17 UNL     1       5.713  52.001   2.330  1.00  0.00     0.079 A 
BRANCH  15  18
HETATM   18  C3  UNL     1       3.069  49.588   3.515  1.00  0.00     0.007 C 
HETATM   19  C2  UNL     1       3.521  49.093   4.620  1.00  0.00    -0.030 C 
HETATM   20  C1  UNL     1       2.771  48.069   5.376  1.00  0.00     0.036 C 
ENDBRANCH  15  18
BRANCH  17  21
HETATM   21  O5  UNL     1       6.977  52.406   2.697  1.00  0.00    -0.355 OA
HETATM   22  C18 UNL     1       8.114  51.598   2.676  1.00  0.00     0.210 C 
ENDBRANCH  17  21
ENDBRANCH   1  12
BRANCH   8  23
HETATM   23  O3  UNL     1       3.456  58.256   2.190  1.00  0.00    -0.360 OA
ATOM     24  H3  UNL     1       3.363  57.551   2.820  1.00  0.00     0.217 HD
ENDBRANCH   8  23
BRANCH   6  25
HETATM   25  O2  UNL     1       6.506  60.617  -0.651  1.00  0.00    -0.361 OA
ATOM     26  H2  UNL     1       7.337  60.964  -0.351  1.00  0.00     0.217 HD
ENDBRANCH   6  25
TORSDOF 5
ENDMDL
MODEL 2
REMARK VINA RESULT: -8.202449399      2.471      3.973
REMARK  5 active torsions:
REMARK  status: ('A' for Active; 'I' for Inactive)
REMARK    1  A    between atoms: C3_3  and  C4_4 
REMARK    2  A    between atoms: C7_7  and  C8_8 
REMARK    3  A    between atoms: C12_13  and  O2_14 
REMARK    4  A    between atoms: C14_17  and  O3_18 
REMARK    5  A    between atoms: C17_23  and  O5_24 
ROOT
HETATM    1  C8  UNL     1       5.684  56.317   0.513  1.00  0.00     0.055 C 
HETATM    2  C9  UNL     1       6.704  56.899  -0.066  1.00  0.00     0.128 A 
HETATM    3  O1  UNL     1       6.722  58.235  -0.540  1.00  0.00    -0.305 OA
HETATM    4  C10 UNL     1       7.945  58.525  -1.087  1.00  0.00     0.096 A 
HETATM    5  C11 UNL     1       8.436  59.688  -1.673  1.00  0.00     0.075 A 
HETATM    6  C12 UNL     1       9.711  59.762  -2.162  1.00  0.00     0.071 A 
HETATM    7  C13 UNL     1      10.551  58.682  -2.089  1.00  0.00     0.074 A 
HETATM    8  C14 UNL     1      10.097  57.517  -1.515  1.00  0.00     0.085 A 
HETATM    9  C15 UNL     1       8.813  57.470  -1.032  1.00  0.00     0.084 A 
HETATM   10  C16 UNL     1       8.022  56.397  -0.368  1.00  0.00     0.221 A 
HETATM   11  O4  UNL     1       8.492  55.261  -0.137  1.00  0.00    -0.284 OA
ENDROOT
BRANCH   1  12
HETATM   12  C7  UNL     1       5.595  54.969   1.011  1.00  0.00     0.000 A 
HETATM   13  C6  UNL     1       5.442  53.858   0.213  1.00  0.00     0.015 A 
HETATM   14  C5  UNL     1       5.397  52.620   0.785  1.00  0.00     0.012 A 
HETATM   15  C4  UNL     1       5.503  52.458   2.146  1.00  0.00    -0.034 A 
HETATM   16  C19 UNL     1       5.655  53.588   2.933  1.00  0.00     0.049 A 
HETATM   17  C17 UNL     1       5.704  54.847   2.402  1.00  0.00     0.079 A 
BRANCH  15  18
HETATM   18  C3  UNL     1       5.448  51.099   2.714  1.00  0.00     0.007 C 
HETATM   19  C2  UNL     1       4.569  50.724   3.583  1.00  0.00    -0.030 C 
HETATM   20  C1  UNL     1       4.551  49.349   4.127  1.00  0.00     0.036 C 
ENDBRANCH  15  18
BRANCH  17  21
HETATM   21  O5  UNL     1       5.858  55.941   3.224  1.00  0.00    -0.355 OA
HETATM   22  C18 UNL     1       6.724  56.007   4.315  1.00  0.00     0.210 C 
ENDBRANCH  17  21
ENDBRANCH   1  12
BRANCH   8  23
HETATM   23  O3  UNL     1      10.914  56.409  -1.425  1.00  0.00    -0.360 OA
ATOM     24  H3  UNL     1      10.916  55.748  -2.107  1.00  0.00     0.217 HD
ENDBRANCH   8  23
BRANCH   6  25
HETATM   25  O2  UNL     1      10.179  60.954  -2.750  1.00  0.00    -0.361 OA
ATOM     26  H2  UNL     1      10.610  61.613  -2.220  1.00  0.00     0.217 HD
ENDBRANCH   6  25
TORSDOF 5
ENDMDL
MODEL 3
REMARK VINA RESULT: -7.969124626      3.531      7.860
REMARK  5 active torsions:
REMARK  status: ('A' for Active; 'I' for Inactive)
REMARK    1  A    between atoms: C3_3  and  C4_4 
REMARK    2  A    between atoms: C7_7  and  C8_8 
REMARK    3  A    between atoms: C12_13  and  O2_14 
REMARK    4  A    between atoms: C14_17  and  O3_18 
REMARK    5  A    between atoms: C17_23  and  O5_24 
ROOT
HETATM    1  C8  UNL     1       6.455  53.315   0.726  1.00  0.00     0.055 C 
HETATM    2  C9  UNL     1       7.636  52.768   0.869  1.00  0.00     0.128 A 
HETATM    3  O1  UNL     1       7.884  51.375   0.965  1.00  0.00    -0.305 OA
HETATM    4  C10 UNL     1       9.229  51.144   1.102  1.00  0.00     0.096 A 
HETATM    5  C11 UNL     1       9.947  49.960   1.232  1.00  0.00     0.075 A 
HETATM    6  C12 UNL     1      11.310  49.958   1.358  1.00  0.00     0.071 A 
HETATM    7  C13 UNL     1      12.012  51.134   1.361  1.00  0.00     0.074 A 
HETATM    8  C14 UNL     1      11.332  52.322   1.234  1.00  0.00     0.085 A 
HETATM    9  C15 UNL     1       9.965  52.296   1.109  1.00  0.00     0.084 A 
HETATM   10  C16 UNL     1       8.943  53.369   0.956  1.00  0.00     0.221 A 
HETATM   11  O4  UNL     1       9.245  54.582   0.917  1.00  0.00    -0.284 OA
ENDROOT
BRANCH   1  12
HETATM   12  C7  UNL     1       6.131  54.714   0.628  1.00  0.00     0.000 A 
HETATM   13  C6  UNL     1       6.071  55.414  -0.556  1.00  0.00     0.015 A 
HETATM   14  C5  UNL     1       5.724  56.734  -0.541  1.00  0.00     0.012 A 
HETATM   15  C4  UNL     1       5.433  57.382   0.636  1.00  0.00    -0.034 A 
HETATM   16  C19 UNL     1       5.500  56.663   1.818  1.00  0.00     0.049 A 
HETATM   17  C17 UNL     1       5.843  55.339   1.849  1.00  0.00     0.079 A 
BRANCH  15  18
HETATM   18  C3  UNL     1       5.065  58.809   0.598  1.00  0.00     0.007 C 
HETATM   19  C2  UNL     1       5.870  59.744   0.214  1.00  0.00    -0.030 C 
HETATM   20  C1  UNL     1       5.459  61.163   0.191  1.00  0.00     0.036 C 
ENDBRANCH  15  18
BRANCH  17  21
HETATM   21  O5  UNL     1       5.895  54.663   3.048  1.00  0.00    -0.355 OA
HETATM   22  C18 UNL     1       6.319  55.213   4.257  1.00  0.00     0.210 C 
ENDBRANCH  17  21
ENDBRANCH   1  12
BRANCH   8  23
HETATM   23  O3  UNL     1      12.006  53.526   1.233  1.00  0.00    -0.360 OA
ATOM     24  H3  UNL     1      11.561  54.333   1.004  1.00  0.00     0.217 HD
ENDBRANCH   8  23
BRANCH   6  25
HETATM   25  O2  UNL     1      12.010  48.742   1.488  1.00  0.00    -0.361 OA
ATOM     26  H2  UNL     1      11.563  47.962   1.793  1.00  0.00     0.217 HD
ENDBRANCH   6  25
TORSDOF 5
ENDMDL
MODEL 4
REMARK VINA RESULT: -7.773228925      2.345      7.948
REMARK  5 active torsions:
REMARK  status: ('A' for Active; 'I' for Inactive)
REMARK    1  A    between atoms: C3_3  and  C4_4 
REMARK    2  A    between atoms: C7_7  and  C8_8 
REMARK    3  A    between atoms: C12_13  and  O2_14 
REMARK    4  A    between atoms: C14_17  and  O3_18 
REMARK    5  A    between atoms: C17_23  and  O5_24 
ROOT
HETATM    1  C8  UNL     1       7.254  52.891   2.122  1.00  0.00     0.055 C 
HETATM    2  C9  UNL     1       6.480  51.938   2.578  1.00  0.00     0.128 A 
HETATM    3  O1  UNL     1       6.930  50.765   3.235  1.00  0.00    -0.305 OA
HETATM    4  C10 UNL     1       5.861  49.982   3.586  1.00  0.00     0.096 A 
HETATM    5  C11 UNL     1       5.799  48.755   4.239  1.00  0.00     0.075 A 
HETATM    6  C12 UNL     1       4.604  48.138   4.494  1.00  0.00     0.071 A 
HETATM    7  C13 UNL     1       3.424  48.717   4.108  1.00  0.00     0.074 A 
HETATM    8  C14 UNL     1       3.451  49.930   3.461  1.00  0.00     0.085 A 
HETATM    9  C15 UNL     1       4.663  50.527   3.219  1.00  0.00     0.084 A 
HETATM   10  C16 UNL     1       5.045  51.807   2.559  1.00  0.00     0.221 A 
HETATM   11  O4  UNL     1       4.198  52.597   2.086  1.00  0.00    -0.284 OA
ENDROOT
BRANCH   1  12
HETATM   12  C7  UNL     1       6.867  54.100   1.443  1.00  0.00     0.000 A 
HETATM   13  C6  UNL     1       6.767  54.222   0.075  1.00  0.00     0.015 A 
HETATM   14  C5  UNL     1       6.363  55.408  -0.467  1.00  0.00     0.012 A 
HETATM   15  C4  UNL     1       6.052  56.486   0.326  1.00  0.00    -0.034 A 
HETATM   16  C19 UNL     1       6.160  56.346   1.700  1.00  0.00     0.049 A 
HETATM   17  C17 UNL     1       6.561  55.177   2.286  1.00  0.00     0.079 A 
BRANCH  15  18
HETATM   18  C3  UNL     1       5.621  57.745  -0.309  1.00  0.00     0.007 C 
HETATM   19  C2  UNL     1       5.896  58.915   0.166  1.00  0.00    -0.030 C 
HETATM   20  C1  UNL     1       5.444  60.151  -0.505  1.00  0.00     0.036 C 
ENDBRANCH  15  18
BRANCH  17  21
HETATM   21  O5  UNL     1       6.653  55.083   3.656  1.00  0.00    -0.355 OA
HETATM   22  C18 UNL     1       6.726  56.168   4.529  1.00  0.00     0.210 C 
ENDBRANCH  17  21
ENDBRANCH   1  12
BRANCH   8  23
HETATM   23  O3  UNL     1       2.281  50.542   3.058  1.00  0.00    -0.360 OA
ATOM     24  H3  UNL     1       2.291  51.215   2.388  1.00  0.00     0.217 HD
ENDBRANCH   8  23
BRANCH   6  25
HETATM   25  O2  UNL     1       4.573  46.895   5.156  1.00  0.00    -0.361 OA
ATOM     26  H2  UNL     1       4.268  46.838   6.054  1.00  0.00     0.217 HD
ENDBRANCH   6  25
TORSDOF 5
ENDMDL
MODEL 5
REMARK VINA RESULT: -7.690014033      4.438      8.007
REMARK  5 active torsions:
REMARK  status: ('A' for Active; 'I' for Inactive)
REMARK    1  A    between atoms: C3_3  and  C4_4 
REMARK    2  A    between atoms: C7_7  and  C8_8 
REMARK    3  A    between atoms: C12_13  and  O2_14 
REMARK    4  A    between atoms: C14_17  and  O3_18 
REMARK    5  A    between atoms: C17_23  and  O5_24 
ROOT
HETATM    1  C8  UNL     1       9.449  55.577   1.237  1.00  0.00     0.055 C 
HETATM    2  C9  UNL     1       9.795  54.329   1.038  1.00  0.00     0.128 A 
HETATM    3  O1  UNL     1      11.126  53.841   1.041  1.00  0.00    -0.305 OA
HETATM    4  C10 UNL     1      11.134  52.490   0.806  1.00  0.00     0.096 A 
HETATM    5  C11 UNL     1      12.183  51.581   0.717  1.00  0.00     0.075 A 
HETATM    6  C12 UNL     1      11.962  50.253   0.471  1.00  0.00     0.071 A 
HETATM    7  C13 UNL     1      10.688  49.777   0.304  1.00  0.00     0.074 A 
HETATM    8  C14 UNL     1       9.629  50.649   0.387  1.00  0.00     0.085 A 
HETATM    9  C15 UNL     1       9.879  51.977   0.635  1.00  0.00     0.084 A 
HETATM   10  C16 UNL     1       8.989  53.162   0.783  1.00  0.00     0.221 A 
HETATM   11  O4  UNL     1       7.744  53.083   0.690  1.00  0.00    -0.284 OA
ENDROOT
BRANCH   1  12
HETATM   12  C7  UNL     1       8.124  56.140   1.241  1.00  0.00     0.000 A 
HETATM   13  C6  UNL     1       7.231  56.010   2.281  1.00  0.00     0.015 A 
HETATM   14  C5  UNL     1       6.008  56.610   2.197  1.00  0.00     0.012 A 
HETATM   15  C4  UNL     1       5.648  57.344   1.092  1.00  0.00    -0.034 A 
HETATM   16  C19 UNL     1       6.559  57.463   0.055  1.00  0.00     0.049 A 
HETATM   17  C17 UNL     1       7.794  56.878   0.097  1.00  0.00     0.079 A 
BRANCH  15  18
HETATM   18  C3  UNL     1       4.314  57.971   1.049  1.00  0.00     0.007 C 
HETATM   19  C2  UNL     1       4.039  59.101   1.613  1.00  0.00    -0.030 C 
HETATM   20  C1  UNL     1       2.688  59.694   1.545  1.00  0.00     0.036 C 
ENDBRANCH  15  18
BRANCH  17  21
HETATM   21  O5  UNL     1       8.668  57.025  -0.957  1.00  0.00    -0.355 OA
HETATM   22  C18 UNL     1       9.045  58.244  -1.520  1.00  0.00     0.210 C 
ENDBRANCH  17  21
ENDBRANCH   1  12
BRANCH   8  23
HETATM   23  O3  UNL     1       8.333  50.205   0.224  1.00  0.00    -0.360 OA
ATOM     24  H3  UNL     1       7.854  49.824   0.950  1.00  0.00     0.217 HD
ENDBRANCH   8  23
BRANCH   6  25
HETATM   25  O2  UNL     1      13.045  49.356   0.385  1.00  0.00    -0.361 OA
ATOM     26  H2  UNL     1      13.778  49.543  -0.189  1.00  0.00     0.217 HD
ENDBRANCH   6  25
TORSDOF 5
ENDMDL
