MODEL 1
REMARK VINA RESULT: -9.612397065      0.000      0.000
REMARK  5 active torsions:
REMARK  status: ('A' for Active; 'I' for Inactive)
REMARK    1  A    between atoms: O1_2  and  C2_3 
REMARK       I    between atoms: C2_3  and  N1_5 
REMARK    2  A    between atoms: N1_5  and  N2_7 
REMARK       I    between atoms: N2_7  and  C3_9 
REMARK    3  A    between atoms: C3_9  and  C4_11 
REMARK    4  A    between atoms: C9_16  and  N3_17 
REMARK    5  A    between atoms: N4_19  and  C10_21 
ROOT
HETATM    1  C4  UNL     1       7.191  52.217   2.187  1.00  0.00     0.035 A 
HETATM    2  C5  UNL     1       8.458  51.793   1.863  1.00  0.00     0.018 A 
HETATM    3  C6  UNL     1       9.432  52.627   1.316  1.00  0.00     0.010 A 
HETATM    4  C7  UNL     1       9.132  53.949   1.078  1.00  0.00    -0.034 A 
HETATM    5  C8  UNL     1      10.135  54.881   0.497  1.00  0.00     0.050 C 
HETATM    6  C9  UNL     1       7.856  54.395   1.400  1.00  0.00     0.055 A 
HETATM    7  C17 UNL     1       6.900  53.566   1.940  1.00  0.00     0.048 A 
ENDROOT
BRANCH   6   8
HETATM    8  N3  UNL     1       7.598  55.770   1.126  1.00  0.00    -0.300 N 
HETATM    9  N4  UNL     1       6.715  56.168   0.312  1.00  0.00    -0.300 N 
ATOM     10  H4  UNL     1       6.140  55.492  -0.191  1.00  0.00     0.187 HD
ATOM     11  H3  UNL     1       8.156  56.471   1.612  1.00  0.00     0.187 HD
BRANCH   9  12
HETATM   12  C10 UNL     1       6.526  57.569   0.099  1.00  0.00     0.054 A 
HETATM   13  C11 UNL     1       7.513  58.319  -0.510  1.00  0.00     0.031 A 
HETATM   14  C12 UNL     1       7.337  59.671  -0.720  1.00  0.00     0.002 A 
HETATM   15  C13 UNL     1       6.162  60.255  -0.309  1.00  0.00     0.001 A 
HETATM   16  C14 UNL     1       5.144  59.539   0.308  1.00  0.00     0.009 A 
HETATM   17  C15 UNL     1       5.361  58.183   0.499  1.00  0.00    -0.034 A 
HETATM   18  C16 UNL     1       4.306  57.386   1.151  1.00  0.00     0.050 C 
ENDBRANCH   9  12
ENDBRANCH   6   8
BRANCH   1  19
HETATM   19  C3  UNL     1       6.167  51.349   2.751  1.00  0.00     0.270 C 
HETATM   20  N2  UNL     1       4.811  51.557   2.475  1.00  0.00    -0.261 N 
ATOM     21  H2  UNL     1       4.565  52.337   1.865  1.00  0.00     0.190 HD
HETATM   22  O3  UNL     1       6.533  50.388   3.506  1.00  0.00    -0.266 OA
BRANCH  20  23
HETATM   23  N1  UNL     1       3.776  50.776   2.973  1.00  0.00    -0.242 N 
HETATM   24  C2  UNL     1       2.722  50.396   2.126  1.00  0.00     0.379 C 
HETATM   25  O2  UNL     1       2.692  50.752   0.912  1.00  0.00    -0.237 OA
ATOM     26  H1  UNL     1       3.782  50.479   3.949  1.00  0.00     0.192 HD
BRANCH  24  27
HETATM   27  O1  UNL     1       1.699  49.622   2.620  1.00  0.00    -0.308 OA
HETATM   28  C1  UNL     1       1.808  48.921   3.850  1.00  0.00     0.215 C 
ENDBRANCH  24  27
ENDBRANCH  20  23
ENDBRANCH   1  19
TORSDOF 5
ENDMDL
MODEL 2
REMARK VINA RESULT: -9.449251562      1.406      1.774
REMARK  5 active torsions:
REMARK  status: ('A' for Active; 'I' for Inactive)
REMARK    1  A    between atoms: O1_2  and  C2_3 
REMARK       I    between atoms: C2_3  and  N1_5 
REMARK    2  A    between atoms: N1_5  and  N2_7 
REMARK       I    between atoms: N2_7  and  C3_9 
REMARK    3  A    between atoms: C3_9  and  C4_11 
REMARK    4  A    between atoms: C9_16  and  N3_17 
REMARK    5  A    between atoms: N4_19  and  C10_21 
ROOT
HETATM    1  C4  UNL     1       6.543  52.361   2.115  1.00  0.00     0.035 A 
HETATM    2  C5  UNL     1       7.788  51.812   1.928  1.00  0.00     0.018 A 
HETATM    3  C6  UNL     1       8.893  52.539   1.487  1.00  0.00     0.010 A 
HETATM    4  C7  UNL     1       8.752  53.881   1.218  1.00  0.00    -0.034 A 
HETATM    5  C8  UNL     1       9.898  54.703   0.746  1.00  0.00     0.050 C 
HETATM    6  C9  UNL     1       7.499  54.455   1.402  1.00  0.00     0.055 A 
HETATM    7  C17 UNL     1       6.414  53.730   1.838  1.00  0.00     0.048 A 
ENDROOT
BRANCH   6   8
HETATM    8  N3  UNL     1       7.410  55.845   1.100  1.00  0.00    -0.300 N 
HETATM    9  N4  UNL     1       6.600  56.328   0.257  1.00  0.00    -0.300 N 
ATOM     10  H4  UNL     1       5.963  55.714  -0.251  1.00  0.00     0.187 HD
ATOM     11  H3  UNL     1       8.034  56.485   1.591  1.00  0.00     0.187 HD
BRANCH   9  12
HETATM   12  C10 UNL     1       6.581  57.737   0.019  1.00  0.00     0.054 A 
HETATM   13  C11 UNL     1       7.655  58.354  -0.593  1.00  0.00     0.031 A 
HETATM   14  C12 UNL     1       7.642  59.713  -0.827  1.00  0.00     0.002 A 
HETATM   15  C13 UNL     1       6.541  60.440  -0.439  1.00  0.00     0.001 A 
HETATM   16  C14 UNL     1       5.441  59.860   0.180  1.00  0.00     0.009 A 
HETATM   17  C15 UNL     1       5.493  58.492   0.396  1.00  0.00    -0.034 A 
HETATM   18  C16 UNL     1       4.346  57.838   1.050  1.00  0.00     0.050 C 
ENDBRANCH   9  12
ENDBRANCH   6   8
BRANCH   1  19
HETATM   19  C3  UNL     1       5.383  51.605   2.568  1.00  0.00     0.270 C 
HETATM   20  N2  UNL     1       5.376  50.968   3.813  1.00  0.00    -0.261 N 
ATOM     21  H2  UNL     1       6.211  51.051   4.394  1.00  0.00     0.190 HD
HETATM   22  O3  UNL     1       4.366  51.537   1.800  1.00  0.00    -0.266 OA
BRANCH  20  23
HETATM   23  N1  UNL     1       4.312  50.230   4.315  1.00  0.00    -0.242 N 
HETATM   24  C2  UNL     1       4.463  48.850   4.532  1.00  0.00     0.379 C 
HETATM   25  O2  UNL     1       5.554  48.260   4.278  1.00  0.00    -0.237 OA
ATOM     26  H1  UNL     1       3.425  50.687   4.526  1.00  0.00     0.192 HD
BRANCH  24  27
HETATM   27  O1  UNL     1       3.410  48.121   5.029  1.00  0.00    -0.308 OA
HETATM   28  C1  UNL     1       3.552  46.765   5.426  1.00  0.00     0.215 C 
ENDBRANCH  24  27
ENDBRANCH  20  23
ENDBRANCH   1  19
TORSDOF 5
ENDMDL
MODEL 3
REMARK VINA RESULT: -9.445074892      0.335      1.424
REMARK  5 active torsions:
REMARK  status: ('A' for Active; 'I' for Inactive)
REMARK    1  A    between atoms: O1_2  and  C2_3 
REMARK       I    between atoms: C2_3  and  N1_5 
REMARK    2  A    between atoms: N1_5  and  N2_7 
REMARK       I    between atoms: N2_7  and  C3_9 
REMARK    3  A    between atoms: C3_9  and  C4_11 
REMARK    4  A    between atoms: C9_16  and  N3_17 
REMARK    5  A    between atoms: N4_19  and  C10_21 
ROOT
HETATM    1  C4  UNL     1       7.128  52.235   2.222  1.00  0.00     0.035 A 
HETATM    2  C5  UNL     1       8.404  51.830   1.912  1.00  0.00     0.018 A 
HETATM    3  C6  UNL     1       9.377  52.682   1.391  1.00  0.00     0.010 A 
HETATM    4  C7  UNL     1       9.064  54.004   1.165  1.00  0.00    -0.034 A 
HETATM    5  C8  UNL     1      10.065  54.955   0.612  1.00  0.00     0.050 C 
HETATM    6  C9  UNL     1       7.778  54.431   1.473  1.00  0.00     0.055 A 
HETATM    7  C17 UNL     1       6.824  53.583   1.988  1.00  0.00     0.048 A 
ENDROOT
BRANCH   6   8
HETATM    8  N3  UNL     1       7.508  55.806   1.212  1.00  0.00    -0.300 N 
HETATM    9  N4  UNL     1       6.839  56.211   0.218  1.00  0.00    -0.300 N 
ATOM     10  H4  UNL     1       6.459  55.542  -0.451  1.00  0.00     0.187 HD
ATOM     11  H3  UNL     1       7.875  56.500   1.862  1.00  0.00     0.187 HD
BRANCH   9  12
HETATM   12  C10 UNL     1       6.619  57.612   0.035  1.00  0.00     0.054 A 
HETATM   13  C11 UNL     1       5.481  58.209   0.544  1.00  0.00     0.031 A 
HETATM   14  C12 UNL     1       5.263  59.560   0.373  1.00  0.00     0.002 A 
HETATM   15  C13 UNL     1       6.198  60.298  -0.314  1.00  0.00     0.001 A 
HETATM   16  C14 UNL     1       7.355  59.739  -0.842  1.00  0.00     0.009 A 
HETATM   17  C15 UNL     1       7.536  58.378  -0.647  1.00  0.00    -0.034 A 
HETATM   18  C16 UNL     1       8.750  57.745  -1.192  1.00  0.00     0.050 C 
ENDBRANCH   9  12
ENDBRANCH   6   8
BRANCH   1  19
HETATM   19  C3  UNL     1       6.105  51.348   2.759  1.00  0.00     0.270 C 
HETATM   20  N2  UNL     1       4.750  51.549   2.474  1.00  0.00    -0.261 N 
ATOM     21  H2  UNL     1       4.504  52.339   1.876  1.00  0.00     0.190 HD
HETATM   22  O3  UNL     1       6.472  50.376   3.500  1.00  0.00    -0.266 OA
BRANCH  20  23
HETATM   23  N1  UNL     1       3.718  50.751   2.946  1.00  0.00    -0.242 N 
HETATM   24  C2  UNL     1       2.677  50.375   2.082  1.00  0.00     0.379 C 
HETATM   25  O2  UNL     1       2.658  50.751   0.873  1.00  0.00    -0.237 OA
ATOM     26  H1  UNL     1       3.715  50.438   3.917  1.00  0.00     0.192 HD
BRANCH  24  27
HETATM   27  O1  UNL     1       1.656  49.583   2.550  1.00  0.00    -0.308 OA
HETATM   28  C1  UNL     1       1.752  48.875   3.777  1.00  0.00     0.215 C 
ENDBRANCH  24  27
ENDBRANCH  20  23
ENDBRANCH   1  19
TORSDOF 5
ENDMDL
MODEL 4
REMARK VINA RESULT: -9.422266467      1.199      1.653
REMARK  5 active torsions:
REMARK  status: ('A' for Active; 'I' for Inactive)
REMARK    1  A    between atoms: O1_2  and  C2_3 
REMARK       I    between atoms: C2_3  and  N1_5 
REMARK    2  A    between atoms: N1_5  and  N2_7 
REMARK       I    between atoms: N2_7  and  C3_9 
REMARK    3  A    between atoms: C3_9  and  C4_11 
REMARK    4  A    between atoms: C9_16  and  N3_17 
REMARK    5  A    between atoms: N4_19  and  C10_21 
ROOT
HETATM    1  C4  UNL     1       5.805  52.412   1.410  1.00  0.00     0.035 A 
HETATM    2  C5  UNL     1       7.023  51.790   1.546  1.00  0.00     0.018 A 
HETATM    3  C6  UNL     1       8.244  52.448   1.399  1.00  0.00     0.010 A 
HETATM    4  C7  UNL     1       8.254  53.791   1.100  1.00  0.00    -0.034 A 
HETATM    5  C8  UNL     1       9.528  54.540   0.933  1.00  0.00     0.050 C 
HETATM    6  C9  UNL     1       7.032  54.436   0.959  1.00  0.00     0.055 A 
HETATM    7  C17 UNL     1       5.831  53.780   1.107  1.00  0.00     0.048 A 
ENDROOT
BRANCH   6   8
HETATM    8  N3  UNL     1       7.103  55.824   0.642  1.00  0.00    -0.300 N 
HETATM    9  N4  UNL     1       6.086  56.549   0.439  1.00  0.00    -0.300 N 
ATOM     10  H4  UNL     1       5.150  56.147   0.498  1.00  0.00     0.187 HD
ATOM     11  H3  UNL     1       8.024  56.256   0.575  1.00  0.00     0.187 HD
BRANCH   9  12
HETATM   12  C10 UNL     1       6.253  57.933   0.126  1.00  0.00     0.054 A 
HETATM   13  C11 UNL     1       7.405  58.372  -0.498  1.00  0.00     0.031 A 
HETATM   14  C12 UNL     1       7.572  59.706  -0.803  1.00  0.00     0.002 A 
HETATM   15  C13 UNL     1       6.570  60.590  -0.475  1.00  0.00     0.001 A 
HETATM   16  C14 UNL     1       5.397  60.192   0.153  1.00  0.00     0.009 A 
HETATM   17  C15 UNL     1       5.269  58.842   0.442  1.00  0.00    -0.034 A 
HETATM   18  C16 UNL     1       4.038  58.379   1.108  1.00  0.00     0.050 C 
ENDBRANCH   9  12
ENDBRANCH   6   8
BRANCH   1  19
HETATM   19  C3  UNL     1       4.527  51.729   1.554  1.00  0.00     0.270 C 
HETATM   20  N2  UNL     1       4.183  51.080   2.746  1.00  0.00    -0.261 N 
ATOM     21  H2  UNL     1       4.860  51.102   3.510  1.00  0.00     0.190 HD
HETATM   22  O3  UNL     1       3.721  51.735   0.566  1.00  0.00    -0.266 OA
BRANCH  20  23
HETATM   23  N1  UNL     1       2.988  50.409   2.961  1.00  0.00    -0.242 N 
HETATM   24  C2  UNL     1       2.917  49.414   3.950  1.00  0.00     0.379 C 
HETATM   25  O2  UNL     1       3.925  49.113   4.654  1.00  0.00    -0.237 OA
ATOM     26  H1  UNL     1       2.164  50.638   2.405  1.00  0.00     0.192 HD
BRANCH  24  27
HETATM   27  O1  UNL     1       1.732  48.751   4.164  1.00  0.00    -0.308 OA
HETATM   28  C1  UNL     1       0.826  48.466   3.108  1.00  0.00     0.215 C 
ENDBRANCH  24  27
ENDBRANCH  20  23
ENDBRANCH   1  19
TORSDOF 5
ENDMDL
MODEL 5
REMARK VINA RESULT: -9.339161429      1.283      2.246
REMARK  5 active torsions:
REMARK  status: ('A' for Active; 'I' for Inactive)
REMARK    1  A    between atoms: O1_2  and  C2_3 
REMARK       I    between atoms: C2_3  and  N1_5 
REMARK    2  A    between atoms: N1_5  and  N2_7 
REMARK       I    between atoms: N2_7  and  C3_9 
REMARK    3  A    between atoms: C3_9  and  C4_11 
REMARK    4  A    between atoms: C9_16  and  N3_17 
REMARK    5  A    between atoms: N4_19  and  C10_21 
ROOT
HETATM    1  C4  UNL     1       5.535  52.405   1.391  1.00  0.00     0.035 A 
HETATM    2  C5  UNL     1       6.781  51.828   1.425  1.00  0.00     0.018 A 
HETATM    3  C6  UNL     1       7.968  52.552   1.319  1.00  0.00     0.010 A 
HETATM    4  C7  UNL     1       7.913  53.919   1.172  1.00  0.00    -0.034 A 
HETATM    5  C8  UNL     1       9.149  54.738   1.055  1.00  0.00     0.050 C 
HETATM    6  C9  UNL     1       6.661  54.520   1.135  1.00  0.00     0.055 A 
HETATM    7  C17 UNL     1       5.494  53.799   1.241  1.00  0.00     0.048 A 
ENDROOT
BRANCH   6   8
HETATM    8  N3  UNL     1       6.664  55.936   0.972  1.00  0.00    -0.300 N 
HETATM    9  N4  UNL     1       6.381  56.517  -0.116  1.00  0.00    -0.300 N 
ATOM     10  H4  UNL     1       6.133  55.968  -0.939  1.00  0.00     0.187 HD
ATOM     11  H3  UNL     1       6.907  56.513   1.777  1.00  0.00     0.187 HD
BRANCH   9  12
HETATM   12  C10 UNL     1       6.409  57.944  -0.186  1.00  0.00     0.054 A 
HETATM   13  C11 UNL     1       5.329  58.685   0.252  1.00  0.00     0.031 A 
HETATM   14  C12 UNL     1       5.351  60.062   0.188  1.00  0.00     0.002 A 
HETATM   15  C13 UNL     1       6.468  60.682  -0.321  1.00  0.00     0.001 A 
HETATM   16  C14 UNL     1       7.576  59.976  -0.773  1.00  0.00     0.009 A 
HETATM   17  C15 UNL     1       7.513  58.593  -0.691  1.00  0.00    -0.034 A 
HETATM   18  C16 UNL     1       8.668  57.807  -1.161  1.00  0.00     0.050 C 
ENDBRANCH   9  12
ENDBRANCH   6   8
BRANCH   1  19
HETATM   19  C3  UNL     1       4.291  51.654   1.493  1.00  0.00     0.270 C 
HETATM   20  N2  UNL     1       3.951  50.974   2.668  1.00  0.00    -0.261 N 
ATOM     21  H2  UNL     1       4.604  51.022   3.450  1.00  0.00     0.190 HD
HETATM   22  O3  UNL     1       3.513  51.629   0.483  1.00  0.00    -0.266 OA
BRANCH  20  23
HETATM   23  N1  UNL     1       2.787  50.237   2.843  1.00  0.00    -0.242 N 
HETATM   24  C2  UNL     1       2.679  49.356   3.931  1.00  0.00     0.379 C 
HETATM   25  O2  UNL     1       3.624  49.216   4.761  1.00  0.00    -0.237 OA
ATOM     26  H1  UNL     1       2.014  50.336   2.185  1.00  0.00     0.192 HD
BRANCH  24  27
HETATM   27  O1  UNL     1       1.526  48.628   4.104  1.00  0.00    -0.308 OA
HETATM   28  C1  UNL     1       0.613  48.396   3.042  1.00  0.00     0.215 C 
ENDBRANCH  24  27
ENDBRANCH  20  23
ENDBRANCH   1  19
TORSDOF 5
ENDMDL
