MODEL 1
REMARK VINA RESULT: -9.749593400      0.000      0.000
REMARK  6 active torsions:
REMARK  status: ('A' for Active; 'I' for Inactive)
REMARK    1  A    between atoms: C1_2  and  C2_3 
REMARK    2  A    between atoms: C1_2  and  C8_13 
REMARK    3  A    between atoms: C5_6  and  O2_7 
REMARK    4  A    between atoms: C6_9  and  O3_10 
REMARK    5  A    between atoms: C11_16  and  C12_17 
REMARK    6  A    between atoms: C18_23  and  N1_24 
ROOT
HETATM    1  C8  UNL     1       7.072  53.341   0.586  1.00  0.00     0.017 A 
HETATM    2  C9  UNL     1       5.946  54.043   0.184  1.00  0.00     0.016 A 
HETATM    3  C10 UNL     1       6.031  55.379  -0.106  1.00  0.00     0.016 A 
HETATM    4  C11 UNL     1       7.237  56.075  -0.010  1.00  0.00     0.007 A 
HETATM    5  C18 UNL     1       8.360  55.409   0.381  1.00  0.00     0.115 A 
HETATM    6  C19 UNL     1       8.243  54.040   0.674  1.00  0.00     0.052 A 
ENDROOT
BRANCH   1   7
HETATM    7  C1  UNL     1       7.073  51.921   0.861  1.00  0.00     0.192 C 
HETATM    8  O1  UNL     1       8.008  51.195   0.377  1.00  0.00    -0.287 OA
BRANCH   7   9
HETATM    9  C2  UNL     1       6.054  51.297   1.660  1.00  0.00     0.018 A 
HETATM   10  C3  UNL     1       4.797  50.956   1.210  1.00  0.00     0.018 A 
HETATM   11  C4  UNL     1       3.876  50.360   2.040  1.00  0.00     0.040 A 
HETATM   12  C5  UNL     1       4.150  50.070   3.357  1.00  0.00     0.098 A 
HETATM   13  C6  UNL     1       5.401  50.407   3.811  1.00  0.00     0.099 A 
HETATM   14  C7  UNL     1       6.336  51.003   3.000  1.00  0.00     0.054 A 
BRANCH  12  15
HETATM   15  O2  UNL     1       3.209  49.463   4.199  1.00  0.00    -0.358 OA
ATOM     16  H2  UNL     1       3.053  48.525   4.192  1.00  0.00     0.217 HD
ENDBRANCH  12  15
BRANCH  13  17
HETATM   17  O3  UNL     1       5.704  50.123   5.143  1.00  0.00    -0.358 OA
ATOM     18  H3  UNL     1       6.606  50.226   5.421  1.00  0.00     0.217 HD
ENDBRANCH  13  17
ENDBRANCH   7   9
ENDBRANCH   1   7
BRANCH   5  19
HETATM   19  N1  UNL     1       9.637  56.013   0.450  1.00  0.00    -0.115 N 
HETATM   20  O4  UNL     1       9.982  56.726   1.371  1.00  0.00    -0.532 OA
HETATM   21  O5  UNL     1      10.584  55.797  -0.559  1.00  0.00    -0.532 OA
ENDBRANCH   5  19
BRANCH   4  22
HETATM   22  C12 UNL     1       7.262  57.503  -0.308  1.00  0.00    -0.024 A 
HETATM   23  C13 UNL     1       6.290  58.318   0.232  1.00  0.00     0.012 A 
HETATM   24  C14 UNL     1       6.280  59.685   0.025  1.00  0.00     0.001 A 
HETATM   25  C15 UNL     1       7.259  60.265  -0.741  1.00  0.00     0.000 A 
HETATM   26  C16 UNL     1       8.241  59.483  -1.296  1.00  0.00     0.001 A 
HETATM   27  C17 UNL     1       8.238  58.119  -1.079  1.00  0.00     0.012 A 
ENDBRANCH   4  22
TORSDOF 6
ENDMDL
MODEL 2
REMARK VINA RESULT: -9.487263461      1.396      1.926
REMARK  6 active torsions:
REMARK  status: ('A' for Active; 'I' for Inactive)
REMARK    1  A    between atoms: C1_2  and  C2_3 
REMARK    2  A    between atoms: C1_2  and  C8_13 
REMARK    3  A    between atoms: C5_6  and  O2_7 
REMARK    4  A    between atoms: C6_9  and  O3_10 
REMARK    5  A    between atoms: C11_16  and  C12_17 
REMARK    6  A    between atoms: C18_23  and  N1_24 
ROOT
HETATM    1  C8  UNL     1       6.399  53.135   0.820  1.00  0.00     0.017 A 
HETATM    2  C9  UNL     1       6.044  53.710  -0.391  1.00  0.00     0.016 A 
HETATM    3  C10 UNL     1       6.154  55.064  -0.573  1.00  0.00     0.016 A 
HETATM    4  C11 UNL     1       6.620  55.904   0.438  1.00  0.00     0.007 A 
HETATM    5  C18 UNL     1       6.977  55.366   1.639  1.00  0.00     0.115 A 
HETATM    6  C19 UNL     1       6.853  53.975   1.798  1.00  0.00     0.052 A 
ENDROOT
BRANCH   1   7
HETATM    7  C1  UNL     1       6.359  51.712   1.072  1.00  0.00     0.192 C 
HETATM    8  O1  UNL     1       7.370  50.996   0.754  1.00  0.00    -0.287 OA
BRANCH   7   9
HETATM    9  C2  UNL     1       5.216  51.074   1.666  1.00  0.00     0.018 A 
HETATM   10  C3  UNL     1       4.021  50.837   1.023  1.00  0.00     0.018 A 
HETATM   11  C4  UNL     1       2.972  50.219   1.664  1.00  0.00     0.040 A 
HETATM   12  C5  UNL     1       3.052  49.803   2.974  1.00  0.00     0.098 A 
HETATM   13  C6  UNL     1       4.240  50.036   3.619  1.00  0.00     0.099 A 
HETATM   14  C7  UNL     1       5.300  50.652   2.999  1.00  0.00     0.054 A 
BRANCH  12  15
HETATM   15  O2  UNL     1       1.981  49.174   3.623  1.00  0.00    -0.358 OA
ATOM     16  H2  UNL     1       1.850  48.233   3.589  1.00  0.00     0.217 HD
ENDBRANCH  12  15
BRANCH  13  17
HETATM   17  O3  UNL     1       4.345  49.623   4.948  1.00  0.00    -0.358 OA
ATOM     18  H3  UNL     1       4.766  48.789   5.118  1.00  0.00     0.217 HD
ENDBRANCH  13  17
ENDBRANCH   7   9
ENDBRANCH   1   7
BRANCH   5  19
HETATM   19  N1  UNL     1       7.517  56.126   2.702  1.00  0.00    -0.115 N 
HETATM   20  O4  UNL     1       8.675  56.488   2.734  1.00  0.00    -0.532 OA
HETATM   21  O5  UNL     1       6.713  56.514   3.783  1.00  0.00    -0.532 OA
ENDBRANCH   5  19
BRANCH   4  22
HETATM   22  C12 UNL     1       6.693  57.341   0.196  1.00  0.00    -0.024 A 
HETATM   23  C13 UNL     1       7.803  57.859  -0.435  1.00  0.00     0.012 A 
HETATM   24  C14 UNL     1       7.917  59.205  -0.733  1.00  0.00     0.001 A 
HETATM   25  C15 UNL     1       6.903  60.065  -0.395  1.00  0.00     0.000 A 
HETATM   26  C16 UNL     1       5.784  59.583   0.236  1.00  0.00     0.001 A 
HETATM   27  C17 UNL     1       5.685  58.236   0.526  1.00  0.00     0.012 A 
ENDBRANCH   4  22
TORSDOF 6
ENDMDL
MODEL 3
REMARK VINA RESULT: -9.276322860      0.997      1.610
REMARK  6 active torsions:
REMARK  status: ('A' for Active; 'I' for Inactive)
REMARK    1  A    between atoms: C1_2  and  C2_3 
REMARK    2  A    between atoms: C1_2  and  C8_13 
REMARK    3  A    between atoms: C5_6  and  O2_7 
REMARK    4  A    between atoms: C6_9  and  O3_10 
REMARK    5  A    between atoms: C11_16  and  C12_17 
REMARK    6  A    between atoms: C18_23  and  N1_24 
ROOT
HETATM    1  C8  UNL     1       6.979  53.671   0.650  1.00  0.00     0.017 A 
HETATM    2  C9  UNL     1       5.836  54.397   0.351  1.00  0.00     0.016 A 
HETATM    3  C10 UNL     1       5.922  55.732   0.056  1.00  0.00     0.016 A 
HETATM    4  C11 UNL     1       7.144  56.404   0.046  1.00  0.00     0.007 A 
HETATM    5  C18 UNL     1       8.285  55.715   0.336  1.00  0.00     0.115 A 
HETATM    6  C19 UNL     1       8.167  54.347   0.635  1.00  0.00     0.052 A 
ENDROOT
BRANCH   1   7
HETATM    7  C1  UNL     1       6.977  52.250   0.923  1.00  0.00     0.192 C 
HETATM    8  O1  UNL     1       8.028  51.568   0.669  1.00  0.00    -0.287 OA
BRANCH   7   9
HETATM    9  C2  UNL     1       5.828  51.579   1.466  1.00  0.00     0.018 A 
HETATM   10  C3  UNL     1       5.705  51.156   2.771  1.00  0.00     0.018 A 
HETATM   11  C4  UNL     1       4.569  50.518   3.214  1.00  0.00     0.040 A 
HETATM   12  C5  UNL     1       3.496  50.268   2.389  1.00  0.00     0.098 A 
HETATM   13  C6  UNL     1       3.613  50.688   1.088  1.00  0.00     0.099 A 
HETATM   14  C7  UNL     1       4.738  51.326   0.624  1.00  0.00     0.054 A 
BRANCH  12  15
HETATM   15  O2  UNL     1       2.341  49.619   2.845  1.00  0.00    -0.358 OA
ATOM     16  H2  UNL     1       1.486  50.034   2.827  1.00  0.00     0.217 HD
ENDBRANCH  12  15
BRANCH  13  17
HETATM   17  O3  UNL     1       2.538  50.446   0.232  1.00  0.00    -0.358 OA
ATOM     18  H3  UNL     1       2.725  50.036  -0.604  1.00  0.00     0.217 HD
ENDBRANCH  13  17
ENDBRANCH   7   9
ENDBRANCH   1   7
BRANCH   5  19
HETATM   19  N1  UNL     1       9.574  56.293   0.292  1.00  0.00    -0.115 N 
HETATM   20  O4  UNL     1      10.015  56.993   1.181  1.00  0.00    -0.532 OA
HETATM   21  O5  UNL     1      10.422  56.067  -0.800  1.00  0.00    -0.532 OA
ENDBRANCH   5  19
BRANCH   4  22
HETATM   22  C12 UNL     1       7.171  57.832  -0.250  1.00  0.00    -0.024 A 
HETATM   23  C13 UNL     1       6.225  58.654   0.323  1.00  0.00     0.012 A 
HETATM   24  C14 UNL     1       6.219  60.021   0.118  1.00  0.00     0.001 A 
HETATM   25  C15 UNL     1       7.176  60.594  -0.680  1.00  0.00     0.000 A 
HETATM   26  C16 UNL     1       8.132  59.805  -1.268  1.00  0.00     0.001 A 
HETATM   27  C17 UNL     1       8.126  58.441  -1.053  1.00  0.00     0.012 A 
ENDBRANCH   4  22
TORSDOF 6
ENDMDL
MODEL 4
REMARK VINA RESULT: -9.260942729      1.479      2.275
REMARK  6 active torsions:
REMARK  status: ('A' for Active; 'I' for Inactive)
REMARK    1  A    between atoms: C1_2  and  C2_3 
REMARK    2  A    between atoms: C1_2  and  C8_13 
REMARK    3  A    between atoms: C5_6  and  O2_7 
REMARK    4  A    between atoms: C6_9  and  O3_10 
REMARK    5  A    between atoms: C11_16  and  C12_17 
REMARK    6  A    between atoms: C18_23  and  N1_24 
ROOT
HETATM    1  C8  UNL     1       6.670  53.013   0.966  1.00  0.00     0.017 A 
HETATM    2  C9  UNL     1       6.169  53.542  -0.214  1.00  0.00     0.016 A 
HETATM    3  C10 UNL     1       6.101  54.899  -0.389  1.00  0.00     0.016 A 
HETATM    4  C11 UNL     1       6.526  55.789   0.598  1.00  0.00     0.007 A 
HETATM    5  C18 UNL     1       7.024  55.296   1.767  1.00  0.00     0.115 A 
HETATM    6  C19 UNL     1       7.082  53.900   1.921  1.00  0.00     0.052 A 
ENDROOT
BRANCH   1   7
HETATM    7  C1  UNL     1       6.821  51.595   1.207  1.00  0.00     0.192 C 
HETATM    8  O1  UNL     1       7.617  50.920   0.469  1.00  0.00    -0.287 OA
BRANCH   7   9
HETATM    9  C2  UNL     1       6.099  50.917   2.249  1.00  0.00     0.018 A 
HETATM   10  C3  UNL     1       6.679  50.240   3.300  1.00  0.00     0.018 A 
HETATM   11  C4  UNL     1       5.915  49.615   4.259  1.00  0.00     0.040 A 
HETATM   12  C5  UNL     1       4.539  49.629   4.229  1.00  0.00     0.098 A 
HETATM   13  C6  UNL     1       3.956  50.303   3.185  1.00  0.00     0.099 A 
HETATM   14  C7  UNL     1       4.699  50.933   2.216  1.00  0.00     0.054 A 
BRANCH  12  15
HETATM   15  O2  UNL     1       3.765  48.992   5.209  1.00  0.00    -0.358 OA
ATOM     16  H2  UNL     1       4.129  48.341   5.797  1.00  0.00     0.217 HD
ENDBRANCH  12  15
BRANCH  13  17
HETATM   17  O3  UNL     1       2.562  50.331   3.133  1.00  0.00    -0.358 OA
ATOM     18  H3  UNL     1       2.124  49.612   2.694  1.00  0.00     0.217 HD
ENDBRANCH  13  17
ENDBRANCH   7   9
ENDBRANCH   1   7
BRANCH   5  19
HETATM   19  N1  UNL     1       7.535  56.115   2.801  1.00  0.00    -0.115 N 
HETATM   20  O4  UNL     1       8.669  56.551   2.799  1.00  0.00    -0.532 OA
HETATM   21  O5  UNL     1       6.730  56.477   3.889  1.00  0.00    -0.532 OA
ENDBRANCH   5  19
BRANCH   4  22
HETATM   22  C12 UNL     1       6.406  57.224   0.365  1.00  0.00    -0.024 A 
HETATM   23  C13 UNL     1       7.418  57.881  -0.302  1.00  0.00     0.012 A 
HETATM   24  C14 UNL     1       7.349  59.231  -0.593  1.00  0.00     0.001 A 
HETATM   25  C15 UNL     1       6.248  59.955  -0.211  1.00  0.00     0.000 A 
HETATM   26  C16 UNL     1       5.223  59.332   0.456  1.00  0.00     0.001 A 
HETATM   27  C17 UNL     1       5.306  57.982   0.739  1.00  0.00     0.012 A 
ENDBRANCH   4  22
TORSDOF 6
ENDMDL
MODEL 5
REMARK VINA RESULT: -9.177928523      0.908      1.491
REMARK  6 active torsions:
REMARK  status: ('A' for Active; 'I' for Inactive)
REMARK    1  A    between atoms: C1_2  and  C2_3 
REMARK    2  A    between atoms: C1_2  and  C8_13 
REMARK    3  A    between atoms: C5_6  and  O2_7 
REMARK    4  A    between atoms: C6_9  and  O3_10 
REMARK    5  A    between atoms: C11_16  and  C12_17 
REMARK    6  A    between atoms: C18_23  and  N1_24 
ROOT
HETATM    1  C8  UNL     1       6.998  53.112   0.743  1.00  0.00     0.017 A 
HETATM    2  C9  UNL     1       6.137  53.648  -0.202  1.00  0.00     0.016 A 
HETATM    3  C10 UNL     1       6.131  54.996  -0.446  1.00  0.00     0.016 A 
HETATM    4  C11 UNL     1       6.978  55.869   0.236  1.00  0.00     0.007 A 
HETATM    5  C18 UNL     1       7.836  55.369   1.171  1.00  0.00     0.115 A 
HETATM    6  C19 UNL     1       7.820  53.983   1.402  1.00  0.00     0.052 A 
ENDROOT
BRANCH   1   7
HETATM    7  C1  UNL     1       7.099  51.696   1.023  1.00  0.00     0.192 C 
HETATM    8  O1  UNL     1       7.877  50.976   0.307  1.00  0.00    -0.287 OA
BRANCH   7   9
HETATM    9  C2  UNL     1       6.350  51.071   2.078  1.00  0.00     0.018 A 
HETATM   10  C3  UNL     1       6.901  50.428   3.165  1.00  0.00     0.018 A 
HETATM   11  C4  UNL     1       6.112  49.853   4.134  1.00  0.00     0.040 A 
HETATM   12  C5  UNL     1       4.737  49.886   4.079  1.00  0.00     0.098 A 
HETATM   13  C6  UNL     1       4.182  50.525   2.999  1.00  0.00     0.099 A 
HETATM   14  C7  UNL     1       4.951  51.105   2.019  1.00  0.00     0.054 A 
BRANCH  12  15
HETATM   15  O2  UNL     1       3.937  49.299   5.069  1.00  0.00    -0.358 OA
ATOM     16  H2  UNL     1       4.235  48.564   5.591  1.00  0.00     0.217 HD
ENDBRANCH  12  15
BRANCH  13  17
HETATM   17  O3  UNL     1       2.789  50.571   2.920  1.00  0.00    -0.358 OA
ATOM     18  H3  UNL     1       2.392  50.422   2.071  1.00  0.00     0.217 HD
ENDBRANCH  13  17
ENDBRANCH   7   9
ENDBRANCH   1   7
BRANCH   5  19
HETATM   19  N1  UNL     1       8.773  56.165   1.870  1.00  0.00    -0.115 N 
HETATM   20  O4  UNL     1       8.590  56.557   3.005  1.00  0.00    -0.532 OA
HETATM   21  O5  UNL     1       9.985  56.532   1.272  1.00  0.00    -0.532 OA
ENDBRANCH   5  19
BRANCH   4  22
HETATM   22  C12 UNL     1       6.909  57.298  -0.048  1.00  0.00    -0.024 A 
HETATM   23  C13 UNL     1       5.878  58.040   0.487  1.00  0.00     0.012 A 
HETATM   24  C14 UNL     1       5.777  59.405   0.292  1.00  0.00     0.001 A 
HETATM   25  C15 UNL     1       6.723  60.057  -0.457  1.00  0.00     0.000 A 
HETATM   26  C16 UNL     1       7.762  59.350  -1.006  1.00  0.00     0.001 A 
HETATM   27  C17 UNL     1       7.850  57.986  -0.802  1.00  0.00     0.012 A 
ENDBRANCH   4  22
TORSDOF 6
ENDMDL
