MODEL 1
REMARK VINA RESULT: -9.031392805      0.000      0.000
REMARK  4 active torsions:
REMARK  status: ('A' for Active; 'I' for Inactive)
REMARK    1  A    between atoms: C4_5  and  C5_6 
REMARK    2  A    between atoms: C10_12  and  N2_13 
REMARK       I    between atoms: N2_13  and  C11_15 
REMARK    3  A    between atoms: C11_15  and  C12_17 
REMARK    4  A    between atoms: C15_20  and  N3_21 
ROOT
HETATM    1  N2  UNL     1       5.865  53.264   0.629  1.00  0.00    -0.321 N 
ATOM      2  H2  UNL     1       5.477  52.836  -0.211  1.00  0.00     0.169 HD
HETATM    3  C11 UNL     1       5.422  52.733   1.837  1.00  0.00     0.256 C 
HETATM    4  O1  UNL     1       5.807  53.155   2.943  1.00  0.00    -0.267 OA
ENDROOT
BRANCH   1   5
HETATM    5  C10 UNL     1       6.780  54.314   0.413  1.00  0.00     0.060 A 
HETATM    6  C1  UNL     1       8.168  54.052   0.359  1.00  0.00     0.073 A 
HETATM    7  N1  UNL     1       8.625  52.720   0.527  1.00  0.00    -0.100 NA
HETATM    8  C2  UNL     1       9.102  55.033   0.152  1.00  0.00     0.030 A 
HETATM    9  C3  UNL     1       8.704  56.330  -0.014  1.00  0.00     0.015 A 
HETATM   10  C4  UNL     1       7.372  56.628   0.030  1.00  0.00    -0.017 A 
HETATM   11  C9  UNL     1       6.451  55.633   0.239  1.00  0.00     0.044 A 
BRANCH  10  12
HETATM   12  C5  UNL     1       6.953  58.038  -0.152  1.00  0.00     0.015 A 
HETATM   13  C6  UNL     1       7.696  59.081  -0.646  1.00  0.00     0.020 A 
HETATM   14  C7  UNL     1       7.101  60.276  -0.719  1.00  0.00     0.008 A 
HETATM   15  C8  UNL     1       5.804  60.366  -0.298  1.00  0.00     0.050 A 
HETATM   16  S1  UNL     1       5.452  58.770   0.189  1.00  0.00    -0.101 SA
ENDBRANCH  10  12
ENDBRANCH   1   5
BRANCH   3  17
HETATM   17  C12 UNL     1       4.455  51.622   1.816  1.00  0.00     0.032 A 
HETATM   18  C13 UNL     1       4.341  50.812   2.923  1.00  0.00     0.019 A 
HETATM   19  C14 UNL     1       3.449  49.755   2.938  1.00  0.00     0.037 A 
HETATM   20  C15 UNL     1       2.661  49.507   1.826  1.00  0.00     0.102 A 
HETATM   21  C16 UNL     1       2.766  50.299   0.726  1.00  0.00     0.037 A 
HETATM   22  C17 UNL     1       3.671  51.363   0.730  1.00  0.00     0.019 A 
BRANCH  20  23
HETATM   23  N3  UNL     1       1.743  48.429   1.821  1.00  0.00    -0.116 N 
HETATM   24  O2  UNL     1       2.039  47.324   1.370  1.00  0.00    -0.532 OA
HETATM   25  O3  UNL     1       0.461  48.600   2.333  1.00  0.00    -0.532 OA
ENDBRANCH  20  23
ENDBRANCH   3  17
TORSDOF 4
ENDMDL
MODEL 2
REMARK VINA RESULT: -8.902200102      2.294      3.480
REMARK  4 active torsions:
REMARK  status: ('A' for Active; 'I' for Inactive)
REMARK    1  A    between atoms: C4_5  and  C5_6 
REMARK    2  A    between atoms: C10_12  and  N2_13 
REMARK       I    between atoms: N2_13  and  C11_15 
REMARK    3  A    between atoms: C11_15  and  C12_17 
REMARK    4  A    between atoms: C15_20  and  N3_21 
ROOT
HETATM    1  N2  UNL     1       5.643  55.388   0.629  1.00  0.00    -0.321 N 
ATOM      2  H2  UNL     1       4.787  55.063   0.180  1.00  0.00     0.169 HD
HETATM    3  C11 UNL     1       6.269  54.472   1.470  1.00  0.00     0.256 C 
HETATM    4  O1  UNL     1       7.320  54.729   2.087  1.00  0.00    -0.267 OA
ENDROOT
BRANCH   1   5
HETATM    5  C10 UNL     1       6.035  56.705   0.316  1.00  0.00     0.060 A 
HETATM    6  C1  UNL     1       5.241  57.801   0.723  1.00  0.00     0.073 A 
HETATM    7  N1  UNL     1       4.047  57.557   1.447  1.00  0.00    -0.100 NA
HETATM    8  C2  UNL     1       5.572  59.103   0.447  1.00  0.00     0.030 A 
HETATM    9  C3  UNL     1       6.715  59.382  -0.250  1.00  0.00     0.015 A 
HETATM   10  C4  UNL     1       7.512  58.353  -0.662  1.00  0.00    -0.017 A 
HETATM   11  C9  UNL     1       7.164  57.057  -0.377  1.00  0.00     0.044 A 
BRANCH  10  12
HETATM   12  C5  UNL     1       8.748  58.669  -1.417  1.00  0.00     0.015 A 
HETATM   13  C6  UNL     1       9.126  59.878  -1.946  1.00  0.00     0.020 A 
HETATM   14  C7  UNL     1      10.296  59.924  -2.592  1.00  0.00     0.008 A 
HETATM   15  C8  UNL     1      11.022  58.769  -2.673  1.00  0.00     0.050 A 
HETATM   16  S1  UNL     1      10.044  57.647  -1.841  1.00  0.00    -0.101 SA
ENDBRANCH  10  12
ENDBRANCH   1   5
BRANCH   3  17
HETATM   17  C12 UNL     1       5.670  53.138   1.642  1.00  0.00     0.032 A 
HETATM   18  C13 UNL     1       5.105  52.511   0.554  1.00  0.00     0.019 A 
HETATM   19  C14 UNL     1       4.527  51.261   0.678  1.00  0.00     0.037 A 
HETATM   20  C15 UNL     1       4.515  50.630   1.912  1.00  0.00     0.102 A 
HETATM   21  C16 UNL     1       5.070  51.239   2.994  1.00  0.00     0.037 A 
HETATM   22  C17 UNL     1       5.650  52.502   2.849  1.00  0.00     0.019 A 
BRANCH  20  23
HETATM   23  N3  UNL     1       3.928  49.351   2.061  1.00  0.00    -0.116 N 
HETATM   24  O2  UNL     1       4.410  48.496   2.800  1.00  0.00    -0.532 OA
HETATM   25  O3  UNL     1       2.771  49.027   1.360  1.00  0.00    -0.532 OA
ENDBRANCH  20  23
ENDBRANCH   3  17
TORSDOF 4
ENDMDL
MODEL 3
REMARK VINA RESULT: -8.789980208      2.585      3.692
REMARK  4 active torsions:
REMARK  status: ('A' for Active; 'I' for Inactive)
REMARK    1  A    between atoms: C4_5  and  C5_6 
REMARK    2  A    between atoms: C10_12  and  N2_13 
REMARK       I    between atoms: N2_13  and  C11_15 
REMARK    3  A    between atoms: C11_15  and  C12_17 
REMARK    4  A    between atoms: C15_20  and  N3_21 
ROOT
HETATM    1  N2  UNL     1       6.091  55.749   0.298  1.00  0.00    -0.321 N 
ATOM      2  H2  UNL     1       5.329  55.393  -0.278  1.00  0.00     0.169 HD
HETATM    3  C11 UNL     1       6.544  54.892   1.297  1.00  0.00     0.256 C 
HETATM    4  O1  UNL     1       7.466  55.192   2.079  1.00  0.00    -0.267 OA
ENDROOT
BRANCH   1   5
HETATM    5  C10 UNL     1       6.545  57.045  -0.022  1.00  0.00     0.060 A 
HETATM    6  C1  UNL     1       5.811  58.180   0.391  1.00  0.00     0.073 A 
HETATM    7  N1  UNL     1       4.614  57.997   1.128  1.00  0.00    -0.100 NA
HETATM    8  C2  UNL     1       6.204  59.462   0.108  1.00  0.00     0.030 A 
HETATM    9  C3  UNL     1       7.352  59.683  -0.602  1.00  0.00     0.015 A 
HETATM   10  C4  UNL     1       8.091  58.614  -1.020  1.00  0.00    -0.017 A 
HETATM   11  C9  UNL     1       7.682  57.338  -0.728  1.00  0.00     0.044 A 
BRANCH  10  12
HETATM   12  C5  UNL     1       9.334  58.867  -1.788  1.00  0.00     0.015 A 
HETATM   13  C6  UNL     1       9.713  60.024  -2.421  1.00  0.00     0.020 A 
HETATM   14  C7  UNL     1      10.889  60.018  -3.056  1.00  0.00     0.008 A 
HETATM   15  C8  UNL     1      11.620  58.864  -3.027  1.00  0.00     0.050 A 
HETATM   16  S1  UNL     1      10.637  57.817  -2.106  1.00  0.00    -0.101 SA
ENDBRANCH  10  12
ENDBRANCH   1   5
BRANCH   3  17
HETATM   17  C12 UNL     1       5.912  53.570   1.443  1.00  0.00     0.032 A 
HETATM   18  C13 UNL     1       5.867  52.982   2.687  1.00  0.00     0.019 A 
HETATM   19  C14 UNL     1       5.288  51.739   2.862  1.00  0.00     0.037 A 
HETATM   20  C15 UNL     1       4.748  51.074   1.773  1.00  0.00     0.102 A 
HETATM   21  C16 UNL     1       4.788  51.643   0.539  1.00  0.00     0.037 A 
HETATM   22  C17 UNL     1       5.376  52.901   0.382  1.00  0.00     0.019 A 
BRANCH  20  23
HETATM   23  N3  UNL     1       4.151  49.799   1.930  1.00  0.00    -0.116 N 
HETATM   24  O2  UNL     1       4.554  48.992   2.765  1.00  0.00    -0.532 OA
HETATM   25  O3  UNL     1       3.079  49.426   1.129  1.00  0.00    -0.532 OA
ENDBRANCH  20  23
ENDBRANCH   3  17
TORSDOF 4
ENDMDL
MODEL 4
REMARK VINA RESULT: -8.727723288      1.663      2.440
REMARK  4 active torsions:
REMARK  status: ('A' for Active; 'I' for Inactive)
REMARK    1  A    between atoms: C4_5  and  C5_6 
REMARK    2  A    between atoms: C10_12  and  N2_13 
REMARK       I    between atoms: N2_13  and  C11_15 
REMARK    3  A    between atoms: C11_15  and  C12_17 
REMARK    4  A    between atoms: C15_20  and  N3_21 
ROOT
HETATM    1  N2  UNL     1       5.095  51.375   1.134  1.00  0.00    -0.321 N 
ATOM      2  H2  UNL     1       4.696  50.940   0.303  1.00  0.00     0.169 HD
HETATM    3  C11 UNL     1       4.740  50.796   2.350  1.00  0.00     0.256 C 
HETATM    4  O1  UNL     1       5.148  51.221   3.446  1.00  0.00    -0.267 OA
ENDROOT
BRANCH   1   5
HETATM    5  C10 UNL     1       5.933  52.484   0.900  1.00  0.00     0.060 A 
HETATM    6  C1  UNL     1       7.324  52.302   0.724  1.00  0.00     0.073 A 
HETATM    7  N1  UNL     1       7.862  50.992   0.786  1.00  0.00    -0.100 NA
HETATM    8  C2  UNL     1       8.186  53.343   0.494  1.00  0.00     0.030 A 
HETATM    9  C3  UNL     1       7.708  54.623   0.427  1.00  0.00     0.015 A 
HETATM   10  C4  UNL     1       6.371  54.843   0.592  1.00  0.00    -0.017 A 
HETATM   11  C9  UNL     1       5.523  53.790   0.821  1.00  0.00     0.044 A 
BRANCH  10  12
HETATM   12  C5  UNL     1       5.865  56.235   0.516  1.00  0.00     0.015 A 
HETATM   13  C6  UNL     1       6.326  57.257  -0.276  1.00  0.00     0.020 A 
HETATM   14  C7  UNL     1       5.708  58.437  -0.174  1.00  0.00     0.008 A 
HETATM   15  C8  UNL     1       4.669  58.535   0.709  1.00  0.00     0.050 A 
HETATM   16  S1  UNL     1       4.586  56.965   1.372  1.00  0.00    -0.101 SA
ENDBRANCH  10  12
ENDBRANCH   1   5
BRANCH   3  17
HETATM   17  C12 UNL     1       3.843  49.628   2.347  1.00  0.00     0.032 A 
HETATM   18  C13 UNL     1       2.698  49.664   1.584  1.00  0.00     0.019 A 
HETATM   19  C14 UNL     1       1.828  48.589   1.561  1.00  0.00     0.037 A 
HETATM   20  C15 UNL     1       2.110  47.463   2.316  1.00  0.00     0.102 A 
HETATM   21  C16 UNL     1       3.237  47.415   3.075  1.00  0.00     0.037 A 
HETATM   22  C17 UNL     1       4.105  48.510   3.084  1.00  0.00     0.019 A 
BRANCH  20  23
HETATM   23  N3  UNL     1       1.231  46.352   2.308  1.00  0.00    -0.116 N 
HETATM   24  O2  UNL     1       0.012  46.487   2.372  1.00  0.00    -0.532 OA
HETATM   25  O3  UNL     1       1.739  45.060   2.226  1.00  0.00    -0.532 OA
ENDBRANCH  20  23
ENDBRANCH   3  17
TORSDOF 4
ENDMDL
MODEL 5
REMARK VINA RESULT: -8.715207087      3.871      8.643
REMARK  4 active torsions:
REMARK  status: ('A' for Active; 'I' for Inactive)
REMARK    1  A    between atoms: C4_5  and  C5_6 
REMARK    2  A    between atoms: C10_12  and  N2_13 
REMARK       I    between atoms: N2_13  and  C11_15 
REMARK    3  A    between atoms: C11_15  and  C12_17 
REMARK    4  A    between atoms: C15_20  and  N3_21 
ROOT
HETATM    1  N2  UNL     1       5.843  54.035   1.779  1.00  0.00    -0.321 N 
ATOM      2  H2  UNL     1       5.737  54.676   2.565  1.00  0.00     0.169 HD
HETATM    3  C11 UNL     1       5.981  54.631   0.528  1.00  0.00     0.256 C 
HETATM    4  O1  UNL     1       6.117  53.977  -0.521  1.00  0.00    -0.267 OA
ENDROOT
BRANCH   1   5
HETATM    5  C10 UNL     1       5.830  52.664   2.103  1.00  0.00     0.060 A 
HETATM    6  C1  UNL     1       7.037  51.986   2.384  1.00  0.00     0.073 A 
HETATM    7  N1  UNL     1       8.259  52.703   2.335  1.00  0.00    -0.100 NA
HETATM    8  C2  UNL     1       7.084  50.653   2.705  1.00  0.00     0.030 A 
HETATM    9  C3  UNL     1       5.929  49.924   2.762  1.00  0.00     0.015 A 
HETATM   10  C4  UNL     1       4.740  50.540   2.498  1.00  0.00    -0.017 A 
HETATM   11  C9  UNL     1       4.712  51.874   2.179  1.00  0.00     0.044 A 
BRANCH  10  12
HETATM   12  C5  UNL     1       3.494  49.739   2.564  1.00  0.00     0.015 A 
HETATM   13  C6  UNL     1       2.654  49.401   1.532  1.00  0.00     0.020 A 
HETATM   14  C7  UNL     1       1.580  48.664   1.834  1.00  0.00     0.008 A 
HETATM   15  C8  UNL     1       1.403  48.306   3.141  1.00  0.00     0.050 A 
HETATM   16  S1  UNL     1       2.749  49.013   3.913  1.00  0.00    -0.101 SA
ENDBRANCH  10  12
ENDBRANCH   1   5
BRANCH   3  17
HETATM   17  C12 UNL     1       5.969  56.101   0.434  1.00  0.00     0.032 A 
HETATM   18  C13 UNL     1       4.978  56.806   1.080  1.00  0.00     0.019 A 
HETATM   19  C14 UNL     1       4.930  58.186   1.009  1.00  0.00     0.037 A 
HETATM   20  C15 UNL     1       5.889  58.869   0.279  1.00  0.00     0.102 A 
HETATM   21  C16 UNL     1       6.872  58.184  -0.365  1.00  0.00     0.037 A 
HETATM   22  C17 UNL     1       6.905  56.790  -0.280  1.00  0.00     0.019 A 
BRANCH  20  23
HETATM   23  N3  UNL     1       5.856  60.282   0.192  1.00  0.00    -0.116 N 
HETATM   24  O2  UNL     1       4.900  60.937   0.601  1.00  0.00    -0.532 OA
HETATM   25  O3  UNL     1       6.925  60.973  -0.368  1.00  0.00    -0.532 OA
ENDBRANCH  20  23
ENDBRANCH   3  17
TORSDOF 4
ENDMDL
