MODEL 1
REMARK VINA RESULT: -8.851251139      0.000      0.000
REMARK  7 active torsions:
REMARK  status: ('A' for Active; 'I' for Inactive)
REMARK    1  A    between atoms: C2_2  and  O1_5 
REMARK    2  A    between atoms: O1_5  and  C5_6 
REMARK       I    between atoms: C5_6  and  N1_8 
REMARK    3  A    between atoms: N1_8  and  C6_10 
REMARK    4  A    between atoms: C9_13  and  N2_14 
REMARK       I    between atoms: N2_14  and  C10_16 
REMARK    5  A    between atoms: C10_16  and  C11_18 
REMARK    6  A    between atoms: C18_25  and  N3_26 
REMARK    7  A    between atoms: N3_26  and  O4_28 
ROOT
HETATM    1  C6  UNL     1       4.654  50.504   2.124  1.00  0.00     0.065 A 
HETATM    2  C7  UNL     1       4.523  51.001   0.846  1.00  0.00     0.034 A 
HETATM    3  C8  UNL     1       4.924  52.283   0.510  1.00  0.00     0.032 A 
HETATM    4  C9  UNL     1       5.491  53.160   1.444  1.00  0.00     0.037 A 
HETATM    5  C17 UNL     1       5.619  52.664   2.705  1.00  0.00     0.063 A 
HETATM    6  C18 UNL     1       5.219  51.382   3.049  1.00  0.00     0.083 A 
ENDROOT
BRANCH   4   7
HETATM    7  N2  UNL     1       5.849  54.446   0.990  1.00  0.00    -0.323 N 
HETATM    8  C10 UNL     1       5.146  55.616   1.272  1.00  0.00     0.256 C 
HETATM    9  O3  UNL     1       4.083  55.685   1.983  1.00  0.00    -0.267 OA
ATOM     10  H2  UNL     1       6.685  54.526   0.411  1.00  0.00     0.169 HD
BRANCH   8  11
HETATM   11  C11 UNL     1       5.657  56.889   0.711  1.00  0.00     0.032 A 
HETATM   12  C12 UNL     1       4.908  58.036   0.858  1.00  0.00     0.017 A 
HETATM   13  C13 UNL     1       5.376  59.205   0.354  1.00  0.00     0.001 A 
HETATM   14  C14 UNL     1       6.583  59.302  -0.306  1.00  0.00     0.000 A 
HETATM   15  C15 UNL     1       7.327  58.155  -0.450  1.00  0.00     0.001 A 
HETATM   16  C16 UNL     1       6.862  56.939   0.062  1.00  0.00     0.017 A 
ENDBRANCH   8  11
ENDBRANCH   4   7
BRANCH   6  17
HETATM   17  N3  UNL     1       5.387  50.934   4.397  1.00  0.00    -0.267 N 
ATOM     18  H3  UNL     1       4.785  51.158   5.190  1.00  0.00     0.194 HD
BRANCH  17  19
HETATM   19  O4  UNL     1       6.492  50.156   4.422  1.00  0.00    -0.289 OA
ATOM     20  H4  UNL     1       7.236  50.732   4.560  1.00  0.00     0.244 HD
ENDBRANCH  17  19
ENDBRANCH   6  17
BRANCH   1  21
HETATM   21  N1  UNL     1       4.272  49.222   2.536  1.00  0.00    -0.300 N 
HETATM   22  C5  UNL     1       2.980  48.703   2.715  1.00  0.00     0.366 C 
HETATM   23  O2  UNL     1       1.918  49.311   2.533  1.00  0.00    -0.238 OA
ATOM     24  H1  UNL     1       5.037  48.577   2.734  1.00  0.00     0.171 HD
BRANCH  22  25
HETATM   25  O1  UNL     1       2.803  47.368   3.142  1.00  0.00    -0.294 OA
BRANCH  25  26
HETATM   26  C2  UNL     1       2.461  47.059   4.475  1.00  0.00     0.061 C 
HETATM   27  C1  UNL     1       0.972  46.794   4.523  1.00  0.00     0.046 C 
HETATM   28  C3  UNL     1       3.147  45.768   4.924  1.00  0.00     0.046 C 
HETATM   29  C4  UNL     1       2.749  48.188   5.433  1.00  0.00     0.046 C 
ENDBRANCH  25  26
ENDBRANCH  22  25
ENDBRANCH   1  21
TORSDOF 7
ENDMDL
MODEL 2
REMARK VINA RESULT: -8.847457245      0.154      1.252
REMARK  7 active torsions:
REMARK  status: ('A' for Active; 'I' for Inactive)
REMARK    1  A    between atoms: C2_2  and  O1_5 
REMARK    2  A    between atoms: O1_5  and  C5_6 
REMARK       I    between atoms: C5_6  and  N1_8 
REMARK    3  A    between atoms: N1_8  and  C6_10 
REMARK    4  A    between atoms: C9_13  and  N2_14 
REMARK       I    between atoms: N2_14  and  C10_16 
REMARK    5  A    between atoms: C10_16  and  C11_18 
REMARK    6  A    between atoms: C18_25  and  N3_26 
REMARK    7  A    between atoms: N3_26  and  O4_28 
ROOT
HETATM    1  C6  UNL     1       4.686  50.572   2.037  1.00  0.00     0.065 A 
HETATM    2  C7  UNL     1       4.577  51.097   0.768  1.00  0.00     0.034 A 
HETATM    3  C8  UNL     1       4.966  52.393   0.472  1.00  0.00     0.032 A 
HETATM    4  C9  UNL     1       5.494  53.257   1.440  1.00  0.00     0.037 A 
HETATM    5  C17 UNL     1       5.599  52.734   2.692  1.00  0.00     0.063 A 
HETATM    6  C18 UNL     1       5.212  51.438   2.996  1.00  0.00     0.083 A 
ENDROOT
BRANCH   4   7
HETATM    7  N2  UNL     1       5.841  54.559   1.025  1.00  0.00    -0.323 N 
HETATM    8  C10 UNL     1       5.080  55.702   1.263  1.00  0.00     0.256 C 
HETATM    9  O3  UNL     1       3.965  55.728   1.894  1.00  0.00    -0.267 OA
ATOM     10  H2  UNL     1       6.715  54.673   0.511  1.00  0.00     0.169 HD
BRANCH   8  11
HETATM   11  C11 UNL     1       5.587  56.997   0.753  1.00  0.00     0.032 A 
HETATM   12  C12 UNL     1       6.811  57.037   0.120  1.00  0.00     0.017 A 
HETATM   13  C13 UNL     1       7.274  58.220  -0.356  1.00  0.00     0.001 A 
HETATM   14  C14 UNL     1       6.569  59.399  -0.237  1.00  0.00     0.000 A 
HETATM   15  C15 UNL     1       5.350  59.355   0.395  1.00  0.00     0.001 A 
HETATM   16  C16 UNL     1       4.853  58.145   0.894  1.00  0.00     0.017 A 
ENDBRANCH   8  11
ENDBRANCH   4   7
BRANCH   6  17
HETATM   17  N3  UNL     1       5.355  50.960   4.337  1.00  0.00    -0.267 N 
ATOM     18  H3  UNL     1       4.755  51.191   5.129  1.00  0.00     0.194 HD
BRANCH  17  19
HETATM   19  O4  UNL     1       6.433  50.145   4.356  1.00  0.00    -0.289 OA
ATOM     20  H4  UNL     1       6.821  50.216   5.221  1.00  0.00     0.244 HD
ENDBRANCH  17  19
ENDBRANCH   6  17
BRANCH   1  21
HETATM   21  N1  UNL     1       4.316  49.275   2.410  1.00  0.00    -0.300 N 
HETATM   22  C5  UNL     1       3.033  48.764   2.665  1.00  0.00     0.366 C 
HETATM   23  O2  UNL     1       1.971  49.395   2.602  1.00  0.00    -0.238 OA
ATOM     24  H1  UNL     1       5.083  48.610   2.511  1.00  0.00     0.171 HD
BRANCH  22  25
HETATM   25  O1  UNL     1       2.868  47.410   3.033  1.00  0.00    -0.294 OA
BRANCH  25  26
HETATM   26  C2  UNL     1       2.497  47.041   4.343  1.00  0.00     0.061 C 
HETATM   27  C1  UNL     1       3.094  45.680   4.629  1.00  0.00     0.046 C 
HETATM   28  C3  UNL     1       3.097  48.003   5.368  1.00  0.00     0.046 C 
HETATM   29  C4  UNL     1       1.003  46.923   4.519  1.00  0.00     0.046 C 
ENDBRANCH  25  26
ENDBRANCH  22  25
ENDBRANCH   1  21
TORSDOF 7
ENDMDL
MODEL 3
REMARK VINA RESULT: -8.756184570      1.130      1.469
REMARK  7 active torsions:
REMARK  status: ('A' for Active; 'I' for Inactive)
REMARK    1  A    between atoms: C2_2  and  O1_5 
REMARK    2  A    between atoms: O1_5  and  C5_6 
REMARK       I    between atoms: C5_6  and  N1_8 
REMARK    3  A    between atoms: N1_8  and  C6_10 
REMARK    4  A    between atoms: C9_13  and  N2_14 
REMARK       I    between atoms: N2_14  and  C10_16 
REMARK    5  A    between atoms: C10_16  and  C11_18 
REMARK    6  A    between atoms: C18_25  and  N3_26 
REMARK    7  A    between atoms: N3_26  and  O4_28 
ROOT
HETATM    1  C6  UNL     1       4.140  50.084   2.747  1.00  0.00     0.065 A 
HETATM    2  C7  UNL     1       3.615  50.698   1.632  1.00  0.00     0.034 A 
HETATM    3  C8  UNL     1       4.082  51.921   1.177  1.00  0.00     0.032 A 
HETATM    4  C9  UNL     1       5.117  52.614   1.818  1.00  0.00     0.037 A 
HETATM    5  C17 UNL     1       5.632  52.003   2.919  1.00  0.00     0.063 A 
HETATM    6  C18 UNL     1       5.170  50.779   3.382  1.00  0.00     0.083 A 
ENDROOT
BRANCH   4   7
HETATM    7  N2  UNL     1       5.498  53.857   1.272  1.00  0.00    -0.323 N 
HETATM    8  C10 UNL     1       4.902  55.080   1.579  1.00  0.00     0.256 C 
HETATM    9  O3  UNL     1       3.931  55.242   2.399  1.00  0.00    -0.267 OA
ATOM     10  H2  UNL     1       6.267  53.862   0.602  1.00  0.00     0.169 HD
BRANCH   8  11
HETATM   11  C11 UNL     1       5.422  56.296   0.912  1.00  0.00     0.032 A 
HETATM   12  C12 UNL     1       4.741  57.485   1.056  1.00  0.00     0.017 A 
HETATM   13  C13 UNL     1       5.219  58.602   0.454  1.00  0.00     0.001 A 
HETATM   14  C14 UNL     1       6.371  58.605  -0.305  1.00  0.00     0.000 A 
HETATM   15  C15 UNL     1       7.047  57.418  -0.446  1.00  0.00     0.001 A 
HETATM   16  C16 UNL     1       6.571  56.253   0.167  1.00  0.00     0.017 A 
ENDBRANCH   8  11
ENDBRANCH   4   7
BRANCH   6  17
HETATM   17  N3  UNL     1       5.764  50.201   4.547  1.00  0.00    -0.267 N 
ATOM     18  H3  UNL     1       6.625  49.655   4.581  1.00  0.00     0.194 HD
BRANCH  17  19
HETATM   19  O4  UNL     1       4.969  50.514   5.595  1.00  0.00    -0.289 OA
ATOM     20  H4  UNL     1       5.161  51.413   5.833  1.00  0.00     0.244 HD
ENDBRANCH  17  19
ENDBRANCH   6  17
BRANCH   1  21
HETATM   21  N1  UNL     1       3.722  48.852   3.264  1.00  0.00    -0.300 N 
HETATM   22  C5  UNL     1       2.522  48.535   3.921  1.00  0.00     0.366 C 
HETATM   23  O2  UNL     1       1.595  49.317   4.165  1.00  0.00    -0.238 OA
ATOM     24  H1  UNL     1       4.378  48.081   3.148  1.00  0.00     0.171 HD
BRANCH  22  25
HETATM   25  O1  UNL     1       2.286  47.217   4.372  1.00  0.00    -0.294 OA
BRANCH  25  26
HETATM   26  C2  UNL     1       1.369  46.367   3.720  1.00  0.00     0.061 C 
HETATM   27  C1  UNL     1       1.758  44.938   4.032  1.00  0.00     0.046 C 
HETATM   28  C3  UNL     1      -0.042  46.564   4.275  1.00  0.00     0.046 C 
HETATM   29  C4  UNL     1       1.389  46.522   2.220  1.00  0.00     0.046 C 
ENDBRANCH  25  26
ENDBRANCH  22  25
ENDBRANCH   1  21
TORSDOF 7
ENDMDL
MODEL 4
REMARK VINA RESULT: -8.740225939      1.148      1.211
REMARK  7 active torsions:
REMARK  status: ('A' for Active; 'I' for Inactive)
REMARK    1  A    between atoms: C2_2  and  O1_5 
REMARK    2  A    between atoms: O1_5  and  C5_6 
REMARK       I    between atoms: C5_6  and  N1_8 
REMARK    3  A    between atoms: N1_8  and  C6_10 
REMARK    4  A    between atoms: C9_13  and  N2_14 
REMARK       I    between atoms: N2_14  and  C10_16 
REMARK    5  A    between atoms: C10_16  and  C11_18 
REMARK    6  A    between atoms: C18_25  and  N3_26 
REMARK    7  A    between atoms: N3_26  and  O4_28 
ROOT
HETATM    1  C6  UNL     1       4.340  50.476   2.359  1.00  0.00     0.065 A 
HETATM    2  C7  UNL     1       3.694  51.216   1.395  1.00  0.00     0.034 A 
HETATM    3  C8  UNL     1       3.977  52.556   1.183  1.00  0.00     0.032 A 
HETATM    4  C9  UNL     1       4.938  53.247   1.933  1.00  0.00     0.037 A 
HETATM    5  C17 UNL     1       5.574  52.510   2.884  1.00  0.00     0.063 A 
HETATM    6  C18 UNL     1       5.296  51.169   3.103  1.00  0.00     0.083 A 
ENDROOT
BRANCH   4   7
HETATM    7  N2  UNL     1       5.130  54.612   1.637  1.00  0.00    -0.323 N 
HETATM    8  C10 UNL     1       5.832  55.099   0.536  1.00  0.00     0.256 C 
HETATM    9  O3  UNL     1       6.396  54.375  -0.358  1.00  0.00    -0.267 OA
ATOM     10  H2  UNL     1       4.724  55.295   2.277  1.00  0.00     0.169 HD
BRANCH   8  11
HETATM   11  C11 UNL     1       5.944  56.567   0.373  1.00  0.00     0.032 A 
HETATM   12  C12 UNL     1       4.958  57.377   0.892  1.00  0.00     0.017 A 
HETATM   13  C13 UNL     1       5.061  58.723   0.753  1.00  0.00     0.001 A 
HETATM   14  C14 UNL     1       6.121  59.326   0.109  1.00  0.00     0.000 A 
HETATM   15  C15 UNL     1       7.102  58.514  -0.407  1.00  0.00     0.001 A 
HETATM   16  C16 UNL     1       7.014  57.123  -0.275  1.00  0.00     0.017 A 
ENDBRANCH   8  11
ENDBRANCH   4   7
BRANCH   6  17
HETATM   17  N3  UNL     1       6.008  50.463   4.122  1.00  0.00    -0.267 N 
ATOM     18  H3  UNL     1       6.930  50.037   4.033  1.00  0.00     0.194 HD
BRANCH  17  19
HETATM   19  O4  UNL     1       5.229  50.467   5.227  1.00  0.00    -0.289 OA
ATOM     20  H4  UNL     1       5.522  49.751   5.779  1.00  0.00     0.244 HD
ENDBRANCH  17  19
ENDBRANCH   6  17
BRANCH   1  21
HETATM   21  N1  UNL     1       4.109  49.122   2.630  1.00  0.00    -0.300 N 
HETATM   22  C5  UNL     1       2.934  48.504   3.087  1.00  0.00     0.366 C 
HETATM   23  O2  UNL     1       1.863  49.069   3.340  1.00  0.00    -0.238 OA
ATOM     24  H1  UNL     1       4.902  48.500   2.473  1.00  0.00     0.171 HD
BRANCH  22  25
HETATM   25  O1  UNL     1       2.903  47.108   3.301  1.00  0.00    -0.294 OA
BRANCH  25  26
HETATM   26  C2  UNL     1       3.534  46.517   4.415  1.00  0.00     0.061 C 
HETATM   27  C1  UNL     1       2.780  45.250   4.758  1.00  0.00     0.046 C 
HETATM   28  C3  UNL     1       4.961  46.093   4.068  1.00  0.00     0.046 C 
HETATM   29  C4  UNL     1       3.511  47.399   5.639  1.00  0.00     0.046 C 
ENDBRANCH  25  26
ENDBRANCH  22  25
ENDBRANCH   1  21
TORSDOF 7
ENDMDL
MODEL 5
REMARK VINA RESULT: -8.541935286      1.186      1.363
REMARK  7 active torsions:
REMARK  status: ('A' for Active; 'I' for Inactive)
REMARK    1  A    between atoms: C2_2  and  O1_5 
REMARK    2  A    between atoms: O1_5  and  C5_6 
REMARK       I    between atoms: C5_6  and  N1_8 
REMARK    3  A    between atoms: N1_8  and  C6_10 
REMARK    4  A    between atoms: C9_13  and  N2_14 
REMARK       I    between atoms: N2_14  and  C10_16 
REMARK    5  A    between atoms: C10_16  and  C11_18 
REMARK    6  A    between atoms: C18_25  and  N3_26 
REMARK    7  A    between atoms: N3_26  and  O4_28 
ROOT
HETATM    1  C6  UNL     1       4.470  50.107   2.407  1.00  0.00     0.065 A 
HETATM    2  C7  UNL     1       4.376  50.566   1.113  1.00  0.00     0.034 A 
HETATM    3  C8  UNL     1       4.789  51.838   0.750  1.00  0.00     0.032 A 
HETATM    4  C9  UNL     1       5.330  52.742   1.674  1.00  0.00     0.037 A 
HETATM    5  C17 UNL     1       5.421  52.283   2.952  1.00  0.00     0.063 A 
HETATM    6  C18 UNL     1       5.009  51.012   3.323  1.00  0.00     0.083 A 
ENDROOT
BRANCH   4   7
HETATM    7  N2  UNL     1       5.703  54.013   1.192  1.00  0.00    -0.323 N 
HETATM    8  C10 UNL     1       5.026  55.200   1.466  1.00  0.00     0.256 C 
HETATM    9  O3  UNL     1       3.975  55.300   2.193  1.00  0.00    -0.267 OA
ATOM     10  H2  UNL     1       6.531  54.069   0.599  1.00  0.00     0.169 HD
BRANCH   8  11
HETATM   11  C11 UNL     1       5.549  56.454   0.876  1.00  0.00     0.032 A 
HETATM   12  C12 UNL     1       4.854  57.629   1.069  1.00  0.00     0.017 A 
HETATM   13  C13 UNL     1       5.336  58.781   0.538  1.00  0.00     0.001 A 
HETATM   14  C14 UNL     1       6.503  58.833  -0.194  1.00  0.00     0.000 A 
HETATM   15  C15 UNL     1       7.192  57.660  -0.384  1.00  0.00     0.001 A 
HETATM   16  C16 UNL     1       6.713  56.460   0.155  1.00  0.00     0.017 A 
ENDBRANCH   8  11
ENDBRANCH   4   7
BRANCH   6  17
HETATM   17  N3  UNL     1       5.137  50.603   4.687  1.00  0.00    -0.267 N 
ATOM     18  H3  UNL     1       4.407  50.631   5.399  1.00  0.00     0.194 HD
BRANCH  17  19
HETATM   19  O4  UNL     1       6.408  50.173   4.856  1.00  0.00    -0.289 OA
ATOM     20  H4  UNL     1       6.360  49.301   5.229  1.00  0.00     0.244 HD
ENDBRANCH  17  19
ENDBRANCH   6  17
BRANCH   1  21
HETATM   21  N1  UNL     1       4.074  48.838   2.847  1.00  0.00    -0.300 N 
HETATM   22  C5  UNL     1       4.876  47.751   3.233  1.00  0.00     0.366 C 
HETATM   23  O2  UNL     1       6.112  47.727   3.251  1.00  0.00    -0.238 OA
ATOM     24  H1  UNL     1       3.068  48.682   2.892  1.00  0.00     0.171 HD
BRANCH  22  25
HETATM   25  O1  UNL     1       4.278  46.542   3.650  1.00  0.00    -0.294 OA
BRANCH  25  26
HETATM   26  C2  UNL     1       3.823  46.361   4.973  1.00  0.00     0.061 C 
HETATM   27  C1  UNL     1       2.831  45.218   4.971  1.00  0.00     0.046 C 
HETATM   28  C3  UNL     1       4.972  45.938   5.889  1.00  0.00     0.046 C 
HETATM   29  C4  UNL     1       3.111  47.574   5.519  1.00  0.00     0.046 C 
ENDBRANCH  25  26
ENDBRANCH  22  25
ENDBRANCH   1  21
TORSDOF 7
ENDMDL
