MODEL 1
REMARK VINA RESULT: -9.447164750      0.000      0.000
REMARK  4 active torsions:
REMARK  status: ('A' for Active; 'I' for Inactive)
REMARK    1  A    between atoms: C6_6  and  N1_7 
REMARK       I    between atoms: N1_7  and  C7_9 
REMARK    2  A    between atoms: C7_9  and  C8_11 
REMARK    3  A    between atoms: C10_14  and  C11_15 
REMARK    4  A    between atoms: C11_15  and  C12_17 
ROOT
HETATM    1  C8  UNL     1       8.053  53.965   1.127  1.00  0.00     0.081 A 
HETATM    2  C9  UNL     1       8.767  52.907   0.623  1.00  0.00     0.161 A 
HETATM    3  O2  UNL     1       8.215  51.779   1.041  1.00  0.00    -0.316 OA
HETATM    4  C10 UNL     1       7.177  52.018   1.794  1.00  0.00     0.150 A 
HETATM    5  C18 UNL     1       7.039  53.387   1.874  1.00  0.00     0.101 A 
HETATM    6  N2  UNL     1       6.062  54.116   2.576  1.00  0.00    -0.098 NA
ENDROOT
BRANCH   1   7
HETATM    7  C7  UNL     1       8.319  55.410   0.914  1.00  0.00     0.260 C 
HETATM    8  N1  UNL     1       7.431  56.119   0.092  1.00  0.00    -0.322 N 
ATOM      9  H1  UNL     1       6.659  55.583  -0.304  1.00  0.00     0.169 HD
HETATM   10  O1  UNL     1       9.308  55.934   1.469  1.00  0.00    -0.267 OA
BRANCH   8  11
HETATM   11  C6  UNL     1       7.480  57.490  -0.255  1.00  0.00     0.041 A 
HETATM   12  C5  UNL     1       8.476  58.077  -0.991  1.00  0.00     0.030 A 
HETATM   13  C4  UNL     1       8.465  59.436  -1.301  1.00  0.00     0.003 A 
HETATM   14  C3  UNL     1       7.452  60.246  -0.879  1.00  0.00     0.007 A 
HETATM   15  C2  UNL     1       6.447  59.685  -0.142  1.00  0.00    -0.054 A 
HETATM   16  C1  UNL     1       5.329  60.582   0.323  1.00  0.00     0.049 C 
HETATM   17  C19 UNL     1       6.456  58.358   0.161  1.00  0.00    -0.029 A 
HETATM   18  C20 UNL     1       5.333  57.803   0.971  1.00  0.00     0.051 C 
ENDBRANCH   8  11
ENDBRANCH   1   7
BRANCH   4  19
HETATM   19  C11 UNL     1       6.304  51.064   2.444  1.00  0.00     0.217 C 
HETATM   20  O3  UNL     1       6.642  50.507   3.551  1.00  0.00    -0.284 OA
BRANCH  19  21
HETATM   21  C12 UNL     1       5.004  50.649   1.938  1.00  0.00     0.017 A 
HETATM   22  C13 UNL     1       4.280  49.643   2.568  1.00  0.00     0.015 A 
HETATM   23  C14 UNL     1       3.055  49.209   2.147  1.00  0.00     0.001 A 
HETATM   24  C15 UNL     1       2.468  49.780   1.036  1.00  0.00     0.000 A 
HETATM   25  C16 UNL     1       3.151  50.782   0.378  1.00  0.00     0.001 A 
HETATM   26  C17 UNL     1       4.407  51.209   0.830  1.00  0.00     0.015 A 
ENDBRANCH  19  21
ENDBRANCH   4  19
TORSDOF 4
ENDMDL
MODEL 2
REMARK VINA RESULT: -9.427795943      1.482      2.000
REMARK  4 active torsions:
REMARK  status: ('A' for Active; 'I' for Inactive)
REMARK    1  A    between atoms: C6_6  and  N1_7 
REMARK       I    between atoms: N1_7  and  C7_9 
REMARK    2  A    between atoms: C7_9  and  C8_11 
REMARK    3  A    between atoms: C10_14  and  C11_15 
REMARK    4  A    between atoms: C11_15  and  C12_17 
ROOT
HETATM    1  C8  UNL     1       6.823  53.661   0.866  1.00  0.00     0.081 A 
HETATM    2  C9  UNL     1       7.539  52.530   0.563  1.00  0.00     0.161 A 
HETATM    3  O2  UNL     1       6.746  51.477   0.678  1.00  0.00    -0.316 OA
HETATM    4  C10 UNL     1       5.544  51.833   1.040  1.00  0.00     0.150 A 
HETATM    5  C18 UNL     1       5.550  53.206   1.170  1.00  0.00     0.101 A 
HETATM    6  N2  UNL     1       4.481  54.042   1.542  1.00  0.00    -0.098 NA
ENDROOT
BRANCH   1   7
HETATM    7  C7  UNL     1       7.315  55.061   0.867  1.00  0.00     0.260 C 
HETATM    8  N1  UNL     1       6.827  55.922  -0.127  1.00  0.00    -0.322 N 
ATOM      9  H1  UNL     1       6.162  55.517  -0.785  1.00  0.00     0.169 HD
HETATM   10  O1  UNL     1       8.134  55.417   1.742  1.00  0.00    -0.267 OA
BRANCH   8  11
HETATM   11  C6  UNL     1       7.149  57.285  -0.325  1.00  0.00     0.041 A 
HETATM   12  C5  UNL     1       8.334  57.744  -0.839  1.00  0.00     0.030 A 
HETATM   13  C4  UNL     1       8.590  59.103  -1.012  1.00  0.00     0.003 A 
HETATM   14  C3  UNL     1       7.661  60.043  -0.672  1.00  0.00     0.007 A 
HETATM   15  C2  UNL     1       6.472  59.611  -0.156  1.00  0.00    -0.054 A 
HETATM   16  C1  UNL     1       5.447  60.652   0.219  1.00  0.00     0.049 C 
HETATM   17  C19 UNL     1       6.220  58.284   0.013  1.00  0.00    -0.029 A 
HETATM   18  C20 UNL     1       4.905  57.873   0.583  1.00  0.00     0.051 C 
ENDBRANCH   8  11
ENDBRANCH   1   7
BRANCH   4  19
HETATM   19  C11 UNL     1       4.392  50.990   1.274  1.00  0.00     0.217 C 
HETATM   20  O3  UNL     1       3.476  50.862   0.384  1.00  0.00    -0.284 OA
BRANCH  19  21
HETATM   21  C12 UNL     1       4.155  50.227   2.490  1.00  0.00     0.017 A 
HETATM   22  C13 UNL     1       2.897  49.707   2.774  1.00  0.00     0.015 A 
HETATM   23  C14 UNL     1       2.609  48.980   3.895  1.00  0.00     0.001 A 
HETATM   24  C15 UNL     1       3.599  48.725   4.822  1.00  0.00     0.000 A 
HETATM   25  C16 UNL     1       4.863  49.222   4.583  1.00  0.00     0.001 A 
HETATM   26  C17 UNL     1       5.133  49.965   3.425  1.00  0.00     0.015 A 
ENDBRANCH  19  21
ENDBRANCH   4  19
TORSDOF 4
ENDMDL
MODEL 3
REMARK VINA RESULT: -9.385941800      1.279      8.057
REMARK  4 active torsions:
REMARK  status: ('A' for Active; 'I' for Inactive)
REMARK    1  A    between atoms: C6_6  and  N1_7 
REMARK       I    between atoms: N1_7  and  C7_9 
REMARK    2  A    between atoms: C7_9  and  C8_11 
REMARK    3  A    between atoms: C10_14  and  C11_15 
REMARK    4  A    between atoms: C11_15  and  C12_17 
ROOT
HETATM    1  C8  UNL     1       7.357  53.625   0.860  1.00  0.00     0.081 A 
HETATM    2  C9  UNL     1       8.426  54.004   1.632  1.00  0.00     0.161 A 
HETATM    3  O2  UNL     1       8.829  55.204   1.247  1.00  0.00    -0.316 OA
HETATM    4  C10 UNL     1       8.096  55.651   0.265  1.00  0.00     0.150 A 
HETATM    5  C18 UNL     1       7.153  54.683  -0.011  1.00  0.00     0.101 A 
HETATM    6  N2  UNL     1       6.144  54.716  -0.991  1.00  0.00    -0.098 NA
ENDROOT
BRANCH   1   7
HETATM    7  C7  UNL     1       6.593  52.355   0.946  1.00  0.00     0.260 C 
HETATM    8  N1  UNL     1       5.269  52.423   1.403  1.00  0.00    -0.322 N 
ATOM      9  H1  UNL     1       4.924  53.352   1.645  1.00  0.00     0.169 HD
HETATM   10  O1  UNL     1       7.150  51.287   0.612  1.00  0.00    -0.267 OA
BRANCH   8  11
HETATM   11  C6  UNL     1       4.355  51.357   1.568  1.00  0.00     0.041 A 
HETATM   12  C5  UNL     1       3.396  50.998   0.656  1.00  0.00     0.030 A 
HETATM   13  C4  UNL     1       2.525  49.933   0.877  1.00  0.00     0.003 A 
HETATM   14  C3  UNL     1       2.589  49.197   2.024  1.00  0.00     0.007 A 
HETATM   15  C2  UNL     1       3.535  49.535   2.950  1.00  0.00    -0.054 A 
HETATM   16  C1  UNL     1       3.605  48.720   4.216  1.00  0.00     0.049 C 
HETATM   17  C19 UNL     1       4.388  50.575   2.735  1.00  0.00    -0.029 A 
HETATM   18  C20 UNL     1       5.398  50.898   3.783  1.00  0.00     0.051 C 
ENDBRANCH   8  11
ENDBRANCH   1   7
BRANCH   4  19
HETATM   19  C11 UNL     1       8.209  56.911  -0.436  1.00  0.00     0.217 C 
HETATM   20  O3  UNL     1       9.132  57.102  -1.308  1.00  0.00    -0.284 OA
BRANCH  19  21
HETATM   21  C12 UNL     1       7.328  58.053  -0.239  1.00  0.00     0.017 A 
HETATM   22  C13 UNL     1       7.695  59.323  -0.671  1.00  0.00     0.015 A 
HETATM   23  C14 UNL     1       6.914  60.434  -0.520  1.00  0.00     0.001 A 
HETATM   24  C15 UNL     1       5.681  60.329   0.091  1.00  0.00     0.000 A 
HETATM   25  C16 UNL     1       5.274  59.088   0.535  1.00  0.00     0.001 A 
HETATM   26  C17 UNL     1       6.094  57.964   0.369  1.00  0.00     0.015 A 
ENDBRANCH  19  21
ENDBRANCH   4  19
TORSDOF 4
ENDMDL
MODEL 4
REMARK VINA RESULT: -9.159502457      3.583      9.928
REMARK  4 active torsions:
REMARK  status: ('A' for Active; 'I' for Inactive)
REMARK    1  A    between atoms: C6_6  and  N1_7 
REMARK       I    between atoms: N1_7  and  C7_9 
REMARK    2  A    between atoms: C7_9  and  C8_11 
REMARK    3  A    between atoms: C10_14  and  C11_15 
REMARK    4  A    between atoms: C11_15  and  C12_17 
ROOT
HETATM    1  C8  UNL     1       3.109  50.141   1.710  1.00  0.00     0.081 A 
HETATM    2  C9  UNL     1       2.778  50.501   0.428  1.00  0.00     0.161 A 
HETATM    3  O2  UNL     1       3.699  51.331  -0.036  1.00  0.00    -0.316 OA
HETATM    4  C10 UNL     1       4.625  51.547   0.857  1.00  0.00     0.150 A 
HETATM    5  C18 UNL     1       4.291  50.814   1.976  1.00  0.00     0.101 A 
HETATM    6  N2  UNL     1       4.990  50.730   3.193  1.00  0.00    -0.098 NA
ENDROOT
BRANCH   1   7
HETATM    7  C7  UNL     1       2.358  49.228   2.608  1.00  0.00     0.260 C 
HETATM    8  N1  UNL     1       1.926  48.004   2.076  1.00  0.00    -0.322 N 
ATOM      9  H1  UNL     1       2.163  47.829   1.100  1.00  0.00     0.169 HD
HETATM   10  O1  UNL     1       2.142  49.578   3.788  1.00  0.00    -0.267 OA
BRANCH   8  11
HETATM   11  C6  UNL     1       1.200  46.983   2.733  1.00  0.00     0.041 A 
HETATM   12  C5  UNL     1       1.757  45.866   3.300  1.00  0.00     0.030 A 
HETATM   13  C4  UNL     1       0.986  44.895   3.936  1.00  0.00     0.003 A 
HETATM   14  C3  UNL     1      -0.370  45.018   4.022  1.00  0.00     0.007 A 
HETATM   15  C2  UNL     1      -0.950  46.122   3.464  1.00  0.00    -0.054 A 
HETATM   16  C1  UNL     1      -2.449  46.256   3.560  1.00  0.00     0.049 C 
HETATM   17  C19 UNL     1      -0.198  47.072   2.842  1.00  0.00    -0.029 A 
HETATM   18  C20 UNL     1      -0.887  48.254   2.251  1.00  0.00     0.051 C 
ENDBRANCH   8  11
ENDBRANCH   1   7
BRANCH   4  19
HETATM   19  C11 UNL     1       5.798  52.387   0.745  1.00  0.00     0.217 C 
HETATM   20  O3  UNL     1       6.969  51.874   0.631  1.00  0.00    -0.284 OA
BRANCH  19  21
HETATM   21  C12 UNL     1       5.781  53.843   0.750  1.00  0.00     0.017 A 
HETATM   22  C13 UNL     1       6.428  54.569  -0.243  1.00  0.00     0.015 A 
HETATM   23  C14 UNL     1       6.447  55.934  -0.299  1.00  0.00     0.001 A 
HETATM   24  C15 UNL     1       5.796  56.670   0.670  1.00  0.00     0.000 A 
HETATM   25  C16 UNL     1       5.139  55.992   1.676  1.00  0.00     0.001 A 
HETATM   26  C17 UNL     1       5.135  54.591   1.710  1.00  0.00     0.015 A 
ENDBRANCH  19  21
ENDBRANCH   4  19
TORSDOF 4
ENDMDL
MODEL 5
REMARK VINA RESULT: -9.070913699      1.239      8.004
REMARK  4 active torsions:
REMARK  status: ('A' for Active; 'I' for Inactive)
REMARK    1  A    between atoms: C6_6  and  N1_7 
REMARK       I    between atoms: N1_7  and  C7_9 
REMARK    2  A    between atoms: C7_9  and  C8_11 
REMARK    3  A    between atoms: C10_14  and  C11_15 
REMARK    4  A    between atoms: C11_15  and  C12_17 
ROOT
HETATM    1  C8  UNL     1       7.758  53.712   1.052  1.00  0.00     0.081 A 
HETATM    2  C9  UNL     1       8.865  54.219   1.687  1.00  0.00     0.161 A 
HETATM    3  O2  UNL     1       9.141  55.411   1.183  1.00  0.00    -0.316 OA
HETATM    4  C10 UNL     1       8.287  55.732   0.250  1.00  0.00     0.150 A 
HETATM    5  C18 UNL     1       7.396  54.686   0.136  1.00  0.00     0.101 A 
HETATM    6  N2  UNL     1       6.299  54.579  -0.739  1.00  0.00    -0.098 NA
ENDROOT
BRANCH   1   7
HETATM    7  C7  UNL     1       7.102  52.405   1.301  1.00  0.00     0.260 C 
HETATM    8  N1  UNL     1       6.116  52.352   2.297  1.00  0.00    -0.322 N 
ATOM      9  H1  UNL     1       5.921  53.227   2.784  1.00  0.00     0.169 HD
HETATM   10  O1  UNL     1       7.445  51.413   0.622  1.00  0.00    -0.267 OA
BRANCH   8  11
HETATM   11  C6  UNL     1       5.360  51.229   2.708  1.00  0.00     0.041 A 
HETATM   12  C5  UNL     1       5.606  50.489   3.836  1.00  0.00     0.030 A 
HETATM   13  C4  UNL     1       4.822  49.392   4.188  1.00  0.00     0.003 A 
HETATM   14  C3  UNL     1       3.766  49.005   3.416  1.00  0.00     0.007 A 
HETATM   15  C2  UNL     1       3.500  49.725   2.286  1.00  0.00    -0.054 A 
HETATM   16  C1  UNL     1       2.333  49.296   1.434  1.00  0.00     0.049 C 
HETATM   17  C19 UNL     1       4.265  50.797   1.940  1.00  0.00    -0.029 A 
HETATM   18  C20 UNL     1       3.928  51.544   0.694  1.00  0.00     0.051 C 
ENDBRANCH   8  11
ENDBRANCH   1   7
BRANCH   4  19
HETATM   19  C11 UNL     1       8.241  56.942  -0.543  1.00  0.00     0.217 C 
HETATM   20  O3  UNL     1       9.032  57.108  -1.541  1.00  0.00    -0.284 OA
BRANCH  19  21
HETATM   21  C12 UNL     1       7.333  58.055  -0.309  1.00  0.00     0.017 A 
HETATM   22  C13 UNL     1       7.675  59.349  -0.683  1.00  0.00     0.015 A 
HETATM   23  C14 UNL     1       6.868  60.435  -0.495  1.00  0.00     0.001 A 
HETATM   24  C15 UNL     1       5.632  60.278   0.097  1.00  0.00     0.000 A 
HETATM   25  C16 UNL     1       5.249  59.011   0.486  1.00  0.00     0.001 A 
HETATM   26  C17 UNL     1       6.095  57.913   0.282  1.00  0.00     0.015 A 
ENDBRANCH  19  21
ENDBRANCH   4  19
TORSDOF 4
ENDMDL
