MODEL 1
REMARK VINA RESULT: -7.214354616      0.000      0.000
REMARK  6 active torsions:
REMARK  status: ('A' for Active; 'I' for Inactive)
REMARK    1  A    between atoms: O1_2  and  C2_3 
REMARK    2  A    between atoms: C2_3  and  C3_4 
REMARK    3  A    between atoms: C5_6  and  O2_8 
REMARK    4  A    between atoms: C8_11  and  N1_12 
REMARK    5  A    between atoms: C10_16  and  O5_17 
REMARK    6  A    between atoms: C12_19  and  O6_20 
ROOT
HETATM    1  C3  UNL     1      17.078   5.115  12.242  1.00  0.00     0.111 C 
HETATM    2  C4  UNL     1      16.334   4.885  13.486  1.00  0.00     0.070 C 
HETATM    3  C5  UNL     1      16.841   3.765  14.377  1.00  0.00     0.088 C 
HETATM    4  C6  UNL     1      18.011   4.167  15.191  1.00  0.00     0.051 C 
HETATM    5  C7  UNL     1      17.010   2.510  13.621  1.00  0.00     0.038 A 
HETATM    6  C8  UNL     1      16.795   1.263  14.165  1.00  0.00     0.117 A 
HETATM    7  C9  UNL     1      16.903   0.126  13.314  1.00  0.00     0.076 A 
HETATM    8  C10 UNL     1      17.216   0.279  11.997  1.00  0.00     0.106 A 
HETATM    9  C12 UNL     1      17.430   1.543  11.486  1.00  0.00     0.126 A 
HETATM   10  C13 UNL     1      17.337   2.676  12.268  1.00  0.00     0.078 A 
HETATM   11  N2  UNL     1      17.629   3.923  11.656  1.00  0.00    -0.375 N 
HETATM   12  C14 UNL     1      18.467   4.019  10.470  1.00  0.00     0.150 C 
ENDROOT
BRANCH   1  13
HETATM   13  C2  UNL     1      16.178   5.868  11.280  1.00  0.00     0.192 C 
BRANCH  13  14
HETATM   14  O1  UNL     1      15.113   6.503  11.902  1.00  0.00    -0.394 OA
HETATM   15  C1  UNL     1      15.170   7.845  11.459  1.00  0.00     0.201 C 
ENDBRANCH  13  14
ENDBRANCH   1  13
BRANCH   3  16
HETATM   16  O2  UNL     1      15.734   3.566  15.252  1.00  0.00    -0.385 OA
ATOM     17  H2  UNL     1      15.032   3.995  14.777  1.00  0.00     0.211 HD
ENDBRANCH   3  16
BRANCH   9  18
HETATM   18  O6  UNL     1      17.744   1.630  10.151  1.00  0.00    -0.356 OA
ATOM     19  H6  UNL     1      18.580   1.271   9.881  1.00  0.00     0.218 HD
ENDBRANCH   9  18
BRANCH   6  20
HETATM   20  N1  UNL     1      16.497   1.019  15.511  1.00  0.00    -0.115 N 
HETATM   21  O3  UNL     1      17.494   0.987  16.305  1.00  0.00    -0.532 OA
HETATM   22  O4  UNL     1      15.296   0.814  16.060  1.00  0.00    -0.532 OA
ENDBRANCH   6  20
BRANCH   8  23
HETATM   23  O5  UNL     1      17.307  -0.863  11.213  1.00  0.00    -0.353 OA
HETATM   24  C11 UNL     1      18.257  -1.863  11.382  1.00  0.00     0.210 C 
ENDBRANCH   8  23
TORSDOF 6
ENDMDL
MODEL 2
REMARK VINA RESULT: -7.159785720      0.862      1.089
REMARK  6 active torsions:
REMARK  status: ('A' for Active; 'I' for Inactive)
REMARK    1  A    between atoms: O1_2  and  C2_3 
REMARK    2  A    between atoms: C2_3  and  C3_4 
REMARK    3  A    between atoms: C5_6  and  O2_8 
REMARK    4  A    between atoms: C8_11  and  N1_12 
REMARK    5  A    between atoms: C10_16  and  O5_17 
REMARK    6  A    between atoms: C12_19  and  O6_20 
ROOT
HETATM    1  C3  UNL     1      16.521   5.831  12.375  1.00  0.00     0.111 C 
HETATM    2  C4  UNL     1      15.978   5.458  13.686  1.00  0.00     0.070 C 
HETATM    3  C5  UNL     1      16.679   4.320  14.407  1.00  0.00     0.088 C 
HETATM    4  C6  UNL     1      17.924   4.754  15.084  1.00  0.00     0.051 C 
HETATM    5  C7  UNL     1      16.824   3.137  13.538  1.00  0.00     0.038 A 
HETATM    6  C8  UNL     1      16.771   1.843  14.004  1.00  0.00     0.117 A 
HETATM    7  C9  UNL     1      16.833   0.780  13.059  1.00  0.00     0.076 A 
HETATM    8  C10 UNL     1      16.946   1.049  11.727  1.00  0.00     0.106 A 
HETATM    9  C12 UNL     1      17.000   2.357  11.295  1.00  0.00     0.126 A 
HETATM   10  C13 UNL     1      16.944   3.422  12.171  1.00  0.00     0.078 A 
HETATM   11  N2  UNL     1      17.062   4.728  11.626  1.00  0.00    -0.375 N 
HETATM   12  C14 UNL     1      17.715   4.971  10.348  1.00  0.00     0.150 C 
ENDROOT
BRANCH   1  13
HETATM   13  C2  UNL     1      15.446   6.577  11.607  1.00  0.00     0.192 C 
BRANCH  13  14
HETATM   14  O1  UNL     1      14.350   6.919  12.386  1.00  0.00    -0.394 OA
HETATM   15  C1  UNL     1      13.782   8.049  11.753  1.00  0.00     0.201 C 
ENDBRANCH  13  14
ENDBRANCH   1  13
BRANCH   3  16
HETATM   16  O2  UNL     1      15.723   3.975  15.406  1.00  0.00    -0.385 OA
ATOM     17  H2  UNL     1      15.115   3.437  14.914  1.00  0.00     0.211 HD
ENDBRANCH   3  16
BRANCH   9  18
HETATM   18  O6  UNL     1      17.115   2.561   9.941  1.00  0.00    -0.356 OA
ATOM     19  H6  UNL     1      16.486   3.150   9.539  1.00  0.00     0.218 HD
ENDBRANCH   9  18
BRANCH   6  20
HETATM   20  N1  UNL     1      16.684   1.484  15.355  1.00  0.00    -0.115 N 
HETATM   21  O3  UNL     1      15.570   0.989  15.729  1.00  0.00    -0.532 OA
HETATM   22  O4  UNL     1      17.624   1.602  16.296  1.00  0.00    -0.532 OA
ENDBRANCH   6  20
BRANCH   8  23
HETATM   23  O5  UNL     1      17.000  -0.026  10.850  1.00  0.00    -0.353 OA
HETATM   24  C11 UNL     1      17.908  -1.075  10.941  1.00  0.00     0.210 C 
ENDBRANCH   8  23
TORSDOF 6
ENDMDL
MODEL 3
REMARK VINA RESULT: -6.693498350      1.244      1.340
REMARK  6 active torsions:
REMARK  status: ('A' for Active; 'I' for Inactive)
REMARK    1  A    between atoms: O1_2  and  C2_3 
REMARK    2  A    between atoms: C2_3  and  C3_4 
REMARK    3  A    between atoms: C5_6  and  O2_8 
REMARK    4  A    between atoms: C8_11  and  N1_12 
REMARK    5  A    between atoms: C10_16  and  O5_17 
REMARK    6  A    between atoms: C12_19  and  O6_20 
ROOT
HETATM    1  C3  UNL     1      16.958   6.128  11.851  1.00  0.00     0.111 C 
HETATM    2  C4  UNL     1      16.459   6.083  13.230  1.00  0.00     0.070 C 
HETATM    3  C5  UNL     1      17.047   5.006  14.125  1.00  0.00     0.088 C 
HETATM    4  C6  UNL     1      18.382   5.370  14.655  1.00  0.00     0.051 C 
HETATM    5  C7  UNL     1      16.970   3.677  13.491  1.00  0.00     0.038 A 
HETATM    6  C8  UNL     1      16.774   2.511  14.197  1.00  0.00     0.117 A 
HETATM    7  C9  UNL     1      16.627   1.296  13.469  1.00  0.00     0.076 A 
HETATM    8  C10 UNL     1      16.685   1.298  12.107  1.00  0.00     0.106 A 
HETATM    9  C12 UNL     1      16.887   2.484  11.432  1.00  0.00     0.126 A 
HETATM   10  C13 UNL     1      17.035   3.687  12.091  1.00  0.00     0.078 A 
HETATM   11  N2  UNL     1      17.291   4.840  11.303  1.00  0.00    -0.375 N 
HETATM   12  C14 UNL     1      17.884   4.748   9.977  1.00  0.00     0.150 C 
ENDROOT
BRANCH   1  13
HETATM   13  C2  UNL     1      15.944   6.871  11.000  1.00  0.00     0.192 C 
BRANCH  13  14
HETATM   14  O1  UNL     1      15.061   6.032  10.336  1.00  0.00    -0.394 OA
HETATM   15  C1  UNL     1      14.376   6.863   9.419  1.00  0.00     0.201 C 
ENDBRANCH  13  14
ENDBRANCH   1  13
BRANCH   3  16
HETATM   16  O2  UNL     1      16.123   4.993  15.209  1.00  0.00    -0.385 OA
ATOM     17  H2  UNL     1      15.871   4.077  15.238  1.00  0.00     0.211 HD
ENDBRANCH   3  16
BRANCH   9  18
HETATM   18  O6  UNL     1      16.936   2.419  10.060  1.00  0.00    -0.356 OA
ATOM     19  H6  UNL     1      16.107   2.457   9.597  1.00  0.00     0.218 HD
ENDBRANCH   9  18
BRANCH   6  20
HETATM   20  N1  UNL     1      16.731   2.421  15.594  1.00  0.00    -0.115 N 
HETATM   21  O3  UNL     1      17.830   2.120  16.166  1.00  0.00    -0.532 OA
HETATM   22  O4  UNL     1      15.678   2.608  16.394  1.00  0.00    -0.532 OA
ENDBRANCH   6  20
BRANCH   8  23
HETATM   23  O5  UNL     1      16.534   0.086  11.449  1.00  0.00    -0.353 OA
HETATM   24  C11 UNL     1      17.463  -0.948  11.473  1.00  0.00     0.210 C 
ENDBRANCH   8  23
TORSDOF 6
ENDMDL
MODEL 4
REMARK VINA RESULT: -6.519260048      2.364      4.118
REMARK  6 active torsions:
REMARK  status: ('A' for Active; 'I' for Inactive)
REMARK    1  A    between atoms: O1_2  and  C2_3 
REMARK    2  A    between atoms: C2_3  and  C3_4 
REMARK    3  A    between atoms: C5_6  and  O2_8 
REMARK    4  A    between atoms: C8_11  and  N1_12 
REMARK    5  A    between atoms: C10_16  and  O5_17 
REMARK    6  A    between atoms: C12_19  and  O6_20 
ROOT
HETATM    1  C3  UNL     1      16.901   4.122  13.475  1.00  0.00     0.111 C 
HETATM    2  C4  UNL     1      16.115   3.067  12.825  1.00  0.00     0.070 C 
HETATM    3  C5  UNL     1      16.842   1.763  12.543  1.00  0.00     0.088 C 
HETATM    4  C6  UNL     1      16.949   0.898  13.741  1.00  0.00     0.051 C 
HETATM    5  C7  UNL     1      18.110   1.996  11.828  1.00  0.00     0.038 A 
HETATM    6  C8  UNL     1      18.624   1.125  10.893  1.00  0.00     0.117 A 
HETATM    7  C9  UNL     1      19.811   1.498  10.202  1.00  0.00     0.076 A 
HETATM    8  C10 UNL     1      20.419   2.689  10.469  1.00  0.00     0.106 A 
HETATM    9  C12 UNL     1      19.879   3.536  11.415  1.00  0.00     0.126 A 
HETATM   10  C13 UNL     1      18.731   3.221  12.112  1.00  0.00     0.078 A 
HETATM   11  N2  UNL     1      18.290   4.138  13.101  1.00  0.00    -0.375 N 
HETATM   12  C14 UNL     1      19.201   5.075  13.741  1.00  0.00     0.150 C 
ENDROOT
BRANCH   1  13
HETATM   13  C2  UNL     1      16.218   5.453  13.216  1.00  0.00     0.192 C 
BRANCH  13  14
HETATM   14  O1  UNL     1      14.930   5.520  13.725  1.00  0.00    -0.394 OA
HETATM   15  C1  UNL     1      15.079   5.446  15.129  1.00  0.00     0.201 C 
ENDBRANCH  13  14
ENDBRANCH   1  13
BRANCH   3  16
HETATM   16  O2  UNL     1      15.962   1.135  11.614  1.00  0.00    -0.385 OA
ATOM     17  H2  UNL     1      16.532   0.490  11.213  1.00  0.00     0.211 HD
ENDBRANCH   3  16
BRANCH   9  18
HETATM   18  O6  UNL     1      20.538   4.720  11.639  1.00  0.00    -0.356 OA
ATOM     19  H6  UNL     1      21.486   4.704  11.577  1.00  0.00     0.218 HD
ENDBRANCH   9  18
BRANCH   6  20
HETATM   20  N1  UNL     1      18.077  -0.126  10.581  1.00  0.00    -0.115 N 
HETATM   21  O3  UNL     1      17.414  -0.188   9.494  1.00  0.00    -0.532 OA
HETATM   22  O4  UNL     1      18.164  -1.256  11.287  1.00  0.00    -0.532 OA
ENDBRANCH   6  20
BRANCH   8  23
HETATM   23  O5  UNL     1      21.573   3.003   9.765  1.00  0.00    -0.353 OA
HETATM   24  C11 UNL     1      21.595   3.511   8.471  1.00  0.00     0.210 C 
ENDBRANCH   8  23
TORSDOF 6
ENDMDL
MODEL 5
REMARK VINA RESULT: -6.434486993      1.885      2.653
REMARK  6 active torsions:
REMARK  status: ('A' for Active; 'I' for Inactive)
REMARK    1  A    between atoms: O1_2  and  C2_3 
REMARK    2  A    between atoms: C2_3  and  C3_4 
REMARK    3  A    between atoms: C5_6  and  O2_8 
REMARK    4  A    between atoms: C8_11  and  N1_12 
REMARK    5  A    between atoms: C10_16  and  O5_17 
REMARK    6  A    between atoms: C12_19  and  O6_20 
ROOT
HETATM    1  C3  UNL     1      19.276   4.716  10.133  1.00  0.00     0.111 C 
HETATM    2  C4  UNL     1      18.261   5.294  11.022  1.00  0.00     0.070 C 
HETATM    3  C5  UNL     1      18.068   4.606  12.362  1.00  0.00     0.088 C 
HETATM    4  C6  UNL     1      19.102   4.985  13.353  1.00  0.00     0.051 C 
HETATM    5  C7  UNL     1      17.865   3.154  12.199  1.00  0.00     0.038 A 
HETATM    6  C8  UNL     1      17.051   2.406  13.020  1.00  0.00     0.117 A 
HETATM    7  C9  UNL     1      16.862   1.030  12.712  1.00  0.00     0.076 A 
HETATM    8  C10 UNL     1      17.479   0.474  11.630  1.00  0.00     0.106 A 
HETATM    9  C12 UNL     1      18.290   1.252  10.832  1.00  0.00     0.126 A 
HETATM   10  C13 UNL     1      18.506   2.591  11.087  1.00  0.00     0.078 A 
HETATM   11  N2  UNL     1      19.402   3.287  10.234  1.00  0.00    -0.375 N 
HETATM   12  C14 UNL     1      20.434   2.595   9.476  1.00  0.00     0.150 C 
ENDROOT
BRANCH   1  13
HETATM   13  C2  UNL     1      18.985   5.171   8.715  1.00  0.00     0.192 C 
BRANCH  13  14
HETATM   14  O1  UNL     1      17.726   4.800   8.264  1.00  0.00    -0.394 OA
HETATM   15  C1  UNL     1      17.516   5.552   7.086  1.00  0.00     0.201 C 
ENDBRANCH  13  14
ENDBRANCH   1  13
BRANCH   3  16
HETATM   16  O2  UNL     1      16.820   5.145  12.788  1.00  0.00    -0.385 OA
ATOM     17  H2  UNL     1      16.388   5.312  11.959  1.00  0.00     0.211 HD
ENDBRANCH   3  16
BRANCH   9  18
HETATM   18  O6  UNL     1      18.884   0.633   9.757  1.00  0.00    -0.356 OA
ATOM     19  H6  UNL     1      18.450  -0.137   9.410  1.00  0.00     0.218 HD
ENDBRANCH   9  18
BRANCH   6  20
HETATM   20  N1  UNL     1      16.406   2.893  14.163  1.00  0.00    -0.115 N 
HETATM   21  O3  UNL     1      17.043   2.764  15.260  1.00  0.00    -0.532 OA
HETATM   22  O4  UNL     1      15.204   3.471  14.241  1.00  0.00    -0.532 OA
ENDBRANCH   6  20
BRANCH   8  23
HETATM   23  O5  UNL     1      17.258  -0.872  11.376  1.00  0.00    -0.353 OA
HETATM   24  C11 UNL     1      18.236  -1.858  11.431  1.00  0.00     0.210 C 
ENDBRANCH   8  23
TORSDOF 6
ENDMDL
