MODEL 1
REMARK VINA RESULT: -7.184970541      0.000      0.000
REMARK  6 active torsions:
REMARK  status: ('A' for Active; 'I' for Inactive)
REMARK    1  A    between atoms: N1_8  and  C8_9 
REMARK    2  A    between atoms: C8_9  and  C9_10 
REMARK    3  A    between atoms: C10_13  and  N3_14 
REMARK    4  A    between atoms: N3_14  and  C11_16 
REMARK    5  A    between atoms: C11_16  and  C12_17 
REMARK    6  A    between atoms: C12_17  and  O1_18 
ROOT
HETATM    1  C9  UNL     1      16.578   2.904  13.583  1.00  0.00     0.092 A 
HETATM    2  N2  UNL     1      16.804   2.115  12.536  1.00  0.00    -0.189 N 
ATOM      3  H2  UNL     1      16.840   2.545  11.612  1.00  0.00     0.184 HD
HETATM    4  C10 UNL     1      16.988   0.774  12.623  1.00  0.00     0.680 A 
HETATM    5  N4  UNL     1      16.952   0.147  13.809  1.00  0.00    -0.172 N 
ATOM      6  H4  UNL     1      17.091  -0.861  13.874  1.00  0.00     0.186 HD
HETATM    7  C13 UNL     1      16.729   0.886  14.907  1.00  0.00     0.173 A 
HETATM    8  N5  UNL     1      16.631   0.584  16.229  1.00  0.00    -0.223 N 
ATOM      9  H5  UNL     1      16.724  -0.352  16.626  1.00  0.00     0.198 HD
HETATM   10  O2  UNL     1      16.401   1.667  16.914  1.00  0.00    -0.155 OA
HETATM   11  N6  UNL     1      16.345   2.671  16.087  1.00  0.00    -0.236 N 
ATOM     12  H6  UNL     1      16.177   3.640  16.357  1.00  0.00     0.197 HD
HETATM   13  C14 UNL     1      16.541   2.248  14.821  1.00  0.00     0.131 A 
ENDROOT
BRANCH   1  14
HETATM   14  C8  UNL     1      16.396   4.340  13.580  1.00  0.00     0.093 C 
BRANCH  14  15
HETATM   15  N1  UNL     1      17.257   5.122  12.736  1.00  0.00    -0.282 NA
HETATM   16  C2  UNL     1      18.167   5.929  13.529  1.00  0.00     0.059 C 
HETATM   17  C1  UNL     1      17.557   6.533  14.745  1.00  0.00     0.026 C 
HETATM   18  C3  UNL     1      18.827   6.933  12.650  1.00  0.00     0.020 C 
HETATM   19  C4  UNL     1      17.821   7.957  12.161  1.00  0.00     0.003 C 
HETATM   20  C5  UNL     1      16.485   7.340  11.895  1.00  0.00     0.020 C 
HETATM   21  C6  UNL     1      16.531   5.841  11.754  1.00  0.00     0.059 C 
HETATM   22  C7  UNL     1      17.063   5.483  10.355  1.00  0.00     0.026 C 
ENDBRANCH  14  15
ENDBRANCH   1  14
BRANCH   4  23
HETATM   23  N3  UNL     1      17.201   0.077  11.566  1.00  0.00    -0.224 N 
ATOM     24  H3  UNL     1      17.398   0.547  10.683  1.00  0.00     0.177 HD
BRANCH  23  25
HETATM   25  C11 UNL     1      17.166  -1.359  11.616  1.00  0.00     0.164 C 
BRANCH  25  26
HETATM   26  C12 UNL     1      18.503  -1.966  11.246  1.00  0.00     0.184 C 
BRANCH  26  27
HETATM   27  O1  UNL     1      18.420  -3.354  11.233  1.00  0.00    -0.399 OA
ATOM     28  H1  UNL     1      19.188  -3.736  11.643  1.00  0.00     0.209 HD
ENDBRANCH  26  27
ENDBRANCH  25  26
ENDBRANCH  23  25
ENDBRANCH   4  23
TORSDOF 6
ENDMDL
MODEL 2
REMARK VINA RESULT: -7.160341097      1.737      3.789
REMARK  6 active torsions:
REMARK  status: ('A' for Active; 'I' for Inactive)
REMARK    1  A    between atoms: N1_8  and  C8_9 
REMARK    2  A    between atoms: C8_9  and  C9_10 
REMARK    3  A    between atoms: C10_13  and  N3_14 
REMARK    4  A    between atoms: N3_14  and  C11_16 
REMARK    5  A    between atoms: C11_16  and  C12_17 
REMARK    6  A    between atoms: C12_17  and  O1_18 
ROOT
HETATM    1  C9  UNL     1      16.781   2.978  13.078  1.00  0.00     0.092 A 
HETATM    2  N2  UNL     1      16.835   2.453  14.299  1.00  0.00    -0.189 N 
ATOM      3  H2  UNL     1      16.849   3.091  15.095  1.00  0.00     0.184 HD
HETATM    4  C10 UNL     1      16.874   1.121  14.551  1.00  0.00     0.680 A 
HETATM    5  N4  UNL     1      16.858   0.228  13.549  1.00  0.00    -0.172 N 
ATOM      6  H4  UNL     1      16.887  -0.774  13.738  1.00  0.00     0.186 HD
HETATM    7  C13 UNL     1      16.804   0.691  12.291  1.00  0.00     0.173 A 
HETATM    8  N5  UNL     1      16.775   0.084  11.075  1.00  0.00    -0.223 N 
ATOM      9  H5  UNL     1      16.792  -0.924  10.922  1.00  0.00     0.198 HD
HETATM   10  O2  UNL     1      16.722   0.983  10.134  1.00  0.00    -0.155 OA
HETATM   11  N6  UNL     1      16.714   2.160  10.690  1.00  0.00    -0.236 N 
ATOM     12  H6  UNL     1      16.676   3.044  10.183  1.00  0.00     0.197 HD
HETATM   13  C14 UNL     1      16.765   2.044  12.033  1.00  0.00     0.131 A 
ENDROOT
BRANCH   1  14
HETATM   14  C8  UNL     1      16.713   4.380  12.725  1.00  0.00     0.093 C 
BRANCH  14  15
HETATM   15  N1  UNL     1      17.931   5.142  12.771  1.00  0.00    -0.282 NA
HETATM   16  C2  UNL     1      18.170   5.657  14.107  1.00  0.00     0.059 C 
HETATM   17  C1  UNL     1      16.951   6.147  14.807  1.00  0.00     0.026 C 
HETATM   18  C3  UNL     1      19.258   6.673  14.054  1.00  0.00     0.020 C 
HETATM   19  C4  UNL     1      18.799   7.908  13.303  1.00  0.00     0.003 C 
HETATM   20  C5  UNL     1      17.904   7.559  12.157  1.00  0.00     0.020 C 
HETATM   21  C6  UNL     1      17.991   6.114  11.742  1.00  0.00     0.059 C 
HETATM   22  C7  UNL     1      19.268   5.905  10.909  1.00  0.00     0.026 C 
ENDBRANCH  14  15
ENDBRANCH   1  14
BRANCH   4  23
HETATM   23  N3  UNL     1      16.926   0.688  15.758  1.00  0.00    -0.224 N 
ATOM     24  H3  UNL     1      17.424  -0.178  15.962  1.00  0.00     0.177 HD
BRANCH  23  25
HETATM   25  C11 UNL     1      16.290   1.411  16.825  1.00  0.00     0.164 C 
BRANCH  25  26
HETATM   26  C12 UNL     1      15.159   0.618  17.444  1.00  0.00     0.184 C 
BRANCH  26  27
HETATM   27  O1  UNL     1      14.035   0.654  16.627  1.00  0.00    -0.399 OA
ATOM     28  H1  UNL     1      13.423  -0.030  16.873  1.00  0.00     0.209 HD
ENDBRANCH  26  27
ENDBRANCH  25  26
ENDBRANCH  23  25
ENDBRANCH   4  23
TORSDOF 6
ENDMDL
MODEL 3
REMARK VINA RESULT: -7.055137896      2.865      4.614
REMARK  6 active torsions:
REMARK  status: ('A' for Active; 'I' for Inactive)
REMARK    1  A    between atoms: N1_8  and  C8_9 
REMARK    2  A    between atoms: C8_9  and  C9_10 
REMARK    3  A    between atoms: C10_13  and  N3_14 
REMARK    4  A    between atoms: N3_14  and  C11_16 
REMARK    5  A    between atoms: C11_16  and  C12_17 
REMARK    6  A    between atoms: C12_17  and  O1_18 
ROOT
HETATM    1  C9  UNL     1      17.640   2.555  12.155  1.00  0.00     0.092 A 
HETATM    2  N2  UNL     1      17.477   1.339  11.642  1.00  0.00    -0.189 N 
ATOM      3  H2  UNL     1      16.622   0.833  11.871  1.00  0.00     0.184 HD
HETATM    4  C10 UNL     1      18.379   0.730  10.833  1.00  0.00     0.680 A 
HETATM    5  N4  UNL     1      19.525   1.341  10.493  1.00  0.00    -0.172 N 
ATOM      6  H4  UNL     1      20.204   0.884   9.885  1.00  0.00     0.186 HD
HETATM    7  C13 UNL     1      19.752   2.572  10.977  1.00  0.00     0.173 A 
HETATM    8  N5  UNL     1      20.778   3.453  10.839  1.00  0.00    -0.223 N 
ATOM      9  H5  UNL     1      21.620   3.292  10.286  1.00  0.00     0.198 HD
HETATM   10  O2  UNL     1      20.525   4.535  11.518  1.00  0.00    -0.155 OA
HETATM   11  N6  UNL     1      19.368   4.395  12.098  1.00  0.00    -0.236 N 
ATOM     12  H6  UNL     1      18.926   5.096  12.693  1.00  0.00     0.197 HD
HETATM   13  C14 UNL     1      18.837   3.192  11.799  1.00  0.00     0.131 A 
ENDROOT
BRANCH   1  14
HETATM   14  C8  UNL     1      16.720   3.283  13.003  1.00  0.00     0.093 C 
BRANCH  14  15
HETATM   15  N1  UNL     1      16.042   2.551  14.038  1.00  0.00    -0.282 NA
HETATM   16  C2  UNL     1      15.059   3.387  14.705  1.00  0.00     0.059 C 
HETATM   17  C1  UNL     1      15.500   4.788  14.942  1.00  0.00     0.026 C 
HETATM   18  C3  UNL     1      14.597   2.706  15.946  1.00  0.00     0.020 C 
HETATM   19  C4  UNL     1      15.717   2.637  16.967  1.00  0.00     0.003 C 
HETATM   20  C5  UNL     1      17.045   2.414  16.318  1.00  0.00     0.020 C 
HETATM   21  C6  UNL     1      16.948   1.895  14.907  1.00  0.00     0.059 C 
HETATM   22  C7  UNL     1      16.626   0.390  14.946  1.00  0.00     0.026 C 
ENDBRANCH  14  15
ENDBRANCH   1  14
BRANCH   4  23
HETATM   23  N3  UNL     1      18.153  -0.448  10.375  1.00  0.00    -0.224 N 
ATOM     24  H3  UNL     1      18.291  -0.638   9.383  1.00  0.00     0.177 HD
BRANCH  23  25
HETATM   25  C11 UNL     1      17.708  -1.500  11.246  1.00  0.00     0.164 C 
BRANCH  25  26
HETATM   26  C12 UNL     1      18.733  -2.609  11.357  1.00  0.00     0.184 C 
BRANCH  26  27
HETATM   27  O1  UNL     1      18.114  -3.852  11.291  1.00  0.00    -0.399 OA
ATOM     28  H1  UNL     1      18.753  -4.547  11.396  1.00  0.00     0.209 HD
ENDBRANCH  26  27
ENDBRANCH  25  26
ENDBRANCH  23  25
ENDBRANCH   4  23
TORSDOF 6
ENDMDL
MODEL 4
REMARK VINA RESULT: -7.043106962      0.886      1.786
REMARK  6 active torsions:
REMARK  status: ('A' for Active; 'I' for Inactive)
REMARK    1  A    between atoms: N1_8  and  C8_9 
REMARK    2  A    between atoms: C8_9  and  C9_10 
REMARK    3  A    between atoms: C10_13  and  N3_14 
REMARK    4  A    between atoms: N3_14  and  C11_16 
REMARK    5  A    between atoms: C11_16  and  C12_17 
REMARK    6  A    between atoms: C12_17  and  O1_18 
ROOT
HETATM    1  C9  UNL     1      16.592   2.925  13.505  1.00  0.00     0.092 A 
HETATM    2  N2  UNL     1      16.807   2.109  12.477  1.00  0.00    -0.189 N 
ATOM      3  H2  UNL     1      16.842   2.516  11.542  1.00  0.00     0.184 HD
HETATM    4  C10 UNL     1      16.983   0.770  12.595  1.00  0.00     0.680 A 
HETATM    5  N4  UNL     1      16.949   0.172  13.796  1.00  0.00    -0.172 N 
ATOM      6  H4  UNL     1      17.080  -0.835  13.886  1.00  0.00     0.186 HD
HETATM    7  C13 UNL     1      16.735   0.938  14.877  1.00  0.00     0.173 A 
HETATM    8  N5  UNL     1      16.642   0.669  16.207  1.00  0.00    -0.223 N 
ATOM      9  H5  UNL     1      16.730  -0.257  16.625  1.00  0.00     0.198 HD
HETATM   10  O2  UNL     1      16.423   1.771  16.866  1.00  0.00    -0.155 OA
HETATM   11  N6  UNL     1      16.370   2.754  16.015  1.00  0.00    -0.236 N 
ATOM     12  H6  UNL     1      16.210   3.731  16.263  1.00  0.00     0.197 HD
HETATM   13  C14 UNL     1      16.557   2.299  14.759  1.00  0.00     0.131 A 
ENDROOT
BRANCH   1  14
HETATM   14  C8  UNL     1      16.420   4.361  13.468  1.00  0.00     0.093 C 
BRANCH  14  15
HETATM   15  N1  UNL     1      17.420   5.172  14.107  1.00  0.00    -0.282 NA
HETATM   16  C2  UNL     1      17.159   6.584  13.890  1.00  0.00     0.059 C 
HETATM   17  C1  UNL     1      16.682   6.920  12.521  1.00  0.00     0.026 C 
HETATM   18  C3  UNL     1      18.354   7.373  14.299  1.00  0.00     0.020 C 
HETATM   19  C4  UNL     1      19.516   7.106  13.362  1.00  0.00     0.003 C 
HETATM   20  C5  UNL     1      19.551   5.680  12.913  1.00  0.00     0.020 C 
HETATM   21  C6  UNL     1      18.734   4.756  13.777  1.00  0.00     0.059 C 
HETATM   22  C7  UNL     1      19.516   4.450  15.067  1.00  0.00     0.026 C 
ENDBRANCH  14  15
ENDBRANCH   1  14
BRANCH   4  23
HETATM   23  N3  UNL     1      17.186   0.045  11.555  1.00  0.00    -0.224 N 
ATOM     24  H3  UNL     1      17.360   0.492  10.655  1.00  0.00     0.177 HD
BRANCH  23  25
HETATM   25  C11 UNL     1      17.171  -1.389  11.645  1.00  0.00     0.164 C 
BRANCH  25  26
HETATM   26  C12 UNL     1      18.504  -1.990  11.251  1.00  0.00     0.184 C 
BRANCH  26  27
HETATM   27  O1  UNL     1      18.427  -3.378  11.237  1.00  0.00    -0.399 OA
ATOM     28  H1  UNL     1      19.276  -3.756  11.042  1.00  0.00     0.209 HD
ENDBRANCH  26  27
ENDBRANCH  25  26
ENDBRANCH  23  25
ENDBRANCH   4  23
TORSDOF 6
ENDMDL
MODEL 5
REMARK VINA RESULT: -7.016953377      3.285      5.517
REMARK  6 active torsions:
REMARK  status: ('A' for Active; 'I' for Inactive)
REMARK    1  A    between atoms: N1_8  and  C8_9 
REMARK    2  A    between atoms: C8_9  and  C9_10 
REMARK    3  A    between atoms: C10_13  and  N3_14 
REMARK    4  A    between atoms: N3_14  and  C11_16 
REMARK    5  A    between atoms: C11_16  and  C12_17 
REMARK    6  A    between atoms: C12_17  and  O1_18 
ROOT
HETATM    1  C9  UNL     1      17.664   2.942  12.484  1.00  0.00     0.092 A 
HETATM    2  N2  UNL     1      18.928   3.357  12.492  1.00  0.00    -0.189 N 
ATOM      3  H2  UNL     1      19.166   4.156  13.081  1.00  0.00     0.184 HD
HETATM    4  C10 UNL     1      19.919   2.785  11.765  1.00  0.00     0.680 A 
HETATM    5  N4  UNL     1      19.673   1.732  10.970  1.00  0.00    -0.172 N 
ATOM      6  H4  UNL     1      20.418   1.301  10.423  1.00  0.00     0.186 HD
HETATM    7  C13 UNL     1      18.417   1.262  10.916  1.00  0.00     0.173 A 
HETATM    8  N5  UNL     1      17.833   0.240  10.235  1.00  0.00    -0.223 N 
ATOM      9  H5  UNL     1      18.316  -0.390   9.595  1.00  0.00     0.198 HD
HETATM   10  O2  UNL     1      16.564   0.186  10.524  1.00  0.00    -0.155 OA
HETATM   11  N6  UNL     1      16.295   1.136  11.371  1.00  0.00    -0.236 N 
ATOM     12  H6  UNL     1      15.372   1.321  11.765  1.00  0.00     0.197 HD
HETATM   13  C14 UNL     1      17.409   1.842  11.654  1.00  0.00     0.131 A 
ENDROOT
BRANCH   1  14
HETATM   14  C8  UNL     1      16.556   3.479  13.245  1.00  0.00     0.093 C 
BRANCH  14  15
HETATM   15  N1  UNL     1      15.924   2.617  14.206  1.00  0.00    -0.282 NA
HETATM   16  C2  UNL     1      14.877   3.321  14.925  1.00  0.00     0.059 C 
HETATM   17  C1  UNL     1      15.213   4.726  15.283  1.00  0.00     0.026 C 
HETATM   18  C3  UNL     1      14.454   2.508  16.099  1.00  0.00     0.020 C 
HETATM   19  C4  UNL     1      15.567   2.435  17.127  1.00  0.00     0.003 C 
HETATM   20  C5  UNL     1      16.914   2.362  16.482  1.00  0.00     0.020 C 
HETATM   21  C6  UNL     1      16.867   1.957  15.032  1.00  0.00     0.059 C 
HETATM   22  C7  UNL     1      16.656   0.435  14.941  1.00  0.00     0.026 C 
ENDBRANCH  14  15
ENDBRANCH   1  14
BRANCH   4  23
HETATM   23  N3  UNL     1      21.117   3.242  11.824  1.00  0.00    -0.224 N 
ATOM     24  H3  UNL     1      21.803   2.784  12.423  1.00  0.00     0.177 HD
BRANCH  23  25
HETATM   25  C11 UNL     1      21.502   4.393  11.054  1.00  0.00     0.164 C 
BRANCH  25  26
HETATM   26  C12 UNL     1      22.969   4.355  10.683  1.00  0.00     0.184 C 
BRANCH  26  27
HETATM   27  O1  UNL     1      23.759   4.320  11.827  1.00  0.00    -0.399 OA
ATOM     28  H1  UNL     1      24.640   4.035  11.613  1.00  0.00     0.209 HD
ENDBRANCH  26  27
ENDBRANCH  25  26
ENDBRANCH  23  25
ENDBRANCH   4  23
TORSDOF 6
ENDMDL
