MODEL 1
REMARK VINA RESULT: -7.604896994      0.000      0.000
REMARK  6 active torsions:
REMARK  status: ('A' for Active; 'I' for Inactive)
REMARK    1  A    between atoms: C3_3  and  O1_4 
REMARK    2  A    between atoms: N1_9  and  C5_10 
REMARK    3  A    between atoms: C5_10  and  C6_11 
REMARK    4  A    between atoms: C6_11  and  C7_12 
REMARK    5  A    between atoms: C7_12  and  N2_13 
REMARK    6  A    between atoms: C13_20  and  O5_21 
ROOT
HETATM    1  C7  UNL     1      17.398   3.152  13.062  1.00  0.00     0.274 C 
ENDROOT
BRANCH   1   2
HETATM    2  C6  UNL     1      16.760   3.908  14.174  1.00  0.00     0.050 C 
BRANCH   2   3
HETATM    3  C5  UNL     1      17.118   3.343  15.497  1.00  0.00     0.136 C 
BRANCH   3   4
HETATM    4  N1  UNL     1      16.343   2.239  15.963  1.00  0.00    -0.293 N 
HETATM    5  C2  UNL     1      15.057   2.425  16.394  1.00  0.00     0.071 A 
HETATM    6  C1  UNL     1      14.296   3.699  16.435  1.00  0.00     0.074 C 
HETATM    7  C3  UNL     1      14.555   1.228  16.798  1.00  0.00     0.210 A 
HETATM    8  O2  UNL     1      15.490   0.328  16.626  1.00  0.00    -0.235 OA
HETATM    9  C4  UNL     1      16.558   0.939  16.127  1.00  0.00     0.374 A 
HETATM   10  O3  UNL     1      17.604   0.331  15.863  1.00  0.00    -0.237 OA
BRANCH   7  11
HETATM   11  O1  UNL     1      13.262   1.004  17.308  1.00  0.00    -0.339 OA
ATOM     12  H1  UNL     1      13.047   0.493  18.080  1.00  0.00     0.220 HD
ENDBRANCH   7  11
ENDBRANCH   3   4
ENDBRANCH   2   3
ENDBRANCH   1   2
BRANCH   1  13
HETATM   13  N2  UNL     1      16.563   2.020  12.634  1.00  0.00     0.089 N 
HETATM   14  C8  UNL     1      16.037   2.300  11.314  1.00  0.00     0.273 C 
HETATM   15  C9  UNL     1      16.042   0.980  10.574  1.00  0.00     0.046 C 
HETATM   16  C10 UNL     1      17.154   0.227  11.195  1.00  0.00     0.039 C 
HETATM   17  C11 UNL     1      16.867  -1.270  11.352  1.00  0.00     0.042 C 
HETATM   18  C13 UNL     1      18.387   0.133  10.323  1.00  0.00     0.267 C 
HETATM   19  C14 UNL     1      17.407   0.866  12.509  1.00  0.00     0.286 C 
HETATM   20  C12 UNL     1      18.299  -1.759  11.528  1.00  0.00     0.172 C 
HETATM   21  O4  UNL     1      19.128  -0.835  10.952  1.00  0.00    -0.361 OA
BRANCH  18  22
HETATM   22  O5  UNL     1      19.043   1.333  10.172  1.00  0.00    -0.370 OA
ATOM     23  H5  UNL     1      19.676   1.507  10.860  1.00  0.00     0.212 HD
ENDBRANCH  18  22
ENDBRANCH   1  13
TORSDOF 6
ENDMDL
MODEL 2
REMARK VINA RESULT: -7.371102800      2.613      3.593
REMARK  6 active torsions:
REMARK  status: ('A' for Active; 'I' for Inactive)
REMARK    1  A    between atoms: C3_3  and  O1_4 
REMARK    2  A    between atoms: N1_9  and  C5_10 
REMARK    3  A    between atoms: C5_10  and  C6_11 
REMARK    4  A    between atoms: C6_11  and  C7_12 
REMARK    5  A    between atoms: C7_12  and  N2_13 
REMARK    6  A    between atoms: C13_20  and  O5_21 
ROOT
HETATM    1  C7  UNL     1      16.139   5.643  14.158  1.00  0.00     0.274 C 
ENDROOT
BRANCH   1   2
HETATM    2  C6  UNL     1      15.140   4.552  14.320  1.00  0.00     0.050 C 
BRANCH   2   3
HETATM    3  C5  UNL     1      15.047   4.100  15.729  1.00  0.00     0.136 C 
BRANCH   3   4
HETATM    4  N1  UNL     1      15.648   2.846  16.049  1.00  0.00    -0.293 N 
HETATM    5  C2  UNL     1      14.893   1.822  16.554  1.00  0.00     0.071 A 
HETATM    6  C1  UNL     1      13.432   1.825  16.820  1.00  0.00     0.074 C 
HETATM    7  C3  UNL     1      15.704   0.756  16.789  1.00  0.00     0.210 A 
HETATM    8  O2  UNL     1      16.919   1.100  16.444  1.00  0.00    -0.235 OA
HETATM    9  C4  UNL     1      16.880   2.352  16.004  1.00  0.00     0.374 A 
HETATM   10  O3  UNL     1      17.892   2.946  15.608  1.00  0.00    -0.237 OA
BRANCH   7  11
HETATM   11  O1  UNL     1      15.302  -0.489  17.309  1.00  0.00    -0.339 OA
ATOM     12  H1  UNL     1      15.804  -1.296  17.274  1.00  0.00     0.220 HD
ENDBRANCH   7  11
ENDBRANCH   3   4
ENDBRANCH   2   3
ENDBRANCH   1   2
BRANCH   1  13
HETATM   13  N2  UNL     1      16.566   5.778  12.757  1.00  0.00     0.089 N 
HETATM   14  C8  UNL     1      17.574   6.813  12.672  1.00  0.00     0.273 C 
HETATM   15  C9  UNL     1      18.576   6.337  11.642  1.00  0.00     0.046 C 
HETATM   16  C10 UNL     1      18.496   4.862  11.722  1.00  0.00     0.039 C 
HETATM   17  C11 UNL     1      18.623   4.167  10.362  1.00  0.00     0.042 C 
HETATM   18  C13 UNL     1      19.681   4.225  12.415  1.00  0.00     0.267 C 
HETATM   19  C14 UNL     1      17.197   4.549  12.366  1.00  0.00     0.286 C 
HETATM   20  C12 UNL     1      18.985   2.771  10.852  1.00  0.00     0.172 C 
HETATM   21  O4  UNL     1      19.538   2.898  12.097  1.00  0.00    -0.361 OA
BRANCH  18  22
HETATM   22  O5  UNL     1      19.724   4.477  13.767  1.00  0.00    -0.370 OA
ATOM     23  H5  UNL     1      20.421   5.073  14.018  1.00  0.00     0.212 HD
ENDBRANCH  18  22
ENDBRANCH   1  13
TORSDOF 6
ENDMDL
MODEL 3
REMARK VINA RESULT: -7.365560123      2.578      3.843
REMARK  6 active torsions:
REMARK  status: ('A' for Active; 'I' for Inactive)
REMARK    1  A    between atoms: C3_3  and  O1_4 
REMARK    2  A    between atoms: N1_9  and  C5_10 
REMARK    3  A    between atoms: C5_10  and  C6_11 
REMARK    4  A    between atoms: C6_11  and  C7_12 
REMARK    5  A    between atoms: C7_12  and  N2_13 
REMARK    6  A    between atoms: C13_20  and  O5_21 
ROOT
HETATM    1  C7  UNL     1      17.098   5.833  14.004  1.00  0.00     0.274 C 
ENDROOT
BRANCH   1   2
HETATM    2  C6  UNL     1      17.164   4.606  14.844  1.00  0.00     0.050 C 
BRANCH   2   3
HETATM    3  C5  UNL     1      15.922   3.802  14.738  1.00  0.00     0.136 C 
BRANCH   3   4
HETATM    4  N1  UNL     1      16.002   2.430  15.121  1.00  0.00    -0.293 N 
HETATM    5  C2  UNL     1      15.376   1.987  16.255  1.00  0.00     0.071 A 
HETATM    6  C1  UNL     1      14.555   2.784  17.201  1.00  0.00     0.074 C 
HETATM    7  C3  UNL     1      15.623   0.658  16.399  1.00  0.00     0.210 A 
HETATM    8  O2  UNL     1      16.375   0.284  15.395  1.00  0.00    -0.235 OA
HETATM    9  C4  UNL     1      16.599   1.348  14.634  1.00  0.00     0.374 A 
HETATM   10  O3  UNL     1      17.287   1.293  13.606  1.00  0.00    -0.237 OA
BRANCH   7  11
HETATM   11  O1  UNL     1      15.152  -0.161  17.443  1.00  0.00    -0.339 OA
ATOM     12  H1  UNL     1      15.653  -0.829  17.897  1.00  0.00     0.220 HD
ENDBRANCH   7  11
ENDBRANCH   3   4
ENDBRANCH   2   3
ENDBRANCH   1   2
BRANCH   1  13
HETATM   13  N2  UNL     1      18.288   5.964  13.150  1.00  0.00     0.089 N 
HETATM   14  C8  UNL     1      19.182   4.858  13.420  1.00  0.00     0.273 C 
HETATM   15  C9  UNL     1      19.786   4.473  12.087  1.00  0.00     0.046 C 
HETATM   16  C10 UNL     1      18.749   4.854  11.103  1.00  0.00     0.039 C 
HETATM   17  C11 UNL     1      19.321   5.428   9.802  1.00  0.00     0.042 C 
HETATM   18  C13 UNL     1      17.998   3.675  10.522  1.00  0.00     0.267 C 
HETATM   19  C14 UNL     1      17.870   5.836  11.783  1.00  0.00     0.286 C 
HETATM   20  C12 UNL     1      18.099   5.237   8.913  1.00  0.00     0.172 C 
HETATM   21  O4  UNL     1      17.344   4.232   9.452  1.00  0.00    -0.361 OA
BRANCH  18  22
HETATM   22  O5  UNL     1      17.169   3.055  11.427  1.00  0.00    -0.370 OA
ATOM     23  H5  UNL     1      16.249   3.111  11.197  1.00  0.00     0.212 HD
ENDBRANCH  18  22
ENDBRANCH   1  13
TORSDOF 6
ENDMDL
MODEL 4
REMARK VINA RESULT: -7.226268697      3.648      5.273
REMARK  6 active torsions:
REMARK  status: ('A' for Active; 'I' for Inactive)
REMARK    1  A    between atoms: C3_3  and  O1_4 
REMARK    2  A    between atoms: N1_9  and  C5_10 
REMARK    3  A    between atoms: C5_10  and  C6_11 
REMARK    4  A    between atoms: C6_11  and  C7_12 
REMARK    5  A    between atoms: C7_12  and  N2_13 
REMARK    6  A    between atoms: C13_20  and  O5_21 
ROOT
HETATM    1  C7  UNL     1      17.350   5.101  13.358  1.00  0.00     0.274 C 
ENDROOT
BRANCH   1   2
HETATM    2  C6  UNL     1      17.002   4.650  14.732  1.00  0.00     0.050 C 
BRANCH   2   3
HETATM    3  C5  UNL     1      15.772   3.820  14.741  1.00  0.00     0.136 C 
BRANCH   3   4
HETATM    4  N1  UNL     1      15.913   2.456  15.133  1.00  0.00    -0.293 N 
HETATM    5  C2  UNL     1      15.312   1.994  16.274  1.00  0.00     0.071 A 
HETATM    6  C1  UNL     1      14.464   2.763  17.219  1.00  0.00     0.074 C 
HETATM    7  C3  UNL     1      15.617   0.678  16.426  1.00  0.00     0.210 A 
HETATM    8  O2  UNL     1      16.377   0.329  15.419  1.00  0.00    -0.235 OA
HETATM    9  C4  UNL     1      16.552   1.396  14.650  1.00  0.00     0.374 A 
HETATM   10  O3  UNL     1      17.235   1.363  13.618  1.00  0.00    -0.237 OA
BRANCH   7  11
HETATM   11  O1  UNL     1      15.187  -0.153  17.478  1.00  0.00    -0.339 OA
ATOM     12  H1  UNL     1      15.194  -1.103  17.476  1.00  0.00     0.220 HD
ENDBRANCH   7  11
ENDBRANCH   3   4
ENDBRANCH   2   3
ENDBRANCH   1   2
BRANCH   1  13
HETATM   13  N2  UNL     1      16.981   6.509  13.146  1.00  0.00     0.089 N 
HETATM   14  C8  UNL     1      18.021   7.155  12.373  1.00  0.00     0.273 C 
HETATM   15  C9  UNL     1      17.314   8.112  11.438  1.00  0.00     0.046 C 
HETATM   16  C10 UNL     1      15.989   7.488  11.224  1.00  0.00     0.039 C 
HETATM   17  C11 UNL     1      14.842   8.501  11.141  1.00  0.00     0.042 C 
HETATM   18  C13 UNL     1      15.830   6.850   9.862  1.00  0.00     0.267 C 
HETATM   19  C14 UNL     1      15.789   6.540  12.348  1.00  0.00     0.286 C 
HETATM   20  C12 UNL     1      13.806   7.616  10.460  1.00  0.00     0.172 C 
HETATM   21  O4  UNL     1      14.477   6.632   9.787  1.00  0.00    -0.361 OA
BRANCH  18  22
HETATM   22  O5  UNL     1      16.592   5.717   9.696  1.00  0.00    -0.370 OA
ATOM     23  H5  UNL     1      16.973   5.642   8.828  1.00  0.00     0.212 HD
ENDBRANCH  18  22
ENDBRANCH   1  13
TORSDOF 6
ENDMDL
MODEL 5
REMARK VINA RESULT: -7.204050979      2.400      3.341
REMARK  6 active torsions:
REMARK  status: ('A' for Active; 'I' for Inactive)
REMARK    1  A    between atoms: C3_3  and  O1_4 
REMARK    2  A    between atoms: N1_9  and  C5_10 
REMARK    3  A    between atoms: C5_10  and  C6_11 
REMARK    4  A    between atoms: C6_11  and  C7_12 
REMARK    5  A    between atoms: C7_12  and  N2_13 
REMARK    6  A    between atoms: C13_20  and  O5_21 
ROOT
HETATM    1  C7  UNL     1      16.995   4.303  12.159  1.00  0.00     0.274 C 
ENDROOT
BRANCH   1   2
HETATM    2  C6  UNL     1      16.872   4.303  13.642  1.00  0.00     0.050 C 
BRANCH   2   3
HETATM    3  C5  UNL     1      15.696   3.520  14.094  1.00  0.00     0.136 C 
BRANCH   3   4
HETATM    4  N1  UNL     1      15.956   2.299  14.784  1.00  0.00    -0.293 N 
HETATM    5  C2  UNL     1      15.443   2.085  16.036  1.00  0.00     0.071 A 
HETATM    6  C1  UNL     1      14.583   3.002  16.826  1.00  0.00     0.074 C 
HETATM    7  C3  UNL     1      15.852   0.864  16.472  1.00  0.00     0.210 A 
HETATM    8  O2  UNL     1      16.590   0.334  15.530  1.00  0.00    -0.235 OA
HETATM    9  C4  UNL     1      16.650   1.198  14.523  1.00  0.00     0.374 A 
HETATM   10  O3  UNL     1      17.287   0.963  13.488  1.00  0.00    -0.237 OA
BRANCH   7  11
HETATM   11  O1  UNL     1      15.533   0.281  17.713  1.00  0.00    -0.339 OA
ATOM     12  H1  UNL     1      14.688  -0.078  17.959  1.00  0.00     0.220 HD
ENDBRANCH   7  11
ENDBRANCH   3   4
ENDBRANCH   2   3
ENDBRANCH   1   2
BRANCH   1  13
HETATM   13  N2  UNL     1      18.291   4.849  11.728  1.00  0.00     0.089 N 
HETATM   14  C8  UNL     1      19.267   4.619  12.773  1.00  0.00     0.273 C 
HETATM   15  C9  UNL     1      20.565   4.291  12.067  1.00  0.00     0.046 C 
HETATM   16  C10 UNL     1      20.133   3.679  10.791  1.00  0.00     0.039 C 
HETATM   17  C11 UNL     1      21.013   4.065   9.598  1.00  0.00     0.042 C 
HETATM   18  C13 UNL     1      20.322   2.179  10.739  1.00  0.00     0.267 C 
HETATM   19  C14 UNL     1      18.727   4.105  10.581  1.00  0.00     0.286 C 
HETATM   20  C12 UNL     1      20.616   2.942   8.649  1.00  0.00     0.172 C 
HETATM   21  O4  UNL     1      20.156   1.900   9.406  1.00  0.00    -0.361 OA
BRANCH  18  22
HETATM   22  O5  UNL     1      19.467   1.491  11.568  1.00  0.00    -0.370 OA
ATOM     23  H5  UNL     1      19.877   0.752  12.005  1.00  0.00     0.212 HD
ENDBRANCH  18  22
ENDBRANCH   1  13
TORSDOF 6
ENDMDL
