MODEL 1
REMARK VINA RESULT: -8.046779540      0.000      0.000
REMARK  6 active torsions:
REMARK  status: ('A' for Active; 'I' for Inactive)
REMARK    1  A    between atoms: N1_7  and  C5_8 
REMARK    2  A    between atoms: C10_13  and  O3_14 
REMARK    3  A    between atoms: C11_16  and  O4_17 
REMARK    4  A    between atoms: O4_17  and  C12_18 
REMARK    5  A    between atoms: C12_18  and  C14_20 
REMARK    6  A    between atoms: C14_20  and  O5_21 
ROOT
HETATM    1  C5  UNL     1      17.078   3.347  14.457  1.00  0.00     0.144 C 
HETATM    2  C6  UNL     1      17.217   4.794  14.889  1.00  0.00     0.030 C 
HETATM    3  C7  UNL     1      18.096   5.589  14.006  1.00  0.00     0.003 C 
HETATM    4  C8  UNL     1      18.013   5.313  12.552  1.00  0.00     0.010 C 
HETATM    5  C9  UNL     1      17.835   3.860  12.226  1.00  0.00     0.050 C 
HETATM    6  C10 UNL     1      17.297   3.585  10.862  1.00  0.00     0.179 C 
HETATM    7  C11 UNL     1      16.508   2.315  11.081  1.00  0.00     0.289 C 
HETATM    8  O6  UNL     1      16.519   2.076  12.473  1.00  0.00    -0.351 OA
HETATM    9  C15 UNL     1      16.637   3.334  13.046  1.00  0.00     0.156 C 
ENDROOT
BRANCH   1  10
HETATM   10  N1  UNL     1      16.220   2.625  15.381  1.00  0.00    -0.246 N 
HETATM   11  C2  UNL     1      15.113   3.052  15.996  1.00  0.00     0.038 A 
HETATM   12  C1  UNL     1      14.478   4.365  15.895  1.00  0.00     0.070 C 
HETATM   13  C3  UNL     1      14.654   2.011  16.768  1.00  0.00     0.110 A 
HETATM   14  C4  UNL     1      15.536   0.978  16.573  1.00  0.00     0.306 A 
HETATM   15  O1  UNL     1      15.437  -0.146  17.122  1.00  0.00    -0.258 OA
HETATM   16  O2  UNL     1      16.432   1.408  15.745  1.00  0.00    -0.193 OA
ENDBRANCH   1  10
BRANCH   6  17
HETATM   17  O3  UNL     1      18.281   3.465   9.894  1.00  0.00    -0.390 OA
ATOM     18  H3  UNL     1      18.132   4.013   9.132  1.00  0.00     0.210 HD
ENDBRANCH   6  17
BRANCH   7  19
HETATM   19  O4  UNL     1      17.114   1.234  10.496  1.00  0.00    -0.352 OA
BRANCH  19  20
HETATM   20  C12 UNL     1      17.814   0.458  11.393  1.00  0.00     0.144 C 
HETATM   21  C13 UNL     1      19.302   0.457  11.020  1.00  0.00     0.042 C 
BRANCH  20  22
HETATM   22  C14 UNL     1      17.256  -0.943  11.352  1.00  0.00     0.195 C 
BRANCH  22  23
HETATM   23  O5  UNL     1      18.293  -1.882  11.305  1.00  0.00    -0.398 OA
ATOM     24  H5  UNL     1      17.949  -2.762  11.410  1.00  0.00     0.209 HD
ENDBRANCH  22  23
ENDBRANCH  20  22
ENDBRANCH  19  20
ENDBRANCH   7  19
TORSDOF 6
ENDMDL
MODEL 2
REMARK VINA RESULT: -7.865329599      1.167      1.251
REMARK  6 active torsions:
REMARK  status: ('A' for Active; 'I' for Inactive)
REMARK    1  A    between atoms: N1_7  and  C5_8 
REMARK    2  A    between atoms: C10_13  and  O3_14 
REMARK    3  A    between atoms: C11_16  and  O4_17 
REMARK    4  A    between atoms: O4_17  and  C12_18 
REMARK    5  A    between atoms: C12_18  and  C14_20 
REMARK    6  A    between atoms: C14_20  and  O5_21 
ROOT
HETATM    1  C5  UNL     1      17.669   4.244  14.207  1.00  0.00     0.144 C 
HETATM    2  C6  UNL     1      17.719   5.686  14.671  1.00  0.00     0.030 C 
HETATM    3  C7  UNL     1      18.569   6.547  13.822  1.00  0.00     0.003 C 
HETATM    4  C8  UNL     1      18.528   6.299  12.361  1.00  0.00     0.010 C 
HETATM    5  C9  UNL     1      18.437   4.845  12.003  1.00  0.00     0.050 C 
HETATM    6  C10 UNL     1      17.939   4.571  10.623  1.00  0.00     0.179 C 
HETATM    7  C11 UNL     1      17.218   3.255  10.801  1.00  0.00     0.289 C 
HETATM    8  O6  UNL     1      17.217   2.986  12.188  1.00  0.00    -0.351 OA
HETATM    9  C15 UNL     1      17.255   4.237  12.788  1.00  0.00     0.156 C 
ENDROOT
BRANCH   1  10
HETATM   10  N1  UNL     1      16.836   3.456  15.100  1.00  0.00    -0.246 N 
HETATM   11  C2  UNL     1      15.562   3.662  15.448  1.00  0.00     0.038 A 
HETATM   12  C1  UNL     1      14.676   4.740  15.016  1.00  0.00     0.070 C 
HETATM   13  C3  UNL     1      15.212   2.651  16.312  1.00  0.00     0.110 A 
HETATM   14  C4  UNL     1      16.328   1.864  16.445  1.00  0.00     0.306 A 
HETATM   15  O1  UNL     1      16.384   0.836  17.164  1.00  0.00    -0.258 OA
HETATM   16  O2  UNL     1      17.246   2.395  15.704  1.00  0.00    -0.193 OA
ENDBRANCH   1  10
BRANCH   6  17
HETATM   17  O3  UNL     1      18.946   4.526   9.671  1.00  0.00    -0.390 OA
ATOM     18  H3  UNL     1      18.624   4.558   8.778  1.00  0.00     0.210 HD
ENDBRANCH   6  17
BRANCH   7  19
HETATM   19  O4  UNL     1      17.893   2.222  10.205  1.00  0.00    -0.352 OA
BRANCH  19  20
HETATM   20  C12 UNL     1      18.442   1.343  11.113  1.00  0.00     0.144 C 
HETATM   21  C13 UNL     1      19.972   1.388  11.011  1.00  0.00     0.042 C 
BRANCH  20  22
HETATM   22  C14 UNL     1      17.931  -0.043  10.807  1.00  0.00     0.195 C 
BRANCH  22  23
HETATM   23  O5  UNL     1      17.837  -0.237   9.423  1.00  0.00    -0.398 OA
ATOM     24  H5  UNL     1      17.941  -1.157   9.208  1.00  0.00     0.209 HD
ENDBRANCH  22  23
ENDBRANCH  20  22
ENDBRANCH  19  20
ENDBRANCH   7  19
TORSDOF 6
ENDMDL
MODEL 3
REMARK VINA RESULT: -7.790411271      1.011      1.131
REMARK  6 active torsions:
REMARK  status: ('A' for Active; 'I' for Inactive)
REMARK    1  A    between atoms: N1_7  and  C5_8 
REMARK    2  A    between atoms: C10_13  and  O3_14 
REMARK    3  A    between atoms: C11_16  and  O4_17 
REMARK    4  A    between atoms: O4_17  and  C12_18 
REMARK    5  A    between atoms: C12_18  and  C14_20 
REMARK    6  A    between atoms: C14_20  and  O5_21 
ROOT
HETATM    1  C5  UNL     1      17.593   3.666  14.615  1.00  0.00     0.144 C 
HETATM    2  C6  UNL     1      17.531   5.175  14.744  1.00  0.00     0.030 C 
HETATM    3  C7  UNL     1      18.491   5.880  13.868  1.00  0.00     0.003 C 
HETATM    4  C8  UNL     1      18.703   5.316  12.513  1.00  0.00     0.010 C 
HETATM    5  C9  UNL     1      18.707   3.817  12.482  1.00  0.00     0.050 C 
HETATM    6  C10 UNL     1      18.455   3.218  11.139  1.00  0.00     0.179 C 
HETATM    7  C11 UNL     1      17.745   1.932  11.492  1.00  0.00     0.289 C 
HETATM    8  O6  UNL     1      17.517   1.973  12.885  1.00  0.00    -0.351 OA
HETATM    9  C15 UNL     1      17.424   3.324  13.187  1.00  0.00     0.156 C 
ENDROOT
BRANCH   1  10
HETATM   10  N1  UNL     1      16.640   3.044  15.518  1.00  0.00    -0.246 N 
HETATM   11  C2  UNL     1      15.351   3.342  15.703  1.00  0.00     0.038 A 
HETATM   12  C1  UNL     1      14.565   4.379  15.038  1.00  0.00     0.070 C 
HETATM   13  C3  UNL     1      14.870   2.478  16.658  1.00  0.00     0.110 A 
HETATM   14  C4  UNL     1      15.927   1.679  17.011  1.00  0.00     0.306 A 
HETATM   15  O1  UNL     1      15.864   0.762  17.867  1.00  0.00    -0.258 OA
HETATM   16  O2  UNL     1      16.937   2.066  16.301  1.00  0.00    -0.193 OA
ENDBRANCH   1  10
BRANCH   6  17
HETATM   17  O3  UNL     1      19.608   3.027  10.394  1.00  0.00    -0.390 OA
ATOM     18  H3  UNL     1      20.385   3.398  10.796  1.00  0.00     0.210 HD
ENDBRANCH   6  17
BRANCH   7  19
HETATM   19  O4  UNL     1      18.535   0.836  11.259  1.00  0.00    -0.352 OA
BRANCH  19  20
HETATM   20  C12 UNL     1      17.854  -0.201  10.660  1.00  0.00     0.144 C 
HETATM   21  C13 UNL     1      16.438   0.260  10.292  1.00  0.00     0.042 C 
BRANCH  20  22
HETATM   22  C14 UNL     1      17.801  -1.360  11.624  1.00  0.00     0.195 C 
BRANCH  22  23
HETATM   23  O5  UNL     1      18.773  -2.313  11.299  1.00  0.00    -0.398 OA
ATOM     24  H5  UNL     1      18.627  -2.652  10.423  1.00  0.00     0.209 HD
ENDBRANCH  22  23
ENDBRANCH  20  22
ENDBRANCH  19  20
ENDBRANCH   7  19
TORSDOF 6
ENDMDL
MODEL 4
REMARK VINA RESULT: -7.671781367      2.486      4.414
REMARK  6 active torsions:
REMARK  status: ('A' for Active; 'I' for Inactive)
REMARK    1  A    between atoms: N1_7  and  C5_8 
REMARK    2  A    between atoms: C10_13  and  O3_14 
REMARK    3  A    between atoms: C11_16  and  O4_17 
REMARK    4  A    between atoms: O4_17  and  C12_18 
REMARK    5  A    between atoms: C12_18  and  C14_20 
REMARK    6  A    between atoms: C14_20  and  O5_21 
ROOT
HETATM    1  C5  UNL     1      17.228   1.319  12.368  1.00  0.00     0.144 C 
HETATM    2  C6  UNL     1      16.849  -0.132  12.146  1.00  0.00     0.030 C 
HETATM    3  C7  UNL     1      17.123  -0.608  10.773  1.00  0.00     0.003 C 
HETATM    4  C8  UNL     1      18.365  -0.116  10.129  1.00  0.00     0.010 C 
HETATM    5  C9  UNL     1      18.676   1.317  10.441  1.00  0.00     0.050 C 
HETATM    6  C10 UNL     1      20.097   1.713  10.214  1.00  0.00     0.179 C 
HETATM    7  C11 UNL     1      20.304   2.773  11.271  1.00  0.00     0.289 C 
HETATM    8  O6  UNL     1      19.134   2.780  12.062  1.00  0.00    -0.351 OA
HETATM    9  C15 UNL     1      18.643   1.485  11.976  1.00  0.00     0.156 C 
ENDROOT
BRANCH   1  10
HETATM   10  N1  UNL     1      16.911   1.720  13.729  1.00  0.00    -0.246 N 
HETATM   11  C2  UNL     1      16.532   2.921  14.176  1.00  0.00     0.038 A 
HETATM   12  C1  UNL     1      16.338   4.147  13.405  1.00  0.00     0.070 C 
HETATM   13  C3  UNL     1      16.348   2.806  15.533  1.00  0.00     0.110 A 
HETATM   14  C4  UNL     1      16.635   1.500  15.844  1.00  0.00     0.306 A 
HETATM   15  O1  UNL     1      16.575   1.022  17.004  1.00  0.00    -0.258 OA
HETATM   16  O2  UNL     1      16.958   0.918  14.735  1.00  0.00    -0.193 OA
ENDBRANCH   1  10
BRANCH   6  17
HETATM   17  O3  UNL     1      20.347   2.159   8.926  1.00  0.00    -0.390 OA
ATOM     18  H3  UNL     1      19.559   2.306   8.416  1.00  0.00     0.210 HD
ENDBRANCH   6  17
BRANCH   7  19
HETATM   19  O4  UNL     1      20.409   4.024  10.721  1.00  0.00    -0.352 OA
BRANCH  19  20
HETATM   20  C12 UNL     1      21.394   4.789  11.307  1.00  0.00     0.144 C 
HETATM   21  C13 UNL     1      21.159   6.269  10.978  1.00  0.00     0.042 C 
BRANCH  20  22
HETATM   22  C14 UNL     1      22.732   4.334  10.779  1.00  0.00     0.195 C 
BRANCH  22  23
HETATM   23  O5  UNL     1      23.673   4.275  11.813  1.00  0.00    -0.398 OA
ATOM     24  H5  UNL     1      24.301   3.580  11.653  1.00  0.00     0.209 HD
ENDBRANCH  22  23
ENDBRANCH  20  22
ENDBRANCH  19  20
ENDBRANCH   7  19
TORSDOF 6
ENDMDL
MODEL 5
REMARK VINA RESULT: -7.561416245      1.332      1.523
REMARK  6 active torsions:
REMARK  status: ('A' for Active; 'I' for Inactive)
REMARK    1  A    between atoms: N1_7  and  C5_8 
REMARK    2  A    between atoms: C10_13  and  O3_14 
REMARK    3  A    between atoms: C11_16  and  O4_17 
REMARK    4  A    between atoms: O4_17  and  C12_18 
REMARK    5  A    between atoms: C12_18  and  C14_20 
REMARK    6  A    between atoms: C14_20  and  O5_21 
ROOT
HETATM    1  C5  UNL     1      15.986   3.833  14.969  1.00  0.00     0.144 C 
HETATM    2  C6  UNL     1      15.006   4.987  14.901  1.00  0.00     0.030 C 
HETATM    3  C7  UNL     1      15.449   6.084  14.016  1.00  0.00     0.003 C 
HETATM    4  C8  UNL     1      16.140   5.697  12.762  1.00  0.00     0.010 C 
HETATM    5  C9  UNL     1      17.057   4.520  12.921  1.00  0.00     0.050 C 
HETATM    6  C10 UNL     1      17.404   3.821  11.650  1.00  0.00     0.179 C 
HETATM    7  C11 UNL     1      17.579   2.392  12.110  1.00  0.00     0.289 C 
HETATM    8  O6  UNL     1      17.187   2.361  13.467  1.00  0.00    -0.351 OA
HETATM    9  C15 UNL     1      16.255   3.382  13.587  1.00  0.00     0.156 C 
ENDROOT
BRANCH   1  10
HETATM   10  N1  UNL     1      15.495   2.806  15.872  1.00  0.00    -0.246 N 
HETATM   11  C2  UNL     1      14.633   2.932  16.886  1.00  0.00     0.038 A 
HETATM   12  C1  UNL     1      13.960   4.144  17.348  1.00  0.00     0.070 C 
HETATM   13  C3  UNL     1      14.479   1.683  17.441  1.00  0.00     0.110 A 
HETATM   14  C4  UNL     1      15.282   0.843  16.711  1.00  0.00     0.306 A 
HETATM   15  O1  UNL     1      15.400  -0.387  16.930  1.00  0.00    -0.258 OA
HETATM   16  O2  UNL     1      15.849   1.570  15.803  1.00  0.00    -0.193 OA
ENDBRANCH   1  10
BRANCH   6  17
HETATM   17  O3  UNL     1      18.524   4.341  11.021  1.00  0.00    -0.390 OA
ATOM     18  H3  UNL     1      19.111   3.676  10.680  1.00  0.00     0.210 HD
ENDBRANCH   6  17
BRANCH   7  19
HETATM   19  O4  UNL     1      18.894   2.006  12.077  1.00  0.00    -0.352 OA
BRANCH  19  20
HETATM   20  C12 UNL     1      19.127   0.967  11.203  1.00  0.00     0.144 C 
HETATM   21  C13 UNL     1      19.975   1.466  10.026  1.00  0.00     0.042 C 
BRANCH  20  22
HETATM   22  C14 UNL     1      17.799   0.445  10.715  1.00  0.00     0.195 C 
BRANCH  22  23
HETATM   23  O5  UNL     1      17.952  -0.219   9.492  1.00  0.00    -0.398 OA
ATOM     24  H5  UNL     1      17.106  -0.377   9.090  1.00  0.00     0.209 HD
ENDBRANCH  22  23
ENDBRANCH  20  22
ENDBRANCH  19  20
ENDBRANCH   7  19
TORSDOF 6
ENDMDL
