MODEL 1
REMARK VINA RESULT: -8.996055624      0.000      0.000
REMARK  6 active torsions:
REMARK  status: ('A' for Active; 'I' for Inactive)
REMARK    1  A    between atoms: C2_2  and  N1_3 
REMARK    2  A    between atoms: C4_5  and  C5_6 
REMARK    3  A    between atoms: C5_6  and  N2_7 
REMARK    4  A    between atoms: C7_12  and  N4_13 
REMARK    5  A    between atoms: N5_16  and  N6_17 
REMARK    6  A    between atoms: C11_25  and  C12_26 
REMARK       I    between atoms: C12_26  and  N9_28 
ROOT
HETATM    1  N2  UNL     1      18.043 -31.932   5.253  1.00  0.00    -0.350 N 
ATOM      2  H2  UNL     1      17.053 -32.163   5.172  1.00  0.00     0.166 HD
HETATM    3  C6  UNL     1      18.109 -30.802   5.729  1.00  0.00     0.145 A 
HETATM    4  N3  UNL     1      16.936 -30.135   6.032  1.00  0.00    -0.173 N 
ATOM      5  H3  UNL     1      16.050 -30.605   5.849  1.00  0.00     0.186 HD
HETATM    6  C7  UNL     1      16.909 -28.905   6.551  1.00  0.00     0.699 A 
HETATM    7  N5  UNL     1      18.067 -28.255   6.804  1.00  0.00    -0.077 N 
HETATM    8  C8  UNL     1      19.262 -28.811   6.548  1.00  0.00     0.180 A 
HETATM    9  N7  UNL     1      20.490 -28.132   6.812  1.00  0.00    -0.078 NA
HETATM   10  C9  UNL     1      19.257 -30.109   6.001  1.00  0.00     0.132 A 
HETATM   11  C10 UNL     1      20.545 -30.698   5.734  1.00  0.00     0.107 C 
HETATM   12  N8  UNL     1      21.582 -31.145   5.538  1.00  0.00    -0.191 NA
ENDROOT
BRANCH   1  13
HETATM   13  C5  UNL     1      18.746 -33.011   4.785  1.00  0.00     0.105 C 
BRANCH  13  14
HETATM   14  C4  UNL     1      18.320 -34.286   5.478  1.00  0.00     0.030 A 
HETATM   15  C3  UNL     1      18.499 -34.534   6.810  1.00  0.00     0.125 A 
HETATM   16  N1  UNL     1      17.990 -35.758   7.037  1.00  0.00    -0.302 N 
HETATM   17  N10 UNL     1      17.513 -36.258   5.914  1.00  0.00    -0.293 N 
HETATM   18  C11 UNL     1      17.697 -35.383   4.930  1.00  0.00     0.129 A 
ATOM     19  H10 UNL     1      17.073 -37.173   5.816  1.00  0.00     0.187 HD
BRANCH  16  20
HETATM   20  C2  UNL     1      17.975 -36.418   8.341  1.00  0.00     0.143 C 
HETATM   21  C1  UNL     1      17.059 -35.709   9.310  1.00  0.00     0.028 C 
ENDBRANCH  16  20
BRANCH  18  22
HETATM   22  C12 UNL     1      17.312 -35.533   3.509  1.00  0.00     0.272 C 
HETATM   23  O1  UNL     1      16.608 -34.640   2.965  1.00  0.00    -0.266 OA
HETATM   24  N9  UNL     1      17.703 -36.643   2.729  1.00  0.00    -0.355 N 
HETATM   25  C13 UNL     1      17.284 -36.710   1.347  1.00  0.00     0.152 C 
HETATM   26  C14 UNL     1      18.511 -37.709   3.277  1.00  0.00     0.152 C 
ENDBRANCH  18  22
ENDBRANCH  13  14
ENDBRANCH   1  13
BRANCH   7  27
HETATM   27  N6  UNL     1      18.023 -26.979   7.342  1.00  0.00    -0.323 N 
ATOM     28  H62 UNL     1      17.611 -26.847   8.266  1.00  0.00     0.178 HD
ATOM     29  H61 UNL     1      18.404 -26.199   6.807  1.00  0.00     0.178 HD
ENDBRANCH   7  27
BRANCH   6  30
HETATM   30  N4  UNL     1      15.794 -28.305   6.823  1.00  0.00    -0.233 N 
ATOM     31  H42 UNL     1      14.920 -28.793   6.626  1.00  0.00     0.174 HD
ATOM     32  H41 UNL     1      15.773 -27.367   7.226  1.00  0.00     0.174 HD
ENDBRANCH   6  30
TORSDOF 6
ENDMDL
MODEL 2
REMARK VINA RESULT: -8.909897825      1.777      4.313
REMARK  6 active torsions:
REMARK  status: ('A' for Active; 'I' for Inactive)
REMARK    1  A    between atoms: C2_2  and  N1_3 
REMARK    2  A    between atoms: C4_5  and  C5_6 
REMARK    3  A    between atoms: C5_6  and  N2_7 
REMARK    4  A    between atoms: C7_12  and  N4_13 
REMARK    5  A    between atoms: N5_16  and  N6_17 
REMARK    6  A    between atoms: C11_25  and  C12_26 
REMARK       I    between atoms: C12_26  and  N9_28 
ROOT
HETATM    1  N2  UNL     1      18.908 -31.556   5.575  1.00  0.00    -0.350 N 
ATOM      2  H2  UNL     1      19.684 -32.214   5.509  1.00  0.00     0.166 HD
HETATM    3  C6  UNL     1      19.334 -30.555   6.144  1.00  0.00     0.145 A 
HETATM    4  N3  UNL     1      20.657 -30.525   6.542  1.00  0.00    -0.173 N 
ATOM      5  H3  UNL     1      21.241 -31.339   6.348  1.00  0.00     0.186 HD
HETATM    6  C7  UNL     1      21.208 -29.482   7.167  1.00  0.00     0.699 A 
HETATM    7  N5  UNL     1      20.462 -28.387   7.439  1.00  0.00    -0.077 N 
HETATM    8  C8  UNL     1      19.166 -28.312   7.097  1.00  0.00     0.180 A 
HETATM    9  N7  UNL     1      18.370 -27.161   7.379  1.00  0.00    -0.078 NA
HETATM   10  C9  UNL     1      18.614 -29.428   6.438  1.00  0.00     0.132 A 
HETATM   11  C10 UNL     1      17.224 -29.335   6.071  1.00  0.00     0.107 C 
HETATM   12  N8  UNL     1      16.118 -29.232   5.786  1.00  0.00    -0.191 NA
ENDROOT
BRANCH   1  13
HETATM   13  C5  UNL     1      17.823 -32.158   4.992  1.00  0.00     0.105 C 
BRANCH  13  14
HETATM   14  C4  UNL     1      18.018 -33.653   4.883  1.00  0.00     0.030 A 
HETATM   15  C3  UNL     1      17.580 -34.411   3.833  1.00  0.00     0.125 A 
HETATM   16  N1  UNL     1      17.946 -35.677   4.104  1.00  0.00    -0.302 N 
HETATM   17  N10 UNL     1      18.582 -35.720   5.259  1.00  0.00    -0.293 N 
HETATM   18  C11 UNL     1      18.648 -34.494   5.771  1.00  0.00     0.129 A 
ATOM     19  H10 UNL     1      18.963 -36.562   5.691  1.00  0.00     0.187 HD
BRANCH  16  20
HETATM   20  C2  UNL     1      17.672 -36.821   3.236  1.00  0.00     0.143 C 
HETATM   21  C1  UNL     1      17.509 -36.395   1.796  1.00  0.00     0.028 C 
ENDBRANCH  16  20
BRANCH  18  22
HETATM   22  C12 UNL     1      19.274 -34.085   7.047  1.00  0.00     0.272 C 
HETATM   23  O1  UNL     1      20.447 -33.625   7.036  1.00  0.00    -0.266 OA
HETATM   24  N9  UNL     1      18.608 -34.188   8.288  1.00  0.00    -0.355 N 
HETATM   25  C13 UNL     1      19.294 -33.764   9.487  1.00  0.00     0.152 C 
HETATM   26  C14 UNL     1      17.261 -34.704   8.385  1.00  0.00     0.152 C 
ENDBRANCH  18  22
ENDBRANCH  13  14
ENDBRANCH   1  13
BRANCH   7  27
HETATM   27  N6  UNL     1      21.047 -27.313   8.089  1.00  0.00    -0.323 N 
ATOM     28  H62 UNL     1      22.055 -27.180   8.013  1.00  0.00     0.178 HD
ATOM     29  H61 UNL     1      20.460 -26.677   8.628  1.00  0.00     0.178 HD
ENDBRANCH   7  27
BRANCH   6  30
HETATM   30  N4  UNL     1      22.453 -29.483   7.529  1.00  0.00    -0.233 N 
ATOM     31  H42 UNL     1      23.154 -29.189   6.849  1.00  0.00     0.174 HD
ATOM     32  H41 UNL     1      22.740 -29.767   8.465  1.00  0.00     0.174 HD
ENDBRANCH   6  30
TORSDOF 6
ENDMDL
MODEL 3
REMARK VINA RESULT: -8.886774248      0.980      2.477
REMARK  6 active torsions:
REMARK  status: ('A' for Active; 'I' for Inactive)
REMARK    1  A    between atoms: C2_2  and  N1_3 
REMARK    2  A    between atoms: C4_5  and  C5_6 
REMARK    3  A    between atoms: C5_6  and  N2_7 
REMARK    4  A    between atoms: C7_12  and  N4_13 
REMARK    5  A    between atoms: N5_16  and  N6_17 
REMARK    6  A    between atoms: C11_25  and  C12_26 
REMARK       I    between atoms: C12_26  and  N9_28 
ROOT
HETATM    1  N2  UNL     1      19.244 -32.022   5.747  1.00  0.00    -0.350 N 
ATOM      2  H2  UNL     1      20.037 -32.661   5.805  1.00  0.00     0.166 HD
HETATM    3  C6  UNL     1      19.603 -30.961   6.250  1.00  0.00     0.145 A 
HETATM    4  N3  UNL     1      20.889 -30.857   6.747  1.00  0.00    -0.173 N 
ATOM      5  H3  UNL     1      21.502 -31.669   6.679  1.00  0.00     0.186 HD
HETATM    6  C7  UNL     1      21.365 -29.746   7.313  1.00  0.00     0.699 A 
HETATM    7  N5  UNL     1      20.578 -28.652   7.419  1.00  0.00    -0.077 N 
HETATM    8  C8  UNL     1      19.313 -28.645   6.969  1.00  0.00     0.180 A 
HETATM    9  N7  UNL     1      18.474 -27.494   7.077  1.00  0.00    -0.078 NA
HETATM   10  C9  UNL     1      18.839 -29.832   6.378  1.00  0.00     0.132 A 
HETATM   11  C10 UNL     1      17.482 -29.811   5.894  1.00  0.00     0.107 C 
HETATM   12  N8  UNL     1      16.402 -29.765   5.513  1.00  0.00    -0.191 NA
ENDROOT
BRANCH   1  13
HETATM   13  C5  UNL     1      18.223 -32.704   5.139  1.00  0.00     0.105 C 
BRANCH  13  14
HETATM   14  C4  UNL     1      18.025 -34.067   5.765  1.00  0.00     0.030 A 
HETATM   15  C3  UNL     1      18.236 -34.343   7.086  1.00  0.00     0.125 A 
HETATM   16  N1  UNL     1      17.951 -35.648   7.248  1.00  0.00    -0.302 N 
HETATM   17  N10 UNL     1      17.580 -36.170   6.095  1.00  0.00    -0.293 N 
HETATM   18  C11 UNL     1      17.612 -35.229   5.155  1.00  0.00     0.129 A 
ATOM     19  H10 UNL     1      17.311 -37.142   5.947  1.00  0.00     0.187 HD
BRANCH  16  20
HETATM   20  C2  UNL     1      18.045 -36.364   8.519  1.00  0.00     0.143 C 
HETATM   21  C1  UNL     1      16.941 -35.956   9.466  1.00  0.00     0.028 C 
ENDBRANCH  16  20
BRANCH  18  22
HETATM   22  C12 UNL     1      17.271 -35.375   3.723  1.00  0.00     0.272 C 
HETATM   23  O1  UNL     1      16.579 -34.484   3.162  1.00  0.00    -0.266 OA
HETATM   24  N9  UNL     1      17.691 -36.480   2.951  1.00  0.00    -0.355 N 
HETATM   25  C13 UNL     1      17.314 -36.543   1.557  1.00  0.00     0.152 C 
HETATM   26  C14 UNL     1      18.488 -37.544   3.519  1.00  0.00     0.152 C 
ENDBRANCH  18  22
ENDBRANCH  13  14
ENDBRANCH   1  13
BRANCH   7  27
HETATM   27  N6  UNL     1      21.086 -27.507   8.009  1.00  0.00    -0.323 N 
ATOM     28  H62 UNL     1      22.097 -27.373   8.036  1.00  0.00     0.178 HD
ATOM     29  H61 UNL     1      20.442 -26.821   8.402  1.00  0.00     0.178 HD
ENDBRANCH   7  27
BRANCH   6  30
HETATM   30  N4  UNL     1      22.576 -29.679   7.770  1.00  0.00    -0.233 N 
ATOM     31  H42 UNL     1      23.347 -29.680   7.103  1.00  0.00     0.174 HD
ATOM     32  H41 UNL     1      22.770 -29.628   8.771  1.00  0.00     0.174 HD
ENDBRANCH   6  30
TORSDOF 6
ENDMDL
MODEL 4
REMARK VINA RESULT: -8.793090288      1.884      4.376
REMARK  6 active torsions:
REMARK  status: ('A' for Active; 'I' for Inactive)
REMARK    1  A    between atoms: C2_2  and  N1_3 
REMARK    2  A    between atoms: C4_5  and  C5_6 
REMARK    3  A    between atoms: C5_6  and  N2_7 
REMARK    4  A    between atoms: C7_12  and  N4_13 
REMARK    5  A    between atoms: N5_16  and  N6_17 
REMARK    6  A    between atoms: C11_25  and  C12_26 
REMARK       I    between atoms: C12_26  and  N9_28 
ROOT
HETATM    1  N2  UNL     1      18.170 -31.623   6.346  1.00  0.00    -0.350 N 
ATOM      2  H2  UNL     1      18.926 -32.106   5.861  1.00  0.00     0.166 HD
HETATM    3  C6  UNL     1      18.630 -30.563   6.761  1.00  0.00     0.145 A 
HETATM    4  N3  UNL     1      19.956 -30.265   6.509  1.00  0.00    -0.173 N 
ATOM      5  H3  UNL     1      20.513 -30.939   5.983  1.00  0.00     0.186 HD
HETATM    6  C7  UNL     1      20.542 -29.139   6.921  1.00  0.00     0.699 A 
HETATM    7  N5  UNL     1      19.832 -28.226   7.620  1.00  0.00    -0.077 N 
HETATM    8  C8  UNL     1      18.536 -28.415   7.920  1.00  0.00     0.180 A 
HETATM    9  N7  UNL     1      17.778 -27.457   8.659  1.00  0.00    -0.078 NA
HETATM   10  C9  UNL     1      17.947 -29.613   7.471  1.00  0.00     0.132 A 
HETATM   11  C10 UNL     1      16.555 -29.804   7.795  1.00  0.00     0.107 C 
HETATM   12  N8  UNL     1      15.447 -29.927   8.060  1.00  0.00    -0.191 NA
ENDROOT
BRANCH   1  13
HETATM   13  C5  UNL     1      17.064 -32.428   6.264  1.00  0.00     0.105 C 
BRANCH  13  14
HETATM   14  C4  UNL     1      17.443 -33.846   5.899  1.00  0.00     0.030 A 
HETATM   15  C3  UNL     1      17.151 -34.437   4.702  1.00  0.00     0.125 A 
HETATM   16  N1  UNL     1      17.654 -35.683   4.764  1.00  0.00    -0.302 N 
HETATM   17  N10 UNL     1      18.233 -35.873   5.934  1.00  0.00    -0.293 N 
HETATM   18  C11 UNL     1      18.125 -34.765   6.663  1.00  0.00     0.129 A 
ATOM     19  H10 UNL     1      18.691 -36.734   6.232  1.00  0.00     0.187 HD
BRANCH  16  20
HETATM   20  C2  UNL     1      17.563 -36.666   3.686  1.00  0.00     0.143 C 
HETATM   21  C1  UNL     1      17.489 -35.998   2.333  1.00  0.00     0.028 C 
ENDBRANCH  16  20
BRANCH  18  22
HETATM   22  C12 UNL     1      18.634 -34.537   8.033  1.00  0.00     0.272 C 
HETATM   23  O1  UNL     1      19.552 -33.693   8.215  1.00  0.00    -0.266 OA
HETATM   24  N9  UNL     1      18.132 -35.230   9.155  1.00  0.00    -0.355 N 
HETATM   25  C13 UNL     1      18.686 -34.945  10.459  1.00  0.00     0.152 C 
HETATM   26  C14 UNL     1      17.079 -36.213   9.031  1.00  0.00     0.152 C 
ENDBRANCH  18  22
ENDBRANCH  13  14
ENDBRANCH   1  13
BRANCH   7  27
HETATM   27  N6  UNL     1      20.454 -27.062   8.042  1.00  0.00    -0.323 N 
ATOM     28  H62 UNL     1      21.433 -27.101   8.322  1.00  0.00     0.178 HD
ATOM     29  H61 UNL     1      19.922 -26.192   8.062  1.00  0.00     0.178 HD
ENDBRANCH   7  27
BRANCH   6  30
HETATM   30  N4  UNL     1      21.788 -28.888   6.669  1.00  0.00    -0.233 N 
ATOM     31  H42 UNL     1      22.433 -29.673   6.585  1.00  0.00     0.174 HD
ATOM     32  H41 UNL     1      22.131 -27.933   6.556  1.00  0.00     0.174 HD
ENDBRANCH   6  30
TORSDOF 6
ENDMDL
MODEL 5
REMARK VINA RESULT: -8.671266118      2.161      3.922
REMARK  6 active torsions:
REMARK  status: ('A' for Active; 'I' for Inactive)
REMARK    1  A    between atoms: C2_2  and  N1_3 
REMARK    2  A    between atoms: C4_5  and  C5_6 
REMARK    3  A    between atoms: C5_6  and  N2_7 
REMARK    4  A    between atoms: C7_12  and  N4_13 
REMARK    5  A    between atoms: N5_16  and  N6_17 
REMARK    6  A    between atoms: C11_25  and  C12_26 
REMARK       I    between atoms: C12_26  and  N9_28 
ROOT
HETATM    1  N2  UNL     1      18.507 -30.783   5.492  1.00  0.00    -0.350 N 
ATOM      2  H2  UNL     1      17.524 -30.982   5.302  1.00  0.00     0.166 HD
HETATM    3  C6  UNL     1      18.537 -29.789   6.212  1.00  0.00     0.145 A 
HETATM    4  N3  UNL     1      17.345 -29.197   6.585  1.00  0.00    -0.173 N 
ATOM      5  H3  UNL     1      16.474 -29.606   6.249  1.00  0.00     0.186 HD
HETATM    6  C7  UNL     1      17.280 -28.114   7.363  1.00  0.00     0.699 A 
HETATM    7  N5  UNL     1      18.417 -27.546   7.826  1.00  0.00    -0.077 N 
HETATM    8  C8  UNL     1      19.628 -28.041   7.524  1.00  0.00     0.180 A 
HETATM    9  N7  UNL     1      20.834 -27.449   8.007  1.00  0.00    -0.078 NA
HETATM   10  C9  UNL     1      19.663 -29.184   6.701  1.00  0.00     0.132 A 
HETATM   11  C10 UNL     1      20.968 -29.709   6.388  1.00  0.00     0.107 C 
HETATM   12  N8  UNL     1      22.018 -30.109   6.159  1.00  0.00    -0.191 NA
ENDROOT
BRANCH   1  13
HETATM   13  C5  UNL     1      19.242 -31.736   4.838  1.00  0.00     0.105 C 
BRANCH  13  14
HETATM   14  C4  UNL     1      18.900 -33.125   5.328  1.00  0.00     0.030 A 
HETATM   15  C3  UNL     1      18.314 -34.090   4.557  1.00  0.00     0.125 A 
HETATM   16  N1  UNL     1      18.179 -35.171   5.346  1.00  0.00    -0.302 N 
HETATM   17  N10 UNL     1      18.652 -34.909   6.549  1.00  0.00    -0.293 N 
HETATM   18  C11 UNL     1      19.106 -33.659   6.579  1.00  0.00     0.129 A 
ATOM     19  H10 UNL     1      18.667 -35.561   7.332  1.00  0.00     0.187 HD
BRANCH  16  20
HETATM   20  C2  UNL     1      17.592 -36.440   4.917  1.00  0.00     0.143 C 
HETATM   21  C1  UNL     1      17.768 -36.656   3.432  1.00  0.00     0.028 C 
ENDBRANCH  16  20
BRANCH  18  22
HETATM   22  C12 UNL     1      19.721 -32.953   7.725  1.00  0.00     0.272 C 
HETATM   23  O1  UNL     1      20.977 -32.898   7.810  1.00  0.00    -0.266 OA
HETATM   24  N9  UNL     1      18.955 -32.332   8.736  1.00  0.00    -0.355 N 
HETATM   25  C13 UNL     1      19.638 -31.663   9.819  1.00  0.00     0.152 C 
HETATM   26  C14 UNL     1      17.510 -32.350   8.711  1.00  0.00     0.152 C 
ENDBRANCH  18  22
ENDBRANCH  13  14
ENDBRANCH   1  13
BRANCH   7  27
HETATM   27  N6  UNL     1      18.334 -26.423   8.632  1.00  0.00    -0.323 N 
ATOM     28  H62 UNL     1      19.191 -26.033   9.025  1.00  0.00     0.178 HD
ATOM     29  H61 UNL     1      17.420 -26.008   8.815  1.00  0.00     0.178 HD
ENDBRANCH   7  27
BRANCH   6  30
HETATM   30  N4  UNL     1      16.147 -27.580   7.696  1.00  0.00    -0.233 N 
ATOM     31  H42 UNL     1      16.030 -27.248   8.653  1.00  0.00     0.174 HD
ATOM     32  H41 UNL     1      15.381 -27.487   7.028  1.00  0.00     0.174 HD
ENDBRANCH   6  30
TORSDOF 6
ENDMDL
