MODEL 1
REMARK VINA RESULT: -8.047397619      0.000      0.000
REMARK  7 active torsions:
REMARK  status: ('A' for Active; 'I' for Inactive)
REMARK    1  A    between atoms: C2_2  and  O1_3 
REMARK    2  A    between atoms: O1_3  and  C3_4 
REMARK    3  A    between atoms: C3_4  and  C4_6 
REMARK    4  A    between atoms: C5_9  and  N2_10 
REMARK    5  A    between atoms: N2_10  and  N3_12 
REMARK    6  A    between atoms: C7_22  and  S1_23 
REMARK    7  A    between atoms: S1_23  and  N7_26 
REMARK       I    between atoms: N7_26  and  C8_28 
ROOT
HETATM    1  C4  UNL     1      18.564 -32.905   6.688  1.00  0.00     0.141 A 
HETATM    2  N1  UNL     1      17.905 -34.095   6.422  1.00  0.00    -0.183 N 
ATOM      3  H1  UNL     1      16.994 -34.257   6.851  1.00  0.00     0.184 HD
HETATM    4  C5  UNL     1      18.412 -35.031   5.631  1.00  0.00     0.698 A 
HETATM    5  N4  UNL     1      19.604 -34.877   5.039  1.00  0.00    -0.173 N 
ATOM      6  H4  UNL     1      19.979 -35.607   4.432  1.00  0.00     0.186 HD
HETATM    7  C6  UNL     1      20.296 -33.755   5.255  1.00  0.00     0.151 A 
HETATM    8  N5  UNL     1      21.490 -33.386   4.819  1.00  0.00    -0.283 N 
ATOM      9  H5  UNL     1      22.094 -33.919   4.194  1.00  0.00     0.188 HD
HETATM   10  N6  UNL     1      21.751 -32.220   5.333  1.00  0.00    -0.286 N 
ATOM     11  H6  UNL     1      22.612 -31.700   5.161  1.00  0.00     0.188 HD
HETATM   12  C7  UNL     1      20.728 -31.774   6.137  1.00  0.00     0.180 A 
HETATM   13  C10 UNL     1      19.782 -32.773   6.079  1.00  0.00     0.085 A 
ENDROOT
BRANCH  12  14
HETATM   14  S1  UNL     1      20.874 -30.298   6.982  1.00  0.00     0.283 S 
HETATM   15  O3  UNL     1      21.887 -30.185   8.079  1.00  0.00    -0.199 OA
HETATM   16  O4  UNL     1      21.687 -29.391   5.963  1.00  0.00    -0.199 OA
BRANCH  14  17
HETATM   17  N7  UNL     1      19.449 -29.372   7.158  1.00  0.00    -0.249 N 
HETATM   18  C8  UNL     1      19.387 -28.062   7.702  1.00  0.00     0.227 C 
HETATM   19  C9  UNL     1      18.138 -27.283   7.847  1.00  0.00     0.118 C 
HETATM   20  O5  UNL     1      20.449 -27.531   8.085  1.00  0.00    -0.273 OA
ATOM     21  H7  UNL     1      18.574 -29.793   6.847  1.00  0.00     0.182 HD
ENDBRANCH  14  17
ENDBRANCH  12  14
BRANCH   1  22
HETATM   22  C3  UNL     1      17.950 -31.936   7.513  1.00  0.00     0.311 C 
HETATM   23  O2  UNL     1      17.949 -31.687   8.666  1.00  0.00    -0.258 OA
BRANCH  22  24
HETATM   24  O1  UNL     1      17.106 -31.018   6.808  1.00  0.00    -0.317 OA
BRANCH  24  25
HETATM   25  C2  UNL     1      16.000 -30.384   7.420  1.00  0.00     0.175 C 
HETATM   26  C1  UNL     1      15.431 -29.294   6.512  1.00  0.00     0.034 C 
ENDBRANCH  24  25
ENDBRANCH  22  24
ENDBRANCH   1  22
BRANCH   4  27
HETATM   27  N2  UNL     1      17.796 -36.146   5.386  1.00  0.00    -0.138 N 
ATOM     28  H2  UNL     1      16.872 -36.296   5.790  1.00  0.00     0.205 HD
BRANCH  27  29
HETATM   29  N3  UNL     1      18.347 -37.141   4.596  1.00  0.00    -0.331 N 
ATOM     30  H32 UNL     1      18.259 -37.048   3.585  1.00  0.00     0.177 HD
ATOM     31  H31 UNL     1      18.829 -37.948   4.991  1.00  0.00     0.177 HD
ENDBRANCH  27  29
ENDBRANCH   4  27
TORSDOF 7
ENDMDL
MODEL 2
REMARK VINA RESULT: -7.959332995      2.324      3.405
REMARK  7 active torsions:
REMARK  status: ('A' for Active; 'I' for Inactive)
REMARK    1  A    between atoms: C2_2  and  O1_3 
REMARK    2  A    between atoms: O1_3  and  C3_4 
REMARK    3  A    between atoms: C3_4  and  C4_6 
REMARK    4  A    between atoms: C5_9  and  N2_10 
REMARK    5  A    between atoms: N2_10  and  N3_12 
REMARK    6  A    between atoms: C7_22  and  S1_23 
REMARK    7  A    between atoms: S1_23  and  N7_26 
REMARK       I    between atoms: N7_26  and  C8_28 
ROOT
HETATM    1  C4  UNL     1      18.121 -33.714   5.094  1.00  0.00     0.141 A 
HETATM    2  N1  UNL     1      17.577 -34.295   3.959  1.00  0.00    -0.183 N 
ATOM      3  H1  UNL     1      17.417 -33.711   3.139  1.00  0.00     0.184 HD
HETATM    4  C5  UNL     1      17.257 -35.581   3.899  1.00  0.00     0.698 A 
HETATM    5  N4  UNL     1      17.443 -36.399   4.944  1.00  0.00    -0.173 N 
ATOM      6  H4  UNL     1      17.192 -37.386   4.879  1.00  0.00     0.186 HD
HETATM    7  C6  UNL     1      17.960 -35.904   6.071  1.00  0.00     0.151 A 
HETATM    8  N5  UNL     1      18.207 -36.491   7.232  1.00  0.00    -0.283 N 
ATOM      9  H5  UNL     1      18.055 -37.475   7.453  1.00  0.00     0.188 HD
HETATM   10  N6  UNL     1      18.678 -35.585   8.037  1.00  0.00    -0.286 N 
ATOM     11  H6  UNL     1      18.954 -35.766   9.002  1.00  0.00     0.188 HD
HETATM   12  C7  UNL     1      18.759 -34.352   7.429  1.00  0.00     0.180 A 
HETATM   13  C10 UNL     1      18.296 -34.567   6.150  1.00  0.00     0.085 A 
ENDROOT
BRANCH  12  14
HETATM   14  S1  UNL     1      19.279 -32.987   8.312  1.00  0.00     0.283 S 
HETATM   15  O3  UNL     1      18.351 -32.370   9.311  1.00  0.00    -0.199 OA
HETATM   16  O4  UNL     1      20.241 -33.622   9.404  1.00  0.00    -0.199 OA
BRANCH  14  17
HETATM   17  N7  UNL     1      20.362 -31.930   7.518  1.00  0.00    -0.249 N 
HETATM   18  C8  UNL     1      20.808 -30.683   8.029  1.00  0.00     0.227 C 
HETATM   19  C9  UNL     1      21.744 -29.783   7.318  1.00  0.00     0.118 C 
HETATM   20  O5  UNL     1      20.386 -30.316   9.144  1.00  0.00    -0.273 OA
ATOM     21  H7  UNL     1      20.716 -32.218   6.606  1.00  0.00     0.182 HD
ENDBRANCH  14  17
ENDBRANCH  12  14
BRANCH   1  22
HETATM   22  C3  UNL     1      18.472 -32.345   5.078  1.00  0.00     0.311 C 
HETATM   23  O2  UNL     1      19.366 -31.708   4.649  1.00  0.00    -0.258 OA
BRANCH  22  24
HETATM   24  O1  UNL     1      17.535 -31.493   5.747  1.00  0.00    -0.317 OA
BRANCH  24  25
HETATM   25  C2  UNL     1      17.767 -30.111   5.931  1.00  0.00     0.175 C 
HETATM   26  C1  UNL     1      16.479 -29.314   5.725  1.00  0.00     0.034 C 
ENDBRANCH  24  25
ENDBRANCH  22  24
ENDBRANCH   1  22
BRANCH   4  27
HETATM   27  N2  UNL     1      16.744 -36.122   2.837  1.00  0.00    -0.138 N 
ATOM     28  H2  UNL     1      16.494 -37.111   2.862  1.00  0.00     0.205 HD
BRANCH  27  29
HETATM   29  N3  UNL     1      16.523 -35.408   1.673  1.00  0.00    -0.331 N 
ATOM     30  H32 UNL     1      17.136 -34.617   1.477  1.00  0.00     0.177 HD
ATOM     31  H31 UNL     1      15.777 -35.645   1.018  1.00  0.00     0.177 HD
ENDBRANCH  27  29
ENDBRANCH   4  27
TORSDOF 7
ENDMDL
MODEL 3
REMARK VINA RESULT: -7.940943346      1.502      1.761
REMARK  7 active torsions:
REMARK  status: ('A' for Active; 'I' for Inactive)
REMARK    1  A    between atoms: C2_2  and  O1_3 
REMARK    2  A    between atoms: O1_3  and  C3_4 
REMARK    3  A    between atoms: C3_4  and  C4_6 
REMARK    4  A    between atoms: C5_9  and  N2_10 
REMARK    5  A    between atoms: N2_10  and  N3_12 
REMARK    6  A    between atoms: C7_22  and  S1_23 
REMARK    7  A    between atoms: S1_23  and  N7_26 
REMARK       I    between atoms: N7_26  and  C8_28 
ROOT
HETATM    1  C4  UNL     1      18.428 -34.268   7.191  1.00  0.00     0.141 A 
HETATM    2  N1  UNL     1      17.867 -35.315   6.476  1.00  0.00    -0.183 N 
ATOM      3  H1  UNL     1      17.047 -35.786   6.859  1.00  0.00     0.184 HD
HETATM    4  C5  UNL     1      18.355 -35.729   5.314  1.00  0.00     0.698 A 
HETATM    5  N4  UNL     1      19.430 -35.152   4.760  1.00  0.00    -0.173 N 
ATOM      6  H4  UNL     1      19.791 -35.482   3.865  1.00  0.00     0.186 HD
HETATM    7  C6  UNL     1      20.023 -34.139   5.397  1.00  0.00     0.151 A 
HETATM    8  N5  UNL     1      21.098 -33.436   5.077  1.00  0.00    -0.283 N 
ATOM      9  H5  UNL     1      21.662 -33.548   4.235  1.00  0.00     0.188 HD
HETATM   10  N6  UNL     1      21.304 -32.579   6.034  1.00  0.00    -0.286 N 
ATOM     11  H6  UNL     1      22.073 -31.908   6.043  1.00  0.00     0.188 HD
HETATM   12  C7  UNL     1      20.362 -32.687   7.031  1.00  0.00     0.180 A 
HETATM   13  C10 UNL     1      19.528 -33.699   6.609  1.00  0.00     0.085 A 
ENDROOT
BRANCH  12  14
HETATM   14  S1  UNL     1      20.468 -31.714   8.429  1.00  0.00     0.283 S 
HETATM   15  O3  UNL     1      20.762 -32.363   9.746  1.00  0.00    -0.199 OA
HETATM   16  O4  UNL     1      21.906 -31.055   8.288  1.00  0.00    -0.199 OA
BRANCH  14  17
HETATM   17  N7  UNL     1      19.485 -30.317   8.466  1.00  0.00    -0.249 N 
HETATM   18  C8  UNL     1      19.195 -29.493   7.346  1.00  0.00     0.227 C 
HETATM   19  C9  UNL     1      18.342 -28.285   7.405  1.00  0.00     0.118 C 
HETATM   20  O5  UNL     1      19.687 -29.801   6.243  1.00  0.00    -0.273 OA
ATOM     21  H7  UNL     1      19.075 -30.055   9.362  1.00  0.00     0.182 HD
ENDBRANCH  14  17
ENDBRANCH  12  14
BRANCH   1  22
HETATM   22  C3  UNL     1      17.836 -33.856   8.406  1.00  0.00     0.311 C 
HETATM   23  O2  UNL     1      17.752 -34.297   9.496  1.00  0.00    -0.258 OA
BRANCH  22  24
HETATM   24  O1  UNL     1      17.155 -32.599   8.328  1.00  0.00    -0.317 OA
BRANCH  24  25
HETATM   25  C2  UNL     1      15.931 -32.443   7.638  1.00  0.00     0.175 C 
HETATM   26  C1  UNL     1      15.861 -31.073   6.963  1.00  0.00     0.034 C 
ENDBRANCH  24  25
ENDBRANCH  22  24
ENDBRANCH   1  22
BRANCH   4  27
HETATM   27  N2  UNL     1      17.831 -36.712   4.648  1.00  0.00    -0.138 N 
ATOM     28  H2  UNL     1      16.839 -36.676   4.418  1.00  0.00     0.205 HD
BRANCH  27  29
HETATM   29  N3  UNL     1      18.571 -37.808   4.240  1.00  0.00    -0.331 N 
ATOM     30  H32 UNL     1      18.873 -38.471   4.953  1.00  0.00     0.177 HD
ATOM     31  H31 UNL     1      18.819 -37.968   3.263  1.00  0.00     0.177 HD
ENDBRANCH  27  29
ENDBRANCH   4  27
TORSDOF 7
ENDMDL
MODEL 4
REMARK VINA RESULT: -7.936196126      2.755      3.639
REMARK  7 active torsions:
REMARK  status: ('A' for Active; 'I' for Inactive)
REMARK    1  A    between atoms: C2_2  and  O1_3 
REMARK    2  A    between atoms: O1_3  and  C3_4 
REMARK    3  A    between atoms: C3_4  and  C4_6 
REMARK    4  A    between atoms: C5_9  and  N2_10 
REMARK    5  A    between atoms: N2_10  and  N3_12 
REMARK    6  A    between atoms: C7_22  and  S1_23 
REMARK    7  A    between atoms: S1_23  and  N7_26 
REMARK       I    between atoms: N7_26  and  C8_28 
ROOT
HETATM    1  C4  UNL     1      18.012 -33.349   5.245  1.00  0.00     0.141 A 
HETATM    2  N1  UNL     1      17.506 -33.605   3.980  1.00  0.00    -0.183 N 
ATOM      3  H1  UNL     1      17.387 -32.826   3.333  1.00  0.00     0.184 HD
HETATM    4  C5  UNL     1      17.171 -34.824   3.578  1.00  0.00     0.698 A 
HETATM    5  N4  UNL     1      17.303 -35.888   4.382  1.00  0.00    -0.173 N 
ATOM      6  H4  UNL     1      17.041 -36.819   4.057  1.00  0.00     0.186 HD
HETATM    7  C6  UNL     1      17.781 -35.712   5.617  1.00  0.00     0.151 A 
HETATM    8  N5  UNL     1      17.972 -36.584   6.595  1.00  0.00    -0.283 N 
ATOM      9  H5  UNL     1      17.798 -37.587   6.550  1.00  0.00     0.188 HD
HETATM   10  N6  UNL     1      18.422 -35.926   7.623  1.00  0.00    -0.286 N 
ATOM     11  H6  UNL     1      18.656 -36.356   8.518  1.00  0.00     0.188 HD
HETATM   12  C7  UNL     1      18.545 -34.581   7.357  1.00  0.00     0.180 A 
HETATM   13  C10 UNL     1      18.132 -34.448   6.050  1.00  0.00     0.085 A 
ENDROOT
BRANCH  12  14
HETATM   14  S1  UNL     1      19.048 -33.502   8.580  1.00  0.00     0.283 S 
HETATM   15  O3  UNL     1      19.568 -34.056   9.870  1.00  0.00    -0.199 OA
HETATM   16  O4  UNL     1      20.471 -33.024   8.062  1.00  0.00    -0.199 OA
BRANCH  14  17
HETATM   17  N7  UNL     1      18.227 -32.006   8.665  1.00  0.00    -0.249 N 
HETATM   18  C8  UNL     1      17.007 -31.782   9.357  1.00  0.00     0.227 C 
HETATM   19  C9  UNL     1      16.313 -30.476   9.412  1.00  0.00     0.118 C 
HETATM   20  O5  UNL     1      16.482 -32.742   9.956  1.00  0.00    -0.273 OA
ATOM     21  H7  UNL     1      18.645 -31.212   8.182  1.00  0.00     0.182 HD
ENDBRANCH  14  17
ENDBRANCH  12  14
BRANCH   1  22
HETATM   22  C3  UNL     1      18.381 -32.031   5.595  1.00  0.00     0.311 C 
HETATM   23  O2  UNL     1      19.391 -31.425   5.655  1.00  0.00    -0.258 OA
BRANCH  22  24
HETATM   24  O1  UNL     1      17.283 -31.199   5.986  1.00  0.00    -0.317 OA
BRANCH  24  25
HETATM   25  C2  UNL     1      17.333 -29.789   5.898  1.00  0.00     0.175 C 
HETATM   26  C1  UNL     1      15.923 -29.197   5.891  1.00  0.00     0.034 C 
ENDBRANCH  24  25
ENDBRANCH  22  24
ENDBRANCH   1  22
BRANCH   4  27
HETATM   27  N2  UNL     1      16.694 -35.062   2.395  1.00  0.00    -0.138 N 
ATOM     28  H2  UNL     1      16.275 -34.294   1.871  1.00  0.00     0.205 HD
BRANCH  27  29
HETATM   29  N3  UNL     1      16.732 -36.320   1.819  1.00  0.00    -0.331 N 
ATOM     30  H32 UNL     1      16.115 -37.036   2.200  1.00  0.00     0.177 HD
ATOM     31  H31 UNL     1      17.349 -36.546   1.038  1.00  0.00     0.177 HD
ENDBRANCH  27  29
ENDBRANCH   4  27
TORSDOF 7
ENDMDL
MODEL 5
REMARK VINA RESULT: -7.897155095      2.848      4.094
REMARK  7 active torsions:
REMARK  status: ('A' for Active; 'I' for Inactive)
REMARK    1  A    between atoms: C2_2  and  O1_3 
REMARK    2  A    between atoms: O1_3  and  C3_4 
REMARK    3  A    between atoms: C3_4  and  C4_6 
REMARK    4  A    between atoms: C5_9  and  N2_10 
REMARK    5  A    between atoms: N2_10  and  N3_12 
REMARK    6  A    between atoms: C7_22  and  S1_23 
REMARK    7  A    between atoms: S1_23  and  N7_26 
REMARK       I    between atoms: N7_26  and  C8_28 
ROOT
HETATM    1  C4  UNL     1      17.850 -33.559   5.515  1.00  0.00     0.141 A 
HETATM    2  N1  UNL     1      17.408 -33.995   4.276  1.00  0.00    -0.183 N 
ATOM      3  H1  UNL     1      17.207 -33.302   3.556  1.00  0.00     0.184 HD
HETATM    4  C5  UNL     1      17.236 -35.279   3.991  1.00  0.00     0.698 A 
HETATM    5  N4  UNL     1      17.482 -36.237   4.895  1.00  0.00    -0.173 N 
ATOM      6  H4  UNL     1      17.345 -37.220   4.659  1.00  0.00     0.186 HD
HETATM    7  C6  UNL     1      17.907 -35.886   6.112  1.00  0.00     0.151 A 
HETATM    8  N5  UNL     1      18.184 -36.630   7.171  1.00  0.00    -0.283 N 
ATOM      9  H5  UNL     1      18.137 -37.647   7.221  1.00  0.00     0.188 HD
HETATM   10  N6  UNL     1      18.526 -35.827   8.135  1.00  0.00    -0.286 N 
ATOM     11  H6  UNL     1      18.792 -36.137   9.070  1.00  0.00     0.188 HD
HETATM   12  C7  UNL     1      18.486 -34.508   7.742  1.00  0.00     0.180 A 
HETATM   13  C10 UNL     1      18.089 -34.553   6.424  1.00  0.00     0.085 A 
ENDROOT
BRANCH  12  14
HETATM   14  S1  UNL     1      18.824 -33.263   8.860  1.00  0.00     0.283 S 
HETATM   15  O3  UNL     1      17.685 -32.553   9.524  1.00  0.00    -0.199 OA
HETATM   16  O4  UNL     1      19.250 -34.067  10.161  1.00  0.00    -0.199 OA
BRANCH  14  17
HETATM   17  N7  UNL     1      20.239 -32.347   8.580  1.00  0.00    -0.249 N 
HETATM   18  C8  UNL     1      20.654 -31.229   9.350  1.00  0.00     0.227 C 
HETATM   19  C9  UNL     1      21.883 -30.449   9.084  1.00  0.00     0.118 C 
HETATM   20  O5  UNL     1      19.941 -30.876  10.310  1.00  0.00    -0.273 OA
ATOM     21  H7  UNL     1      20.832 -32.626   7.798  1.00  0.00     0.182 HD
ENDBRANCH  14  17
ENDBRANCH  12  14
BRANCH   1  22
HETATM   22  C3  UNL     1      18.045 -32.177   5.740  1.00  0.00     0.311 C 
HETATM   23  O2  UNL     1      17.346 -31.236   5.869  1.00  0.00    -0.258 OA
BRANCH  22  24
HETATM   24  O1  UNL     1      19.420 -31.787   5.831  1.00  0.00    -0.317 OA
BRANCH  24  25
HETATM   25  C2  UNL     1      20.314 -31.907   4.743  1.00  0.00     0.175 C 
HETATM   26  C1  UNL     1      21.429 -32.902   5.066  1.00  0.00     0.034 C 
ENDBRANCH  24  25
ENDBRANCH  22  24
ENDBRANCH   1  22
BRANCH   4  27
HETATM   27  N2  UNL     1      16.818 -35.686   2.832  1.00  0.00    -0.138 N 
ATOM     28  H2  UNL     1      16.857 -36.682   2.617  1.00  0.00     0.205 HD
BRANCH  27  29
HETATM   29  N3  UNL     1      16.320 -34.817   1.876  1.00  0.00    -0.331 N 
ATOM     30  H32 UNL     1      16.436 -33.817   2.037  1.00  0.00     0.177 HD
ATOM     31  H31 UNL     1      15.850 -35.144   1.031  1.00  0.00     0.177 HD
ENDBRANCH  27  29
ENDBRANCH   4  27
TORSDOF 7
ENDMDL
