MODEL 1
REMARK VINA RESULT: -8.600347925      0.000      0.000
REMARK  7 active torsions:
REMARK  status: ('A' for Active; 'I' for Inactive)
REMARK    1  A    between atoms: C2_2  and  C3_3 
REMARK    2  A    between atoms: C3_3  and  N1_4 
REMARK       I    between atoms: N1_4  and  C4_6 
REMARK       I    between atoms: C4_6  and  N2_8 
REMARK    3  A    between atoms: N2_8  and  N3_10 
REMARK       I    between atoms: N3_10  and  C5_12 
REMARK       I    between atoms: C5_12  and  N4_14 
REMARK    4  A    between atoms: N4_14  and  N5_16 
REMARK    5  A    between atoms: N5_16  and  C6_18 
REMARK    6  A    between atoms: C6_18  and  C7_20 
REMARK    7  A    between atoms: N8_25  and  N9_26 
ROOT
HETATM    1  N5  UNL     1      17.026 -35.453   9.345  1.00  0.00    -0.283 N 
ATOM      2  H5  UNL     1      16.085 -35.065   9.403  1.00  0.00     0.188 HD
ENDROOT
BRANCH   1   3
HETATM    3  N4  UNL     1      17.387 -36.263   8.273  1.00  0.00    -0.249 N 
HETATM    4  C5  UNL     1      17.744 -35.709   7.044  1.00  0.00     0.353 C 
HETATM    5  N3  UNL     1      18.105 -36.550   5.965  1.00  0.00    -0.246 N 
HETATM    6  O2  UNL     1      17.751 -34.474   6.882  1.00  0.00    -0.244 OA
ATOM      7  H3  UNL     1      18.088 -37.556   6.132  1.00  0.00     0.192 HD
ATOM      8  H4  UNL     1      17.391 -37.277   8.388  1.00  0.00     0.192 HD
BRANCH   5   9
HETATM    9  N2  UNL     1      18.480 -36.120   4.697  1.00  0.00    -0.248 N 
HETATM   10  C4  UNL     1      17.624 -36.407   3.596  1.00  0.00     0.334 C 
HETATM   11  N1  UNL     1      17.899 -36.034   2.263  1.00  0.00    -0.342 N 
HETATM   12  O1  UNL     1      16.549 -37.037   3.818  1.00  0.00    -0.246 OA
ATOM     13  H1  UNL     1      18.754 -35.524   2.040  1.00  0.00     0.164 HD
ATOM     14  H2  UNL     1      19.352 -35.609   4.557  1.00  0.00     0.192 HD
BRANCH  11  15
HETATM   15  C3  UNL     1      16.974 -36.374   1.222  1.00  0.00     0.124 C 
BRANCH  15  16
HETATM   16  C2  UNL     1      17.635 -37.117   0.105  1.00  0.00     0.015 C 
HETATM   17  C1  UNL     1      18.282 -38.392   0.630  1.00  0.00     0.006 C 
ENDBRANCH  15  16
ENDBRANCH  11  15
ENDBRANCH   5   9
ENDBRANCH   1   3
BRANCH   1  18
HETATM   18  C6  UNL     1      17.984 -35.169  10.362  1.00  0.00     0.162 C 
HETATM   19  S1  UNL     1      18.214 -36.251  11.581  1.00  0.00    -0.055 SA
BRANCH  18  20
HETATM   20  C7  UNL     1      18.761 -33.939  10.339  1.00  0.00     0.179 A 
HETATM   21  N6  UNL     1      18.961 -33.067  11.369  1.00  0.00    -0.264 N 
HETATM   22  N7  UNL     1      19.721 -32.089  10.914  1.00  0.00    -0.204 N 
ATOM     23  H6  UNL     1      18.591 -33.154  12.316  1.00  0.00     0.190 HD
HETATM   24  N8  UNL     1      20.034 -32.275   9.631  1.00  0.00    -0.107 N 
ATOM     25  H7  UNL     1      20.029 -31.293  11.473  1.00  0.00     0.212 HD
HETATM   26  N11 UNL     1      19.435 -33.413   9.304  1.00  0.00    -0.243 N 
ATOM     27  H11 UNL     1      19.482 -33.837   8.377  1.00  0.00     0.192 HD
BRANCH  24  28
HETATM   28  N9  UNL     1      20.815 -31.455   8.818  1.00  0.00    -0.224 N 
HETATM   29  C8  UNL     1      21.607 -30.463   9.223  1.00  0.00     0.138 A 
HETATM   30  C9  UNL     1      22.196 -29.914   8.100  1.00  0.00     0.108 A 
HETATM   31  N10 UNL     1      21.739 -30.598   7.016  1.00  0.00    -0.359 N 
HETATM   32  C10 UNL     1      20.907 -31.522   7.490  1.00  0.00     0.209 A 
ATOM     33  H10 UNL     1      21.984 -30.436   6.039  1.00  0.00     0.166 HD
ENDBRANCH  24  28
ENDBRANCH  18  20
ENDBRANCH   1  18
TORSDOF 7
ENDMDL
MODEL 2
REMARK VINA RESULT: -8.394591846      1.813      2.147
REMARK  7 active torsions:
REMARK  status: ('A' for Active; 'I' for Inactive)
REMARK    1  A    between atoms: C2_2  and  C3_3 
REMARK    2  A    between atoms: C3_3  and  N1_4 
REMARK       I    between atoms: N1_4  and  C4_6 
REMARK       I    between atoms: C4_6  and  N2_8 
REMARK    3  A    between atoms: N2_8  and  N3_10 
REMARK       I    between atoms: N3_10  and  C5_12 
REMARK       I    between atoms: C5_12  and  N4_14 
REMARK    4  A    between atoms: N4_14  and  N5_16 
REMARK    5  A    between atoms: N5_16  and  C6_18 
REMARK    6  A    between atoms: C6_18  and  C7_20 
REMARK    7  A    between atoms: N8_25  and  N9_26 
ROOT
HETATM    1  N5  UNL     1      19.011 -34.830   7.598  1.00  0.00    -0.283 N 
ATOM      2  H5  UNL     1      19.483 -35.734   7.612  1.00  0.00     0.188 HD
ENDROOT
BRANCH   1   3
HETATM    3  N4  UNL     1      18.561 -34.292   6.398  1.00  0.00    -0.249 N 
HETATM    4  C5  UNL     1      17.811 -35.057   5.504  1.00  0.00     0.353 C 
HETATM    5  N3  UNL     1      17.365 -34.492   4.287  1.00  0.00    -0.246 N 
HETATM    6  O2  UNL     1      17.527 -36.241   5.767  1.00  0.00    -0.244 OA
ATOM      7  H3  UNL     1      17.616 -33.520   4.103  1.00  0.00     0.192 HD
ATOM      8  H4  UNL     1      18.781 -33.322   6.167  1.00  0.00     0.192 HD
BRANCH   5   9
HETATM    9  N2  UNL     1      16.613 -35.149   3.319  1.00  0.00    -0.248 N 
HETATM   10  C4  UNL     1      17.285 -35.714   2.198  1.00  0.00     0.334 C 
HETATM   11  N1  UNL     1      16.632 -36.395   1.147  1.00  0.00    -0.342 N 
HETATM   12  O1  UNL     1      18.543 -35.601   2.131  1.00  0.00    -0.246 OA
ATOM     13  H1  UNL     1      15.619 -36.509   1.163  1.00  0.00     0.164 HD
ATOM     14  H2  UNL     1      15.600 -35.225   3.411  1.00  0.00     0.192 HD
BRANCH  11  15
HETATM   15  C3  UNL     1      17.398 -36.926   0.057  1.00  0.00     0.124 C 
BRANCH  15  16
HETATM   16  C2  UNL     1      17.529 -38.413   0.137  1.00  0.00     0.015 C 
HETATM   17  C1  UNL     1      18.816 -38.792   0.857  1.00  0.00     0.006 C 
ENDBRANCH  15  16
ENDBRANCH  11  15
ENDBRANCH   5   9
ENDBRANCH   1   3
BRANCH   1  18
HETATM   18  C6  UNL     1      18.808 -34.107   8.810  1.00  0.00     0.162 C 
HETATM   19  S1  UNL     1      17.651 -34.608   9.868  1.00  0.00    -0.055 SA
BRANCH  18  20
HETATM   20  C7  UNL     1      19.609 -32.934   9.126  1.00  0.00     0.179 A 
HETATM   21  N6  UNL     1      20.340 -32.711  10.256  1.00  0.00    -0.264 N 
HETATM   22  N7  UNL     1      20.905 -31.526  10.132  1.00  0.00    -0.204 N 
ATOM     23  H6  UNL     1      20.433 -33.344  11.051  1.00  0.00     0.190 HD
HETATM   24  N8  UNL     1      20.582 -30.954   8.970  1.00  0.00    -0.107 N 
ATOM     25  H7  UNL     1      21.511 -31.100  10.834  1.00  0.00     0.212 HD
HETATM   26  N11 UNL     1      19.790 -31.836   8.375  1.00  0.00    -0.243 N 
ATOM     27  H11 UNL     1      19.368 -31.697   7.457  1.00  0.00     0.192 HD
BRANCH  24  28
HETATM   28  N9  UNL     1      20.988 -29.709   8.493  1.00  0.00    -0.224 N 
HETATM   29  C8  UNL     1      22.201 -29.391   8.041  1.00  0.00     0.138 A 
HETATM   30  C9  UNL     1      22.171 -28.062   7.667  1.00  0.00     0.108 A 
HETATM   31  N10 UNL     1      20.917 -27.591   7.905  1.00  0.00    -0.359 N 
HETATM   32  C10 UNL     1      20.230 -28.616   8.404  1.00  0.00     0.209 A 
ATOM     33  H10 UNL     1      20.573 -26.645   7.735  1.00  0.00     0.166 HD
ENDBRANCH  24  28
ENDBRANCH  18  20
ENDBRANCH   1  18
TORSDOF 7
ENDMDL
MODEL 3
REMARK VINA RESULT: -8.372149930      1.442      1.686
REMARK  7 active torsions:
REMARK  status: ('A' for Active; 'I' for Inactive)
REMARK    1  A    between atoms: C2_2  and  C3_3 
REMARK    2  A    between atoms: C3_3  and  N1_4 
REMARK       I    between atoms: N1_4  and  C4_6 
REMARK       I    between atoms: C4_6  and  N2_8 
REMARK    3  A    between atoms: N2_8  and  N3_10 
REMARK       I    between atoms: N3_10  and  C5_12 
REMARK       I    between atoms: C5_12  and  N4_14 
REMARK    4  A    between atoms: N4_14  and  N5_16 
REMARK    5  A    between atoms: N5_16  and  C6_18 
REMARK    6  A    between atoms: C6_18  and  C7_20 
REMARK    7  A    between atoms: N8_25  and  N9_26 
ROOT
HETATM    1  N5  UNL     1      17.475 -33.714   8.534  1.00  0.00    -0.283 N 
ATOM      2  H5  UNL     1      16.915 -32.911   8.252  1.00  0.00     0.188 HD
ENDROOT
BRANCH   1   3
HETATM    3  N4  UNL     1      17.331 -34.934   7.881  1.00  0.00    -0.249 N 
HETATM    4  C5  UNL     1      17.979 -35.181   6.670  1.00  0.00     0.353 C 
HETATM    5  N3  UNL     1      17.817 -36.426   6.020  1.00  0.00    -0.246 N 
HETATM    6  O2  UNL     1      18.705 -34.312   6.151  1.00  0.00    -0.244 OA
ATOM      7  H3  UNL     1      17.215 -37.115   6.473  1.00  0.00     0.192 HD
ATOM      8  H4  UNL     1      16.743 -35.659   8.293  1.00  0.00     0.192 HD
BRANCH   5   9
HETATM    9  N2  UNL     1      18.409 -36.792   4.816  1.00  0.00    -0.248 N 
HETATM   10  C4  UNL     1      17.649 -36.677   3.618  1.00  0.00     0.334 C 
HETATM   11  N1  UNL     1      18.134 -37.025   2.338  1.00  0.00    -0.342 N 
HETATM   12  O1  UNL     1      16.465 -36.239   3.696  1.00  0.00    -0.246 OA
ATOM     13  H1  UNL     1      19.084 -37.381   2.231  1.00  0.00     0.164 HD
ATOM     14  H2  UNL     1      19.369 -37.136   4.792  1.00  0.00     0.192 HD
BRANCH  11  15
HETATM   15  C3  UNL     1      17.288 -36.877   1.190  1.00  0.00     0.124 C 
BRANCH  15  16
HETATM   16  C2  UNL     1      17.673 -37.810   0.087  1.00  0.00     0.015 C 
HETATM   17  C1  UNL     1      18.579 -38.912   0.620  1.00  0.00     0.006 C 
ENDBRANCH  15  16
ENDBRANCH  11  15
ENDBRANCH   5   9
ENDBRANCH   1   3
BRANCH   1  18
HETATM   18  C6  UNL     1      18.412 -33.598   9.602  1.00  0.00     0.162 C 
HETATM   19  S1  UNL     1      18.387 -34.699  10.824  1.00  0.00    -0.055 SA
BRANCH  18  20
HETATM   20  C7  UNL     1      19.391 -32.522   9.627  1.00  0.00     0.179 A 
HETATM   21  N6  UNL     1      20.429 -32.367  10.498  1.00  0.00    -0.264 N 
HETATM   22  N7  UNL     1      21.061 -31.258  10.164  1.00  0.00    -0.204 N 
ATOM     23  H6  UNL     1      20.672 -32.993  11.266  1.00  0.00     0.190 HD
HETATM   24  N8  UNL     1      20.489 -30.672   9.111  1.00  0.00    -0.107 N 
ATOM     25  H7  UNL     1      21.881 -30.895  10.650  1.00  0.00     0.212 HD
HETATM   26  N11 UNL     1      19.471 -31.465   8.802  1.00  0.00    -0.243 N 
ATOM     27  H11 UNL     1      18.827 -31.293   8.030  1.00  0.00     0.192 HD
BRANCH  24  28
HETATM   28  N9  UNL     1      20.876 -29.491   8.480  1.00  0.00    -0.224 N 
HETATM   29  C8  UNL     1      22.046 -29.258   7.886  1.00  0.00     0.138 A 
HETATM   30  C9  UNL     1      22.013 -27.969   7.391  1.00  0.00     0.108 A 
HETATM   31  N10 UNL     1      20.799 -27.436   7.700  1.00  0.00    -0.359 N 
HETATM   32  C10 UNL     1      20.140 -28.387   8.359  1.00  0.00     0.209 A 
ATOM     33  H10 UNL     1      20.463 -26.499   7.475  1.00  0.00     0.166 HD
ENDBRANCH  24  28
ENDBRANCH  18  20
ENDBRANCH   1  18
TORSDOF 7
ENDMDL
MODEL 4
REMARK VINA RESULT: -8.207889882      3.787      9.333
REMARK  7 active torsions:
REMARK  status: ('A' for Active; 'I' for Inactive)
REMARK    1  A    between atoms: C2_2  and  C3_3 
REMARK    2  A    between atoms: C3_3  and  N1_4 
REMARK       I    between atoms: N1_4  and  C4_6 
REMARK       I    between atoms: C4_6  and  N2_8 
REMARK    3  A    between atoms: N2_8  and  N3_10 
REMARK       I    between atoms: N3_10  and  C5_12 
REMARK       I    between atoms: C5_12  and  N4_14 
REMARK    4  A    between atoms: N4_14  and  N5_16 
REMARK    5  A    between atoms: N5_16  and  C6_18 
REMARK    6  A    between atoms: C6_18  and  C7_20 
REMARK    7  A    between atoms: N8_25  and  N9_26 
ROOT
HETATM    1  N5  UNL     1      17.847 -32.742   5.487  1.00  0.00    -0.283 N 
ATOM      2  H5  UNL     1      17.250 -32.442   4.717  1.00  0.00     0.188 HD
ENDROOT
BRANCH   1   3
HETATM    3  N4  UNL     1      18.765 -31.860   6.047  1.00  0.00    -0.249 N 
HETATM    4  C5  UNL     1      18.486 -30.496   6.139  1.00  0.00     0.353 C 
HETATM    5  N3  UNL     1      19.434 -29.615   6.709  1.00  0.00    -0.246 N 
HETATM    6  O2  UNL     1      17.405 -30.040   5.722  1.00  0.00    -0.244 OA
ATOM      7  H3  UNL     1      20.310 -30.022   7.040  1.00  0.00     0.192 HD
ATOM      8  H4  UNL     1      19.655 -32.215   6.397  1.00  0.00     0.192 HD
BRANCH   5   9
HETATM    9  N2  UNL     1      19.274 -28.241   6.858  1.00  0.00    -0.248 N 
HETATM   10  C4  UNL     1      18.834 -27.736   8.114  1.00  0.00     0.334 C 
HETATM   11  N1  UNL     1      18.624 -26.367   8.385  1.00  0.00    -0.342 N 
HETATM   12  O1  UNL     1      18.613 -28.559   9.050  1.00  0.00    -0.246 OA
ATOM     13  H1  UNL     1      18.791 -25.670   7.659  1.00  0.00     0.164 HD
ATOM     14  H2  UNL     1      19.467 -27.608   6.082  1.00  0.00     0.192 HD
BRANCH  11  15
HETATM   15  C3  UNL     1      18.175 -25.957   9.683  1.00  0.00     0.124 C 
BRANCH  15  16
HETATM   16  C2  UNL     1      16.690 -25.780   9.732  1.00  0.00     0.015 C 
HETATM   17  C1  UNL     1      16.340 -24.429  10.341  1.00  0.00     0.006 C 
ENDBRANCH  15  16
ENDBRANCH  11  15
ENDBRANCH   5   9
ENDBRANCH   1   3
BRANCH   1  18
HETATM   18  C6  UNL     1      17.749 -34.069   5.998  1.00  0.00     0.162 C 
HETATM   19  S1  UNL     1      17.513 -34.300   7.610  1.00  0.00    -0.055 SA
BRANCH  18  20
HETATM   20  C7  UNL     1      17.853 -35.222   5.116  1.00  0.00     0.179 A 
HETATM   21  N6  UNL     1      18.197 -36.497   5.458  1.00  0.00    -0.264 N 
HETATM   22  N7  UNL     1      18.170 -37.221   4.356  1.00  0.00    -0.204 N 
ATOM     23  H6  UNL     1      18.430 -36.830   6.394  1.00  0.00     0.190 HD
HETATM   24  N8  UNL     1      17.824 -36.483   3.299  1.00  0.00    -0.107 N 
ATOM     25  H7  UNL     1      18.387 -38.217   4.316  1.00  0.00     0.212 HD
HETATM   26  N11 UNL     1      17.636 -35.265   3.792  1.00  0.00    -0.243 N 
ATOM     27  H11 UNL     1      17.359 -34.459   3.232  1.00  0.00     0.192 HD
BRANCH  24  28
HETATM   28  N9  UNL     1      17.692 -36.901   1.977  1.00  0.00    -0.224 N 
HETATM   29  C8  UNL     1      18.284 -37.956   1.417  1.00  0.00     0.138 A 
HETATM   30  C9  UNL     1      17.881 -38.008   0.096  1.00  0.00     0.108 A 
HETATM   31  N10 UNL     1      17.037 -36.962  -0.122  1.00  0.00    -0.359 N 
HETATM   32  C10 UNL     1      16.948 -36.316   1.038  1.00  0.00     0.209 A 
ATOM     33  H10 UNL     1      16.569 -36.722  -0.997  1.00  0.00     0.166 HD
ENDBRANCH  24  28
ENDBRANCH  18  20
ENDBRANCH   1  18
TORSDOF 7
ENDMDL
MODEL 5
REMARK VINA RESULT: -8.157169220      1.004      1.208
REMARK  7 active torsions:
REMARK  status: ('A' for Active; 'I' for Inactive)
REMARK    1  A    between atoms: C2_2  and  C3_3 
REMARK    2  A    between atoms: C3_3  and  N1_4 
REMARK       I    between atoms: N1_4  and  C4_6 
REMARK       I    between atoms: C4_6  and  N2_8 
REMARK    3  A    between atoms: N2_8  and  N3_10 
REMARK       I    between atoms: N3_10  and  C5_12 
REMARK       I    between atoms: C5_12  and  N4_14 
REMARK    4  A    between atoms: N4_14  and  N5_16 
REMARK    5  A    between atoms: N5_16  and  C6_18 
REMARK    6  A    between atoms: C6_18  and  C7_20 
REMARK    7  A    between atoms: N8_25  and  N9_26 
ROOT
HETATM    1  N5  UNL     1      16.449 -34.948   8.989  1.00  0.00    -0.283 N 
ATOM      2  H5  UNL     1      15.435 -34.890   8.895  1.00  0.00     0.188 HD
ENDROOT
BRANCH   1   3
HETATM    3  N4  UNL     1      17.186 -35.763   8.137  1.00  0.00    -0.249 N 
HETATM    4  C5  UNL     1      17.475 -35.363   6.832  1.00  0.00     0.353 C 
HETATM    5  N3  UNL     1      18.224 -36.207   5.980  1.00  0.00    -0.246 N 
HETATM    6  O2  UNL     1      17.079 -34.262   6.405  1.00  0.00    -0.244 OA
ATOM      7  H3  UNL     1      18.532 -37.102   6.363  1.00  0.00     0.192 HD
ATOM      8  H4  UNL     1      17.522 -36.667   8.471  1.00  0.00     0.192 HD
BRANCH   5   9
HETATM    9  N2  UNL     1      18.577 -35.921   4.666  1.00  0.00    -0.248 N 
HETATM   10  C4  UNL     1      17.725 -36.369   3.617  1.00  0.00     0.334 C 
HETATM   11  N1  UNL     1      17.979 -36.150   2.245  1.00  0.00    -0.342 N 
HETATM   12  O1  UNL     1      16.675 -37.004   3.924  1.00  0.00    -0.246 OA
ATOM     13  H1  UNL     1      18.814 -35.641   1.954  1.00  0.00     0.164 HD
ATOM     14  H2  UNL     1      19.429 -35.401   4.457  1.00  0.00     0.192 HD
BRANCH  11  15
HETATM   15  C3  UNL     1      17.060 -36.645   1.262  1.00  0.00     0.124 C 
BRANCH  15  16
HETATM   16  C2  UNL     1      17.746 -37.470   0.220  1.00  0.00     0.015 C 
HETATM   17  C1  UNL     1      18.583 -38.559   0.877  1.00  0.00     0.006 C 
ENDBRANCH  15  16
ENDBRANCH  11  15
ENDBRANCH   5   9
ENDBRANCH   1   3
BRANCH   1  18
HETATM   18  C6  UNL     1      17.122 -34.195   9.995  1.00  0.00     0.162 C 
HETATM   19  S1  UNL     1      16.408 -33.985  11.463  1.00  0.00    -0.055 SA
BRANCH  18  20
HETATM   20  C7  UNL     1      18.430 -33.611   9.745  1.00  0.00     0.179 A 
HETATM   21  N6  UNL     1      19.609 -33.925  10.356  1.00  0.00    -0.264 N 
HETATM   22  N7  UNL     1      20.542 -33.156   9.831  1.00  0.00    -0.204 N 
ATOM     23  H6  UNL     1      19.743 -34.626  11.085  1.00  0.00     0.190 HD
HETATM   24  N8  UNL     1      20.036 -32.347   8.899  1.00  0.00    -0.107 N 
ATOM     25  H7  UNL     1      21.525 -33.177  10.103  1.00  0.00     0.212 HD
HETATM   26  N11 UNL     1      18.744 -32.645   8.865  1.00  0.00    -0.243 N 
ATOM     27  H11 UNL     1      18.070 -32.196   8.246  1.00  0.00     0.192 HD
BRANCH  24  28
HETATM   28  N9  UNL     1      20.716 -31.401   8.134  1.00  0.00    -0.224 N 
HETATM   29  C8  UNL     1      20.455 -31.070   6.869  1.00  0.00     0.138 A 
HETATM   30  C9  UNL     1      21.361 -30.095   6.498  1.00  0.00     0.108 A 
HETATM   31  N10 UNL     1      22.169 -29.850   7.566  1.00  0.00    -0.359 N 
HETATM   32  C10 UNL     1      21.747 -30.659   8.535  1.00  0.00     0.209 A 
ATOM     33  H10 UNL     1      22.939 -29.183   7.613  1.00  0.00     0.166 HD
ENDBRANCH  24  28
ENDBRANCH  18  20
ENDBRANCH   1  18
TORSDOF 7
ENDMDL
