MODEL 1
REMARK VINA RESULT: -8.759730862      0.000      0.000
REMARK  6 active torsions:
REMARK  status: ('A' for Active; 'I' for Inactive)
REMARK    1  A    between atoms: S1_2  and  C2_5 
REMARK    2  A    between atoms: C2_5  and  C3_6 
REMARK    3  A    between atoms: C4_11  and  N3_12 
REMARK    4  A    between atoms: N4_15  and  C5_16 
REMARK    5  A    between atoms: C6_19  and  N6_20 
REMARK    6  A    between atoms: C12_28  and  N8_29 
ROOT
HETATM    1  C5  UNL     1      18.943 -33.249   6.596  1.00  0.00     0.708 A 
HETATM    2  N5  UNL     1      18.126 -32.256   7.004  1.00  0.00    -0.175 N 
ATOM      3  H5  UNL     1      17.224 -32.512   7.405  1.00  0.00     0.186 HD
HETATM    4  C6  UNL     1      18.429 -30.955   6.913  1.00  0.00     0.122 A 
HETATM    5  C11 UNL     1      19.651 -30.581   6.372  1.00  0.00     0.097 A 
HETATM    6  C12 UNL     1      20.508 -31.574   5.945  1.00  0.00     0.118 A 
HETATM    7  N9  UNL     1      20.134 -32.858   6.070  1.00  0.00    -0.176 N 
ATOM      8  H9  UNL     1      20.780 -33.581   5.751  1.00  0.00     0.186 HD
ENDROOT
BRANCH   1   9
HETATM    9  N4  UNL     1      18.590 -34.612   6.705  1.00  0.00     0.037 N 
HETATM   10  C3  UNL     1      18.294 -35.437   5.699  1.00  0.00     0.152 A 
HETATM   11  N1  UNL     1      18.008 -36.664   6.198  1.00  0.00    -0.272 N 
HETATM   12  N2  UNL     1      18.128 -36.600   7.500  1.00  0.00    -0.130 N 
ATOM     13  H1  UNL     1      17.747 -37.489   5.657  1.00  0.00     0.189 HD
HETATM   14  C4  UNL     1      18.489 -35.329   7.830  1.00  0.00     0.713 A 
ATOM     15  H2  UNL     1      17.977 -37.368   8.154  1.00  0.00     0.205 HD
BRANCH  10  16
HETATM   16  C2  UNL     1      18.261 -35.141   4.245  1.00  0.00     0.219 C 
BRANCH  16  17
HETATM   17  S1  UNL     1      17.598 -36.574   3.430  1.00  0.00     0.147 S 
HETATM   18  C1  UNL     1      17.462 -36.316   1.678  1.00  0.00     0.161 C 
HETATM   19  O1  UNL     1      18.492 -37.754   3.666  1.00  0.00    -0.228 OA
HETATM   20  O2  UNL     1      16.245 -36.888   3.995  1.00  0.00    -0.228 OA
ENDBRANCH  16  17
ENDBRANCH  10  16
BRANCH  14  21
HETATM   21  N3  UNL     1      18.681 -34.959   9.048  1.00  0.00    -0.232 N 
ATOM     22  H32 UNL     1      19.378 -35.287   9.717  1.00  0.00     0.174 HD
ATOM     23  H31 UNL     1      18.111 -34.245   9.500  1.00  0.00     0.174 HD
ENDBRANCH  14  21
ENDBRANCH   1   9
BRANCH   4  24
HETATM   24  N6  UNL     1      17.556 -29.925   7.347  1.00  0.00    -0.364 N 
HETATM   25  C7  UNL     1      16.113 -30.082   7.342  1.00  0.00     0.143 C 
HETATM   26  C8  UNL     1      15.536 -28.945   6.559  1.00  0.00     0.133 C 
HETATM   27  N7  UNL     1      15.959 -27.670   7.034  1.00  0.00    -0.418 N 
HETATM   28  C9  UNL     1      16.948 -27.678   8.058  1.00  0.00     0.133 C 
ATOM     29  H7  UNL     1      15.575 -26.801   6.662  1.00  0.00     0.153 HD
HETATM   30  C10 UNL     1      18.068 -28.655   7.821  1.00  0.00     0.143 C 
ENDBRANCH   4  24
BRANCH   6  31
HETATM   31  N8  UNL     1      21.668 -31.253   5.430  1.00  0.00    -0.385 N 
ATOM     32  H82 UNL     1      21.955 -30.278   5.342  1.00  0.00     0.157 HD
ATOM     33  H81 UNL     1      22.299 -31.987   5.108  1.00  0.00     0.157 HD
ENDBRANCH   6  31
TORSDOF 6
ENDMDL
MODEL 2
REMARK VINA RESULT: -8.495829455      1.610      3.129
REMARK  6 active torsions:
REMARK  status: ('A' for Active; 'I' for Inactive)
REMARK    1  A    between atoms: S1_2  and  C2_5 
REMARK    2  A    between atoms: C2_5  and  C3_6 
REMARK    3  A    between atoms: C4_11  and  N3_12 
REMARK    4  A    between atoms: N4_15  and  C5_16 
REMARK    5  A    between atoms: C6_19  and  N6_20 
REMARK    6  A    between atoms: C12_28  and  N8_29 
ROOT
HETATM    1  C5  UNL     1      18.044 -33.104   6.839  1.00  0.00     0.708 A 
HETATM    2  N5  UNL     1      19.186 -32.391   6.927  1.00  0.00    -0.175 N 
ATOM      3  H5  UNL     1      20.065 -32.902   7.004  1.00  0.00     0.186 HD
HETATM    4  C6  UNL     1      19.234 -31.053   6.919  1.00  0.00     0.122 A 
HETATM    5  C11 UNL     1      18.050 -30.335   6.813  1.00  0.00     0.097 A 
HETATM    6  C12 UNL     1      16.866 -31.036   6.722  1.00  0.00     0.118 A 
HETATM    7  N9  UNL     1      16.899 -32.379   6.736  1.00  0.00    -0.176 N 
ATOM      8  H9  UNL     1      16.015 -32.883   6.665  1.00  0.00     0.186 HD
ENDROOT
BRANCH   1   9
HETATM    9  N4  UNL     1      18.031 -34.516   6.852  1.00  0.00     0.037 N 
HETATM   10  C3  UNL     1      18.073 -35.320   5.789  1.00  0.00     0.152 A 
HETATM   11  N1  UNL     1      18.044 -36.610   6.203  1.00  0.00    -0.272 N 
HETATM   12  N2  UNL     1      17.988 -36.604   7.511  1.00  0.00    -0.130 N 
ATOM     13  H1  UNL     1      18.063 -37.436   5.604  1.00  0.00     0.189 HD
HETATM   14  C4  UNL     1      17.978 -35.309   7.929  1.00  0.00     0.713 A 
ATOM     15  H2  UNL     1      17.956 -37.428   8.112  1.00  0.00     0.205 HD
BRANCH  10  16
HETATM   16  C2  UNL     1      18.140 -34.946   4.355  1.00  0.00     0.219 C 
BRANCH  16  17
HETATM   17  S1  UNL     1      17.717 -36.391   3.411  1.00  0.00     0.147 S 
HETATM   18  C1  UNL     1      17.606 -36.021   1.678  1.00  0.00     0.161 C 
HETATM   19  O1  UNL     1      18.762 -37.449   3.603  1.00  0.00    -0.228 OA
HETATM   20  O2  UNL     1      16.404 -36.933   3.892  1.00  0.00    -0.228 OA
ENDBRANCH  16  17
ENDBRANCH  10  16
BRANCH  14  21
HETATM   21  N3  UNL     1      17.926 -34.985   9.174  1.00  0.00    -0.232 N 
ATOM     22  H32 UNL     1      17.497 -35.487   9.952  1.00  0.00     0.174 HD
ATOM     23  H31 UNL     1      18.340 -34.125   9.534  1.00  0.00     0.174 HD
ENDBRANCH  14  21
ENDBRANCH   1   9
BRANCH   4  24
HETATM   24  N6  UNL     1      20.444 -30.321   7.013  1.00  0.00    -0.364 N 
HETATM   25  C7  UNL     1      21.654 -30.897   7.571  1.00  0.00     0.143 C 
HETATM   26  C8  UNL     1      22.124 -29.992   8.666  1.00  0.00     0.133 C 
HETATM   27  N7  UNL     1      22.291 -28.643   8.241  1.00  0.00    -0.418 N 
HETATM   28  C9  UNL     1      21.860 -28.344   6.918  1.00  0.00     0.133 C 
ATOM     29  H7  UNL     1      22.696 -27.932   8.850  1.00  0.00     0.153 HD
HETATM   30  C10 UNL     1      20.532 -28.950   6.553  1.00  0.00     0.143 C 
ENDBRANCH   4  24
BRANCH   6  31
HETATM   31  N8  UNL     1      15.733 -30.387   6.621  1.00  0.00    -0.385 N 
ATOM     32  H82 UNL     1      15.296 -29.959   7.438  1.00  0.00     0.157 HD
ATOM     33  H81 UNL     1      15.276 -30.307   5.714  1.00  0.00     0.157 HD
ENDBRANCH   6  31
TORSDOF 6
ENDMDL
MODEL 3
REMARK VINA RESULT: -8.421990142      3.959      6.818
REMARK  6 active torsions:
REMARK  status: ('A' for Active; 'I' for Inactive)
REMARK    1  A    between atoms: S1_2  and  C2_5 
REMARK    2  A    between atoms: C2_5  and  C3_6 
REMARK    3  A    between atoms: C4_11  and  N3_12 
REMARK    4  A    between atoms: N4_15  and  C5_16 
REMARK    5  A    between atoms: C6_19  and  N6_20 
REMARK    6  A    between atoms: C12_28  and  N8_29 
ROOT
HETATM    1  C5  UNL     1      20.666 -31.008   7.093  1.00  0.00     0.708 A 
HETATM    2  N5  UNL     1      19.846 -31.821   7.790  1.00  0.00    -0.175 N 
ATOM      3  H5  UNL     1      19.377 -31.439   8.612  1.00  0.00     0.186 HD
HETATM    4  C6  UNL     1      19.610 -33.099   7.468  1.00  0.00     0.122 A 
HETATM    5  C11 UNL     1      20.235 -33.642   6.354  1.00  0.00     0.097 A 
HETATM    6  C12 UNL     1      21.080 -32.835   5.621  1.00  0.00     0.118 A 
HETATM    7  N9  UNL     1      21.266 -31.562   6.006  1.00  0.00    -0.176 N 
ATOM      8  H9  UNL     1      21.893 -30.978   5.452  1.00  0.00     0.186 HD
ENDROOT
BRANCH   1   9
HETATM    9  N4  UNL     1      20.894 -29.664   7.464  1.00  0.00     0.037 N 
HETATM   10  C3  UNL     1      20.090 -28.628   7.221  1.00  0.00     0.152 A 
HETATM   11  N1  UNL     1      20.647 -27.502   7.731  1.00  0.00    -0.272 N 
HETATM   12  N2  UNL     1      21.783 -27.840   8.286  1.00  0.00    -0.130 N 
ATOM     13  H1  UNL     1      20.252 -26.563   7.689  1.00  0.00     0.189 HD
HETATM   14  C4  UNL     1      21.951 -29.182   8.128  1.00  0.00     0.713 A 
ATOM     15  H2  UNL     1      22.431 -27.207   8.756  1.00  0.00     0.205 HD
BRANCH  10  16
HETATM   16  C2  UNL     1      18.785 -28.621   6.516  1.00  0.00     0.219 C 
BRANCH  16  17
HETATM   17  S1  UNL     1      17.514 -28.637   7.758  1.00  0.00     0.147 S 
HETATM   18  C1  UNL     1      15.896 -28.639   7.026  1.00  0.00     0.161 C 
HETATM   19  O1  UNL     1      17.648 -29.863   8.610  1.00  0.00    -0.228 OA
HETATM   20  O2  UNL     1      17.663 -27.433   8.638  1.00  0.00    -0.228 OA
ENDBRANCH  16  17
ENDBRANCH  10  16
BRANCH  14  21
HETATM   21  N3  UNL     1      22.984 -29.807   8.572  1.00  0.00    -0.232 N 
ATOM     22  H32 UNL     1      23.688 -29.492   9.240  1.00  0.00     0.174 HD
ATOM     23  H31 UNL     1      23.221 -30.754   8.278  1.00  0.00     0.174 HD
ENDBRANCH  14  21
ENDBRANCH   1   9
BRANCH   4  24
HETATM   24  N6  UNL     1      18.744 -33.938   8.214  1.00  0.00    -0.364 N 
HETATM   25  C7  UNL     1      18.446 -33.693   9.614  1.00  0.00     0.143 C 
HETATM   26  C8  UNL     1      18.769 -34.941  10.372  1.00  0.00     0.133 C 
HETATM   27  N7  UNL     1      18.111 -36.094   9.853  1.00  0.00    -0.418 N 
HETATM   28  C9  UNL     1      17.384 -35.910   8.643  1.00  0.00     0.133 C 
ATOM     29  H7  UNL     1      18.158 -36.998  10.322  1.00  0.00     0.153 HD
HETATM   30  C10 UNL     1      18.110 -35.092   7.610  1.00  0.00     0.143 C 
ENDBRANCH   4  24
BRANCH   6  31
HETATM   31  N8  UNL     1      21.684 -33.318   4.564  1.00  0.00    -0.385 N 
ATOM     32  H82 UNL     1      21.495 -32.948   3.633  1.00  0.00     0.157 HD
ATOM     33  H81 UNL     1      22.354 -34.080   4.669  1.00  0.00     0.157 HD
ENDBRANCH   6  31
TORSDOF 6
ENDMDL
MODEL 4
REMARK VINA RESULT: -8.381869828      3.905      6.845
REMARK  6 active torsions:
REMARK  status: ('A' for Active; 'I' for Inactive)
REMARK    1  A    between atoms: S1_2  and  C2_5 
REMARK    2  A    between atoms: C2_5  and  C3_6 
REMARK    3  A    between atoms: C4_11  and  N3_12 
REMARK    4  A    between atoms: N4_15  and  C5_16 
REMARK    5  A    between atoms: C6_19  and  N6_20 
REMARK    6  A    between atoms: C12_28  and  N8_29 
ROOT
HETATM    1  C5  UNL     1      20.203 -30.924   7.127  1.00  0.00     0.708 A 
HETATM    2  N5  UNL     1      19.427 -31.823   7.767  1.00  0.00    -0.175 N 
ATOM      3  H5  UNL     1      18.780 -31.479   8.476  1.00  0.00     0.186 HD
HETATM    4  C6  UNL     1      19.457 -33.140   7.527  1.00  0.00     0.122 A 
HETATM    5  C11 UNL     1      20.328 -33.633   6.565  1.00  0.00     0.097 A 
HETATM    6  C12 UNL     1      21.135 -32.738   5.894  1.00  0.00     0.118 A 
HETATM    7  N9  UNL     1      21.048 -31.430   6.189  1.00  0.00    -0.176 N 
ATOM      8  H9  UNL     1      21.649 -30.782   5.682  1.00  0.00     0.186 HD
ENDROOT
BRANCH   1   9
HETATM    9  N4  UNL     1      20.147 -29.541   7.407  1.00  0.00     0.037 N 
HETATM   10  C3  UNL     1      19.128 -28.720   7.149  1.00  0.00     0.152 A 
HETATM   11  N1  UNL     1      19.447 -27.470   7.564  1.00  0.00    -0.272 N 
HETATM   12  N2  UNL     1      20.650 -27.517   8.076  1.00  0.00    -0.130 N 
ATOM     13  H1  UNL     1      18.855 -26.641   7.490  1.00  0.00     0.189 HD
HETATM   14  C4  UNL     1      21.099 -28.800   7.985  1.00  0.00     0.713 A 
ATOM     15  H2  UNL     1      21.163 -26.730   8.474  1.00  0.00     0.205 HD
BRANCH  10  16
HETATM   16  C2  UNL     1      17.826 -29.041   6.515  1.00  0.00     0.219 C 
BRANCH  16  17
HETATM   17  S1  UNL     1      16.560 -28.725   7.722  1.00  0.00     0.147 S 
HETATM   18  C1  UNL     1      16.952 -29.477   9.282  1.00  0.00     0.161 C 
HETATM   19  O1  UNL     1      16.414 -27.248   7.933  1.00  0.00    -0.228 OA
HETATM   20  O2  UNL     1      15.251 -29.261   7.224  1.00  0.00    -0.228 OA
ENDBRANCH  16  17
ENDBRANCH  10  16
BRANCH  14  21
HETATM   21  N3  UNL     1      22.261 -29.157   8.408  1.00  0.00    -0.232 N 
ATOM     22  H32 UNL     1      23.133 -28.628   8.418  1.00  0.00     0.174 HD
ATOM     23  H31 UNL     1      22.439 -30.078   8.809  1.00  0.00     0.174 HD
ENDBRANCH  14  21
ENDBRANCH   1   9
BRANCH   4  24
HETATM   24  N6  UNL     1      18.634 -34.070   8.211  1.00  0.00    -0.364 N 
HETATM   25  C7  UNL     1      18.268 -33.899   9.605  1.00  0.00     0.143 C 
HETATM   26  C8  UNL     1      18.660 -35.145  10.334  1.00  0.00     0.133 C 
HETATM   27  N7  UNL     1      18.114 -36.325   9.753  1.00  0.00    -0.418 N 
HETATM   28  C9  UNL     1      17.419 -36.156   8.523  1.00  0.00     0.133 C 
ATOM     29  H7  UNL     1      18.216 -37.240  10.193  1.00  0.00     0.153 HD
HETATM   30  C10 UNL     1      18.114 -35.247   7.545  1.00  0.00     0.143 C 
ENDBRANCH   4  24
BRANCH   6  31
HETATM   31  N8  UNL     1      21.967 -33.172   4.981  1.00  0.00    -0.385 N 
ATOM     32  H82 UNL     1      22.538 -32.525   4.437  1.00  0.00     0.157 HD
ATOM     33  H81 UNL     1      22.046 -34.173   4.806  1.00  0.00     0.157 HD
ENDBRANCH   6  31
TORSDOF 6
ENDMDL
MODEL 5
REMARK VINA RESULT: -8.377565185      4.316      6.822
REMARK  6 active torsions:
REMARK  status: ('A' for Active; 'I' for Inactive)
REMARK    1  A    between atoms: S1_2  and  C2_5 
REMARK    2  A    between atoms: C2_5  and  C3_6 
REMARK    3  A    between atoms: C4_11  and  N3_12 
REMARK    4  A    between atoms: N4_15  and  C5_16 
REMARK    5  A    between atoms: C6_19  and  N6_20 
REMARK    6  A    between atoms: C12_28  and  N8_29 
ROOT
HETATM    1  C5  UNL     1      20.551 -31.053   7.573  1.00  0.00     0.708 A 
HETATM    2  N5  UNL     1      19.684 -31.636   8.427  1.00  0.00    -0.175 N 
ATOM      3  H5  UNL     1      19.298 -31.067   9.180  1.00  0.00     0.186 HD
HETATM    4  C6  UNL     1      19.301 -32.916   8.345  1.00  0.00     0.122 A 
HETATM    5  C11 UNL     1      19.812 -33.711   7.327  1.00  0.00     0.097 A 
HETATM    6  C12 UNL     1      20.700 -33.143   6.438  1.00  0.00     0.118 A 
HETATM    7  N9  UNL     1      21.036 -31.851   6.585  1.00  0.00    -0.176 N 
ATOM      8  H9  UNL     1      21.693 -31.446   5.918  1.00  0.00     0.186 HD
ENDROOT
BRANCH   1   9
HETATM    9  N4  UNL     1      20.935 -29.699   7.691  1.00  0.00     0.037 N 
HETATM   10  C3  UNL     1      20.234 -28.638   7.289  1.00  0.00     0.152 A 
HETATM   11  N1  UNL     1      20.928 -27.510   7.575  1.00  0.00    -0.272 N 
HETATM   12  N2  UNL     1      22.047 -27.870   8.150  1.00  0.00    -0.130 N 
ATOM     13  H1  UNL     1      20.633 -26.554   7.376  1.00  0.00     0.189 HD
HETATM   14  C4  UNL     1      22.066 -29.229   8.229  1.00  0.00     0.713 A 
ATOM     15  H2  UNL     1      22.779 -27.241   8.482  1.00  0.00     0.205 HD
BRANCH  10  16
HETATM   16  C2  UNL     1      18.905 -28.609   6.629  1.00  0.00     0.219 C 
BRANCH  16  17
HETATM   17  S1  UNL     1      17.700 -28.254   7.886  1.00  0.00     0.147 S 
HETATM   18  C1  UNL     1      16.050 -28.298   7.229  1.00  0.00     0.161 C 
HETATM   19  O1  UNL     1      17.797 -29.267   8.987  1.00  0.00    -0.228 OA
HETATM   20  O2  UNL     1      17.970 -26.899   8.467  1.00  0.00    -0.228 OA
ENDBRANCH  16  17
ENDBRANCH  10  16
BRANCH  14  21
HETATM   21  N3  UNL     1      23.048 -29.878   8.750  1.00  0.00    -0.232 N 
ATOM     22  H32 UNL     1      24.014 -29.580   8.890  1.00  0.00     0.174 HD
ATOM     23  H31 UNL     1      22.950 -30.829   9.104  1.00  0.00     0.174 HD
ENDBRANCH  14  21
ENDBRANCH   1   9
BRANCH   4  24
HETATM   24  N6  UNL     1      18.390 -33.511   9.253  1.00  0.00    -0.364 N 
HETATM   25  C7  UNL     1      18.781 -34.586  10.148  1.00  0.00     0.143 C 
HETATM   26  C8  UNL     1      17.839 -35.727   9.925  1.00  0.00     0.133 C 
HETATM   27  N7  UNL     1      16.471 -35.355  10.061  1.00  0.00    -0.418 N 
HETATM   28  C9  UNL     1      16.213 -33.967  10.241  1.00  0.00     0.133 C 
ATOM     29  H7  UNL     1      15.719 -36.044  10.032  1.00  0.00     0.153 HD
HETATM   30  C10 UNL     1      17.012 -33.071   9.333  1.00  0.00     0.143 C 
ENDBRANCH   4  24
BRANCH   6  31
HETATM   31  N8  UNL     1      21.199 -33.867   5.468  1.00  0.00    -0.385 N 
ATOM     32  H82 UNL     1      21.165 -34.886   5.499  1.00  0.00     0.157 HD
ATOM     33  H81 UNL     1      21.631 -33.408   4.667  1.00  0.00     0.157 HD
ENDBRANCH   6  31
TORSDOF 6
ENDMDL
