MODEL 1
REMARK VINA RESULT: -9.522320176      0.000      0.000
REMARK  4 active torsions:
REMARK  status: ('A' for Active; 'I' for Inactive)
REMARK       I    between atoms: C1_2  and  N2_4 
REMARK    1  A    between atoms: N2_4  and  C2_6 
REMARK    2  A    between atoms: C6_12  and  C7_13 
REMARK       I    between atoms: C7_13  and  N4_15 
REMARK    3  A    between atoms: N4_15  and  C8_17 
REMARK    4  A    between atoms: C12_23  and  C13_24 
ROOT
HETATM    1  C8  UNL     1      13.802  13.782-105.469  1.00  0.00     0.050 A 
HETATM    2  C9  UNL     1      12.726  12.946-105.333  1.00  0.00     0.047 A 
HETATM    3  C10 UNL     1      12.825  11.589-105.645  1.00  0.00     0.090 A 
HETATM    4  N5  UNL     1      13.981  11.058-106.090  1.00  0.00    -0.374 N 
ATOM      5  H5  UNL     1      14.034  10.065-106.313  1.00  0.00     0.164 HD
HETATM    6  C11 UNL     1      15.062  11.836-106.238  1.00  0.00     0.103 A 
HETATM    7  C12 UNL     1      14.975  13.177-105.934  1.00  0.00     0.034 A 
ENDROOT
BRANCH   1   8
HETATM    8  N4  UNL     1      13.751  15.175-105.203  1.00  0.00    -0.322 N 
HETATM    9  C7  UNL     1      13.633  16.235-106.090  1.00  0.00     0.256 C 
HETATM   10  O2  UNL     1      13.544  16.068-107.320  1.00  0.00    -0.267 OA
ATOM     11  H4  UNL     1      13.811  15.434-104.218  1.00  0.00     0.169 HD
BRANCH   9  12
HETATM   12  C6  UNL     1      13.603  17.604-105.624  1.00  0.00     0.034 A 
HETATM   13  C5  UNL     1      14.725  18.354-105.385  1.00  0.00     0.019 A 
HETATM   14  C4  UNL     1      14.653  19.664-104.929  1.00  0.00     0.033 A 
HETATM   15  C3  UNL     1      13.431  20.251-104.701  1.00  0.00     0.076 A 
HETATM   16  N3  UNL     1      13.062  21.486-104.267  1.00  0.00    -0.189 N 
HETATM   17  C25 UNL     1      12.293  19.505-104.938  1.00  0.00     0.077 A 
HETATM   18  C2  UNL     1      11.734  21.511-104.234  1.00  0.00     0.687 A 
ATOM     19  H3  UNL     1      13.688  22.250-104.013  1.00  0.00     0.184 HD
HETATM   20  N10 UNL     1      11.255  20.319-104.637  1.00  0.00    -0.189 N 
ATOM     21  H10 UNL     1      10.268  20.070-104.704  1.00  0.00     0.184 HD
HETATM   22  C24 UNL     1      12.384  18.204-105.392  1.00  0.00     0.049 A 
BRANCH  18  23
HETATM   23  N2  UNL     1      10.998  22.527-103.871  1.00  0.00    -0.143 N 
HETATM   24  C1  UNL     1       9.603  22.560-104.086  1.00  0.00     0.346 C 
HETATM   25  N1  UNL     1       8.717  22.776-103.014  1.00  0.00    -0.039 NA
HETATM   26  O1  UNL     1       9.164  22.393-105.245  1.00  0.00    -0.250 OA
ATOM     27  H2  UNL     1      11.446  23.324-103.417  1.00  0.00     0.188 HD
ENDBRANCH  18  23
ENDBRANCH   9  12
ENDBRANCH   1   8
BRANCH   7  28
HETATM   28  C13 UNL     1      16.187  14.002-105.947  1.00  0.00     0.061 A 
HETATM   29  N6  UNL     1      16.585  14.500-107.145  1.00  0.00    -0.364 N 
HETATM   30  C14 UNL     1      17.641  15.298-107.225  1.00  0.00     0.090 A 
ATOM     31  H6  UNL     1      16.067  14.260-107.991  1.00  0.00     0.165 HD
HETATM   32  C15 UNL     1      18.371  15.649-106.111  1.00  0.00     0.049 A 
HETATM   33  C16 UNL     1      17.993  15.158-104.892  1.00  0.00     0.064 A 
HETATM   34  N7  UNL     1      18.484  15.309-103.648  1.00  0.00    -0.299 N 
HETATM   35  C23 UNL     1      16.874  14.310-104.804  1.00  0.00     0.049 A 
HETATM   36  N8  UNL     1      17.770  14.630-102.839  1.00  0.00    -0.299 N 
ATOM     37  H7  UNL     1      19.295  15.873-103.393  1.00  0.00     0.187 HD
HETATM   38  C17 UNL     1      16.739  13.969-103.484  1.00  0.00     0.073 A 
ATOM     39  H8  UNL     1      17.939  14.579-101.834  1.00  0.00     0.187 HD
HETATM   40  C18 UNL     1      15.810  13.127-102.783  1.00  0.00    -0.004 A 
HETATM   41  C19 UNL     1      15.062  13.712-101.751  1.00  0.00     0.030 A 
HETATM   42  C22 UNL     1      15.656  11.770-102.935  1.00  0.00     0.030 A 
HETATM   43  C20 UNL     1      14.230  13.010-100.938  1.00  0.00     0.088 A 
HETATM   44  N9  UNL     1      14.107  11.687-101.119  1.00  0.00    -0.375 N 
HETATM   45  C21 UNL     1      14.809  11.058-102.108  1.00  0.00     0.088 A 
ATOM     46  H9  UNL     1      13.486  11.149-100.515  1.00  0.00     0.164 HD
ENDBRANCH   7  28
TORSDOF 4
ENDMDL
MODEL 2
REMARK VINA RESULT: -9.424123163      4.262      8.029
REMARK  4 active torsions:
REMARK  status: ('A' for Active; 'I' for Inactive)
REMARK       I    between atoms: C1_2  and  N2_4 
REMARK    1  A    between atoms: N2_4  and  C2_6 
REMARK    2  A    between atoms: C6_12  and  C7_13 
REMARK       I    between atoms: C7_13  and  N4_15 
REMARK    3  A    between atoms: N4_15  and  C8_17 
REMARK    4  A    between atoms: C12_23  and  C13_24 
ROOT
HETATM    1  C8  UNL     1      11.169  18.385-105.552  1.00  0.00     0.050 A 
HETATM    2  C9  UNL     1      11.177  17.022-105.422  1.00  0.00     0.047 A 
HETATM    3  C10 UNL     1      12.377  16.316-105.312  1.00  0.00     0.090 A 
HETATM    4  N5  UNL     1      13.565  16.953-105.330  1.00  0.00    -0.374 N 
ATOM      5  H5  UNL     1      14.430  16.420-105.250  1.00  0.00     0.164 HD
HETATM    6  C11 UNL     1      13.608  18.286-105.454  1.00  0.00     0.103 A 
HETATM    7  C12 UNL     1      12.430  18.993-105.564  1.00  0.00     0.034 A 
ENDROOT
BRANCH   1   8
HETATM    8  N4  UNL     1       9.985  19.152-105.703  1.00  0.00    -0.322 N 
HETATM    9  C7  UNL     1       9.194  19.745-104.730  1.00  0.00     0.256 C 
HETATM   10  O2  UNL     1       9.460  19.670-103.516  1.00  0.00    -0.267 OA
ATOM     11  H4  UNL     1       9.670  19.286-106.663  1.00  0.00     0.169 HD
BRANCH   9  12
HETATM   12  C6  UNL     1       8.006  20.493-105.082  1.00  0.00     0.034 A 
HETATM   13  C5  UNL     1       7.884  21.239-106.225  1.00  0.00     0.019 A 
HETATM   14  C4  UNL     1       6.728  21.950-106.522  1.00  0.00     0.033 A 
HETATM   15  C3  UNL     1       5.658  21.921-105.659  1.00  0.00     0.076 A 
HETATM   16  N3  UNL     1       4.428  22.502-105.687  1.00  0.00    -0.189 N 
HETATM   17  C25 UNL     1       5.768  21.172-104.504  1.00  0.00     0.077 A 
HETATM   18  C2  UNL     1       3.790  22.127-104.584  1.00  0.00     0.687 A 
ATOM     19  H3  UNL     1       4.063  23.111-106.419  1.00  0.00     0.184 HD
HETATM   20  N10 UNL     1       4.589  21.322-103.858  1.00  0.00    -0.189 N 
ATOM     21  H10 UNL     1       4.345  20.895-102.964  1.00  0.00     0.184 HD
HETATM   22  C24 UNL     1       6.926  20.472-104.226  1.00  0.00     0.049 A 
BRANCH  18  23
HETATM   23  N2  UNL     1       2.578  22.475-104.247  1.00  0.00    -0.143 N 
HETATM   24  C1  UNL     1       2.203  22.689-102.902  1.00  0.00     0.346 C 
HETATM   25  N1  UNL     1       1.625  23.908-102.504  1.00  0.00    -0.039 NA
HETATM   26  O1  UNL     1       2.393  21.777-102.069  1.00  0.00    -0.250 OA
ATOM     27  H2  UNL     1       1.878  22.598-104.979  1.00  0.00     0.188 HD
ENDBRANCH  18  23
ENDBRANCH   9  12
ENDBRANCH   1   8
BRANCH   7  28
HETATM   28  C13 UNL     1      12.462  20.458-105.546  1.00  0.00     0.061 A 
HETATM   29  N6  UNL     1      12.167  21.072-104.372  1.00  0.00    -0.364 N 
HETATM   30  C14 UNL     1      12.229  22.392-104.268  1.00  0.00     0.090 A 
ATOM     31  H6  UNL     1      11.897  20.512-103.562  1.00  0.00     0.165 HD
HETATM   32  C15 UNL     1      12.588  23.188-105.333  1.00  0.00     0.049 A 
HETATM   33  C16 UNL     1      12.887  22.595-106.528  1.00  0.00     0.064 A 
HETATM   34  N7  UNL     1      13.262  23.081-107.727  1.00  0.00    -0.299 N 
HETATM   35  C23 UNL     1      12.821  21.194-106.643  1.00  0.00     0.049 A 
HETATM   36  N8  UNL     1      13.416  22.107-108.535  1.00  0.00    -0.299 N 
ATOM     37  H7  UNL     1      13.399  24.066-107.952  1.00  0.00     0.187 HD
HETATM   38  C17 UNL     1      13.156  20.887-107.935  1.00  0.00     0.073 A 
ATOM     39  H8  UNL     1      13.698  22.214-109.510  1.00  0.00     0.187 HD
HETATM   40  C18 UNL     1      13.248  19.645-108.651  1.00  0.00    -0.004 A 
HETATM   41  C19 UNL     1      14.483  19.325-109.233  1.00  0.00     0.030 A 
HETATM   42  C22 UNL     1      12.216  18.782-108.932  1.00  0.00     0.030 A 
HETATM   43  C20 UNL     1      14.680  18.240-110.026  1.00  0.00     0.088 A 
HETATM   44  N9  UNL     1      13.648  17.421-110.275  1.00  0.00    -0.375 N 
HETATM   45  C21 UNL     1      12.418  17.678-109.738  1.00  0.00     0.088 A 
ATOM     46  H9  UNL     1      13.782  16.603-110.870  1.00  0.00     0.164 HD
ENDBRANCH   7  28
TORSDOF 4
ENDMDL
MODEL 3
REMARK VINA RESULT: -9.364569568      4.565     10.703
REMARK  4 active torsions:
REMARK  status: ('A' for Active; 'I' for Inactive)
REMARK       I    between atoms: C1_2  and  N2_4 
REMARK    1  A    between atoms: N2_4  and  C2_6 
REMARK    2  A    between atoms: C6_12  and  C7_13 
REMARK       I    between atoms: C7_13  and  N4_15 
REMARK    3  A    between atoms: N4_15  and  C8_17 
REMARK    4  A    between atoms: C12_23  and  C13_24 
ROOT
HETATM    1  C8  UNL     1       7.671  21.423-102.345  1.00  0.00     0.050 A 
HETATM    2  C9  UNL     1       6.881  20.961-101.327  1.00  0.00     0.047 A 
HETATM    3  C10 UNL     1       6.014  21.815-100.642  1.00  0.00     0.090 A 
HETATM    4  N5  UNL     1       5.927  23.122-100.962  1.00  0.00    -0.374 N 
ATOM      5  H5  UNL     1       5.289  23.730-100.451  1.00  0.00     0.164 HD
HETATM    6  C11 UNL     1       6.679  23.621-101.951  1.00  0.00     0.103 A 
HETATM    7  C12 UNL     1       7.538  22.786-102.633  1.00  0.00     0.034 A 
ENDROOT
BRANCH   1   8
HETATM    8  N4  UNL     1       8.595  20.611-103.051  1.00  0.00    -0.322 N 
HETATM    9  C7  UNL     1       9.982  20.626-103.015  1.00  0.00     0.256 C 
HETATM   10  O2  UNL     1      10.622  21.414-102.296  1.00  0.00    -0.267 OA
ATOM     11  H4  UNL     1       8.182  19.918-103.674  1.00  0.00     0.169 HD
BRANCH   9  12
HETATM   12  C6  UNL     1      10.763  19.713-103.821  1.00  0.00     0.034 A 
HETATM   13  C5  UNL     1      10.342  18.459-104.181  1.00  0.00     0.019 A 
HETATM   14  C4  UNL     1      11.127  17.610-104.949  1.00  0.00     0.033 A 
HETATM   15  C3  UNL     1      12.370  18.014-105.376  1.00  0.00     0.076 A 
HETATM   16  N3  UNL     1      13.335  17.412-106.123  1.00  0.00    -0.189 N 
HETATM   17  C25 UNL     1      12.806  19.275-105.021  1.00  0.00     0.077 A 
HETATM   18  C2  UNL     1      14.342  18.271-106.230  1.00  0.00     0.687 A 
ATOM     19  H3  UNL     1      13.293  16.475-106.524  1.00  0.00     0.184 HD
HETATM   20  N10 UNL     1      14.036  19.403-105.568  1.00  0.00    -0.189 N 
ATOM     21  H10 UNL     1      14.636  20.224-105.491  1.00  0.00     0.184 HD
HETATM   22  C24 UNL     1      12.011  20.106-104.256  1.00  0.00     0.049 A 
BRANCH  18  23
HETATM   23  N2  UNL     1      15.458  18.063-106.876  1.00  0.00    -0.143 N 
HETATM   24  C1  UNL     1      15.538  18.143-108.284  1.00  0.00     0.346 C 
HETATM   25  N1  UNL     1      16.470  18.998-108.901  1.00  0.00    -0.039 NA
HETATM   26  O1  UNL     1      14.768  17.443-108.975  1.00  0.00    -0.250 OA
ATOM     27  H2  UNL     1      16.300  17.835-106.346  1.00  0.00     0.188 HD
ENDBRANCH  18  23
ENDBRANCH   9  12
ENDBRANCH   1   8
BRANCH   7  28
HETATM   28  C13 UNL     1       8.250  23.288-103.813  1.00  0.00     0.061 A 
HETATM   29  N6  UNL     1       9.390  23.993-103.597  1.00  0.00    -0.364 N 
HETATM   30  C14 UNL     1      10.113  24.431-104.617  1.00  0.00     0.090 A 
ATOM     31  H6  UNL     1       9.692  24.187-102.641  1.00  0.00     0.165 HD
HETATM   32  C15 UNL     1       9.745  24.194-105.923  1.00  0.00     0.049 A 
HETATM   33  C16 UNL     1       8.600  23.489-106.168  1.00  0.00     0.064 A 
HETATM   34  N7  UNL     1       7.983  23.102-107.301  1.00  0.00    -0.299 N 
HETATM   35  C23 UNL     1       7.828  23.024-105.088  1.00  0.00     0.049 A 
HETATM   36  N8  UNL     1       6.924  22.463-106.994  1.00  0.00    -0.299 N 
ATOM     37  H7  UNL     1       8.309  23.290-108.249  1.00  0.00     0.187 HD
HETATM   38  C17 UNL     1       6.750  22.370-105.624  1.00  0.00     0.073 A 
ATOM     39  H8  UNL     1       6.280  22.065-107.678  1.00  0.00     0.187 HD
HETATM   40  C18 UNL     1       5.618  21.708-105.037  1.00  0.00    -0.004 A 
HETATM   41  C19 UNL     1       5.425  20.357-105.357  1.00  0.00     0.030 A 
HETATM   42  C22 UNL     1       4.628  22.290-104.283  1.00  0.00     0.030 A 
HETATM   43  C20 UNL     1       4.340  19.641-104.961  1.00  0.00     0.088 A 
HETATM   44  N9  UNL     1       3.396  20.244-104.225  1.00  0.00    -0.375 N 
HETATM   45  C21 UNL     1       3.526  21.560-103.880  1.00  0.00     0.088 A 
ATOM     46  H9  UNL     1       2.576  19.719-103.921  1.00  0.00     0.164 HD
ENDBRANCH   7  28
TORSDOF 4
ENDMDL
MODEL 4
REMARK VINA RESULT: -9.296684351      3.067      8.453
REMARK  4 active torsions:
REMARK  status: ('A' for Active; 'I' for Inactive)
REMARK       I    between atoms: C1_2  and  N2_4 
REMARK    1  A    between atoms: N2_4  and  C2_6 
REMARK    2  A    between atoms: C6_12  and  C7_13 
REMARK       I    between atoms: C7_13  and  N4_15 
REMARK    3  A    between atoms: N4_15  and  C8_17 
REMARK    4  A    between atoms: C12_23  and  C13_24 
ROOT
HETATM    1  C8  UNL     1      12.032  17.942-105.716  1.00  0.00     0.050 A 
HETATM    2  C9  UNL     1      10.900  17.609-105.022  1.00  0.00     0.047 A 
HETATM    3  C10 UNL     1       9.674  18.212-105.311  1.00  0.00     0.090 A 
HETATM    4  N5  UNL     1       9.566  19.140-106.282  1.00  0.00    -0.374 N 
ATOM      5  H5  UNL     1       8.663  19.570-106.479  1.00  0.00     0.164 HD
HETATM    6  C11 UNL     1      10.645  19.498-106.990  1.00  0.00     0.103 A 
HETATM    7  C12 UNL     1      11.861  18.909-106.712  1.00  0.00     0.034 A 
ENDROOT
BRANCH   1   8
HETATM    8  N4  UNL     1      13.311  17.390-105.444  1.00  0.00    -0.322 N 
HETATM    9  C7  UNL     1      13.699  16.059-105.393  1.00  0.00     0.256 C 
HETATM   10  O2  UNL     1      12.905  15.123-105.603  1.00  0.00    -0.267 OA
ATOM     11  H4  UNL     1      14.049  18.067-105.259  1.00  0.00     0.169 HD
BRANCH   9  12
HETATM   12  C6  UNL     1      15.064  15.687-105.090  1.00  0.00     0.034 A 
HETATM   13  C5  UNL     1      15.470  15.185-103.881  1.00  0.00     0.019 A 
HETATM   14  C4  UNL     1      16.793  14.848-103.629  1.00  0.00     0.033 A 
HETATM   15  C3  UNL     1      17.747  15.014-104.606  1.00  0.00     0.076 A 
HETATM   16  N3  UNL     1      19.086  14.775-104.644  1.00  0.00    -0.189 N 
HETATM   17  C25 UNL     1      17.351  15.518-105.829  1.00  0.00     0.077 A 
HETATM   18  C2  UNL     1      19.512  15.119-105.854  1.00  0.00     0.687 A 
ATOM     19  H3  UNL     1      19.656  14.401-103.885  1.00  0.00     0.184 HD
HETATM   20  N10 UNL     1      18.473  15.571-106.582  1.00  0.00    -0.189 N 
ATOM     21  H10 UNL     1      18.525  15.901-107.546  1.00  0.00     0.184 HD
HETATM   22  C24 UNL     1      16.030  15.847-106.061  1.00  0.00     0.049 A 
BRANCH  18  23
HETATM   23  N2  UNL     1      20.743  15.035-106.283  1.00  0.00    -0.143 N 
HETATM   24  C1  UNL     1      21.128  15.501-107.559  1.00  0.00     0.346 C 
HETATM   25  N1  UNL     1      22.169  16.438-107.696  1.00  0.00    -0.039 NA
HETATM   26  O1  UNL     1      20.531  15.068-108.568  1.00  0.00    -0.250 OA
ATOM     27  H2  UNL     1      21.450  14.620-105.675  1.00  0.00     0.188 HD
ENDBRANCH  18  23
ENDBRANCH   9  12
ENDBRANCH   1   8
BRANCH   7  28
HETATM   28  C13 UNL     1      13.011  19.182-107.579  1.00  0.00     0.061 A 
HETATM   29  N6  UNL     1      13.261  18.296-108.576  1.00  0.00    -0.364 N 
HETATM   30  C14 UNL     1      14.251  18.507-109.432  1.00  0.00     0.090 A 
ATOM     31  H6  UNL     1      12.682  17.460-108.668  1.00  0.00     0.165 HD
HETATM   32  C15 UNL     1      15.059  19.619-109.347  1.00  0.00     0.049 A 
HETATM   33  C16 UNL     1      14.830  20.526-108.350  1.00  0.00     0.064 A 
HETATM   34  N7  UNL     1      15.427  21.683-108.005  1.00  0.00    -0.299 N 
HETATM   35  C23 UNL     1      13.781  20.305-107.439  1.00  0.00     0.049 A 
HETATM   36  N8  UNL     1      14.838  22.159-106.981  1.00  0.00    -0.299 N 
ATOM     37  H7  UNL     1      16.220  22.108-108.485  1.00  0.00     0.187 HD
HETATM   38  C17 UNL     1      13.794  21.354-106.559  1.00  0.00     0.073 A 
ATOM     39  H8  UNL     1      15.104  23.033-106.524  1.00  0.00     0.187 HD
HETATM   40  C18 UNL     1      12.992  21.676-105.411  1.00  0.00    -0.004 A 
HETATM   41  C19 UNL     1      12.309  22.901-105.426  1.00  0.00     0.030 A 
HETATM   42  C22 UNL     1      12.912  20.963-104.240  1.00  0.00     0.030 A 
HETATM   43  C20 UNL     1      11.604  23.378-104.367  1.00  0.00     0.088 A 
HETATM   44  N9  UNL     1      11.550  22.652-103.241  1.00  0.00    -0.375 N 
HETATM   45  C21 UNL     1      12.194  21.450-103.164  1.00  0.00     0.088 A 
ATOM     46  H9  UNL     1      11.025  23.000-102.439  1.00  0.00     0.164 HD
ENDBRANCH   7  28
TORSDOF 4
ENDMDL
MODEL 5
REMARK VINA RESULT: -9.252359347      4.102     10.860
REMARK  4 active torsions:
REMARK  status: ('A' for Active; 'I' for Inactive)
REMARK       I    between atoms: C1_2  and  N2_4 
REMARK    1  A    between atoms: N2_4  and  C2_6 
REMARK    2  A    between atoms: C6_12  and  C7_13 
REMARK       I    between atoms: C7_13  and  N4_15 
REMARK    3  A    between atoms: N4_15  and  C8_17 
REMARK    4  A    between atoms: C12_23  and  C13_24 
ROOT
HETATM    1  C8  UNL     1       8.051  22.662-102.687  1.00  0.00     0.050 A 
HETATM    2  C9  UNL     1       7.256  22.027-101.772  1.00  0.00     0.047 A 
HETATM    3  C10 UNL     1       6.096  22.631-101.282  1.00  0.00     0.090 A 
HETATM    4  N5  UNL     1       5.723  23.859-101.695  1.00  0.00    -0.374 N 
ATOM      5  H5  UNL     1       4.873  24.284-101.325  1.00  0.00     0.164 HD
HETATM    6  C11 UNL     1       6.467  24.520-102.590  1.00  0.00     0.103 A 
HETATM    7  C12 UNL     1       7.614  23.932-103.080  1.00  0.00     0.034 A 
ENDROOT
BRANCH   1   8
HETATM    8  N4  UNL     1       9.258  22.113-103.193  1.00  0.00    -0.322 N 
HETATM    9  C7  UNL     1       9.754  20.824-103.072  1.00  0.00     0.256 C 
HETATM   10  O2  UNL     1       9.143  19.928-102.460  1.00  0.00    -0.267 OA
ATOM     11  H4  UNL     1       9.844  22.759-103.721  1.00  0.00     0.169 HD
BRANCH   9  12
HETATM   12  C6  UNL     1      11.022  20.449-103.660  1.00  0.00     0.034 A 
HETATM   13  C5  UNL     1      12.133  21.252-103.656  1.00  0.00     0.019 A 
HETATM   14  C4  UNL     1      13.330  20.857-104.239  1.00  0.00     0.033 A 
HETATM   15  C3  UNL     1      13.431  19.628-104.847  1.00  0.00     0.076 A 
HETATM   16  N3  UNL     1      14.449  18.989-105.484  1.00  0.00    -0.189 N 
HETATM   17  C25 UNL     1      12.318  18.810-104.858  1.00  0.00     0.077 A 
HETATM   18  C2  UNL     1      13.987  17.808-105.880  1.00  0.00     0.687 A 
ATOM     19  H3  UNL     1      15.392  19.350-105.631  1.00  0.00     0.184 HD
HETATM   20  N10 UNL     1      12.698  17.686-105.508  1.00  0.00    -0.189 N 
ATOM     21  H10 UNL     1      12.105  16.877-105.688  1.00  0.00     0.184 HD
HETATM   22  C24 UNL     1      11.137  19.219-104.272  1.00  0.00     0.049 A 
BRANCH  18  23
HETATM   23  N2  UNL     1      14.667  16.900-106.526  1.00  0.00    -0.143 N 
HETATM   24  C1  UNL     1      15.948  17.158-107.061  1.00  0.00     0.346 C 
HETATM   25  N1  UNL     1      17.045  16.347-106.718  1.00  0.00    -0.039 NA
HETATM   26  O1  UNL     1      16.094  18.120-107.846  1.00  0.00    -0.250 OA
ATOM     27  H2  UNL     1      14.259  15.973-106.649  1.00  0.00     0.188 HD
ENDBRANCH  18  23
ENDBRANCH   9  12
ENDBRANCH   1   8
BRANCH   7  28
HETATM   28  C13 UNL     1       8.351  24.581-104.170  1.00  0.00     0.061 A 
HETATM   29  N6  UNL     1       9.131  25.643-103.845  1.00  0.00    -0.364 N 
HETATM   30  C14 UNL     1       9.866  26.244-104.770  1.00  0.00     0.090 A 
ATOM     31  H6  UNL     1       9.151  25.981-102.883  1.00  0.00     0.165 HD
HETATM   32  C15 UNL     1       9.870  25.824-106.081  1.00  0.00     0.049 A 
HETATM   33  C16 UNL     1       9.091  24.758-106.435  1.00  0.00     0.064 A 
HETATM   34  N7  UNL     1       8.878  24.122-107.602  1.00  0.00    -0.299 N 
HETATM   35  C23 UNL     1       8.307  24.118-105.457  1.00  0.00     0.049 A 
HETATM   36  N8  UNL     1       8.045  23.177-107.409  1.00  0.00    -0.299 N 
ATOM     37  H7  UNL     1       9.313  24.357-108.495  1.00  0.00     0.187 HD
HETATM   38  C17 UNL     1       7.633  23.107-106.089  1.00  0.00     0.073 A 
ATOM     39  H8  UNL     1       7.719  22.546-108.142  1.00  0.00     0.187 HD
HETATM   40  C18 UNL     1       6.682  22.132-105.633  1.00  0.00    -0.004 A 
HETATM   41  C19 UNL     1       7.007  20.780-105.816  1.00  0.00     0.030 A 
HETATM   42  C22 UNL     1       5.425  22.382-105.139  1.00  0.00     0.030 A 
HETATM   43  C20 UNL     1       6.156  19.760-105.531  1.00  0.00     0.088 A 
HETATM   44  N9  UNL     1       4.937  20.045-105.049  1.00  0.00    -0.375 N 
HETATM   45  C21 UNL     1       4.561  21.343-104.849  1.00  0.00     0.088 A 
ATOM     46  H9  UNL     1       4.289  19.289-104.832  1.00  0.00     0.164 HD
ENDBRANCH   7  28
TORSDOF 4
ENDMDL
