MODEL 1
REMARK VINA RESULT: -8.794171973      0.000      0.000
REMARK  9 active torsions:
REMARK  status: ('A' for Active; 'I' for Inactive)
REMARK    1  A    between atoms: C2_3  and  C10_11 
REMARK    2  A    between atoms: C3_4  and  C4_5 
REMARK       I    between atoms: C10_11  and  N2_13 
REMARK    3  A    between atoms: N2_13  and  N3_15 
REMARK    4  A    between atoms: N3_15  and  C11_17 
REMARK    5  A    between atoms: C11_17  and  N4_19 
REMARK    6  A    between atoms: N4_19  and  C12_21 
REMARK    7  A    between atoms: C15_24  and  C16_25 
REMARK    8  A    between atoms: C16_25  and  N5_26 
REMARK    9  A    between atoms: N5_26  and  C17_27 
ROOT
HETATM    1  N1  UNL     1       8.529  22.568-107.057  1.00  0.00    -0.191 NA
HETATM    2  C1  UNL     1       8.454  21.506-106.551  1.00  0.00     0.105 C 
HETATM    3  C2  UNL     1       8.380  20.202-105.963  1.00  0.00     0.114 C 
HETATM    4  C3  UNL     1       7.292  19.792-105.362  1.00  0.00     0.039 C 
ENDROOT
BRANCH   3   5
HETATM    5  C10 UNL     1       9.566  19.347-106.072  1.00  0.00     0.280 C 
HETATM    6  O1  UNL     1       9.951  18.671-105.095  1.00  0.00    -0.265 OA
HETATM    7  N2  UNL     1      10.278  19.285-107.292  1.00  0.00    -0.263 N 
ATOM      8  H2  UNL     1       9.982  19.830-108.102  1.00  0.00     0.190 HD
BRANCH   7   9
HETATM    9  N3  UNL     1      11.393  18.456-107.353  1.00  0.00    -0.273 N 
ATOM     10  H3  UNL     1      11.299  17.450-107.214  1.00  0.00     0.189 HD
BRANCH   9  11
HETATM   11  C11 UNL     1      12.688  19.042-107.618  1.00  0.00     0.191 C 
HETATM   12  S1  UNL     1      13.170  19.034-109.152  1.00  0.00    -0.039 SA
BRANCH  11  13
HETATM   13  N4  UNL     1      13.418  19.553-106.566  1.00  0.00    -0.326 N 
ATOM     14  H4  UNL     1      14.384  19.237-106.481  1.00  0.00     0.169 HD
BRANCH  13  15
HETATM   15  C12 UNL     1      12.962  20.474-105.592  1.00  0.00     0.076 A 
HETATM   16  C13 UNL     1      12.882  20.478-104.235  1.00  0.00     0.039 A 
HETATM   17  C14 UNL     1      12.353  21.548-103.623  1.00  0.00     0.024 A 
HETATM   18  C15 UNL     1      11.922  22.577-104.398  1.00  0.00     0.035 A 
HETATM   19  S2  UNL     1      12.264  22.034-105.970  1.00  0.00    -0.070 SA
BRANCH  18  20
HETATM   20  C16 UNL     1      11.286  23.891-103.991  1.00  0.00     0.203 C 
BRANCH  20  21
HETATM   21  N5  UNL     1       9.935  23.824-103.916  1.00  0.00    -0.398 NA
BRANCH  21  22
HETATM   22  C17 UNL     1       8.824  23.861-103.486  1.00  0.00     0.191 A 
HETATM   23  N6  UNL     1       8.099  25.020-103.663  1.00  0.00    -0.327 N 
HETATM   24  C18 UNL     1       6.850  25.165-103.228  1.00  0.00     0.183 A 
ATOM     25  H6  UNL     1       8.540  25.802-104.148  1.00  0.00     0.169 HD
HETATM   26  N7  UNL     1       6.223  24.170-102.584  1.00  0.00    -0.351 N 
HETATM   27  C19 UNL     1       6.856  23.011-102.373  1.00  0.00     0.048 A 
ATOM     28  H7  UNL     1       5.266  24.297-102.256  1.00  0.00     0.166 HD
HETATM   29  C20 UNL     1       6.169  21.993-101.704  1.00  0.00     0.030 A 
HETATM   30  C24 UNL     1       8.143  22.844-102.814  1.00  0.00     0.049 A 
HETATM   31  C21 UNL     1       6.819  20.806-101.494  1.00  0.00     0.002 A 
HETATM   32  C22 UNL     1       8.106  20.635-101.935  1.00  0.00     0.001 A 
HETATM   33  C23 UNL     1       8.796  21.625-102.594  1.00  0.00     0.018 A 
ENDBRANCH  21  22
ENDBRANCH  20  21
ENDBRANCH  18  20
ENDBRANCH  13  15
ENDBRANCH  11  13
ENDBRANCH   9  11
ENDBRANCH   7   9
ENDBRANCH   3   5
BRANCH   4  34
HETATM   34  C4  UNL     1       6.106  20.579-105.233  1.00  0.00    -0.035 A 
HETATM   35  C5  UNL     1       5.993  21.862-105.713  1.00  0.00     0.011 A 
HETATM   36  C6  UNL     1       4.773  22.537-105.555  1.00  0.00     0.001 A 
HETATM   37  C7  UNL     1       3.685  21.971-104.939  1.00  0.00     0.000 A 
HETATM   38  C8  UNL     1       3.795  20.675-104.452  1.00  0.00     0.001 A 
HETATM   39  C9  UNL     1       4.998  20.000-104.604  1.00  0.00     0.011 A 
ENDBRANCH   4  34
TORSDOF 9
ENDMDL
MODEL 2
REMARK VINA RESULT: -8.567893165      2.055      3.875
REMARK  9 active torsions:
REMARK  status: ('A' for Active; 'I' for Inactive)
REMARK    1  A    between atoms: C2_3  and  C10_11 
REMARK    2  A    between atoms: C3_4  and  C4_5 
REMARK       I    between atoms: C10_11  and  N2_13 
REMARK    3  A    between atoms: N2_13  and  N3_15 
REMARK    4  A    between atoms: N3_15  and  C11_17 
REMARK    5  A    between atoms: C11_17  and  N4_19 
REMARK    6  A    between atoms: N4_19  and  C12_21 
REMARK    7  A    between atoms: C15_24  and  C16_25 
REMARK    8  A    between atoms: C16_25  and  N5_26 
REMARK    9  A    between atoms: N5_26  and  C17_27 
ROOT
HETATM    1  N1  UNL     1      12.230  25.444-105.197  1.00  0.00    -0.191 NA
HETATM    2  C1  UNL     1      11.907  24.332-104.975  1.00  0.00     0.105 C 
HETATM    3  C2  UNL     1      11.538  22.971-104.730  1.00  0.00     0.114 C 
HETATM    4  C3  UNL     1      10.289  22.635-104.527  1.00  0.00     0.039 C 
ENDROOT
BRANCH   3   5
HETATM    5  C10 UNL     1      12.611  21.972-104.726  1.00  0.00     0.280 C 
HETATM    6  O1  UNL     1      12.878  21.333-103.688  1.00  0.00    -0.265 OA
HETATM    7  N2  UNL     1      13.349  21.730-105.908  1.00  0.00    -0.263 N 
ATOM      8  H2  UNL     1      13.150  22.243-106.767  1.00  0.00     0.190 HD
BRANCH   7   9
HETATM    9  N3  UNL     1      14.355  20.770-105.863  1.00  0.00    -0.273 N 
ATOM     10  H3  UNL     1      15.198  20.930-105.311  1.00  0.00     0.189 HD
BRANCH   9  11
HETATM   11  C11 UNL     1      14.188  19.543-106.607  1.00  0.00     0.191 C 
HETATM   12  S1  UNL     1      14.927  19.472-108.034  1.00  0.00    -0.039 SA
BRANCH  11  13
HETATM   13  N4  UNL     1      13.421  18.532-106.067  1.00  0.00    -0.326 N 
ATOM     14  H4  UNL     1      13.887  17.640-105.903  1.00  0.00     0.169 HD
BRANCH  13  15
HETATM   15  C12 UNL     1      12.051  18.608-105.718  1.00  0.00     0.076 A 
HETATM   16  C13 UNL     1      11.338  18.427-104.575  1.00  0.00     0.039 A 
HETATM   17  C14 UNL     1      10.004  18.562-104.618  1.00  0.00     0.024 A 
HETATM   18  C15 UNL     1       9.434  18.875-105.810  1.00  0.00     0.035 A 
HETATM   19  S2  UNL     1      10.770  18.977-106.853  1.00  0.00    -0.070 SA
BRANCH  18  20
HETATM   20  C16 UNL     1       7.972  19.082-106.156  1.00  0.00     0.203 C 
BRANCH  20  21
HETATM   21  N5  UNL     1       7.400  20.090-105.454  1.00  0.00    -0.398 NA
BRANCH  21  22
HETATM   22  C17 UNL     1       6.594  20.866-105.043  1.00  0.00     0.191 A 
HETATM   23  N6  UNL     1       5.659  21.358-105.929  1.00  0.00    -0.327 N 
HETATM   24  C18 UNL     1       4.713  22.224-105.574  1.00  0.00     0.183 A 
ATOM     25  H6  UNL     1       5.694  21.044-106.899  1.00  0.00     0.169 HD
HETATM   26  N7  UNL     1       4.622  22.668-104.313  1.00  0.00    -0.351 N 
HETATM   27  C19 UNL     1       5.491  22.240-103.391  1.00  0.00     0.048 A 
ATOM     28  H7  UNL     1       3.893  23.333-104.056  1.00  0.00     0.166 HD
HETATM   29  C20 UNL     1       5.363  22.719-102.084  1.00  0.00     0.030 A 
HETATM   30  C24 UNL     1       6.472  21.347-103.739  1.00  0.00     0.049 A 
HETATM   31  C21 UNL     1       6.251  22.274-101.142  1.00  0.00     0.002 A 
HETATM   32  C22 UNL     1       7.233  21.382-101.486  1.00  0.00     0.001 A 
HETATM   33  C23 UNL     1       7.374  20.899-102.766  1.00  0.00     0.018 A 
ENDBRANCH  21  22
ENDBRANCH  20  21
ENDBRANCH  18  20
ENDBRANCH  13  15
ENDBRANCH  11  13
ENDBRANCH   9  11
ENDBRANCH   7   9
ENDBRANCH   3   5
BRANCH   4  34
HETATM   34  C4  UNL     1       9.202  23.564-104.526  1.00  0.00    -0.035 A 
HETATM   35  C5  UNL     1       8.830  24.293-103.421  1.00  0.00     0.011 A 
HETATM   36  C6  UNL     1       7.765  25.197-103.537  1.00  0.00     0.001 A 
HETATM   37  C7  UNL     1       7.074  25.387-104.708  1.00  0.00     0.000 A 
HETATM   38  C8  UNL     1       7.446  24.652-105.826  1.00  0.00     0.001 A 
HETATM   39  C9  UNL     1       8.500  23.755-105.721  1.00  0.00     0.011 A 
ENDBRANCH   4  34
TORSDOF 9
ENDMDL
MODEL 3
REMARK VINA RESULT: -8.525299774      3.518      7.521
REMARK  9 active torsions:
REMARK  status: ('A' for Active; 'I' for Inactive)
REMARK    1  A    between atoms: C2_3  and  C10_11 
REMARK    2  A    between atoms: C3_4  and  C4_5 
REMARK       I    between atoms: C10_11  and  N2_13 
REMARK    3  A    between atoms: N2_13  and  N3_15 
REMARK    4  A    between atoms: N3_15  and  C11_17 
REMARK    5  A    between atoms: C11_17  and  N4_19 
REMARK    6  A    between atoms: N4_19  and  C12_21 
REMARK    7  A    between atoms: C15_24  and  C16_25 
REMARK    8  A    between atoms: C16_25  and  N5_26 
REMARK    9  A    between atoms: N5_26  and  C17_27 
ROOT
HETATM    1  N1  UNL     1       6.043  24.630-102.413  1.00  0.00    -0.191 NA
HETATM    2  C1  UNL     1       6.728  23.796-102.888  1.00  0.00     0.105 C 
HETATM    3  C2  UNL     1       7.566  22.806-103.494  1.00  0.00     0.114 C 
HETATM    4  C3  UNL     1       7.228  21.541-103.492  1.00  0.00     0.039 C 
ENDROOT
BRANCH   3   5
HETATM    5  C10 UNL     1       8.808  23.267-104.121  1.00  0.00     0.280 C 
HETATM    6  O1  UNL     1       8.929  23.265-105.364  1.00  0.00    -0.265 OA
HETATM    7  N2  UNL     1       9.876  23.720-103.313  1.00  0.00    -0.263 N 
ATOM      8  H2  UNL     1       9.800  23.729-102.296  1.00  0.00     0.190 HD
BRANCH   7   9
HETATM    9  N3  UNL     1      11.035  24.155-103.949  1.00  0.00    -0.273 N 
ATOM     10  H3  UNL     1      11.224  25.152-104.056  1.00  0.00     0.189 HD
BRANCH   9  11
HETATM   11  C11 UNL     1      11.967  23.174-104.457  1.00  0.00     0.191 C 
HETATM   12  S1  UNL     1      12.650  23.510-105.874  1.00  0.00    -0.039 SA
BRANCH  11  13
HETATM   13  N4  UNL     1      12.206  22.034-103.719  1.00  0.00    -0.326 N 
ATOM     14  H4  UNL     1      12.800  22.137-102.896  1.00  0.00     0.169 HD
BRANCH  13  15
HETATM   15  C12 UNL     1      11.712  20.736-103.988  1.00  0.00     0.076 A 
HETATM   16  C13 UNL     1      10.654  20.000-103.555  1.00  0.00     0.039 A 
HETATM   17  C14 UNL     1      10.501  18.752-104.022  1.00  0.00     0.024 A 
HETATM   18  C15 UNL     1      11.419  18.287-104.909  1.00  0.00     0.035 A 
HETATM   19  S2  UNL     1      12.481  19.601-105.077  1.00  0.00    -0.070 SA
BRANCH  18  20
HETATM   20  C16 UNL     1      11.504  16.935-105.590  1.00  0.00     0.203 C 
BRANCH  20  21
HETATM   21  N5  UNL     1      12.710  16.337-105.430  1.00  0.00    -0.398 NA
BRANCH  21  22
HETATM   22  C17 UNL     1      13.821  15.960-105.639  1.00  0.00     0.191 A 
HETATM   23  N6  UNL     1      14.827  16.901-105.683  1.00  0.00    -0.327 N 
HETATM   24  C18 UNL     1      16.101  16.587-105.904  1.00  0.00     0.183 A 
ATOM     25  H6  UNL     1      14.584  17.882-105.540  1.00  0.00     0.169 HD
HETATM   26  N7  UNL     1      16.475  15.315-106.098  1.00  0.00    -0.351 N 
HETATM   27  C19 UNL     1      15.560  14.340-106.070  1.00  0.00     0.048 A 
ATOM     28  H7  UNL     1      17.455  15.090-106.267  1.00  0.00     0.166 HD
HETATM   29  C20 UNL     1      15.986  13.024-106.270  1.00  0.00     0.030 A 
HETATM   30  C24 UNL     1      14.243  14.645-105.844  1.00  0.00     0.049 A 
HETATM   31  C21 UNL     1      15.047  12.028-106.236  1.00  0.00     0.002 A 
HETATM   32  C22 UNL     1      13.729  12.330-106.009  1.00  0.00     0.001 A 
HETATM   33  C23 UNL     1      13.292  13.617-105.811  1.00  0.00     0.018 A 
ENDBRANCH  21  22
ENDBRANCH  20  21
ENDBRANCH  18  20
ENDBRANCH  13  15
ENDBRANCH  11  13
ENDBRANCH   9  11
ENDBRANCH   7   9
ENDBRANCH   3   5
BRANCH   4  34
HETATM   34  C4  UNL     1       6.028  21.036-102.901  1.00  0.00    -0.035 A 
HETATM   35  C5  UNL     1       5.885  20.808-101.553  1.00  0.00     0.011 A 
HETATM   36  C6  UNL     1       4.654  20.336-101.076  1.00  0.00     0.001 A 
HETATM   37  C7  UNL     1       3.582  20.089-101.898  1.00  0.00     0.000 A 
HETATM   38  C8  UNL     1       3.723  20.317-103.261  1.00  0.00     0.001 A 
HETATM   39  C9  UNL     1       4.937  20.785-103.742  1.00  0.00     0.011 A 
ENDBRANCH   4  34
TORSDOF 9
ENDMDL
MODEL 4
REMARK VINA RESULT: -8.404441432      3.215      6.496
REMARK  9 active torsions:
REMARK  status: ('A' for Active; 'I' for Inactive)
REMARK    1  A    between atoms: C2_3  and  C10_11 
REMARK    2  A    between atoms: C3_4  and  C4_5 
REMARK       I    between atoms: C10_11  and  N2_13 
REMARK    3  A    between atoms: N2_13  and  N3_15 
REMARK    4  A    between atoms: N3_15  and  C11_17 
REMARK    5  A    between atoms: C11_17  and  N4_19 
REMARK    6  A    between atoms: N4_19  and  C12_21 
REMARK    7  A    between atoms: C15_24  and  C16_25 
REMARK    8  A    between atoms: C16_25  and  N5_26 
REMARK    9  A    between atoms: N5_26  and  C17_27 
ROOT
HETATM    1  N1  UNL     1       6.934  22.940-105.273  1.00  0.00    -0.191 NA
HETATM    2  C1  UNL     1       6.767  23.665-104.358  1.00  0.00     0.105 C 
HETATM    3  C2  UNL     1       6.598  24.559-103.252  1.00  0.00     0.114 C 
HETATM    4  C3  UNL     1       6.036  24.159-102.139  1.00  0.00     0.039 C 
ENDROOT
BRANCH   3   5
HETATM    5  C10 UNL     1       7.086  25.932-103.416  1.00  0.00     0.280 C 
HETATM    6  O1  UNL     1       7.310  26.394-104.554  1.00  0.00    -0.265 OA
HETATM    7  N2  UNL     1       7.303  26.740-102.276  1.00  0.00    -0.263 N 
ATOM      8  H2  UNL     1       7.129  26.382-101.336  1.00  0.00     0.190 HD
BRANCH   7   9
HETATM    9  N3  UNL     1       7.761  28.038-102.476  1.00  0.00    -0.273 N 
ATOM     10  H3  UNL     1       7.302  28.651-103.150  1.00  0.00     0.189 HD
BRANCH   9  11
HETATM   11  C11 UNL     1       8.898  28.506-101.715  1.00  0.00     0.191 C 
HETATM   12  S1  UNL     1       8.771  29.981-101.086  1.00  0.00    -0.039 SA
BRANCH  11  13
HETATM   13  N4  UNL     1       9.997  27.685-101.582  1.00  0.00    -0.326 N 
ATOM     14  H4  UNL     1      10.231  27.382-100.637  1.00  0.00     0.169 HD
BRANCH  13  15
HETATM   15  C12 UNL     1      10.834  27.221-102.625  1.00  0.00     0.076 A 
HETATM   16  C13 UNL     1      11.856  27.752-103.347  1.00  0.00     0.039 A 
HETATM   17  C14 UNL     1      12.423  27.007-104.308  1.00  0.00     0.024 A 
HETATM   18  C15 UNL     1      11.941  25.753-104.509  1.00  0.00     0.035 A 
HETATM   19  S2  UNL     1      10.705  25.633-103.351  1.00  0.00    -0.070 SA
BRANCH  18  20
HETATM   20  C16 UNL     1      12.375  24.701-105.511  1.00  0.00     0.203 C 
BRANCH  20  21
HETATM   21  N5  UNL     1      12.330  23.443-105.011  1.00  0.00    -0.398 NA
BRANCH  21  22
HETATM   22  C17 UNL     1      12.281  22.254-104.945  1.00  0.00     0.191 A 
HETATM   23  N6  UNL     1      13.241  21.528-105.617  1.00  0.00    -0.327 N 
HETATM   24  C18 UNL     1      13.280  20.198-105.605  1.00  0.00     0.183 A 
ATOM     25  H6  UNL     1      13.951  22.032-106.148  1.00  0.00     0.169 HD
HETATM   26  N7  UNL     1      12.371  19.486-104.926  1.00  0.00    -0.351 N 
HETATM   27  C19 UNL     1      11.406  20.114-104.245  1.00  0.00     0.048 A 
ATOM     28  H7  UNL     1      12.414  18.467-104.927  1.00  0.00     0.166 HD
HETATM   29  C20 UNL     1      10.478  19.340-103.542  1.00  0.00     0.030 A 
HETATM   30  C24 UNL     1      11.350  21.484-104.246  1.00  0.00     0.049 A 
HETATM   31  C21 UNL     1       9.495  19.987-102.843  1.00  0.00     0.002 A 
HETATM   32  C22 UNL     1       9.436  21.357-102.841  1.00  0.00     0.001 A 
HETATM   33  C23 UNL     1      10.339  22.134-103.527  1.00  0.00     0.018 A 
ENDBRANCH  21  22
ENDBRANCH  20  21
ENDBRANCH  18  20
ENDBRANCH  13  15
ENDBRANCH  11  13
ENDBRANCH   9  11
ENDBRANCH   7   9
ENDBRANCH   3   5
BRANCH   4  34
HETATM   34  C4  UNL     1       5.548  22.833-101.923  1.00  0.00    -0.035 A 
HETATM   35  C5  UNL     1       6.295  21.837-101.340  1.00  0.00     0.011 A 
HETATM   36  C6  UNL     1       5.709  20.577-101.151  1.00  0.00     0.001 A 
HETATM   37  C7  UNL     1       4.419  20.294-101.524  1.00  0.00     0.000 A 
HETATM   38  C8  UNL     1       3.661  21.297-102.115  1.00  0.00     0.001 A 
HETATM   39  C9  UNL     1       4.233  22.546-102.305  1.00  0.00     0.011 A 
ENDBRANCH   4  34
TORSDOF 9
ENDMDL
MODEL 5
REMARK VINA RESULT: -8.399723622      2.942      6.308
REMARK  9 active torsions:
REMARK  status: ('A' for Active; 'I' for Inactive)
REMARK    1  A    between atoms: C2_3  and  C10_11 
REMARK    2  A    between atoms: C3_4  and  C4_5 
REMARK       I    between atoms: C10_11  and  N2_13 
REMARK    3  A    between atoms: N2_13  and  N3_15 
REMARK    4  A    between atoms: N3_15  and  C11_17 
REMARK    5  A    between atoms: C11_17  and  N4_19 
REMARK    6  A    between atoms: N4_19  and  C12_21 
REMARK    7  A    between atoms: C15_24  and  C16_25 
REMARK    8  A    between atoms: C16_25  and  N5_26 
REMARK    9  A    between atoms: N5_26  and  C17_27 
ROOT
HETATM    1  N1  UNL     1       9.314  22.280-107.469  1.00  0.00    -0.191 NA
HETATM    2  C1  UNL     1       8.474  21.859-106.756  1.00  0.00     0.105 C 
HETATM    3  C2  UNL     1       7.454  21.379-105.874  1.00  0.00     0.114 C 
HETATM    4  C3  UNL     1       7.510  20.174-105.366  1.00  0.00     0.039 C 
ENDROOT
BRANCH   3   5
HETATM    5  C10 UNL     1       6.353  22.294-105.557  1.00  0.00     0.280 C 
HETATM    6  O1  UNL     1       6.479  23.523-105.737  1.00  0.00    -0.265 OA
HETATM    7  N2  UNL     1       5.138  21.781-105.048  1.00  0.00    -0.263 N 
ATOM      8  H2  UNL     1       5.014  20.780-104.891  1.00  0.00     0.190 HD
BRANCH   7   9
HETATM    9  N3  UNL     1       4.117  22.683-104.766  1.00  0.00    -0.273 N 
ATOM     10  H3  UNL     1       3.752  23.295-105.496  1.00  0.00     0.189 HD
BRANCH   9  11
HETATM   11  C11 UNL     1       3.581  22.740-103.425  1.00  0.00     0.191 C 
HETATM   12  S1  UNL     1       1.979  22.672-103.298  1.00  0.00    -0.039 SA
BRANCH  11  13
HETATM   13  N4  UNL     1       4.451  22.853-102.361  1.00  0.00    -0.326 N 
ATOM     14  H4  UNL     1       4.226  23.555-101.658  1.00  0.00     0.169 HD
BRANCH  13  15
HETATM   15  C12 UNL     1       5.625  22.092-102.149  1.00  0.00     0.076 A 
HETATM   16  C13 UNL     1       5.888  20.822-101.741  1.00  0.00     0.039 A 
HETATM   17  C14 UNL     1       7.167  20.433-101.626  1.00  0.00     0.024 A 
HETATM   18  C15 UNL     1       8.137  21.336-101.923  1.00  0.00     0.035 A 
HETATM   19  S2  UNL     1       7.247  22.714-102.362  1.00  0.00    -0.070 SA
BRANCH  18  20
HETATM   20  C16 UNL     1       9.644  21.183-101.879  1.00  0.00     0.203 C 
BRANCH  20  21
HETATM   21  N5  UNL     1      10.289  22.066-102.679  1.00  0.00    -0.398 NA
BRANCH  21  22
HETATM   22  C17 UNL     1      10.777  22.571-103.642  1.00  0.00     0.191 A 
HETATM   23  N6  UNL     1      10.252  23.768-104.081  1.00  0.00    -0.327 N 
HETATM   24  C18 UNL     1      10.725  24.419-105.141  1.00  0.00     0.183 A 
ATOM     25  H6  UNL     1       9.467  24.173-103.571  1.00  0.00     0.169 HD
HETATM   26  N7  UNL     1      11.754  23.932-105.848  1.00  0.00    -0.351 N 
HETATM   27  C19 UNL     1      12.322  22.776-105.488  1.00  0.00     0.048 A 
ATOM     28  H7  UNL     1      12.104  24.442-106.658  1.00  0.00     0.166 HD
HETATM   29  C20 UNL     1      13.398  22.301-106.244  1.00  0.00     0.030 A 
HETATM   30  C24 UNL     1      11.848  22.092-104.398  1.00  0.00     0.049 A 
HETATM   31  C21 UNL     1      13.979  21.119-105.868  1.00  0.00     0.002 A 
HETATM   32  C22 UNL     1      13.508  20.433-104.779  1.00  0.00     0.001 A 
HETATM   33  C23 UNL     1      12.452  20.884-104.025  1.00  0.00     0.018 A 
ENDBRANCH  21  22
ENDBRANCH  20  21
ENDBRANCH  18  20
ENDBRANCH  13  15
ENDBRANCH  11  13
ENDBRANCH   9  11
ENDBRANCH   7   9
ENDBRANCH   3   5
BRANCH   4  34
HETATM   34  C4  UNL     1       8.562  19.243-105.635  1.00  0.00    -0.035 A 
HETATM   35  C5  UNL     1       8.729  18.619-106.848  1.00  0.00     0.011 A 
HETATM   36  C6  UNL     1       9.811  17.742-107.012  1.00  0.00     0.001 A 
HETATM   37  C7  UNL     1      10.713  17.478-106.011  1.00  0.00     0.000 A 
HETATM   38  C8  UNL     1      10.546  18.105-104.783  1.00  0.00     0.001 A 
HETATM   39  C9  UNL     1       9.479  18.974-104.612  1.00  0.00     0.011 A 
ENDBRANCH   4  34
TORSDOF 9
ENDMDL
