MODEL 1
REMARK VINA RESULT: -9.170412386      0.000      0.000
REMARK  7 active torsions:
REMARK  status: ('A' for Active; 'I' for Inactive)
REMARK    1  A    between atoms: C1_2  and  C2_4 
REMARK    2  A    between atoms: C5_7  and  N2_8 
REMARK       I    between atoms: N2_8  and  C6_10 
REMARK    3  A    between atoms: C6_10  and  C7_12 
REMARK    4  A    between atoms: C8_16  and  C9_17 
REMARK    5  A    between atoms: C12_23  and  C13_24 
REMARK    6  A    between atoms: C16_27  and  C17_28 
REMARK    7  A    between atoms: C18_29  and  C19_30 
ROOT
HETATM    1  C2  UNL     1      12.996  20.627-105.379  1.00  0.00     0.040 A 
HETATM    2  C3  UNL     1      14.325  20.243-105.692  1.00  0.00     0.020 A 
HETATM    3  C4  UNL     1      14.722  18.942-105.651  1.00  0.00     0.030 A 
HETATM    4  C5  UNL     1      13.808  17.971-105.292  1.00  0.00     0.035 A 
HETATM    5  C11 UNL     1      12.532  18.356-104.996  1.00  0.00     0.043 A 
HETATM    6  C12 UNL     1      12.091  19.689-105.031  1.00  0.00    -0.008 A 
ENDROOT
BRANCH   4   7
HETATM    7  N2  UNL     1      14.276  16.645-105.219  1.00  0.00    -0.322 N 
HETATM    8  C6  UNL     1      14.154  15.764-106.320  1.00  0.00     0.266 C 
HETATM    9  O2  UNL     1      13.649  16.057-107.425  1.00  0.00    -0.267 OA
ATOM     10  H2  UNL     1      14.709  16.313-104.357  1.00  0.00     0.169 HD
BRANCH   8  11
HETATM   11  C7  UNL     1      14.677  14.384-106.122  1.00  0.00     0.116 A 
HETATM   12  S1  UNL     1      13.861  12.899-106.277  1.00  0.00    -0.007 SA
HETATM   13  N3  UNL     1      15.121  11.870-105.894  1.00  0.00    -0.320 N 
HETATM   14  C8  UNL     1      16.163  12.679-105.646  1.00  0.00     0.130 A 
ATOM     15  H3  UNL     1      15.102  10.852-105.857  1.00  0.00     0.174 HD
HETATM   16  C10 UNL     1      15.932  14.012-105.766  1.00  0.00     0.102 A 
HETATM   17  N5  UNL     1      16.965  15.018-105.527  1.00  0.00    -0.098 NA
BRANCH  14  18
HETATM   18  C9  UNL     1      17.441  12.068-105.227  1.00  0.00     0.283 C 
HETATM   19  N4  UNL     1      18.435  11.673-106.150  1.00  0.00    -0.056 NA
HETATM   20  O3  UNL     1      17.633  11.902-103.988  1.00  0.00    -0.269 OA
ENDBRANCH  14  18
ENDBRANCH   8  11
ENDBRANCH   4   7
BRANCH   6  21
HETATM   21  C13 UNL     1      10.706  19.971-104.750  1.00  0.00    -0.025 A 
HETATM   22  C14 UNL     1       9.777  20.135-105.777  1.00  0.00     0.014 A 
HETATM   23  C15 UNL     1       8.486  20.428-105.449  1.00  0.00     0.021 A 
HETATM   24  C16 UNL     1       8.111  20.559-104.117  1.00  0.00     0.018 A 
HETATM   25  C25 UNL     1       9.015  20.401-103.091  1.00  0.00     0.021 A 
HETATM   26  C26 UNL     1      10.326  20.103-103.410  1.00  0.00     0.014 A 
BRANCH  24  27
HETATM   27  C17 UNL     1       6.766  20.886-103.752  1.00  0.00    -0.061 C 
HETATM   28  C18 UNL     1       5.646  21.179-103.436  1.00  0.00    -0.061 C 
BRANCH  28  29
HETATM   29  C19 UNL     1       4.320  21.557-103.062  1.00  0.00     0.018 A 
HETATM   30  C20 UNL     1       3.777  21.186-101.834  1.00  0.00     0.020 A 
HETATM   31  C21 UNL     1       2.493  21.568-101.509  1.00  0.00     0.001 A 
HETATM   32  C22 UNL     1       1.697  22.318-102.362  1.00  0.00     0.000 A 
HETATM   33  C23 UNL     1       2.229  22.684-103.568  1.00  0.00     0.001 A 
HETATM   34  C24 UNL     1       3.535  22.303-103.909  1.00  0.00     0.020 A 
ENDBRANCH  28  29
ENDBRANCH  24  27
ENDBRANCH   6  21
BRANCH   1  35
HETATM   35  C1  UNL     1      12.724  22.030-105.452  1.00  0.00     0.265 C 
HETATM   36  N1  UNL     1      12.637  22.752-106.653  1.00  0.00    -0.057 NA
HETATM   37  O1  UNL     1      12.536  22.683-104.394  1.00  0.00    -0.271 OA
ENDBRANCH   1  35
TORSDOF 7
ENDMDL
MODEL 2
REMARK VINA RESULT: -9.151393530      4.877      7.168
REMARK  7 active torsions:
REMARK  status: ('A' for Active; 'I' for Inactive)
REMARK    1  A    between atoms: C1_2  and  C2_4 
REMARK    2  A    between atoms: C5_7  and  N2_8 
REMARK       I    between atoms: N2_8  and  C6_10 
REMARK    3  A    between atoms: C6_10  and  C7_12 
REMARK    4  A    between atoms: C8_16  and  C9_17 
REMARK    5  A    between atoms: C12_23  and  C13_24 
REMARK    6  A    between atoms: C16_27  and  C17_28 
REMARK    7  A    between atoms: C18_29  and  C19_30 
ROOT
HETATM    1  C2  UNL     1      15.125  16.452-106.351  1.00  0.00     0.040 A 
HETATM    2  C3  UNL     1      16.227  16.008-107.124  1.00  0.00     0.020 A 
HETATM    3  C4  UNL     1      16.591  16.635-108.276  1.00  0.00     0.030 A 
HETATM    4  C5  UNL     1      15.867  17.732-108.703  1.00  0.00     0.035 A 
HETATM    5  C11 UNL     1      14.811  18.148-107.945  1.00  0.00     0.043 A 
HETATM    6  C12 UNL     1      14.411  17.524-106.753  1.00  0.00    -0.008 A 
ENDROOT
BRANCH   4   7
HETATM    7  N2  UNL     1      16.253  18.320-109.923  1.00  0.00    -0.322 N 
HETATM    8  C6  UNL     1      16.810  19.621-109.963  1.00  0.00     0.266 C 
HETATM    9  O2  UNL     1      17.016  20.349-108.969  1.00  0.00    -0.267 OA
ATOM     10  H2  UNL     1      16.128  17.800-110.792  1.00  0.00     0.169 HD
BRANCH   8  11
HETATM   11  C7  UNL     1      17.171  20.141-111.311  1.00  0.00     0.116 A 
HETATM   12  S1  UNL     1      18.704  20.556-111.921  1.00  0.00    -0.007 SA
HETATM   13  N3  UNL     1      18.251  21.039-113.455  1.00  0.00    -0.320 N 
HETATM   14  C8  UNL     1      16.919  20.880-113.486  1.00  0.00     0.130 A 
ATOM     15  H3  UNL     1      18.855  21.379-114.203  1.00  0.00     0.174 HD
HETATM   16  C10 UNL     1      16.342  20.404-112.352  1.00  0.00     0.102 A 
HETATM   17  N5  UNL     1      14.903  20.180-112.231  1.00  0.00    -0.098 NA
BRANCH  14  18
HETATM   18  C9  UNL     1      16.195  21.269-114.714  1.00  0.00     0.283 C 
HETATM   19  N4  UNL     1      15.106  22.169-114.703  1.00  0.00    -0.056 NA
HETATM   20  O3  UNL     1      16.582  20.765-115.807  1.00  0.00    -0.269 OA
ENDBRANCH  14  18
ENDBRANCH   8  11
ENDBRANCH   4   7
BRANCH   6  21
HETATM   21  C13 UNL     1      13.311  18.084-106.009  1.00  0.00    -0.025 A 
HETATM   22  C14 UNL     1      12.059  17.472-105.995  1.00  0.00     0.014 A 
HETATM   23  C15 UNL     1      11.049  18.065-105.295  1.00  0.00     0.021 A 
HETATM   24  C16 UNL     1      11.273  19.255-104.612  1.00  0.00     0.018 A 
HETATM   25  C25 UNL     1      12.503  19.873-104.615  1.00  0.00     0.021 A 
HETATM   26  C26 UNL     1      13.533  19.282-105.320  1.00  0.00     0.014 A 
BRANCH  24  27
HETATM   27  C17 UNL     1      10.222  19.904-103.887  1.00  0.00    -0.061 C 
HETATM   28  C18 UNL     1       9.341  20.465-103.297  1.00  0.00    -0.061 C 
BRANCH  28  29
HETATM   29  C19 UNL     1       8.279  21.141-102.620  1.00  0.00     0.018 A 
HETATM   30  C20 UNL     1       7.537  20.512-101.622  1.00  0.00     0.020 A 
HETATM   31  C21 UNL     1       6.519  21.195-100.993  1.00  0.00     0.001 A 
HETATM   32  C22 UNL     1       6.188  22.504-101.310  1.00  0.00     0.000 A 
HETATM   33  C23 UNL     1       6.915  23.123-102.289  1.00  0.00     0.001 A 
HETATM   34  C24 UNL     1       7.956  22.439-102.936  1.00  0.00     0.020 A 
ENDBRANCH  28  29
ENDBRANCH  24  27
ENDBRANCH   6  21
BRANCH   1  35
HETATM   35  C1  UNL     1      14.849  15.689-105.171  1.00  0.00     0.265 C 
HETATM   36  N1  UNL     1      13.913  14.645-105.112  1.00  0.00    -0.057 NA
HETATM   37  O1  UNL     1      15.476  15.937-104.109  1.00  0.00    -0.271 OA
ENDBRANCH   1  35
TORSDOF 7
ENDMDL
MODEL 3
REMARK VINA RESULT: -8.960736084      4.231      5.463
REMARK  7 active torsions:
REMARK  status: ('A' for Active; 'I' for Inactive)
REMARK    1  A    between atoms: C1_2  and  C2_4 
REMARK    2  A    between atoms: C5_7  and  N2_8 
REMARK       I    between atoms: N2_8  and  C6_10 
REMARK    3  A    between atoms: C6_10  and  C7_12 
REMARK    4  A    between atoms: C8_16  and  C9_17 
REMARK    5  A    between atoms: C12_23  and  C13_24 
REMARK    6  A    between atoms: C16_27  and  C17_28 
REMARK    7  A    between atoms: C18_29  and  C19_30 
ROOT
HETATM    1  C2  UNL     1      11.151  18.919-105.649  1.00  0.00     0.040 A 
HETATM    2  C3  UNL     1      11.455  17.619-106.125  1.00  0.00     0.020 A 
HETATM    3  C4  UNL     1      12.703  17.089-106.013  1.00  0.00     0.030 A 
HETATM    4  C5  UNL     1      13.701  17.839-105.420  1.00  0.00     0.035 A 
HETATM    5  C11 UNL     1      13.392  19.088-104.964  1.00  0.00     0.043 A 
HETATM    6  C12 UNL     1      12.114  19.662-105.064  1.00  0.00    -0.008 A 
ENDROOT
BRANCH   4   7
HETATM    7  N2  UNL     1      14.987  17.268-105.367  1.00  0.00    -0.322 N 
HETATM    8  C6  UNL     1      15.181  15.946-104.900  1.00  0.00     0.266 C 
HETATM    9  O2  UNL     1      14.276  15.178-104.511  1.00  0.00    -0.267 OA
ATOM     10  H2  UNL     1      15.792  17.817-105.669  1.00  0.00     0.169 HD
BRANCH   8  11
HETATM   11  C7  UNL     1      16.586  15.453-104.882  1.00  0.00     0.116 A 
HETATM   12  S1  UNL     1      17.382  14.535-103.690  1.00  0.00    -0.007 SA
HETATM   13  N3  UNL     1      18.882  14.415-104.414  1.00  0.00    -0.320 N 
HETATM   14  C8  UNL     1      18.762  15.087-105.570  1.00  0.00     0.130 A 
ATOM     15  H3  UNL     1      19.709  13.937-104.057  1.00  0.00     0.174 HD
HETATM   16  C10 UNL     1      17.546  15.638-105.822  1.00  0.00     0.102 A 
HETATM   17  N5  UNL     1      17.260  16.401-107.036  1.00  0.00    -0.098 NA
BRANCH  14  18
HETATM   18  C9  UNL     1      19.951  15.207-106.439  1.00  0.00     0.283 C 
HETATM   19  N4  UNL     1      20.795  16.339-106.422  1.00  0.00    -0.056 NA
HETATM   20  O3  UNL     1      20.205  14.246-107.221  1.00  0.00    -0.269 OA
ENDBRANCH  14  18
ENDBRANCH   8  11
ENDBRANCH   4   7
BRANCH   6  21
HETATM   21  C13 UNL     1      11.892  20.968-104.499  1.00  0.00    -0.025 A 
HETATM   22  C14 UNL     1      11.406  21.123-103.201  1.00  0.00     0.014 A 
HETATM   23  C15 UNL     1      11.189  22.386-102.731  1.00  0.00     0.021 A 
HETATM   24  C16 UNL     1      11.451  23.489-103.535  1.00  0.00     0.018 A 
HETATM   25  C25 UNL     1      11.930  23.354-104.818  1.00  0.00     0.021 A 
HETATM   26  C26 UNL     1      12.154  22.082-105.305  1.00  0.00     0.014 A 
BRANCH  24  27
HETATM   27  C17 UNL     1      11.211  24.821-103.067  1.00  0.00    -0.061 C 
HETATM   28  C18 UNL     1      11.016  25.946-102.697  1.00  0.00    -0.061 C 
BRANCH  28  29
HETATM   29  C19 UNL     1      10.771  27.291-102.283  1.00  0.00     0.018 A 
HETATM   30  C20 UNL     1      11.778  28.255-102.308  1.00  0.00     0.020 A 
HETATM   31  C21 UNL     1      11.504  29.541-101.899  1.00  0.00     0.001 A 
HETATM   32  C22 UNL     1      10.251  29.935-101.454  1.00  0.00     0.000 A 
HETATM   33  C23 UNL     1       9.262  28.992-101.430  1.00  0.00     0.001 A 
HETATM   34  C24 UNL     1       9.527  27.678-101.845  1.00  0.00     0.020 A 
ENDBRANCH  28  29
ENDBRANCH  24  27
ENDBRANCH   6  21
BRANCH   1  35
HETATM   35  C1  UNL     1       9.800  19.351-105.846  1.00  0.00     0.265 C 
HETATM   36  N1  UNL     1       9.358  20.055-106.977  1.00  0.00    -0.057 NA
HETATM   37  O1  UNL     1       8.930  19.090-104.976  1.00  0.00    -0.271 OA
ENDBRANCH   1  35
TORSDOF 7
ENDMDL
MODEL 4
REMARK VINA RESULT: -8.952424800      4.934      6.836
REMARK  7 active torsions:
REMARK  status: ('A' for Active; 'I' for Inactive)
REMARK    1  A    between atoms: C1_2  and  C2_4 
REMARK    2  A    between atoms: C5_7  and  N2_8 
REMARK       I    between atoms: N2_8  and  C6_10 
REMARK    3  A    between atoms: C6_10  and  C7_12 
REMARK    4  A    between atoms: C8_16  and  C9_17 
REMARK    5  A    between atoms: C12_23  and  C13_24 
REMARK    6  A    between atoms: C16_27  and  C17_28 
REMARK    7  A    between atoms: C18_29  and  C19_30 
ROOT
HETATM    1  C2  UNL     1      15.082  16.277-106.107  1.00  0.00     0.040 A 
HETATM    2  C3  UNL     1      16.196  15.818-106.854  1.00  0.00     0.020 A 
HETATM    3  C4  UNL     1      16.594  16.436-107.999  1.00  0.00     0.030 A 
HETATM    4  C5  UNL     1      15.893  17.538-108.447  1.00  0.00     0.035 A 
HETATM    5  C11 UNL     1      14.823  17.969-107.716  1.00  0.00     0.043 A 
HETATM    6  C12 UNL     1      14.389  17.355-106.530  1.00  0.00    -0.008 A 
ENDROOT
BRANCH   4   7
HETATM    7  N2  UNL     1      16.312  18.117-109.660  1.00  0.00    -0.322 N 
HETATM    8  C6  UNL     1      16.660  19.487-109.734  1.00  0.00     0.266 C 
HETATM    9  O2  UNL     1      16.639  20.290-108.777  1.00  0.00    -0.267 OA
ATOM     10  H2  UNL     1      16.367  17.540-110.499  1.00  0.00     0.169 HD
BRANCH   8  11
HETATM   11  C7  UNL     1      17.081  19.989-111.072  1.00  0.00     0.116 A 
HETATM   12  S1  UNL     1      16.117  20.392-112.414  1.00  0.00    -0.007 SA
HETATM   13  N3  UNL     1      17.325  20.849-113.473  1.00  0.00    -0.320 N 
HETATM   14  C8  UNL     1      18.466  20.686-112.786  1.00  0.00     0.130 A 
ATOM     15  H3  UNL     1      17.219  21.180-114.432  1.00  0.00     0.174 HD
HETATM   16  C10 UNL     1      18.341  20.230-111.512  1.00  0.00     0.102 A 
HETATM   17  N5  UNL     1      19.489  20.000-110.638  1.00  0.00    -0.098 NA
BRANCH  14  18
HETATM   18  C9  UNL     1      19.745  20.967-113.470  1.00  0.00     0.283 C 
HETATM   19  N4  UNL     1      20.342  22.247-113.471  1.00  0.00    -0.056 NA
HETATM   20  O3  UNL     1      20.310  20.009-114.072  1.00  0.00    -0.269 OA
ENDBRANCH  14  18
ENDBRANCH   8  11
ENDBRANCH   4   7
BRANCH   6  21
HETATM   21  C13 UNL     1      13.279  17.931-105.814  1.00  0.00    -0.025 A 
HETATM   22  C14 UNL     1      12.047  17.281-105.742  1.00  0.00     0.014 A 
HETATM   23  C15 UNL     1      11.026  17.889-105.073  1.00  0.00     0.021 A 
HETATM   24  C16 UNL     1      11.217  19.130-104.477  1.00  0.00     0.018 A 
HETATM   25  C25 UNL     1      12.425  19.786-104.539  1.00  0.00     0.021 A 
HETATM   26  C26 UNL     1      13.468  19.180-105.213  1.00  0.00     0.014 A 
BRANCH  24  27
HETATM   27  C17 UNL     1      10.152  19.794-103.788  1.00  0.00    -0.061 C 
HETATM   28  C18 UNL     1       9.268  20.371-103.218  1.00  0.00    -0.061 C 
BRANCH  28  29
HETATM   29  C19 UNL     1       8.212  21.078-102.564  1.00  0.00     0.018 A 
HETATM   30  C20 UNL     1       7.443  20.477-101.568  1.00  0.00     0.020 A 
HETATM   31  C21 UNL     1       6.432  21.189-100.961  1.00  0.00     0.001 A 
HETATM   32  C22 UNL     1       6.134  22.501-101.298  1.00  0.00     0.000 A 
HETATM   33  C23 UNL     1       6.887  23.092-102.273  1.00  0.00     0.001 A 
HETATM   34  C24 UNL     1       7.921  22.378-102.898  1.00  0.00     0.020 A 
ENDBRANCH  28  29
ENDBRANCH  24  27
ENDBRANCH   6  21
BRANCH   1  35
HETATM   35  C1  UNL     1      14.771  15.522-104.932  1.00  0.00     0.265 C 
HETATM   36  N1  UNL     1      13.808  14.501-104.886  1.00  0.00    -0.057 NA
HETATM   37  O1  UNL     1      15.387  15.756-103.861  1.00  0.00    -0.271 OA
ENDBRANCH   1  35
TORSDOF 7
ENDMDL
MODEL 5
REMARK VINA RESULT: -8.899799475      5.177      7.235
REMARK  7 active torsions:
REMARK  status: ('A' for Active; 'I' for Inactive)
REMARK    1  A    between atoms: C1_2  and  C2_4 
REMARK    2  A    between atoms: C5_7  and  N2_8 
REMARK       I    between atoms: N2_8  and  C6_10 
REMARK    3  A    between atoms: C6_10  and  C7_12 
REMARK    4  A    between atoms: C8_16  and  C9_17 
REMARK    5  A    between atoms: C12_23  and  C13_24 
REMARK    6  A    between atoms: C16_27  and  C17_28 
REMARK    7  A    between atoms: C18_29  and  C19_30 
ROOT
HETATM    1  C2  UNL     1      15.134  16.827-106.569  1.00  0.00     0.040 A 
HETATM    2  C3  UNL     1      16.188  16.310-107.364  1.00  0.00     0.020 A 
HETATM    3  C4  UNL     1      16.595  16.931-108.504  1.00  0.00     0.030 A 
HETATM    4  C5  UNL     1      15.965  18.096-108.897  1.00  0.00     0.035 A 
HETATM    5  C11 UNL     1      14.954  18.582-108.120  1.00  0.00     0.043 A 
HETATM    6  C12 UNL     1      14.511  17.966-106.938  1.00  0.00    -0.008 A 
ENDROOT
BRANCH   4   7
HETATM    7  N2  UNL     1      16.390  18.679-110.106  1.00  0.00    -0.322 N 
HETATM    8  C6  UNL     1      17.010  19.951-110.127  1.00  0.00     0.266 C 
HETATM    9  O2  UNL     1      17.242  20.656-109.122  1.00  0.00    -0.267 OA
ATOM     10  H2  UNL     1      16.248  18.176-110.983  1.00  0.00     0.169 HD
BRANCH   8  11
HETATM   11  C7  UNL     1      17.409  20.469-111.465  1.00  0.00     0.116 A 
HETATM   12  S1  UNL     1      18.792  21.360-111.897  1.00  0.00    -0.007 SA
HETATM   13  N3  UNL     1      18.485  21.538-113.530  1.00  0.00    -0.320 N 
HETATM   14  C8  UNL     1      17.316  20.911-113.731  1.00  0.00     0.130 A 
ATOM     15  H3  UNL     1      19.061  22.017-114.222  1.00  0.00     0.174 HD
HETATM   16  C10 UNL     1      16.742  20.343-112.639  1.00  0.00     0.102 A 
HETATM   17  N5  UNL     1      15.468  19.628-112.697  1.00  0.00    -0.098 NA
BRANCH  14  18
HETATM   18  C9  UNL     1      16.736  20.927-115.090  1.00  0.00     0.283 C 
HETATM   19  N4  UNL     1      17.373  20.325-116.197  1.00  0.00    -0.056 NA
HETATM   20  O3  UNL     1      15.623  21.508-115.245  1.00  0.00    -0.269 OA
ENDBRANCH  14  18
ENDBRANCH   8  11
ENDBRANCH   4   7
BRANCH   6  21
HETATM   21  C13 UNL     1      13.470  18.600-106.170  1.00  0.00    -0.025 A 
HETATM   22  C14 UNL     1      13.765  19.573-105.215  1.00  0.00     0.014 A 
HETATM   23  C15 UNL     1      12.739  20.118-104.500  1.00  0.00     0.021 A 
HETATM   24  C16 UNL     1      11.430  19.707-104.724  1.00  0.00     0.018 A 
HETATM   25  C25 UNL     1      11.122  18.748-105.662  1.00  0.00     0.021 A 
HETATM   26  C26 UNL     1      12.151  18.189-106.393  1.00  0.00     0.014 A 
BRANCH  24  27
HETATM   27  C17 UNL     1      10.341  20.252-103.970  1.00  0.00    -0.061 C 
HETATM   28  C18 UNL     1       9.429  20.726-103.353  1.00  0.00    -0.061 C 
BRANCH  28  29
HETATM   29  C19 UNL     1       8.329  21.301-102.644  1.00  0.00     0.018 A 
HETATM   30  C20 UNL     1       7.640  20.585-101.667  1.00  0.00     0.020 A 
HETATM   31  C21 UNL     1       6.583  21.172-101.006  1.00  0.00     0.001 A 
HETATM   32  C22 UNL     1       6.161  22.467-101.269  1.00  0.00     0.000 A 
HETATM   33  C23 UNL     1       6.837  23.171-102.226  1.00  0.00     0.001 A 
HETATM   34  C24 UNL     1       7.916  22.585-102.906  1.00  0.00     0.020 A 
ENDBRANCH  28  29
ENDBRANCH  24  27
ENDBRANCH   6  21
BRANCH   1  35
HETATM   35  C1  UNL     1      14.803  16.062-105.405  1.00  0.00     0.265 C 
HETATM   36  N1  UNL     1      13.773  15.109-105.358  1.00  0.00    -0.057 NA
HETATM   37  O1  UNL     1      15.464  16.222-104.347  1.00  0.00    -0.271 OA
ENDBRANCH   1  35
TORSDOF 7
ENDMDL
