MODEL 1
REMARK VINA RESULT: -8.499361212      0.000      0.000
REMARK  3 active torsions:
REMARK  status: ('A' for Active; 'I' for Inactive)
REMARK    1  A    between atoms: O1_1  and  C1_3 
REMARK    2  A    between atoms: C5_7  and  C6_8 
REMARK    3  A    between atoms: C6_8  and  O2_9 
ROOT
HETATM    1  C1  UNL     1     -12.498   4.341  14.513  1.00  0.00     0.083 A 
HETATM    2  C2  UNL     1     -12.560   5.717  14.442  1.00  0.00     0.038 A 
HETATM    3  C3  UNL     1     -12.258   6.356  13.239  1.00  0.00     0.003 A 
HETATM    4  C4  UNL     1     -11.902   5.606  12.143  1.00  0.00     0.012 A 
HETATM    5  C5  UNL     1     -11.842   4.222  12.230  1.00  0.00    -0.004 A 
HETATM    6  C13 UNL     1     -12.142   3.580  13.420  1.00  0.00     0.053 A 
HETATM    7 BR1  UNL     1     -12.141   1.658  13.572  1.00  0.00    -0.047 Br
ENDROOT
BRANCH   5   8
HETATM    8  C6  UNL     1     -11.407   3.455  11.047  1.00  0.00     0.086 C 
HETATM    9  C7  UNL     1     -11.592   4.237   9.803  1.00  0.00     0.043 C 
HETATM   10  C8  UNL     1     -10.545   3.855   8.798  1.00  0.00     0.003 C 
HETATM   11  C9  UNL     1     -10.814   2.604   8.040  1.00  0.00     0.000 C 
HETATM   12  C10 UNL     1     -12.011   1.854   8.525  1.00  0.00     0.000 C 
HETATM   13  C11 UNL     1     -11.712   1.267   9.887  1.00  0.00     0.003 C 
HETATM   14  C12 UNL     1     -12.240   2.163  10.995  1.00  0.00     0.043 C 
BRANCH   8  15
HETATM   15  O2  UNL     1     -10.065   3.072  11.181  1.00  0.00    -0.385 OA
ATOM     16  H2  UNL     1     -10.003   2.143  11.372  1.00  0.00     0.211 HD
ENDBRANCH   8  15
ENDBRANCH   5   8
BRANCH   1  17
HETATM   17  O1  UNL     1     -12.794   3.676  15.697  1.00  0.00    -0.359 OA
ATOM     18  H1  UNL     1     -13.049   2.761  15.690  1.00  0.00     0.217 HD
ENDBRANCH   1  17
TORSDOF 3
ENDMDL
MODEL 2
REMARK VINA RESULT: -8.237037850      1.775      2.617
REMARK  3 active torsions:
REMARK  status: ('A' for Active; 'I' for Inactive)
REMARK    1  A    between atoms: O1_1  and  C1_3 
REMARK    2  A    between atoms: C5_7  and  C6_8 
REMARK    3  A    between atoms: C6_8  and  O2_9 
ROOT
HETATM    1  C1  UNL     1     -12.632   4.097  14.846  1.00  0.00     0.083 A 
HETATM    2  C2  UNL     1     -12.740   2.834  15.388  1.00  0.00     0.038 A 
HETATM    3  C3  UNL     1     -12.455   1.721  14.596  1.00  0.00     0.003 A 
HETATM    4  C4  UNL     1     -12.072   1.900  13.288  1.00  0.00     0.012 A 
HETATM    5  C5  UNL     1     -11.969   3.178  12.755  1.00  0.00    -0.004 A 
HETATM    6  C13 UNL     1     -12.248   4.287  13.535  1.00  0.00     0.053 A 
HETATM    7 BR1  UNL     1     -12.054   6.084  12.863  1.00  0.00    -0.047 Br
ENDROOT
BRANCH   5   8
HETATM    8  C6  UNL     1     -11.604   3.326  11.333  1.00  0.00     0.086 C 
HETATM    9  C7  UNL     1     -12.169   2.227  10.517  1.00  0.00     0.043 C 
HETATM   10  C8  UNL     1     -12.464   2.719   9.131  1.00  0.00     0.003 C 
HETATM   11  C9  UNL     1     -11.294   2.785   8.214  1.00  0.00     0.000 C 
HETATM   12  C10 UNL     1      -9.990   2.499   8.884  1.00  0.00     0.000 C 
HETATM   13  C11 UNL     1      -9.648   3.641   9.816  1.00  0.00     0.003 C 
HETATM   14  C12 UNL     1     -10.069   3.325  11.242  1.00  0.00     0.043 C 
BRANCH   8  15
HETATM   15  O2  UNL     1     -12.043   4.565  10.844  1.00  0.00    -0.385 OA
ATOM     16  H2  UNL     1     -12.751   4.443  10.222  1.00  0.00     0.211 HD
ENDBRANCH   8  15
ENDBRANCH   5   8
BRANCH   1  17
HETATM   17  O1  UNL     1     -12.909   5.226  15.610  1.00  0.00    -0.359 OA
ATOM     18  H1  UNL     1     -12.633   5.279  16.517  1.00  0.00     0.217 HD
ENDBRANCH   1  17
TORSDOF 3
ENDMDL
MODEL 3
REMARK VINA RESULT: -8.089177635      1.019      1.588
REMARK  3 active torsions:
REMARK  status: ('A' for Active; 'I' for Inactive)
REMARK    1  A    between atoms: O1_1  and  C1_3 
REMARK    2  A    between atoms: C5_7  and  C6_8 
REMARK    3  A    between atoms: C6_8  and  O2_9 
ROOT
HETATM    1  C1  UNL     1     -12.468   4.141  14.616  1.00  0.00     0.083 A 
HETATM    2  C2  UNL     1     -12.543   5.512  14.742  1.00  0.00     0.038 A 
HETATM    3  C3  UNL     1     -12.321   6.317  13.624  1.00  0.00     0.003 A 
HETATM    4  C4  UNL     1     -12.030   5.732  12.414  1.00  0.00     0.012 A 
HETATM    5  C5  UNL     1     -11.958   4.351  12.303  1.00  0.00    -0.004 A 
HETATM    6  C13 UNL     1     -12.178   3.545  13.407  1.00  0.00     0.053 A 
HETATM    7 BR1  UNL     1     -12.156   1.620  13.289  1.00  0.00    -0.047 Br
ENDROOT
BRANCH   5   8
HETATM    8  C6  UNL     1     -11.594   3.762  10.999  1.00  0.00     0.086 C 
HETATM    9  C7  UNL     1     -12.244   2.445  10.805  1.00  0.00     0.043 C 
HETATM   10  C8  UNL     1     -12.512   2.217   9.347  1.00  0.00     0.003 C 
HETATM   11  C9  UNL     1     -11.347   1.748   8.549  1.00  0.00     0.000 C 
HETATM   12  C10 UNL     1     -10.063   1.738   9.311  1.00  0.00     0.000 C 
HETATM   13  C11 UNL     1      -9.632   3.164   9.579  1.00  0.00     0.003 C 
HETATM   14  C12 UNL     1     -10.064   3.613  10.965  1.00  0.00     0.043 C 
BRANCH   8  15
HETATM   15  O2  UNL     1     -11.945   4.631   9.956  1.00  0.00    -0.385 OA
ATOM     16  H2  UNL     1     -12.803   5.006  10.114  1.00  0.00     0.211 HD
ENDBRANCH   8  15
ENDBRANCH   5   8
BRANCH   1  17
HETATM   17  O1  UNL     1     -12.685   3.313  15.712  1.00  0.00    -0.359 OA
ATOM     18  H1  UNL     1     -12.214   2.493  15.802  1.00  0.00     0.217 HD
ENDBRANCH   1  17
TORSDOF 3
ENDMDL
MODEL 4
REMARK VINA RESULT: -7.993198680      1.059      1.538
REMARK  3 active torsions:
REMARK  status: ('A' for Active; 'I' for Inactive)
REMARK    1  A    between atoms: O1_1  and  C1_3 
REMARK    2  A    between atoms: C5_7  and  C6_8 
REMARK    3  A    between atoms: C6_8  and  O2_9 
ROOT
HETATM    1  C1  UNL     1     -12.504   4.102  14.749  1.00  0.00     0.083 A 
HETATM    2  C2  UNL     1     -12.565   5.479  14.788  1.00  0.00     0.038 A 
HETATM    3  C3  UNL     1     -12.327   6.210  13.624  1.00  0.00     0.003 A 
HETATM    4  C4  UNL     1     -12.034   5.547  12.455  1.00  0.00     0.012 A 
HETATM    5  C5  UNL     1     -11.975   4.161  12.431  1.00  0.00    -0.004 A 
HETATM    6  C13 UNL     1     -12.211   3.429  13.581  1.00  0.00     0.053 A 
HETATM    7 BR1  UNL     1     -12.208   1.500  13.584  1.00  0.00    -0.047 Br
ENDROOT
BRANCH   5   8
HETATM    8  C6  UNL     1     -11.607   3.488  11.170  1.00  0.00     0.086 C 
HETATM    9  C7  UNL     1     -10.148   3.240  11.100  1.00  0.00     0.043 C 
HETATM   10  C8  UNL     1      -9.878   1.996  10.306  1.00  0.00     0.003 C 
HETATM   11  C9  UNL     1      -9.911   2.163   8.828  1.00  0.00     0.000 C 
HETATM   12  C10 UNL     1     -10.367   3.514   8.386  1.00  0.00     0.000 C 
HETATM   13  C11 UNL     1     -11.842   3.667   8.692  1.00  0.00     0.003 C 
HETATM   14  C12 UNL     1     -12.051   4.395  10.010  1.00  0.00     0.043 C 
BRANCH   8  15
HETATM   15  O2  UNL     1     -12.308   2.281  11.039  1.00  0.00    -0.385 OA
ATOM     16  H2  UNL     1     -11.808   1.664  10.518  1.00  0.00     0.211 HD
ENDBRANCH   8  15
ENDBRANCH   5   8
BRANCH   1  17
HETATM   17  O1  UNL     1     -12.737   3.346  15.892  1.00  0.00    -0.359 OA
ATOM     18  H1  UNL     1     -12.087   3.297  16.583  1.00  0.00     0.217 HD
ENDBRANCH   1  17
TORSDOF 3
ENDMDL
MODEL 5
REMARK VINA RESULT: -7.832981241      1.551      2.199
REMARK  3 active torsions:
REMARK  status: ('A' for Active; 'I' for Inactive)
REMARK    1  A    between atoms: O1_1  and  C1_3 
REMARK    2  A    between atoms: C5_7  and  C6_8 
REMARK    3  A    between atoms: C6_8  and  O2_9 
ROOT
HETATM    1  C1  UNL     1     -12.678   4.183  14.697  1.00  0.00     0.083 A 
HETATM    2  C2  UNL     1     -12.881   3.017  15.405  1.00  0.00     0.038 A 
HETATM    3  C3  UNL     1     -12.605   1.790  14.800  1.00  0.00     0.003 A 
HETATM    4  C4  UNL     1     -12.136   1.761  13.508  1.00  0.00     0.012 A 
HETATM    5  C5  UNL     1     -11.937   2.943  12.808  1.00  0.00    -0.004 A 
HETATM    6  C13 UNL     1     -12.207   4.164  13.401  1.00  0.00     0.053 A 
HETATM    7 BR1  UNL     1     -11.883   5.835  12.494  1.00  0.00    -0.047 Br
ENDROOT
BRANCH   5   8
HETATM    8  C6  UNL     1     -11.481   2.869  11.406  1.00  0.00     0.086 C 
HETATM    9  C7  UNL     1     -12.119   3.919  10.578  1.00  0.00     0.043 C 
HETATM   10  C8  UNL     1     -11.191   4.337   9.476  1.00  0.00     0.003 C 
HETATM   11  C9  UNL     1     -11.159   3.436   8.292  1.00  0.00     0.000 C 
HETATM   12  C10 UNL     1     -11.944   2.178   8.474  1.00  0.00     0.000 C 
HETATM   13  C11 UNL     1     -11.243   1.295   9.484  1.00  0.00     0.003 C 
HETATM   14  C12 UNL     1     -11.841   1.474  10.870  1.00  0.00     0.043 C 
BRANCH   8  15
HETATM   15  O2  UNL     1     -10.085   2.986  11.341  1.00  0.00    -0.385 OA
ATOM     16  H2  UNL     1      -9.752   2.543  10.569  1.00  0.00     0.211 HD
ENDBRANCH   8  15
ENDBRANCH   5   8
BRANCH   1  17
HETATM   17  O1  UNL     1     -12.943   5.420  15.273  1.00  0.00    -0.359 OA
ATOM     18  H1  UNL     1     -12.633   6.221  14.868  1.00  0.00     0.217 HD
ENDBRANCH   1  17
TORSDOF 3
ENDMDL
