MODEL 1
REMARK VINA RESULT: -8.049708798      0.000      0.000
REMARK  3 active torsions:
REMARK  status: ('A' for Active; 'I' for Inactive)
REMARK    1  A    between atoms: C5_5  and  N1_6 
REMARK    2  A    between atoms: C7_10  and  C8_11 
REMARK    3  A    between atoms: C9_12  and  C10_13 
ROOT
HETATM    1  N1  UNL     1     -11.667   2.314   9.153  1.00  0.00    -0.268 N 
HETATM    2  N2  UNL     1     -11.622   1.118   9.743  1.00  0.00    -0.306 N 
ATOM      3  H2  UNL     1     -11.493   0.224   9.269  1.00  0.00     0.186 HD
HETATM    4  C6  UNL     1     -11.776   1.290  11.069  1.00  0.00     0.132 A 
HETATM    5  C7  UNL     1     -11.925   2.634  11.355  1.00  0.00     0.079 A 
HETATM    6  C14 UNL     1     -11.850   3.257  10.105  1.00  0.00     0.136 A 
HETATM    7  N3  UNL     1     -11.949   4.538   9.951  1.00  0.00    -0.383 N 
ATOM      8  H31 UNL     1     -12.087   5.249  10.670  1.00  0.00     0.157 HD
ATOM      9  H32 UNL     1     -11.894   4.992   9.039  1.00  0.00     0.157 HD
ENDROOT
BRANCH   1  10
HETATM   10  C5  UNL     1     -11.548   2.607   7.759  1.00  0.00     0.144 C 
HETATM   11  C4  UNL     1     -12.426   1.740   6.884  1.00  0.00     0.030 C 
HETATM   12  C3  UNL     1     -12.399   2.331   5.495  1.00  0.00     0.006 C 
HETATM   13  C2  UNL     1     -10.996   2.413   4.942  1.00  0.00    -0.016 C 
HETATM   14  C1  UNL     1     -11.021   3.262   3.688  1.00  0.00     0.010 C 
HETATM   15  C16 UNL     1     -10.033   3.062   5.904  1.00  0.00     0.043 C 
HETATM   16  C15 UNL     1     -10.115   2.396   7.270  1.00  0.00     0.195 C 
HETATM   17  F1  UNL     1      -9.920   1.033   7.175  1.00  0.00    -0.247 F 
ENDBRANCH   1  10
BRANCH   5  18
HETATM   18  C8  UNL     1     -12.114   3.280  12.623  1.00  0.00    -0.061 C 
HETATM   19  C9  UNL     1     -12.293   3.814  13.692  1.00  0.00    -0.092 C 
BRANCH  19  20
HETATM   20  C10 UNL     1     -12.531   4.450  14.988  1.00  0.00     0.013 C 
HETATM   21  C11 UNL     1     -13.499   3.588  15.769  1.00  0.00     0.028 C 
HETATM   22  C12 UNL     1     -11.247   4.528  15.804  1.00  0.00     0.028 C 
HETATM   23  C13 UNL     1     -13.056   5.827  14.750  1.00  0.00     0.028 C 
ENDBRANCH  19  20
ENDBRANCH   5  18
TORSDOF 3
ENDMDL
MODEL 2
REMARK VINA RESULT: -7.854637620      1.899      7.836
REMARK  3 active torsions:
REMARK  status: ('A' for Active; 'I' for Inactive)
REMARK    1  A    between atoms: C5_5  and  N1_6 
REMARK    2  A    between atoms: C7_10  and  C8_11 
REMARK    3  A    between atoms: C9_12  and  C10_13 
ROOT
HETATM    1  N1  UNL     1     -11.429   3.134   9.225  1.00  0.00    -0.268 N 
HETATM    2  N2  UNL     1     -10.222   3.351   8.698  1.00  0.00    -0.306 N 
ATOM      3  H2  UNL     1      -9.390   3.637   9.213  1.00  0.00     0.186 HD
HETATM    4  C6  UNL     1     -10.290   3.128   7.372  1.00  0.00     0.132 A 
HETATM    5  C7  UNL     1     -11.574   2.756   7.022  1.00  0.00     0.079 A 
HETATM    6  C14 UNL     1     -12.274   2.772   8.232  1.00  0.00     0.136 A 
HETATM    7  N3  UNL     1     -13.530   2.475   8.322  1.00  0.00    -0.383 N 
ATOM      8  H31 UNL     1     -14.166   2.202   7.573  1.00  0.00     0.157 HD
ATOM      9  H32 UNL     1     -14.040   2.487   9.206  1.00  0.00     0.157 HD
ENDROOT
BRANCH   1  10
HETATM   10  C5  UNL     1     -11.819   3.252  10.595  1.00  0.00     0.144 C 
HETATM   11  C4  UNL     1     -11.483   4.594  11.205  1.00  0.00     0.030 C 
HETATM   12  C3  UNL     1     -12.180   4.668  12.542  1.00  0.00     0.006 C 
HETATM   13  C2  UNL     1     -11.769   3.539  13.458  1.00  0.00    -0.016 C 
HETATM   14  C1  UNL     1     -12.706   3.518  14.648  1.00  0.00     0.010 C 
HETATM   15  C16 UNL     1     -11.863   2.190  12.789  1.00  0.00     0.043 C 
HETATM   16  C15 UNL     1     -11.122   2.202  11.460  1.00  0.00     0.195 C 
HETATM   17  F1  UNL     1      -9.815   2.616  11.618  1.00  0.00    -0.247 F 
ENDBRANCH   1  10
BRANCH   5  18
HETATM   18  C8  UNL     1     -12.105   2.423   5.730  1.00  0.00    -0.061 C 
HETATM   19  C9  UNL     1     -12.562   2.162   4.642  1.00  0.00    -0.092 C 
BRANCH  19  20
HETATM   20  C10 UNL     1     -13.124   1.868   3.325  1.00  0.00     0.013 C 
HETATM   21  C11 UNL     1     -14.086   0.708   3.468  1.00  0.00     0.028 C 
HETATM   22  C12 UNL     1     -13.928   3.049   2.794  1.00  0.00     0.028 C 
HETATM   23  C13 UNL     1     -12.002   1.567   2.388  1.00  0.00     0.028 C 
ENDBRANCH  19  20
ENDBRANCH   5  18
TORSDOF 3
ENDMDL
MODEL 3
REMARK VINA RESULT: -7.718694808      2.600      8.262
REMARK  3 active torsions:
REMARK  status: ('A' for Active; 'I' for Inactive)
REMARK    1  A    between atoms: C5_5  and  N1_6 
REMARK    2  A    between atoms: C7_10  and  C8_11 
REMARK    3  A    between atoms: C9_12  and  C10_13 
ROOT
HETATM    1  N1  UNL     1     -11.764   2.562   7.439  1.00  0.00    -0.268 N 
HETATM    2  N2  UNL     1     -10.681   2.736   6.678  1.00  0.00    -0.306 N 
ATOM      3  H2  UNL     1      -9.772   3.067   7.001  1.00  0.00     0.186 HD
HETATM    4  C6  UNL     1     -10.992   2.400   5.412  1.00  0.00     0.132 A 
HETATM    5  C7  UNL     1     -12.312   1.995   5.342  1.00  0.00     0.079 A 
HETATM    6  C14 UNL     1     -12.773   2.114   6.657  1.00  0.00     0.136 A 
HETATM    7  N3  UNL     1     -13.984   1.824   7.007  1.00  0.00    -0.383 N 
ATOM      8  H31 UNL     1     -14.744   1.485   6.417  1.00  0.00     0.157 HD
ATOM      9  H32 UNL     1     -14.319   1.910   7.966  1.00  0.00     0.157 HD
ENDROOT
BRANCH   1  10
HETATM   10  C5  UNL     1     -11.892   2.796   8.843  1.00  0.00     0.144 C 
HETATM   11  C4  UNL     1     -11.159   4.031   9.318  1.00  0.00     0.030 C 
HETATM   12  C3  UNL     1     -11.597   4.295  10.739  1.00  0.00     0.006 C 
HETATM   13  C2  UNL     1     -11.320   3.118  11.645  1.00  0.00    -0.016 C 
HETATM   14  C1  UNL     1     -12.034   3.345  12.961  1.00  0.00     0.010 C 
HETATM   15  C16 UNL     1     -11.832   1.818  11.075  1.00  0.00     0.043 C 
HETATM   16  C15 UNL     1     -11.330   1.627   9.652  1.00  0.00     0.195 C 
HETATM   17  F1  UNL     1      -9.954   1.720   9.588  1.00  0.00    -0.247 F 
ENDBRANCH   1  10
BRANCH   5  18
HETATM   18  C8  UNL     1     -13.070   1.552   4.206  1.00  0.00    -0.061 C 
HETATM   19  C9  UNL     1     -13.707   1.199   3.242  1.00  0.00    -0.092 C 
BRANCH  19  20
HETATM   20  C10 UNL     1     -14.476   0.793   2.066  1.00  0.00     0.013 C 
HETATM   21  C11 UNL     1     -13.526   0.685   0.893  1.00  0.00     0.028 C 
HETATM   22  C12 UNL     1     -15.095  -0.585   2.264  1.00  0.00     0.028 C 
HETATM   23  C13 UNL     1     -15.556   1.797   1.837  1.00  0.00     0.028 C 
ENDBRANCH  19  20
ENDBRANCH   5  18
TORSDOF 3
ENDMDL
MODEL 4
REMARK VINA RESULT: -7.714771829      1.468      1.857
REMARK  3 active torsions:
REMARK  status: ('A' for Active; 'I' for Inactive)
REMARK    1  A    between atoms: C5_5  and  N1_6 
REMARK    2  A    between atoms: C7_10  and  C8_11 
REMARK    3  A    between atoms: C9_12  and  C10_13 
ROOT
HETATM    1  N1  UNL     1     -10.913   2.931   8.377  1.00  0.00    -0.268 N 
HETATM    2  N2  UNL     1      -9.727   3.336   8.836  1.00  0.00    -0.306 N 
ATOM      3  H2  UNL     1      -8.927   3.604   8.264  1.00  0.00     0.186 HD
HETATM    4  C6  UNL     1      -9.767   3.333  10.181  1.00  0.00     0.132 A 
HETATM    5  C7  UNL     1     -11.011   2.915  10.615  1.00  0.00     0.079 A 
HETATM    6  C14 UNL     1     -11.716   2.666   9.433  1.00  0.00     0.136 A 
HETATM    7  N3  UNL     1     -12.941   2.250   9.420  1.00  0.00    -0.383 N 
ATOM      8  H31 UNL     1     -13.546   2.050  10.216  1.00  0.00     0.157 HD
ATOM      9  H32 UNL     1     -13.455   2.069   8.557  1.00  0.00     0.157 HD
ENDROOT
BRANCH   1  10
HETATM   10  C5  UNL     1     -11.320   2.782   7.015  1.00  0.00     0.144 C 
HETATM   11  C4  UNL     1     -11.665   1.358   6.641  1.00  0.00     0.030 C 
HETATM   12  C3  UNL     1     -12.321   1.396   5.282  1.00  0.00     0.006 C 
HETATM   13  C2  UNL     1     -11.428   2.028   4.240  1.00  0.00    -0.016 C 
HETATM   14  C1  UNL     1     -12.249   2.286   2.994  1.00  0.00     0.010 C 
HETATM   15  C16 UNL     1     -10.866   3.354   4.689  1.00  0.00     0.043 C 
HETATM   16  C15 UNL     1     -10.212   3.220   6.056  1.00  0.00     0.195 C 
HETATM   17  F1  UNL     1      -9.260   2.220   6.060  1.00  0.00    -0.247 F 
ENDBRANCH   1  10
BRANCH   5  18
HETATM   18  C8  UNL     1     -11.503   2.758  11.954  1.00  0.00    -0.061 C 
HETATM   19  C9  UNL     1     -11.931   2.611  13.075  1.00  0.00    -0.092 C 
BRANCH  19  20
HETATM   20  C10 UNL     1     -12.463   2.417  14.423  1.00  0.00     0.013 C 
HETATM   21  C11 UNL     1     -13.696   1.545  14.326  1.00  0.00     0.028 C 
HETATM   22  C12 UNL     1     -11.465   1.678  15.306  1.00  0.00     0.028 C 
HETATM   23  C13 UNL     1     -12.755   3.756  15.014  1.00  0.00     0.028 C 
ENDBRANCH  19  20
ENDBRANCH   5  18
TORSDOF 3
ENDMDL
MODEL 5
REMARK VINA RESULT: -7.574136227      0.986      1.088
REMARK  3 active torsions:
REMARK  status: ('A' for Active; 'I' for Inactive)
REMARK    1  A    between atoms: C5_5  and  N1_6 
REMARK    2  A    between atoms: C7_10  and  C8_11 
REMARK    3  A    between atoms: C9_12  and  C10_13 
ROOT
HETATM    1  N1  UNL     1     -11.167   2.094   9.338  1.00  0.00    -0.268 N 
HETATM    2  N2  UNL     1     -11.619   0.953   9.862  1.00  0.00    -0.306 N 
ATOM      3  H2  UNL     1     -11.671   0.055   9.382  1.00  0.00     0.186 HD
HETATM    4  C6  UNL     1     -11.997   1.189  11.132  1.00  0.00     0.132 A 
HETATM    5  C7  UNL     1     -11.785   2.518  11.448  1.00  0.00     0.079 A 
HETATM    6  C14 UNL     1     -11.254   3.064  10.276  1.00  0.00     0.136 A 
HETATM    7  N3  UNL     1     -10.920   4.309  10.169  1.00  0.00    -0.383 N 
ATOM      8  H31 UNL     1     -10.986   5.041  10.877  1.00  0.00     0.157 HD
ATOM      9  H32 UNL     1     -10.532   4.708   9.314  1.00  0.00     0.157 HD
ENDROOT
BRANCH   1  10
HETATM   10  C5  UNL     1     -10.664   2.310   8.017  1.00  0.00     0.144 C 
HETATM   11  C4  UNL     1     -11.527   3.235   7.188  1.00  0.00     0.030 C 
HETATM   12  C3  UNL     1     -10.749   3.578   5.940  1.00  0.00     0.006 C 
HETATM   13  C2  UNL     1     -10.366   2.345   5.155  1.00  0.00    -0.016 C 
HETATM   14  C1  UNL     1      -9.363   2.742   4.093  1.00  0.00     0.010 C 
HETATM   15  C16 UNL     1      -9.714   1.292   6.016  1.00  0.00     0.043 C 
HETATM   16  C15 UNL     1     -10.572   0.998   7.238  1.00  0.00     0.195 C 
HETATM   17  F1  UNL     1     -11.859   0.654   6.877  1.00  0.00    -0.247 F 
ENDBRANCH   1  10
BRANCH   5  18
HETATM   18  C8  UNL     1     -12.039   3.213  12.678  1.00  0.00    -0.061 C 
HETATM   19  C9  UNL     1     -12.264   3.782  13.721  1.00  0.00    -0.092 C 
BRANCH  19  20
HETATM   20  C10 UNL     1     -12.549   4.451  14.989  1.00  0.00     0.013 C 
HETATM   21  C11 UNL     1     -13.543   3.607  15.758  1.00  0.00     0.028 C 
HETATM   22  C12 UNL     1     -11.296   4.556  15.849  1.00  0.00     0.028 C 
HETATM   23  C13 UNL     1     -13.069   5.820  14.696  1.00  0.00     0.028 C 
ENDBRANCH  19  20
ENDBRANCH   5  18
TORSDOF 3
ENDMDL
