MODEL 1
REMARK VINA RESULT: -6.774075255      0.000      0.000
REMARK  1 active torsions:
REMARK  status: ('A' for Active; 'I' for Inactive)
REMARK       I    between atoms: C3_5  and  N2_6 
REMARK       I    between atoms: C3_5  and  N4_10 
REMARK    1  A    between atoms: N4_10  and  C5_12 
ROOT
HETATM    1  C1  UNL     1      -9.993   6.751   2.929  1.00  0.00     0.037 C 
HETATM    2  C2  UNL     1      -9.629   5.815   2.270  1.00  0.00     0.015 C 
HETATM    3  N1  UNL     1      -9.200   4.753   1.494  1.00  0.00    -0.149 N 
ATOM      4  H1  UNL     1      -9.226   4.883   0.482  1.00  0.00     0.195 HD
HETATM    5  C3  UNL     1      -8.775   3.631   1.916  1.00  0.00     0.695 C 
HETATM    6  N2  UNL     1      -8.391   2.706   0.870  1.00  0.00    -0.126 N 
ATOM      7  H2  UNL     1      -9.107   2.314   0.258  1.00  0.00     0.197 HD
HETATM    8  C4  UNL     1      -7.040   2.341   0.686  1.00  0.00     0.196 C 
HETATM    9  N3  UNL     1      -5.929   2.048   0.549  1.00  0.00    -0.171 NA
HETATM   10  N4  UNL     1      -8.624   3.179   3.230  1.00  0.00    -0.220 N 
ATOM     11  H4  UNL     1      -7.746   3.410   3.695  1.00  0.00     0.178 HD
ENDROOT
BRANCH  10  12
HETATM   12  C5  UNL     1      -9.584   2.415   4.002  1.00  0.00     0.100 C 
HETATM   13  C6  UNL     1     -10.535   1.772   3.072  1.00  0.00     0.026 C 
HETATM   14  C7  UNL     1     -11.821   2.435   2.806  1.00  0.00     0.002 C 
HETATM   15  C8  UNL     1     -13.020   1.517   3.040  1.00  0.00     0.000 C 
HETATM   16  C9  UNL     1     -13.983   2.070   4.038  1.00  0.00     0.000 C 
HETATM   17  C10 UNL     1     -14.075   1.298   5.311  1.00  0.00     0.000 C 
HETATM   18  C11 UNL     1     -12.749   1.090   5.997  1.00  0.00     0.001 C 
HETATM   19  C12 UNL     1     -12.121   2.385   6.381  1.00  0.00     0.009 C 
HETATM   20  C13 UNL     1     -10.610   2.394   6.331  1.00  0.00    -0.046 C 
HETATM   21  C14 UNL     1      -9.993   1.040   6.490  1.00  0.00     0.015 C 
HETATM   22  C15 UNL     1     -10.190   3.151   7.615  1.00  0.00     0.015 C 
HETATM   23  C16 UNL     1     -10.077   3.179   5.157  1.00  0.00     0.034 C 
ENDBRANCH  10  12
TORSDOF 1
ENDMDL
MODEL 2
REMARK VINA RESULT: -6.749403245      3.271      5.534
REMARK  1 active torsions:
REMARK  status: ('A' for Active; 'I' for Inactive)
REMARK       I    between atoms: C3_5  and  N2_6 
REMARK       I    between atoms: C3_5  and  N4_10 
REMARK    1  A    between atoms: N4_10  and  C5_12 
ROOT
HETATM    1  C1  UNL     1     -12.262   0.552   0.155  1.00  0.00     0.037 C 
HETATM    2  C2  UNL     1     -12.941   1.406   0.658  1.00  0.00     0.015 C 
HETATM    3  N1  UNL     1     -13.739   2.390   1.216  1.00  0.00    -0.149 N 
ATOM      4  H1  UNL     1     -14.101   3.102   0.582  1.00  0.00     0.195 HD
HETATM    5  C3  UNL     1     -14.064   2.495   2.441  1.00  0.00     0.695 C 
HETATM    6  N2  UNL     1     -14.913   3.629   2.738  1.00  0.00    -0.126 N 
ATOM      7  H2  UNL     1     -14.537   4.574   2.658  1.00  0.00     0.197 HD
HETATM    8  C4  UNL     1     -16.255   3.445   3.136  1.00  0.00     0.196 C 
HETATM    9  N3  UNL     1     -17.353   3.280   3.466  1.00  0.00    -0.171 NA
HETATM   10  N4  UNL     1     -13.726   1.673   3.521  1.00  0.00    -0.220 N 
ATOM     11  H4  UNL     1     -14.324   0.863   3.683  1.00  0.00     0.178 HD
ENDROOT
BRANCH  10  12
HETATM   12  C5  UNL     1     -12.614   1.852   4.434  1.00  0.00     0.100 C 
HETATM   13  C6  UNL     1     -12.892   1.095   5.671  1.00  0.00     0.026 C 
HETATM   14  C7  UNL     1     -13.478   1.806   6.818  1.00  0.00     0.002 C 
HETATM   15  C8  UNL     1     -12.674   1.617   8.105  1.00  0.00     0.000 C 
HETATM   16  C9  UNL     1     -12.226   2.911   8.699  1.00  0.00     0.000 C 
HETATM   17  C10 UNL     1     -10.751   3.129   8.679  1.00  0.00     0.000 C 
HETATM   18  C11 UNL     1     -10.132   2.996   7.311  1.00  0.00     0.001 C 
HETATM   19  C12 UNL     1     -10.680   4.005   6.361  1.00  0.00     0.009 C 
HETATM   20  C13 UNL     1     -10.772   3.537   4.926  1.00  0.00    -0.046 C 
HETATM   21  C14 UNL     1      -9.809   2.445   4.585  1.00  0.00     0.015 C 
HETATM   22  C15 UNL     1     -10.277   4.748   4.097  1.00  0.00     0.015 C 
HETATM   23  C16 UNL     1     -12.194   3.259   4.502  1.00  0.00     0.034 C 
ENDBRANCH  10  12
TORSDOF 1
ENDMDL
MODEL 3
REMARK VINA RESULT: -6.549807075      2.526      5.833
REMARK  1 active torsions:
REMARK  status: ('A' for Active; 'I' for Inactive)
REMARK       I    between atoms: C3_5  and  N2_6 
REMARK       I    between atoms: C3_5  and  N4_10 
REMARK    1  A    between atoms: N4_10  and  C5_12 
ROOT
HETATM    1  C1  UNL     1     -14.383   1.651   4.232  1.00  0.00     0.037 C 
HETATM    2  C2  UNL     1     -13.607   1.699   5.147  1.00  0.00     0.015 C 
HETATM    3  N1  UNL     1     -12.729   1.741   6.217  1.00  0.00    -0.149 N 
ATOM      4  H1  UNL     1     -13.141   1.832   7.146  1.00  0.00     0.195 HD
HETATM    5  C3  UNL     1     -11.460   1.678   6.157  1.00  0.00     0.695 C 
HETATM    6  N2  UNL     1     -10.798   1.745   7.443  1.00  0.00    -0.126 N 
ATOM      7  H2  UNL     1     -10.825   2.613   7.978  1.00  0.00     0.197 HD
HETATM    8  C4  UNL     1     -10.115   0.626   7.965  1.00  0.00     0.196 C 
HETATM    9  N3  UNL     1      -9.556  -0.299   8.380  1.00  0.00    -0.171 NA
HETATM   10  N4  UNL     1     -10.632   1.547   5.038  1.00  0.00    -0.220 N 
ATOM     11  H4  UNL     1     -10.451   0.597   4.713  1.00  0.00     0.178 HD
ENDROOT
BRANCH  10  12
HETATM   12  C5  UNL     1     -10.003   2.619   4.292  1.00  0.00     0.100 C 
HETATM   13  C6  UNL     1     -10.416   3.910   4.881  1.00  0.00     0.026 C 
HETATM   14  C7  UNL     1     -11.542   4.635   4.272  1.00  0.00     0.002 C 
HETATM   15  C8  UNL     1     -11.193   6.080   3.917  1.00  0.00     0.000 C 
HETATM   16  C9  UNL     1     -11.404   6.385   2.471  1.00  0.00     0.000 C 
HETATM   17  C10 UNL     1     -10.157   6.669   1.705  1.00  0.00     0.000 C 
HETATM   18  C11 UNL     1      -9.114   5.586   1.812  1.00  0.00     0.001 C 
HETATM   19  C12 UNL     1      -9.610   4.290   1.269  1.00  0.00     0.009 C 
HETATM   20  C13 UNL     1      -9.069   3.064   1.968  1.00  0.00    -0.046 C 
HETATM   21  C14 UNL     1      -7.751   3.285   2.641  1.00  0.00     0.015 C 
HETATM   22  C15 UNL     1      -8.743   2.081   0.817  1.00  0.00     0.015 C 
HETATM   23  C16 UNL     1     -10.103   2.398   2.843  1.00  0.00     0.034 C 
ENDBRANCH  10  12
TORSDOF 1
ENDMDL
MODEL 4
REMARK VINA RESULT: -6.458670488      1.481      3.213
REMARK  1 active torsions:
REMARK  status: ('A' for Active; 'I' for Inactive)
REMARK       I    between atoms: C3_5  and  N2_6 
REMARK       I    between atoms: C3_5  and  N4_10 
REMARK    1  A    between atoms: N4_10  and  C5_12 
ROOT
HETATM    1  C1  UNL     1     -10.853   8.473   3.217  1.00  0.00     0.037 C 
HETATM    2  C2  UNL     1     -10.311   7.496   2.775  1.00  0.00     0.015 C 
HETATM    3  N1  UNL     1      -9.670   6.387   2.251  1.00  0.00    -0.149 N 
ATOM      4  H1  UNL     1      -9.395   6.436   1.270  1.00  0.00     0.195 HD
HETATM    5  C3  UNL     1      -9.392   5.312   2.871  1.00  0.00     0.695 C 
HETATM    6  N2  UNL     1      -8.715   4.317   2.066  1.00  0.00    -0.126 N 
ATOM      7  H2  UNL     1      -9.216   3.861   1.304  1.00  0.00     0.197 HD
HETATM    8  C4  UNL     1      -7.371   3.971   2.321  1.00  0.00     0.196 C 
HETATM    9  N3  UNL     1      -6.269   3.693   2.545  1.00  0.00    -0.171 NA
HETATM   10  N4  UNL     1      -9.639   4.969   4.203  1.00  0.00    -0.220 N 
ATOM     11  H4  UNL     1      -8.939   5.257   4.887  1.00  0.00     0.178 HD
ENDROOT
BRANCH  10  12
HETATM   12  C5  UNL     1     -10.786   4.246   4.716  1.00  0.00     0.100 C 
HETATM   13  C6  UNL     1     -10.828   4.406   6.184  1.00  0.00     0.026 C 
HETATM   14  C7  UNL     1     -10.244   3.351   7.027  1.00  0.00     0.002 C 
HETATM   15  C8  UNL     1     -11.216   2.832   8.085  1.00  0.00     0.000 C 
HETATM   16  C9  UNL     1     -11.441   1.360   7.988  1.00  0.00     0.000 C 
HETATM   17  C10 UNL     1     -12.821   0.965   7.582  1.00  0.00     0.000 C 
HETATM   18  C11 UNL     1     -13.286   1.601   6.298  1.00  0.00     0.001 C 
HETATM   19  C12 UNL     1     -12.423   1.209   5.148  1.00  0.00     0.009 C 
HETATM   20  C13 UNL     1     -12.265   2.273   4.085  1.00  0.00    -0.046 C 
HETATM   21  C14 UNL     1     -13.394   3.253   4.040  1.00  0.00     0.015 C 
HETATM   22  C15 UNL     1     -12.383   1.500   2.750  1.00  0.00     0.015 C 
HETATM   23  C16 UNL     1     -10.897   2.911   4.111  1.00  0.00     0.034 C 
ENDBRANCH  10  12
TORSDOF 1
ENDMDL
MODEL 5
REMARK VINA RESULT: -6.388467489      3.553      5.875
REMARK  1 active torsions:
REMARK  status: ('A' for Active; 'I' for Inactive)
REMARK       I    between atoms: C3_5  and  N2_6 
REMARK       I    between atoms: C3_5  and  N4_10 
REMARK    1  A    between atoms: N4_10  and  C5_12 
ROOT
HETATM    1  C1  UNL     1     -15.244  -1.256   1.985  1.00  0.00     0.037 C 
HETATM    2  C2  UNL     1     -15.095  -0.077   1.811  1.00  0.00     0.015 C 
HETATM    3  N1  UNL     1     -14.942   1.281   1.591  1.00  0.00    -0.149 N 
ATOM      4  H1  UNL     1     -15.032   1.603   0.627  1.00  0.00     0.195 HD
HETATM    5  C3  UNL     1     -14.700   2.167   2.471  1.00  0.00     0.695 C 
HETATM    6  N2  UNL     1     -14.592   3.513   1.949  1.00  0.00    -0.126 N 
ATOM      7  H2  UNL     1     -13.805   3.757   1.348  1.00  0.00     0.197 HD
HETATM    8  C4  UNL     1     -15.562   4.490   2.260  1.00  0.00     0.196 C 
HETATM    9  N3  UNL     1     -16.362   5.283   2.526  1.00  0.00    -0.171 NA
HETATM   10  N4  UNL     1     -14.535   2.021   3.852  1.00  0.00    -0.220 N 
ATOM     11  H4  UNL     1     -15.384   2.039   4.418  1.00  0.00     0.178 HD
ENDROOT
BRANCH  10  12
HETATM   12  C5  UNL     1     -13.285   1.847   4.564  1.00  0.00     0.100 C 
HETATM   13  C6  UNL     1     -13.541   1.054   5.784  1.00  0.00     0.026 C 
HETATM   14  C7  UNL     1     -13.749   1.764   7.056  1.00  0.00     0.002 C 
HETATM   15  C8  UNL     1     -12.824   1.268   8.168  1.00  0.00     0.000 C 
HETATM   16  C9  UNL     1     -11.987   2.358   8.749  1.00  0.00     0.000 C 
HETATM   17  C10 UNL     1     -10.525   2.231   8.483  1.00  0.00     0.000 C 
HETATM   18  C11 UNL     1     -10.179   2.097   7.022  1.00  0.00     0.001 C 
HETATM   19  C12 UNL     1     -10.607   3.294   6.245  1.00  0.00     0.009 C 
HETATM   20  C13 UNL     1     -11.034   3.006   4.823  1.00  0.00    -0.046 C 
HETATM   21  C14 UNL     1     -10.431   1.760   4.254  1.00  0.00     0.015 C 
HETATM   22  C15 UNL     1     -10.395   4.146   3.994  1.00  0.00     0.015 C 
HETATM   23  C16 UNL     1     -12.529   3.105   4.641  1.00  0.00     0.034 C 
ENDBRANCH  10  12
TORSDOF 1
ENDMDL
