MODEL 1
REMARK VINA RESULT: -9.426283101      0.000      0.000
REMARK  4 active torsions:
REMARK  status: ('A' for Active; 'I' for Inactive)
REMARK    1  A    between atoms: O1_1  and  C1_3 
REMARK    2  A    between atoms: C4_6  and  C5_7 
REMARK    3  A    between atoms: C5_7  and  N1_9 
REMARK    4  A    between atoms: N1_9  and  C6_11 
ROOT
HETATM    1  C5  UNL     1     -12.027   1.644   9.080  1.00  0.00     0.107 C 
HETATM    2  S1  UNL     1     -13.598   1.261   8.870  1.00  0.00    -0.060 SA
ENDROOT
BRANCH   1   3
HETATM    3  C4  UNL     1     -11.167   1.844   7.935  1.00  0.00     0.005 A 
HETATM    4  C3  UNL     1     -10.937   3.122   7.473  1.00  0.00     0.017 A 
HETATM    5  C2  UNL     1     -10.130   3.339   6.390  1.00  0.00     0.040 A 
HETATM    6  C1  UNL     1      -9.547   2.262   5.758  1.00  0.00     0.104 A 
HETATM    7  C16 UNL     1      -9.777   0.992   6.219  1.00  0.00     0.150 A 
HETATM    8  C15 UNL     1     -10.580   0.746   7.302  1.00  0.00     0.059 A 
HETATM    9  F1  UNL     1      -9.209  -0.093   5.610  1.00  0.00    -0.203 F 
BRANCH   6  10
HETATM   10  O1  UNL     1      -8.733   2.502   4.663  1.00  0.00    -0.358 OA
ATOM     11  H1  UNL     1      -7.796   2.385   4.762  1.00  0.00     0.217 HD
ENDBRANCH   6  10
ENDBRANCH   1   3
BRANCH   1  12
HETATM   12  N1  UNL     1     -11.540   1.772  10.398  1.00  0.00    -0.376 N 
ATOM     13  H1  UNL     1     -10.709   1.246  10.670  1.00  0.00     0.161 HD
BRANCH  12  14
HETATM   14  C6  UNL     1     -12.175   2.617  11.370  1.00  0.00     0.083 C 
HETATM   15  C7  UNL     1     -11.663   4.020  11.423  1.00  0.00     0.030 C 
HETATM   16  C8  UNL     1     -11.563   4.329  12.901  1.00  0.00    -0.008 C 
HETATM   17  C9  UNL     1     -12.198   5.627  13.276  1.00  0.00     0.005 C 
HETATM   18  C13 UNL     1     -12.407   3.246  13.587  1.00  0.00    -0.008 C 
HETATM   19  C10 UNL     1     -12.739   5.543  14.664  1.00  0.00     0.000 C 
HETATM   20  C11 UNL     1     -11.977   4.591  15.554  1.00  0.00     0.000 C 
HETATM   21  C12 UNL     1     -11.931   3.194  15.011  1.00  0.00     0.005 C 
HETATM   22  C14 UNL     1     -12.043   2.062  12.771  1.00  0.00     0.030 C 
ENDBRANCH  12  14
ENDBRANCH   1  12
TORSDOF 4
ENDMDL
MODEL 2
REMARK VINA RESULT: -9.280971598      1.119      1.547
REMARK  4 active torsions:
REMARK  status: ('A' for Active; 'I' for Inactive)
REMARK    1  A    between atoms: O1_1  and  C1_3 
REMARK    2  A    between atoms: C4_6  and  C5_7 
REMARK    3  A    between atoms: C5_7  and  N1_9 
REMARK    4  A    between atoms: N1_9  and  C6_11 
ROOT
HETATM    1  C5  UNL     1     -11.911   1.800   8.951  1.00  0.00     0.107 C 
HETATM    2  S1  UNL     1     -13.448   1.263   8.865  1.00  0.00    -0.060 SA
ENDROOT
BRANCH   1   3
HETATM    3  C4  UNL     1     -11.143   2.005   7.743  1.00  0.00     0.005 A 
HETATM    4  C3  UNL     1     -10.504   0.935   7.154  1.00  0.00     0.017 A 
HETATM    5  C2  UNL     1      -9.769   1.103   6.013  1.00  0.00     0.040 A 
HETATM    6  C1  UNL     1      -9.670   2.358   5.453  1.00  0.00     0.104 A 
HETATM    7  C16 UNL     1     -10.307   3.420   6.040  1.00  0.00     0.150 A 
HETATM    8  C15 UNL     1     -11.050   3.282   7.183  1.00  0.00     0.059 A 
HETATM    9  F1  UNL     1     -10.225   4.677   5.504  1.00  0.00    -0.203 F 
BRANCH   6  10
HETATM   10  O1  UNL     1      -8.922   2.508   4.297  1.00  0.00    -0.358 OA
ATOM     11  H1  UNL     1      -7.978   2.585   4.376  1.00  0.00     0.217 HD
ENDBRANCH   6  10
ENDBRANCH   1   3
BRANCH   1  12
HETATM   12  N1  UNL     1     -11.362   2.055  10.226  1.00  0.00    -0.376 N 
ATOM     13  H1  UNL     1     -10.442   1.678  10.450  1.00  0.00     0.161 HD
BRANCH  12  14
HETATM   14  C6  UNL     1     -12.056   2.827  11.217  1.00  0.00     0.083 C 
HETATM   15  C7  UNL     1     -11.591   4.240  11.362  1.00  0.00     0.030 C 
HETATM   16  C8  UNL     1     -11.551   4.473  12.856  1.00  0.00    -0.008 C 
HETATM   17  C9  UNL     1     -12.239   5.729  13.277  1.00  0.00     0.005 C 
HETATM   18  C13 UNL     1     -12.383   3.329  13.454  1.00  0.00    -0.008 C 
HETATM   19  C10 UNL     1     -12.824   5.555  14.638  1.00  0.00     0.000 C 
HETATM   20  C11 UNL     1     -12.063   4.580  15.503  1.00  0.00     0.000 C 
HETATM   21  C12 UNL     1     -11.955   3.216  14.890  1.00  0.00     0.005 C 
HETATM   22  C14 UNL     1     -11.954   2.202  12.591  1.00  0.00     0.030 C 
ENDBRANCH  12  14
ENDBRANCH   1  12
TORSDOF 4
ENDMDL
MODEL 3
REMARK VINA RESULT: -9.092875040      1.987      2.676
REMARK  4 active torsions:
REMARK  status: ('A' for Active; 'I' for Inactive)
REMARK    1  A    between atoms: O1_1  and  C1_3 
REMARK    2  A    between atoms: C4_6  and  C5_7 
REMARK    3  A    between atoms: C5_7  and  N1_9 
REMARK    4  A    between atoms: N1_9  and  C6_11 
ROOT
HETATM    1  C5  UNL     1     -11.239   2.175   9.731  1.00  0.00     0.107 C 
HETATM    2  S1  UNL     1      -9.778   2.897   9.787  1.00  0.00    -0.060 SA
ENDROOT
BRANCH   1   3
HETATM    3  C4  UNL     1     -11.877   1.920   8.459  1.00  0.00     0.005 A 
HETATM    4  C3  UNL     1     -13.251   1.843   8.391  1.00  0.00     0.017 A 
HETATM    5  C2  UNL     1     -13.879   1.600   7.201  1.00  0.00     0.040 A 
HETATM    6  C1  UNL     1     -13.122   1.431   6.061  1.00  0.00     0.104 A 
HETATM    7  C16 UNL     1     -11.755   1.509   6.131  1.00  0.00     0.150 A 
HETATM    8  C15 UNL     1     -11.100   1.752   7.310  1.00  0.00     0.059 A 
HETATM    9  F1  UNL     1     -10.981   1.346   5.015  1.00  0.00    -0.203 F 
BRANCH   6  10
HETATM   10  O1  UNL     1     -13.776   1.186   4.865  1.00  0.00    -0.358 OA
ATOM     11  H1  UNL     1     -13.439   0.503   4.297  1.00  0.00     0.217 HD
ENDBRANCH   6  10
ENDBRANCH   1   3
BRANCH   1  12
HETATM   12  N1  UNL     1     -11.852   1.813  10.949  1.00  0.00    -0.376 N 
ATOM     13  H1  UNL     1     -12.557   1.074  10.946  1.00  0.00     0.161 HD
BRANCH  12  14
HETATM   14  C6  UNL     1     -11.519   2.447  12.193  1.00  0.00     0.083 C 
HETATM   15  C7  UNL     1     -12.105   1.807  13.409  1.00  0.00     0.030 C 
HETATM   16  C8  UNL     1     -12.576   2.968  14.257  1.00  0.00    -0.008 C 
HETATM   17  C9  UNL     1     -12.124   2.884  15.677  1.00  0.00     0.005 C 
HETATM   18  C13 UNL     1     -11.865   4.196  13.671  1.00  0.00    -0.008 C 
HETATM   19  C10 UNL     1     -11.931   4.257  16.229  1.00  0.00     0.000 C 
HETATM   20  C11 UNL     1     -12.831   5.293  15.602  1.00  0.00     0.000 C 
HETATM   21  C12 UNL     1     -12.668   5.386  14.114  1.00  0.00     0.005 C 
HETATM   22  C14 UNL     1     -11.956   3.895  12.222  1.00  0.00     0.030 C 
ENDBRANCH  12  14
ENDBRANCH   1  12
TORSDOF 4
ENDMDL
MODEL 4
REMARK VINA RESULT: -9.029335708      2.113      2.490
REMARK  4 active torsions:
REMARK  status: ('A' for Active; 'I' for Inactive)
REMARK    1  A    between atoms: O1_1  and  C1_3 
REMARK    2  A    between atoms: C4_6  and  C5_7 
REMARK    3  A    between atoms: C5_7  and  N1_9 
REMARK    4  A    between atoms: N1_9  and  C6_11 
ROOT
HETATM    1  C5  UNL     1     -11.161   2.298   9.819  1.00  0.00     0.107 C 
HETATM    2  S1  UNL     1      -9.765   3.141   9.815  1.00  0.00    -0.060 SA
ENDROOT
BRANCH   1   3
HETATM    3  C4  UNL     1     -11.924   2.149   8.600  1.00  0.00     0.005 A 
HETATM    4  C3  UNL     1     -13.233   1.722   8.665  1.00  0.00     0.017 A 
HETATM    5  C2  UNL     1     -13.976   1.569   7.527  1.00  0.00     0.040 A 
HETATM    6  C1  UNL     1     -13.402   1.847   6.305  1.00  0.00     0.104 A 
HETATM    7  C16 UNL     1     -12.100   2.273   6.243  1.00  0.00     0.150 A 
HETATM    8  C15 UNL     1     -11.333   2.434   7.366  1.00  0.00     0.059 A 
HETATM    9  F1  UNL     1     -11.508   2.556   5.042  1.00  0.00    -0.203 F 
BRANCH   6  10
HETATM   10  O1  UNL     1     -14.171   1.687   5.164  1.00  0.00    -0.358 OA
ATOM     11  H1  UNL     1     -13.900   1.039   4.524  1.00  0.00     0.217 HD
ENDBRANCH   6  10
ENDBRANCH   1   3
BRANCH   1  12
HETATM   12  N1  UNL     1     -11.593   1.727  11.034  1.00  0.00    -0.376 N 
ATOM     13  H1  UNL     1     -11.425   0.734  11.200  1.00  0.00     0.161 HD
BRANCH  12  14
HETATM   14  C6  UNL     1     -12.262   2.494  12.046  1.00  0.00     0.083 C 
HETATM   15  C7  UNL     1     -11.877   3.937  12.108  1.00  0.00     0.030 C 
HETATM   16  C8  UNL     1     -11.747   4.229  13.587  1.00  0.00    -0.008 C 
HETATM   17  C9  UNL     1     -12.480   5.458  14.012  1.00  0.00     0.005 C 
HETATM   18  C13 UNL     1     -12.463   3.063  14.282  1.00  0.00    -0.008 C 
HETATM   19  C10 UNL     1     -12.956   5.302  15.417  1.00  0.00     0.000 C 
HETATM   20  C11 UNL     1     -12.078   4.408  16.258  1.00  0.00     0.000 C 
HETATM   21  C12 UNL     1     -11.929   3.030  15.686  1.00  0.00     0.005 C 
HETATM   22  C14 UNL     1     -12.026   1.930  13.430  1.00  0.00     0.030 C 
ENDBRANCH  12  14
ENDBRANCH   1  12
TORSDOF 4
ENDMDL
MODEL 5
REMARK VINA RESULT: -9.016228058      4.278      7.911
REMARK  4 active torsions:
REMARK  status: ('A' for Active; 'I' for Inactive)
REMARK    1  A    between atoms: O1_1  and  C1_3 
REMARK    2  A    between atoms: C4_6  and  C5_7 
REMARK    3  A    between atoms: C5_7  and  N1_9 
REMARK    4  A    between atoms: N1_9  and  C6_11 
ROOT
HETATM    1  C5  UNL     1     -11.474   2.873  11.252  1.00  0.00     0.107 C 
HETATM    2  S1  UNL     1     -10.312   3.922  10.794  1.00  0.00    -0.060 SA
ENDROOT
BRANCH   1   3
HETATM    3  C4  UNL     1     -11.961   2.877  12.612  1.00  0.00     0.005 A 
HETATM    4  C3  UNL     1     -12.238   1.681  13.239  1.00  0.00     0.017 A 
HETATM    5  C2  UNL     1     -12.704   1.656  14.524  1.00  0.00     0.040 A 
HETATM    6  C1  UNL     1     -12.896   2.845  15.194  1.00  0.00     0.104 A 
HETATM    7  C16 UNL     1     -12.620   4.034  14.570  1.00  0.00     0.150 A 
HETATM    8  C15 UNL     1     -12.152   4.088  13.283  1.00  0.00     0.059 A 
HETATM    9  F1  UNL     1     -12.802   5.228  15.213  1.00  0.00    -0.203 F 
BRANCH   6  10
HETATM   10  O1  UNL     1     -13.368   2.800  16.496  1.00  0.00    -0.358 OA
ATOM     11  H1  UNL     1     -13.585   3.618  16.927  1.00  0.00     0.217 HD
ENDBRANCH   6  10
ENDBRANCH   1   3
BRANCH   1  12
HETATM   12  N1  UNL     1     -11.980   1.974  10.289  1.00  0.00    -0.376 N 
ATOM     13  H1  UNL     1     -12.139   1.003  10.557  1.00  0.00     0.161 HD
BRANCH  12  14
HETATM   14  C6  UNL     1     -12.279   2.380   8.945  1.00  0.00     0.083 C 
HETATM   15  C7  UNL     1     -13.307   1.552   8.245  1.00  0.00     0.030 C 
HETATM   16  C8  UNL     1     -12.754   1.364   6.849  1.00  0.00    -0.008 C 
HETATM   17  C9  UNL     1     -13.744   1.670   5.775  1.00  0.00     0.005 C 
HETATM   18  C13 UNL     1     -11.658   2.431   6.714  1.00  0.00    -0.008 C 
HETATM   19  C10 UNL     1     -13.038   2.199   4.572  1.00  0.00     0.000 C 
HETATM   20  C11 UNL     1     -11.633   1.672   4.415  1.00  0.00     0.000 C 
HETATM   21  C12 UNL     1     -10.764   1.963   5.602  1.00  0.00     0.005 C 
HETATM   22  C14 UNL     1     -11.049   2.366   8.065  1.00  0.00     0.030 C 
ENDBRANCH  12  14
ENDBRANCH   1  12
TORSDOF 4
ENDMDL
