MODEL 1
REMARK VINA RESULT: -6.177375640      0.000      0.000
REMARK  3 active torsions:
REMARK  status: ('A' for Active; 'I' for Inactive)
REMARK    1  A    between atoms: C2_2  and  N1_3 
REMARK    2  A    between atoms: C7_11  and  O1_12 
REMARK    3  A    between atoms: C13_19  and  C15_21 
ROOT
HETATM    1  N1  UNL     1     -10.892   2.622   4.237  1.00  0.00    -0.360 N 
HETATM    2  C3  UNL     1     -10.145   2.216   5.422  1.00  0.00     0.086 C 
HETATM    3  N2  UNL     1      -8.912   2.432   5.509  1.00  0.00    -0.388 N 
ATOM      4  H21 UNL     1      -8.390   2.147   6.338  1.00  0.00     0.157 HD
ATOM      5  H22 UNL     1      -8.481   2.886   4.705  1.00  0.00     0.157 HD
HETATM    6  C4  UNL     1     -10.768   1.559   6.585  1.00  0.00     0.040 C 
HETATM    7  C5  UNL     1     -10.153   0.138   6.599  1.00  0.00     0.029 C 
HETATM    8  C6  UNL     1     -10.357   2.157   7.893  1.00  0.00     0.053 C 
HETATM    9  C7  UNL     1     -11.207   3.215   8.464  1.00  0.00     0.119 C 
HETATM   10  C8  UNL     1     -12.526   2.843   9.017  1.00  0.00     0.035 C 
HETATM   11  C9  UNL     1     -12.935   1.416   8.792  1.00  0.00     0.030 C 
HETATM   12  C10 UNL     1     -13.157   1.294   7.306  1.00  0.00    -0.023 C 
HETATM   13  C11 UNL     1     -12.198   1.360   6.394  1.00  0.00    -0.066 C 
HETATM   14  C12 UNL     1     -12.735   1.188   5.034  1.00  0.00     0.067 C 
HETATM   15  C13 UNL     1     -12.256   2.289   4.086  1.00  0.00     0.046 C 
HETATM   16  C14 UNL     1     -12.335   1.519   2.686  1.00  0.00     0.040 C 
ENDROOT
BRANCH   1  17
HETATM   17  C2  UNL     1     -10.153   3.410   3.288  1.00  0.00     0.120 C 
HETATM   18  C1  UNL     1     -10.229   4.887   3.468  1.00  0.00     0.026 C 
ENDBRANCH   1  17
BRANCH  15  19
HETATM   19  C15 UNL     1     -13.338   3.270   3.972  1.00  0.00     0.145 C 
HETATM   20 CL1  UNL     1     -14.956   2.734   3.622  1.00  0.00    -0.128 Cl
ENDBRANCH  15  19
BRANCH   9  21
HETATM   21  O1  UNL     1     -10.476   3.758   9.558  1.00  0.00    -0.396 OA
ATOM     22  H1  UNL     1     -10.257   4.649   9.311  1.00  0.00     0.210 HD
ENDBRANCH   9  21
TORSDOF 3
ENDMDL
MODEL 2
REMARK VINA RESULT: -5.858642045      2.939      5.201
REMARK  3 active torsions:
REMARK  status: ('A' for Active; 'I' for Inactive)
REMARK    1  A    between atoms: C2_2  and  N1_3 
REMARK    2  A    between atoms: C7_11  and  O1_12 
REMARK    3  A    between atoms: C13_19  and  C15_21 
ROOT
HETATM    1  N1  UNL     1     -11.702   1.841   8.148  1.00  0.00    -0.360 N 
HETATM    2  C3  UNL     1     -11.573   1.305   6.798  1.00  0.00     0.086 C 
HETATM    3  N2  UNL     1     -12.027   0.172   6.511  1.00  0.00    -0.388 N 
ATOM      4  H21 UNL     1     -11.936  -0.203   5.566  1.00  0.00     0.157 HD
ATOM      5  H22 UNL     1     -12.469  -0.338   7.275  1.00  0.00     0.157 HD
HETATM    6  C4  UNL     1     -10.934   2.042   5.694  1.00  0.00     0.040 C 
HETATM    7  C5  UNL     1      -9.666   1.217   5.363  1.00  0.00     0.029 C 
HETATM    8  C6  UNL     1     -11.733   2.023   4.429  1.00  0.00     0.053 C 
HETATM    9  C7  UNL     1     -12.663   3.137   4.184  1.00  0.00     0.119 C 
HETATM   10  C8  UNL     1     -12.106   4.463   3.844  1.00  0.00     0.035 C 
HETATM   11  C9  UNL     1     -10.611   4.573   3.938  1.00  0.00     0.030 C 
HETATM   12  C10 UNL     1     -10.295   4.453   5.408  1.00  0.00    -0.023 C 
HETATM   13  C11 UNL     1     -10.447   3.347   6.121  1.00  0.00    -0.066 C 
HETATM   14  C12 UNL     1     -10.034   3.547   7.521  1.00  0.00     0.067 C 
HETATM   15  C13 UNL     1     -11.101   3.068   8.507  1.00  0.00     0.046 C 
HETATM   16  C14 UNL     1     -10.189   2.720   9.773  1.00  0.00     0.040 C 
ENDROOT
BRANCH   1  17
HETATM   17  C2  UNL     1     -12.514   1.059   9.042  1.00  0.00     0.120 C 
HETATM   18  C1  UNL     1     -13.986   1.154   8.837  1.00  0.00     0.026 C 
ENDBRANCH   1  17
BRANCH  15  19
HETATM   19  C15 UNL     1     -11.840   4.248   8.960  1.00  0.00     0.145 C 
HETATM   20 CL1  UNL     1     -11.790   4.706  10.638  1.00  0.00    -0.128 Cl
ENDBRANCH  15  19
BRANCH   9  21
HETATM   21  O1  UNL     1     -13.447   2.755   3.059  1.00  0.00    -0.396 OA
ATOM     22  H1  UNL     1     -14.347   2.727   3.363  1.00  0.00     0.210 HD
ENDBRANCH   9  21
TORSDOF 3
ENDMDL
MODEL 3
REMARK VINA RESULT: -5.469461092      2.719      4.931
REMARK  3 active torsions:
REMARK  status: ('A' for Active; 'I' for Inactive)
REMARK    1  A    between atoms: C2_2  and  N1_3 
REMARK    2  A    between atoms: C7_11  and  O1_12 
REMARK    3  A    between atoms: C13_19  and  C15_21 
ROOT
HETATM    1  N1  UNL     1     -11.148   3.012   6.700  1.00  0.00    -0.360 N 
HETATM    2  C3  UNL     1     -10.786   3.840   5.556  1.00  0.00     0.086 C 
HETATM    3  N2  UNL     1     -10.098   4.879   5.707  1.00  0.00    -0.388 N 
ATOM      4  H21 UNL     1      -9.846   5.459   4.907  1.00  0.00     0.157 HD
ATOM      5  H22 UNL     1      -9.831   5.101   6.666  1.00  0.00     0.157 HD
HETATM    6  C4  UNL     1     -11.172   3.520   4.170  1.00  0.00     0.040 C 
HETATM    7  C5  UNL     1     -12.142   4.658   3.768  1.00  0.00     0.029 C 
HETATM    8  C6  UNL     1     -10.040   3.634   3.199  1.00  0.00     0.053 C 
HETATM    9  C7  UNL     1      -9.262   2.419   2.903  1.00  0.00     0.119 C 
HETATM   10  C8  UNL     1      -9.889   1.356   2.091  1.00  0.00     0.035 C 
HETATM   11  C9  UNL     1     -11.342   1.564   1.775  1.00  0.00     0.030 C 
HETATM   12  C10 UNL     1     -12.059   1.433   3.095  1.00  0.00    -0.023 C 
HETATM   13  C11 UNL     1     -11.958   2.296   4.095  1.00  0.00    -0.066 C 
HETATM   14  C12 UNL     1     -12.794   1.896   5.240  1.00  0.00     0.067 C 
HETATM   15  C13 UNL     1     -12.009   1.901   6.552  1.00  0.00     0.046 C 
HETATM   16  C14 UNL     1     -13.192   2.163   7.596  1.00  0.00     0.040 C 
ENDROOT
BRANCH   1  17
HETATM   17  C2  UNL     1     -10.529   3.382   7.944  1.00  0.00     0.120 C 
HETATM   18  C1  UNL     1     -11.434   3.971   8.971  1.00  0.00     0.026 C 
ENDBRANCH   1  17
BRANCH  15  19
HETATM   19  C15 UNL     1     -11.628   0.517   6.840  1.00  0.00     0.145 C 
HETATM   20 CL1  UNL     1      -9.944   0.077   6.889  1.00  0.00    -0.128 Cl
ENDBRANCH  15  19
BRANCH   9  21
HETATM   21  O1  UNL     1      -8.130   2.851   2.156  1.00  0.00    -0.396 OA
ATOM     22  H1  UNL     1      -7.676   2.061   1.887  1.00  0.00     0.210 HD
ENDBRANCH   9  21
TORSDOF 3
ENDMDL
MODEL 4
REMARK VINA RESULT: -5.396236961      2.750      5.228
REMARK  3 active torsions:
REMARK  status: ('A' for Active; 'I' for Inactive)
REMARK    1  A    between atoms: C2_2  and  N1_3 
REMARK    2  A    between atoms: C7_11  and  O1_12 
REMARK    3  A    between atoms: C13_19  and  C15_21 
ROOT
HETATM    1  N1  UNL     1     -11.992   1.678   5.880  1.00  0.00    -0.360 N 
HETATM    2  C3  UNL     1     -12.492   1.918   4.532  1.00  0.00     0.086 C 
HETATM    3  N2  UNL     1     -13.628   1.512   4.187  1.00  0.00    -0.388 N 
ATOM      4  H21 UNL     1     -13.978   1.679   3.244  1.00  0.00     0.157 HD
ATOM      5  H22 UNL     1     -14.155   1.004   4.898  1.00  0.00     0.157 HD
HETATM    6  C4  UNL     1     -11.732   2.651   3.505  1.00  0.00     0.040 C 
HETATM    7  C5  UNL     1     -11.424   1.589   2.422  1.00  0.00     0.029 C 
HETATM    8  C6  UNL     1     -12.544   3.686   2.793  1.00  0.00     0.053 C 
HETATM    9  C7  UNL     1     -12.515   5.063   3.313  1.00  0.00     0.119 C 
HETATM   10  C8  UNL     1     -11.287   5.863   3.132  1.00  0.00     0.035 C 
HETATM   11  C9  UNL     1     -10.116   5.118   2.559  1.00  0.00     0.030 C 
HETATM   12  C10 UNL     1      -9.709   4.133   3.627  1.00  0.00    -0.023 C 
HETATM   13  C11 UNL     1     -10.433   3.088   4.000  1.00  0.00    -0.066 C 
HETATM   14  C12 UNL     1      -9.756   2.311   5.052  1.00  0.00     0.067 C 
HETATM   15  C13 UNL     1     -10.675   2.037   6.243  1.00  0.00     0.046 C 
HETATM   16  C14 UNL     1     -10.025   0.688   6.805  1.00  0.00     0.040 C 
ENDROOT
BRANCH   1  17
HETATM   17  C2  UNL     1     -12.944   1.108   6.795  1.00  0.00     0.120 C 
HETATM   18  C1  UNL     1     -13.659   2.074   7.676  1.00  0.00     0.026 C 
ENDBRANCH   1  17
BRANCH  15  19
HETATM   19  C15 UNL     1     -10.342   3.010   7.286  1.00  0.00     0.145 C 
HETATM   20 CL1  UNL     1     -10.326   2.516   8.955  1.00  0.00    -0.128 Cl
ENDBRANCH  15  19
BRANCH   9  21
HETATM   21  O1  UNL     1     -13.535   5.769   2.614  1.00  0.00    -0.396 OA
ATOM     22  H1  UNL     1     -13.276   5.767   1.700  1.00  0.00     0.210 HD
ENDBRANCH   9  21
TORSDOF 3
ENDMDL
MODEL 5
REMARK VINA RESULT: -5.153418160      2.785      4.348
REMARK  3 active torsions:
REMARK  status: ('A' for Active; 'I' for Inactive)
REMARK    1  A    between atoms: C2_2  and  N1_3 
REMARK    2  A    between atoms: C7_11  and  O1_12 
REMARK    3  A    between atoms: C13_19  and  C15_21 
ROOT
HETATM    1  N1  UNL     1     -12.153   1.741   6.885  1.00  0.00    -0.360 N 
HETATM    2  C3  UNL     1     -12.720   2.422   8.043  1.00  0.00     0.086 C 
HETATM    3  N2  UNL     1     -13.936   2.302   8.327  1.00  0.00    -0.388 N 
ATOM      4  H21 UNL     1     -14.333   2.779   9.137  1.00  0.00     0.157 HD
ATOM      5  H22 UNL     1     -14.486   1.719   7.696  1.00  0.00     0.157 HD
HETATM    6  C4  UNL     1     -11.926   3.265   8.954  1.00  0.00     0.040 C 
HETATM    7  C5  UNL     1     -12.489   4.692   8.747  1.00  0.00     0.029 C 
HETATM    8  C6  UNL     1     -12.175   2.971  10.400  1.00  0.00     0.053 C 
HETATM    9  C7  UNL     1     -11.289   2.004  11.069  1.00  0.00     0.119 C 
HETATM   10  C8  UNL     1      -9.897   2.403  11.361  1.00  0.00     0.035 C 
HETATM   11  C9  UNL     1      -9.478   3.728  10.793  1.00  0.00     0.030 C 
HETATM   12  C10 UNL     1      -9.454   3.531   9.298  1.00  0.00    -0.023 C 
HETATM   13  C11 UNL     1     -10.529   3.337   8.548  1.00  0.00    -0.066 C 
HETATM   14  C12 UNL     1     -10.176   3.197   7.126  1.00  0.00     0.067 C 
HETATM   15  C13 UNL     1     -10.812   1.956   6.497  1.00  0.00     0.046 C 
HETATM   16  C14 UNL     1     -10.899   2.418   4.969  1.00  0.00     0.040 C 
ENDROOT
BRANCH   1  17
HETATM   17  C2  UNL     1     -13.038   0.820   6.222  1.00  0.00     0.120 C 
HETATM   18  C1  UNL     1     -13.898   1.399   5.153  1.00  0.00     0.026 C 
ENDBRANCH   1  17
BRANCH  15  19
HETATM   19  C15 UNL     1      -9.787   0.910   6.457  1.00  0.00     0.145 C 
HETATM   20 CL1  UNL     1      -9.592  -0.160   7.816  1.00  0.00    -0.128 Cl
ENDBRANCH  15  19
BRANCH   9  21
HETATM   21  O1  UNL     1     -11.883   1.739  12.335  1.00  0.00    -0.396 OA
ATOM     22  H1  UNL     1     -11.191   1.847  12.977  1.00  0.00     0.210 HD
ENDBRANCH   9  21
TORSDOF 3
ENDMDL
