MODEL 1
REMARK VINA RESULT: -8.710113356      0.000      0.000
REMARK  5 active torsions:
REMARK  status: ('A' for Active; 'I' for Inactive)
REMARK    1  A    between atoms: C9_9  and  C10_10 
REMARK    2  A    between atoms: C10_10  and  N1_11 
REMARK       I    between atoms: N1_11  and  C11_13 
REMARK       I    between atoms: C11_13  and  N2_15 
REMARK    3  A    between atoms: N2_15  and  C12_17 
REMARK    4  A    between atoms: C12_17  and  C13_19 
REMARK       I    between atoms: C13_19  and  N3_21 
REMARK    5  A    between atoms: C19_27  and  C20_28 
REMARK       I    between atoms: C20_28  and  N4_30 
ROOT
HETATM    1  C1  UNL     1       2.303   8.758  -2.540  1.00  0.00     0.015 C 
HETATM    2  C2  UNL     1       2.965   9.839  -2.184  1.00  0.00    -0.080 C 
HETATM    3  C3  UNL     1       2.315  10.920  -1.348  1.00  0.00     0.034 C 
HETATM    4  C4  UNL     1       3.384  11.277  -0.362  1.00  0.00     0.005 C 
HETATM    5  C5  UNL     1       4.675  10.783  -0.976  1.00  0.00     0.015 C 
HETATM    6  C6  UNL     1       4.322  10.341  -2.397  1.00  0.00    -0.010 C 
HETATM    7  C7  UNL     1       4.380  11.502  -3.346  1.00  0.00     0.001 C 
HETATM    8  C8  UNL     1       4.309  10.997  -4.797  1.00  0.00     0.020 C 
HETATM    9  C9  UNL     1       5.397  10.059  -5.133  1.00  0.00    -0.006 C 
HETATM   10  C16 UNL     1       5.363   8.864  -4.168  1.00  0.00     0.020 C 
HETATM   11  C17 UNL     1       5.361   9.344  -2.777  1.00  0.00     0.001 C 
HETATM   12  C18 UNL     1       6.709  10.066  -2.572  1.00  0.00     0.025 C 
HETATM   13  C19 UNL     1       6.786  11.254  -3.475  1.00  0.00     0.043 C 
HETATM   14  C22 UNL     1       5.680  12.253  -3.252  1.00  0.00     0.025 C 
HETATM   15  C23 UNL     1       6.716  10.799  -4.904  1.00  0.00     0.034 C 
ENDROOT
BRANCH   9  16
HETATM   16  C10 UNL     1       5.366   9.458  -6.485  1.00  0.00     0.075 C 
BRANCH  16  17
HETATM   17  N1  UNL     1       5.171  10.208  -7.651  1.00  0.00    -0.322 N 
HETATM   18  C11 UNL     1       5.673  10.026  -8.940  1.00  0.00     0.322 C 
HETATM   19  O1  UNL     1       6.459   9.130  -9.265  1.00  0.00    -0.247 OA
HETATM   20  N2  UNL     1       5.291  10.911 -10.029  1.00  0.00    -0.304 N 
ATOM     21  H2  UNL     1       4.645  11.679  -9.845  1.00  0.00     0.167 HD
ATOM     22  H1  UNL     1       4.562  11.019  -7.541  1.00  0.00     0.169 HD
BRANCH  20  23
HETATM   23  C12 UNL     1       5.806  10.726 -11.359  1.00  0.00     0.366 C 
HETATM   24  F1  UNL     1       5.412   9.473 -11.824  1.00  0.00    -0.216 F 
BRANCH  23  25
HETATM   25  C13 UNL     1       5.377  11.789 -12.289  1.00  0.00     0.273 C 
HETATM   26  O2  UNL     1       4.594  12.674 -11.883  1.00  0.00    -0.268 OA
HETATM   27  N3  UNL     1       5.830  11.828 -13.627  1.00  0.00    -0.357 N 
HETATM   28  C14 UNL     1       6.734  10.817 -14.124  1.00  0.00     0.152 C 
HETATM   29  C15 UNL     1       5.394  12.880 -14.519  1.00  0.00     0.152 C 
ENDBRANCH  23  25
ENDBRANCH  20  23
ENDBRANCH  16  17
ENDBRANCH   9  16
BRANCH  13  30
HETATM   30  C20 UNL     1       8.075  11.953  -3.241  1.00  0.00     0.226 C 
HETATM   31  O3  UNL     1       8.775  12.327  -4.220  1.00  0.00    -0.273 OA
HETATM   32  N4  UNL     1       8.501  12.193  -1.923  1.00  0.00    -0.365 N 
HETATM   33  C21 UNL     1       9.746  12.869  -1.601  1.00  0.00     0.149 C 
ATOM     34  H4  UNL     1       7.908  11.877  -1.156  1.00  0.00     0.161 HD
ENDBRANCH  13  30
TORSDOF 5
ENDMDL
MODEL 2
REMARK VINA RESULT: -8.479087304      1.143      1.336
REMARK  5 active torsions:
REMARK  status: ('A' for Active; 'I' for Inactive)
REMARK    1  A    between atoms: C9_9  and  C10_10 
REMARK    2  A    between atoms: C10_10  and  N1_11 
REMARK       I    between atoms: N1_11  and  C11_13 
REMARK       I    between atoms: C11_13  and  N2_15 
REMARK    3  A    between atoms: N2_15  and  C12_17 
REMARK    4  A    between atoms: C12_17  and  C13_19 
REMARK       I    between atoms: C13_19  and  N3_21 
REMARK    5  A    between atoms: C19_27  and  C20_28 
REMARK       I    between atoms: C20_28  and  N4_30 
ROOT
HETATM    1  C1  UNL     1       2.211   8.931  -2.367  1.00  0.00     0.015 C 
HETATM    2  C2  UNL     1       2.850  10.067  -2.174  1.00  0.00    -0.080 C 
HETATM    3  C3  UNL     1       2.136  11.288  -1.636  1.00  0.00     0.034 C 
HETATM    4  C4  UNL     1       3.113  11.844  -0.647  1.00  0.00     0.005 C 
HETATM    5  C5  UNL     1       4.450  11.248  -1.026  1.00  0.00     0.015 C 
HETATM    6  C6  UNL     1       4.226  10.527  -2.357  1.00  0.00    -0.010 C 
HETATM    7  C7  UNL     1       4.383  11.474  -3.509  1.00  0.00     0.001 C 
HETATM    8  C8  UNL     1       4.441  10.688  -4.829  1.00  0.00     0.020 C 
HETATM    9  C9  UNL     1       5.546   9.711  -4.868  1.00  0.00    -0.006 C 
HETATM   10  C16 UNL     1       5.410   8.734  -3.691  1.00  0.00     0.020 C 
HETATM   11  C17 UNL     1       5.285   9.483  -2.431  1.00  0.00     0.001 C 
HETATM   12  C18 UNL     1       6.615  10.243  -2.250  1.00  0.00     0.025 C 
HETATM   13  C19 UNL     1       6.788  11.226  -3.362  1.00  0.00     0.043 C 
HETATM   14  C22 UNL     1       5.677  12.240  -3.448  1.00  0.00     0.025 C 
HETATM   15  C23 UNL     1       6.846  10.492  -4.671  1.00  0.00     0.034 C 
ENDROOT
BRANCH   9  16
HETATM   16  C10 UNL     1       5.634   8.851  -6.069  1.00  0.00     0.075 C 
BRANCH  16  17
HETATM   17  N1  UNL     1       4.999   9.157  -7.279  1.00  0.00    -0.322 N 
HETATM   18  C11 UNL     1       5.346  10.066  -8.280  1.00  0.00     0.322 C 
HETATM   19  O1  UNL     1       6.319  10.824  -8.230  1.00  0.00    -0.247 OA
HETATM   20  N2  UNL     1       4.556  10.184  -9.495  1.00  0.00    -0.304 N 
ATOM     21  H2  UNL     1       3.733   9.594  -9.615  1.00  0.00     0.167 HD
ATOM     22  H1  UNL     1       4.143   8.632  -7.457  1.00  0.00     0.169 HD
BRANCH  20  23
HETATM   23  C12 UNL     1       4.911  11.118 -10.530  1.00  0.00     0.366 C 
HETATM   24  F1  UNL     1       5.339  12.305  -9.938  1.00  0.00    -0.216 F 
BRANCH  23  25
HETATM   25  C13 UNL     1       5.939  10.590 -11.447  1.00  0.00     0.273 C 
HETATM   26  O2  UNL     1       6.647   9.628 -11.078  1.00  0.00    -0.268 OA
HETATM   27  N3  UNL     1       6.141  11.145 -12.731  1.00  0.00    -0.357 N 
HETATM   28  C14 UNL     1       5.337  12.256 -13.183  1.00  0.00     0.152 C 
HETATM   29  C15 UNL     1       7.156  10.608 -13.611  1.00  0.00     0.152 C 
ENDBRANCH  23  25
ENDBRANCH  20  23
ENDBRANCH  16  17
ENDBRANCH   9  16
BRANCH  13  30
HETATM   30  C20 UNL     1       8.057  11.968  -3.155  1.00  0.00     0.226 C 
HETATM   31  O3  UNL     1       8.771  12.283  -4.144  1.00  0.00    -0.273 OA
HETATM   32  N4  UNL     1       8.449  12.315  -1.850  1.00  0.00    -0.365 N 
HETATM   33  C21 UNL     1       9.672  13.040  -1.553  1.00  0.00     0.149 C 
ATOM     34  H4  UNL     1       7.845  12.044  -1.073  1.00  0.00     0.161 HD
ENDBRANCH  13  30
TORSDOF 5
ENDMDL
MODEL 3
REMARK VINA RESULT: -8.263680076      2.190      3.038
REMARK  5 active torsions:
REMARK  status: ('A' for Active; 'I' for Inactive)
REMARK    1  A    between atoms: C9_9  and  C10_10 
REMARK    2  A    between atoms: C10_10  and  N1_11 
REMARK       I    between atoms: N1_11  and  C11_13 
REMARK       I    between atoms: C11_13  and  N2_15 
REMARK    3  A    between atoms: N2_15  and  C12_17 
REMARK    4  A    between atoms: C12_17  and  C13_19 
REMARK       I    between atoms: C13_19  and  N3_21 
REMARK    5  A    between atoms: C19_27  and  C20_28 
REMARK       I    between atoms: C20_28  and  N4_30 
ROOT
HETATM    1  C1  UNL     1       6.539   8.654  -0.977  1.00  0.00     0.015 C 
HETATM    2  C2  UNL     1       5.422   9.339  -0.849  1.00  0.00    -0.080 C 
HETATM    3  C3  UNL     1       4.441   9.043   0.265  1.00  0.00     0.034 C 
HETATM    4  C4  UNL     1       4.038  10.406   0.735  1.00  0.00     0.005 C 
HETATM    5  C5  UNL     1       4.388  11.341  -0.401  1.00  0.00     0.015 C 
HETATM    6  C6  UNL     1       4.794  10.444  -1.573  1.00  0.00    -0.010 C 
HETATM    7  C7  UNL     1       3.590  10.024  -2.363  1.00  0.00     0.001 C 
HETATM    8  C8  UNL     1       4.032   9.372  -3.684  1.00  0.00     0.020 C 
HETATM    9  C9  UNL     1       4.855  10.268  -4.519  1.00  0.00    -0.006 C 
HETATM   10  C16 UNL     1       6.092  10.718  -3.727  1.00  0.00     0.020 C 
HETATM   11  C17 UNL     1       5.678  11.280  -2.431  1.00  0.00     0.001 C 
HETATM   12  C18 UNL     1       4.851  12.542  -2.755  1.00  0.00     0.025 C 
HETATM   13  C19 UNL     1       3.621  12.156  -3.510  1.00  0.00     0.043 C 
HETATM   14  C22 UNL     1       2.734  11.193  -2.766  1.00  0.00     0.025 C 
HETATM   15  C23 UNL     1       4.015  11.513  -4.809  1.00  0.00     0.034 C 
ENDROOT
BRANCH   9  16
HETATM   16  C10 UNL     1       5.394   9.701  -5.775  1.00  0.00     0.075 C 
BRANCH  16  17
HETATM   17  N1  UNL     1       5.135  10.252  -7.036  1.00  0.00    -0.322 N 
HETATM   18  C11 UNL     1       5.617   9.897  -8.297  1.00  0.00     0.322 C 
HETATM   19  O1  UNL     1       6.440   9.000  -8.504  1.00  0.00    -0.247 OA
HETATM   20  N2  UNL     1       5.166  10.585  -9.496  1.00  0.00    -0.304 N 
ATOM     21  H2  UNL     1       4.486  11.341  -9.412  1.00  0.00     0.167 HD
ATOM     22  H1  UNL     1       4.489  11.041  -7.033  1.00  0.00     0.169 HD
BRANCH  20  23
HETATM   23  C12 UNL     1       5.660  10.222 -10.797  1.00  0.00     0.366 C 
HETATM   24  F1  UNL     1       5.049   9.035 -11.195  1.00  0.00    -0.216 F 
BRANCH  23  25
HETATM   25  C13 UNL     1       5.450  11.281 -11.803  1.00  0.00     0.273 C 
HETATM   26  O2  UNL     1       4.690  12.236 -11.532  1.00  0.00    -0.268 OA
HETATM   27  N3  UNL     1       6.087  11.241 -13.064  1.00  0.00    -0.357 N 
HETATM   28  C14 UNL     1       6.969  10.149 -13.404  1.00  0.00     0.152 C 
HETATM   29  C15 UNL     1       5.863  12.291 -14.033  1.00  0.00     0.152 C 
ENDBRANCH  23  25
ENDBRANCH  20  23
ENDBRANCH  16  17
ENDBRANCH   9  16
BRANCH  13  30
HETATM   30  C20 UNL     1       2.823  13.378  -3.787  1.00  0.00     0.226 C 
HETATM   31  O3  UNL     1       1.595  13.282  -4.049  1.00  0.00    -0.273 OA
HETATM   32  N4  UNL     1       3.452  14.635  -3.751  1.00  0.00    -0.365 N 
HETATM   33  C21 UNL     1       2.752  15.882  -4.007  1.00  0.00     0.149 C 
ATOM     34  H4  UNL     1       4.448  14.674  -3.535  1.00  0.00     0.161 HD
ENDBRANCH  13  30
TORSDOF 5
ENDMDL
MODEL 4
REMARK VINA RESULT: -8.249164497      2.390      3.502
REMARK  5 active torsions:
REMARK  status: ('A' for Active; 'I' for Inactive)
REMARK    1  A    between atoms: C9_9  and  C10_10 
REMARK    2  A    between atoms: C10_10  and  N1_11 
REMARK       I    between atoms: N1_11  and  C11_13 
REMARK       I    between atoms: C11_13  and  N2_15 
REMARK    3  A    between atoms: N2_15  and  C12_17 
REMARK    4  A    between atoms: C12_17  and  C13_19 
REMARK       I    between atoms: C13_19  and  N3_21 
REMARK    5  A    between atoms: C19_27  and  C20_28 
REMARK       I    between atoms: C20_28  and  N4_30 
ROOT
HETATM    1  C1  UNL     1       3.522  14.147  -3.952  1.00  0.00     0.015 C 
HETATM    2  C2  UNL     1       3.526  13.370  -2.889  1.00  0.00    -0.080 C 
HETATM    3  C3  UNL     1       3.605  13.949  -1.493  1.00  0.00     0.034 C 
HETATM    4  C4  UNL     1       2.612  13.129  -0.729  1.00  0.00     0.005 C 
HETATM    5  C5  UNL     1       2.413  11.873  -1.548  1.00  0.00     0.015 C 
HETATM    6  C6  UNL     1       3.464  11.927  -2.659  1.00  0.00    -0.010 C 
HETATM    7  C7  UNL     1       4.766  11.348  -2.189  1.00  0.00     0.001 C 
HETATM    8  C8  UNL     1       5.711  11.145  -3.384  1.00  0.00     0.020 C 
HETATM    9  C9  UNL     1       5.147  10.257  -4.419  1.00  0.00    -0.006 C 
HETATM   10  C16 UNL     1       3.808  10.826  -4.911  1.00  0.00     0.020 C 
HETATM   11  C17 UNL     1       2.923  11.088  -3.764  1.00  0.00     0.001 C 
HETATM   12  C18 UNL     1       2.635   9.713  -3.124  1.00  0.00     0.025 C 
HETATM   13  C19 UNL     1       3.906   9.122  -2.607  1.00  0.00     0.043 C 
HETATM   14  C22 UNL     1       4.598   9.981  -1.581  1.00  0.00     0.025 C 
HETATM   15  C23 UNL     1       4.858   8.912  -3.750  1.00  0.00     0.034 C 
ENDROOT
BRANCH   9  16
HETATM   16  C10 UNL     1       5.952  10.065  -5.646  1.00  0.00     0.075 C 
BRANCH  16  17
HETATM   17  N1  UNL     1       5.543  10.514  -6.907  1.00  0.00    -0.322 N 
HETATM   18  C11 UNL     1       5.897  10.075  -8.184  1.00  0.00     0.322 C 
HETATM   19  O1  UNL     1       6.718   9.182  -8.414  1.00  0.00    -0.247 OA
HETATM   20  N2  UNL     1       5.300  10.662  -9.373  1.00  0.00    -0.304 N 
ATOM     21  H2  UNL     1       4.613  11.408  -9.271  1.00  0.00     0.167 HD
ATOM     22  H1  UNL     1       4.879  11.288  -6.891  1.00  0.00     0.169 HD
BRANCH  20  23
HETATM   23  C12 UNL     1       5.661  10.212 -10.691  1.00  0.00     0.366 C 
HETATM   24  F1  UNL     1       4.953   9.047 -10.978  1.00  0.00    -0.216 F 
BRANCH  23  25
HETATM   25  C13 UNL     1       5.428  11.236 -11.727  1.00  0.00     0.273 C 
HETATM   26  O2  UNL     1       4.629  12.169 -11.493  1.00  0.00    -0.268 OA
HETATM   27  N3  UNL     1       6.084  11.187 -12.978  1.00  0.00    -0.357 N 
HETATM   28  C14 UNL     1       7.011  10.120 -13.276  1.00  0.00     0.152 C 
HETATM   29  C15 UNL     1       5.837  12.202 -13.977  1.00  0.00     0.152 C 
ENDBRANCH  23  25
ENDBRANCH  20  23
ENDBRANCH  16  17
ENDBRANCH   9  16
BRANCH  13  30
HETATM   30  C20 UNL     1       3.605   7.816  -1.968  1.00  0.00     0.226 C 
HETATM   31  O3  UNL     1       2.435   7.351  -2.007  1.00  0.00    -0.273 OA
HETATM   32  N4  UNL     1       4.635   7.109  -1.325  1.00  0.00    -0.365 N 
HETATM   33  C21 UNL     1       4.433   5.826  -0.675  1.00  0.00     0.149 C 
ATOM     34  H4  UNL     1       5.570   7.516  -1.314  1.00  0.00     0.161 HD
ENDBRANCH  13  30
TORSDOF 5
ENDMDL
MODEL 5
REMARK VINA RESULT: -8.054216813      2.268      3.196
REMARK  5 active torsions:
REMARK  status: ('A' for Active; 'I' for Inactive)
REMARK    1  A    between atoms: C9_9  and  C10_10 
REMARK    2  A    between atoms: C10_10  and  N1_11 
REMARK       I    between atoms: N1_11  and  C11_13 
REMARK       I    between atoms: C11_13  and  N2_15 
REMARK    3  A    between atoms: N2_15  and  C12_17 
REMARK    4  A    between atoms: C12_17  and  C13_19 
REMARK       I    between atoms: C13_19  and  N3_21 
REMARK    5  A    between atoms: C19_27  and  C20_28 
REMARK       I    between atoms: C20_28  and  N4_30 
ROOT
HETATM    1  C1  UNL     1       6.450   7.949  -0.908  1.00  0.00     0.015 C 
HETATM    2  C2  UNL     1       5.361   8.684  -0.819  1.00  0.00    -0.080 C 
HETATM    3  C3  UNL     1       4.330   8.432   0.260  1.00  0.00     0.034 C 
HETATM    4  C4  UNL     1       3.971   9.813   0.716  1.00  0.00     0.005 C 
HETATM    5  C5  UNL     1       4.401  10.729  -0.408  1.00  0.00     0.015 C 
HETATM    6  C6  UNL     1       4.808   9.814  -1.564  1.00  0.00    -0.010 C 
HETATM    7  C7  UNL     1       3.615   9.446  -2.397  1.00  0.00     0.001 C 
HETATM    8  C8  UNL     1       4.075   8.774  -3.701  1.00  0.00     0.020 C 
HETATM    9  C9  UNL     1       4.965   9.631  -4.507  1.00  0.00    -0.006 C 
HETATM   10  C16 UNL     1       6.191  10.028  -3.671  1.00  0.00     0.020 C 
HETATM   11  C17 UNL     1       5.757  10.609  -2.391  1.00  0.00     0.001 C 
HETATM   12  C18 UNL     1       4.998  11.906  -2.744  1.00  0.00     0.025 C 
HETATM   13  C19 UNL     1       3.780  11.574  -3.541  1.00  0.00     0.043 C 
HETATM   14  C22 UNL     1       2.825  10.651  -2.829  1.00  0.00     0.025 C 
HETATM   15  C23 UNL     1       4.190  10.912  -4.826  1.00  0.00     0.034 C 
ENDROOT
BRANCH   9  16
HETATM   16  C10 UNL     1       5.522   9.040  -5.743  1.00  0.00     0.075 C 
BRANCH  16  17
HETATM   17  N1  UNL     1       4.960   9.244  -7.010  1.00  0.00    -0.322 N 
HETATM   18  C11 UNL     1       5.322  10.124  -8.031  1.00  0.00     0.322 C 
HETATM   19  O1  UNL     1       6.238  10.948  -7.952  1.00  0.00    -0.247 OA
HETATM   20  N2  UNL     1       4.618  10.130  -9.303  1.00  0.00    -0.304 N 
ATOM     21  H2  UNL     1       3.846   9.480  -9.450  1.00  0.00     0.167 HD
ATOM     22  H1  UNL     1       4.155   8.654  -7.220  1.00  0.00     0.169 HD
BRANCH  20  23
HETATM   23  C12 UNL     1       4.989  11.035 -10.358  1.00  0.00     0.366 C 
HETATM   24  F1  UNL     1       5.403  12.239  -9.794  1.00  0.00    -0.216 F 
BRANCH  23  25
HETATM   25  C13 UNL     1       6.034  10.483 -11.242  1.00  0.00     0.273 C 
HETATM   26  O2  UNL     1       6.758   9.554 -10.822  1.00  0.00    -0.268 OA
HETATM   27  N3  UNL     1       6.238  10.981 -12.548  1.00  0.00    -0.357 N 
HETATM   28  C14 UNL     1       5.417  12.055 -13.058  1.00  0.00     0.152 C 
HETATM   29  C15 UNL     1       7.270  10.423 -13.394  1.00  0.00     0.152 C 
ENDBRANCH  23  25
ENDBRANCH  20  23
ENDBRANCH  16  17
ENDBRANCH   9  16
BRANCH  13  30
HETATM   30  C20 UNL     1       3.047  12.829  -3.845  1.00  0.00     0.226 C 
HETATM   31  O3  UNL     1       1.895  12.778  -4.354  1.00  0.00    -0.273 OA
HETATM   32  N4  UNL     1       3.649  14.066  -3.558  1.00  0.00    -0.365 N 
HETATM   33  C21 UNL     1       3.007  15.343  -3.821  1.00  0.00     0.149 C 
ATOM     34  H4  UNL     1       4.582  14.068  -3.146  1.00  0.00     0.161 HD
ENDBRANCH  13  30
TORSDOF 5
ENDMDL
