MODEL 1
REMARK VINA RESULT: -7.366931084      0.000      0.000
REMARK  5 active torsions:
REMARK  status: ('A' for Active; 'I' for Inactive)
REMARK    1  A    between atoms: C2_2  and  C3_3 
REMARK    2  A    between atoms: C2_2  and  C4_5 
REMARK    3  A    between atoms: C4_5  and  N1_6 
REMARK    4  A    between atoms: C4_5  and  C16_20 
REMARK       I    between atoms: N1_6  and  C5_8 
REMARK    5  A    between atoms: C5_8  and  C6_10 
REMARK       I    between atoms: C16_20  and  N2_22 
REMARK       I    between atoms: N3_25  and  C19_26 
ROOT
HETATM    1  C4  UNL     1       6.257  10.047  -3.363  1.00  0.00     0.181 C 
ENDROOT
BRANCH   1   2
HETATM    2  C2  UNL     1       5.152   9.503  -2.500  1.00  0.00     0.027 C 
HETATM    3  C1  UNL     1       5.723   8.417  -1.610  1.00  0.00     0.014 C 
BRANCH   2   4
HETATM    4  C3  UNL     1       3.884   9.150  -3.178  1.00  0.00     0.121 C 
HETATM    5 CL1  UNL     1       2.667  10.413  -3.259  1.00  0.00    -0.130 Cl
ENDBRANCH   2   4
ENDBRANCH   1   2
BRANCH   1   6
HETATM    6  N1  UNL     1       5.868  10.006  -4.771  1.00  0.00    -0.347 N 
HETATM    7  C5  UNL     1       6.822  10.097  -5.822  1.00  0.00     0.227 C 
HETATM    8  O1  UNL     1       8.028  10.216  -5.485  1.00  0.00    -0.273 OA
ATOM      9  H1  UNL     1       4.881   9.910  -5.008  1.00  0.00     0.163 HD
BRANCH   7  10
HETATM   10  C6  UNL     1       6.475  10.061  -7.243  1.00  0.00     0.042 C 
HETATM   11  C7  UNL     1       6.708   8.644  -7.785  1.00  0.00     0.024 C 
HETATM   12  C8  UNL     1       6.407   8.589  -9.254  1.00  0.00    -0.013 C 
HETATM   13  C9  UNL     1       4.980   8.997  -9.544  1.00  0.00     0.009 C 
HETATM   14  C13 UNL     1       7.364   9.504  -9.971  1.00  0.00     0.009 C 
HETATM   15  C10 UNL     1       4.778  10.378  -8.973  1.00  0.00    -0.013 C 
HETATM   16  C11 UNL     1       5.689  11.326  -9.713  1.00  0.00     0.009 C 
HETATM   17  C15 UNL     1       5.015  10.373  -7.497  1.00  0.00     0.024 C 
HETATM   18  C12 UNL     1       7.124  10.906  -9.504  1.00  0.00    -0.013 C 
HETATM   19  C14 UNL     1       7.390  10.962  -8.013  1.00  0.00     0.024 C 
ENDBRANCH   7  10
ENDBRANCH   1   6
BRANCH   1  20
HETATM   20  C16 UNL     1       6.512  11.457  -2.986  1.00  0.00     0.243 C 
HETATM   21  O2  UNL     1       5.555  12.294  -3.243  1.00  0.00    -0.271 OA
HETATM   22  N2  UNL     1       7.698  11.923  -2.387  1.00  0.00    -0.347 N 
HETATM   23  C17 UNL     1       8.801  11.076  -2.134  1.00  0.00     0.145 C 
HETATM   24  C21 UNL     1       7.763  13.331  -2.017  1.00  0.00     0.145 C 
HETATM   25  C18 UNL     1      10.147  11.752  -2.280  1.00  0.00     0.145 C 
HETATM   26  N3  UNL     1      10.110  13.173  -2.207  1.00  0.00    -0.353 N 
HETATM   27  C19 UNL     1      11.191  13.880  -1.633  1.00  0.00     0.184 C 
HETATM   28  C20 UNL     1       8.977  13.907  -2.716  1.00  0.00     0.145 C 
HETATM   29  N4  UNL     1      11.333  14.105  -0.374  1.00  0.00    -0.374 N 
HETATM   30  N5  UNL     1      12.197  14.382  -2.506  1.00  0.00    -0.064 NA
ATOM     31  H42 UNL     1      10.613  13.746   0.252  1.00  0.00     0.158 HD
ATOM     32  H41 UNL     1      12.113  14.616   0.041  1.00  0.00     0.158 HD
ENDBRANCH   1  20
TORSDOF 5
ENDMDL
MODEL 2
REMARK VINA RESULT: -7.313154158      1.427      2.071
REMARK  5 active torsions:
REMARK  status: ('A' for Active; 'I' for Inactive)
REMARK    1  A    between atoms: C2_2  and  C3_3 
REMARK    2  A    between atoms: C2_2  and  C4_5 
REMARK    3  A    between atoms: C4_5  and  N1_6 
REMARK    4  A    between atoms: C4_5  and  C16_20 
REMARK       I    between atoms: N1_6  and  C5_8 
REMARK    5  A    between atoms: C5_8  and  C6_10 
REMARK       I    between atoms: C16_20  and  N2_22 
REMARK       I    between atoms: N3_25  and  C19_26 
ROOT
HETATM    1  C4  UNL     1       4.900  10.356  -3.107  1.00  0.00     0.181 C 
ENDROOT
BRANCH   1   2
HETATM    2  C2  UNL     1       3.403  10.438  -3.006  1.00  0.00     0.027 C 
HETATM    3  C1  UNL     1       2.866   9.068  -2.644  1.00  0.00     0.014 C 
BRANCH   2   4
HETATM    4  C3  UNL     1       2.692  11.112  -4.116  1.00  0.00     0.121 C 
HETATM    5 CL1  UNL     1       2.583  12.862  -4.023  1.00  0.00    -0.130 Cl
ENDBRANCH   2   4
ENDBRANCH   1   2
BRANCH   1   6
HETATM    6  N1  UNL     1       5.328  10.563  -4.489  1.00  0.00    -0.347 N 
HETATM    7  C5  UNL     1       5.507   9.483  -5.396  1.00  0.00     0.227 C 
HETATM    8  O1  UNL     1       5.279   8.328  -4.955  1.00  0.00    -0.273 OA
ATOM      9  H1  UNL     1       5.505  11.514  -4.813  1.00  0.00     0.163 HD
BRANCH   7  10
HETATM   10  C6  UNL     1       5.934   9.649  -6.786  1.00  0.00     0.042 C 
HETATM   11  C7  UNL     1       7.113  10.630  -6.839  1.00  0.00     0.024 C 
HETATM   12  C8  UNL     1       7.541  10.857  -8.259  1.00  0.00    -0.013 C 
HETATM   13  C9  UNL     1       7.946   9.565  -8.931  1.00  0.00     0.009 C 
HETATM   14  C13 UNL     1       6.398  11.493  -9.006  1.00  0.00     0.009 C 
HETATM   15  C10 UNL     1       6.777   8.617  -8.834  1.00  0.00    -0.013 C 
HETATM   16  C11 UNL     1       5.633   9.206  -9.621  1.00  0.00     0.009 C 
HETATM   17  C15 UNL     1       6.432   8.359  -7.403  1.00  0.00     0.024 C 
HETATM   18  C12 UNL     1       5.246  10.537  -9.019  1.00  0.00    -0.013 C 
HETATM   19  C14 UNL     1       4.832  10.273  -7.586  1.00  0.00     0.024 C 
ENDBRANCH   7  10
ENDBRANCH   1   6
BRANCH   1  20
HETATM   20  C16 UNL     1       5.499  11.417  -2.264  1.00  0.00     0.243 C 
HETATM   21  O2  UNL     1       4.684  12.030  -1.462  1.00  0.00    -0.271 OA
HETATM   22  N2  UNL     1       6.857  11.787  -2.288  1.00  0.00    -0.347 N 
HETATM   23  C17 UNL     1       7.785  11.201  -3.178  1.00  0.00     0.145 C 
HETATM   24  C21 UNL     1       7.299  12.807  -1.345  1.00  0.00     0.145 C 
HETATM   25  C18 UNL     1       8.861  12.149  -3.662  1.00  0.00     0.145 C 
HETATM   26  N3  UNL     1       9.049  13.301  -2.849  1.00  0.00    -0.353 N 
HETATM   27  C19 UNL     1      10.338  13.862  -2.704  1.00  0.00     0.184 C 
HETATM   28  C20 UNL     1       7.934  13.910  -2.166  1.00  0.00     0.145 C 
HETATM   29  N4  UNL     1      11.217  13.469  -1.850  1.00  0.00    -0.374 N 
HETATM   30  N5  UNL     1      10.695  14.940  -3.562  1.00  0.00    -0.064 NA
ATOM     31  H42 UNL     1      10.962  12.696  -1.235  1.00  0.00     0.158 HD
ATOM     32  H41 UNL     1      12.147  13.874  -1.744  1.00  0.00     0.158 HD
ENDBRANCH   1  20
TORSDOF 5
ENDMDL
MODEL 3
REMARK VINA RESULT: -7.280827829      1.417      1.589
REMARK  5 active torsions:
REMARK  status: ('A' for Active; 'I' for Inactive)
REMARK    1  A    between atoms: C2_2  and  C3_3 
REMARK    2  A    between atoms: C2_2  and  C4_5 
REMARK    3  A    between atoms: C4_5  and  N1_6 
REMARK    4  A    between atoms: C4_5  and  C16_20 
REMARK       I    between atoms: N1_6  and  C5_8 
REMARK    5  A    between atoms: C5_8  and  C6_10 
REMARK       I    between atoms: C16_20  and  N2_22 
REMARK       I    between atoms: N3_25  and  C19_26 
ROOT
HETATM    1  C4  UNL     1       4.953  10.329  -3.102  1.00  0.00     0.181 C 
ENDROOT
BRANCH   1   2
HETATM    2  C2  UNL     1       3.457  10.392  -2.975  1.00  0.00     0.027 C 
HETATM    3  C1  UNL     1       2.943   9.013  -2.615  1.00  0.00     0.014 C 
BRANCH   2   4
HETATM    4  C3  UNL     1       2.718  11.067  -4.066  1.00  0.00     0.121 C 
HETATM    5 CL1  UNL     1       2.646  12.820  -3.989  1.00  0.00    -0.130 Cl
ENDBRANCH   2   4
ENDBRANCH   1   2
BRANCH   1   6
HETATM    6  N1  UNL     1       5.357  10.586  -4.484  1.00  0.00    -0.347 N 
HETATM    7  C5  UNL     1       5.515   9.538  -5.432  1.00  0.00     0.227 C 
HETATM    8  O1  UNL     1       5.291   8.368  -5.029  1.00  0.00    -0.273 OA
ATOM      9  H1  UNL     1       5.530  11.547  -4.776  1.00  0.00     0.163 HD
BRANCH   7  10
HETATM   10  C6  UNL     1       5.917   9.753  -6.822  1.00  0.00     0.042 C 
HETATM   11  C7  UNL     1       6.366   8.417  -7.431  1.00  0.00     0.024 C 
HETATM   12  C8  UNL     1       6.832   8.616  -8.843  1.00  0.00    -0.013 C 
HETATM   13  C9  UNL     1       5.744   9.209  -9.709  1.00  0.00     0.009 C 
HETATM   14  C13 UNL     1       8.033   9.525  -8.826  1.00  0.00     0.009 C 
HETATM   15  C10 UNL     1       5.306  10.502  -9.067  1.00  0.00    -0.013 C 
HETATM   16  C11 UNL     1       6.479  11.451  -9.086  1.00  0.00     0.009 C 
HETATM   17  C15 UNL     1       4.781  10.249  -7.691  1.00  0.00     0.024 C 
HETATM   18  C12 UNL     1       7.615  10.857  -8.287  1.00  0.00    -0.013 C 
HETATM   19  C14 UNL     1       7.108  10.660  -6.873  1.00  0.00     0.024 C 
ENDBRANCH   7  10
ENDBRANCH   1   6
BRANCH   1  20
HETATM   20  C16 UNL     1       5.555  11.370  -2.236  1.00  0.00     0.243 C 
HETATM   21  O2  UNL     1       4.747  11.947  -1.400  1.00  0.00    -0.271 OA
HETATM   22  N2  UNL     1       6.909  11.755  -2.270  1.00  0.00    -0.347 N 
HETATM   23  C17 UNL     1       7.827  11.209  -3.195  1.00  0.00     0.145 C 
HETATM   24  C21 UNL     1       7.355  12.749  -1.302  1.00  0.00     0.145 C 
HETATM   25  C18 UNL     1       8.885  12.184  -3.665  1.00  0.00     0.145 C 
HETATM   26  N3  UNL     1       9.074  13.312  -2.819  1.00  0.00    -0.353 N 
HETATM   27  C19 UNL     1      10.359  13.883  -2.677  1.00  0.00     0.184 C 
HETATM   28  C20 UNL     1       7.964  13.886  -2.098  1.00  0.00     0.145 C 
HETATM   29  N4  UNL     1      11.257  13.472  -1.851  1.00  0.00    -0.374 N 
HETATM   30  N5  UNL     1      10.690  14.992  -3.505  1.00  0.00    -0.064 NA
ATOM     31  H42 UNL     1      11.020  12.677  -1.257  1.00  0.00     0.158 HD
ATOM     32  H41 UNL     1      12.184  13.884  -1.748  1.00  0.00     0.158 HD
ENDBRANCH   1  20
TORSDOF 5
ENDMDL
MODEL 4
REMARK VINA RESULT: -7.191151703      0.148      1.381
REMARK  5 active torsions:
REMARK  status: ('A' for Active; 'I' for Inactive)
REMARK    1  A    between atoms: C2_2  and  C3_3 
REMARK    2  A    between atoms: C2_2  and  C4_5 
REMARK    3  A    between atoms: C4_5  and  N1_6 
REMARK    4  A    between atoms: C4_5  and  C16_20 
REMARK       I    between atoms: N1_6  and  C5_8 
REMARK    5  A    between atoms: C5_8  and  C6_10 
REMARK       I    between atoms: C16_20  and  N2_22 
REMARK       I    between atoms: N3_25  and  C19_26 
ROOT
HETATM    1  C4  UNL     1       6.200  10.076  -3.420  1.00  0.00     0.181 C 
ENDROOT
BRANCH   1   2
HETATM    2  C2  UNL     1       5.093   9.517  -2.569  1.00  0.00     0.027 C 
HETATM    3  C1  UNL     1       5.671   8.451  -1.661  1.00  0.00     0.014 C 
BRANCH   2   4
HETATM    4  C3  UNL     1       3.842   9.134  -3.263  1.00  0.00     0.121 C 
HETATM    5 CL1  UNL     1       2.590  10.362  -3.345  1.00  0.00    -0.130 Cl
ENDBRANCH   2   4
ENDBRANCH   1   2
BRANCH   1   6
HETATM    6  N1  UNL     1       5.835  10.011  -4.834  1.00  0.00    -0.347 N 
HETATM    7  C5  UNL     1       6.809  10.051  -5.869  1.00  0.00     0.227 C 
HETATM    8  O1  UNL     1       8.012  10.145  -5.513  1.00  0.00    -0.273 OA
ATOM      9  H1  UNL     1       4.850   9.936  -5.086  1.00  0.00     0.163 HD
BRANCH   7  10
HETATM   10  C6  UNL     1       6.486   9.989  -7.294  1.00  0.00     0.042 C 
HETATM   11  C7  UNL     1       7.362  10.994  -8.055  1.00  0.00     0.024 C 
HETATM   12  C8  UNL     1       7.016  10.988  -9.515  1.00  0.00    -0.013 C 
HETATM   13  C9  UNL     1       7.201   9.616 -10.124  1.00  0.00     0.009 C 
HETATM   14  C13 UNL     1       5.587  11.436  -9.670  1.00  0.00     0.009 C 
HETATM   15  C10 UNL     1       6.351   8.652  -9.335  1.00  0.00    -0.013 C 
HETATM   16  C11 UNL     1       4.906   9.047  -9.517  1.00  0.00     0.009 C 
HETATM   17  C15 UNL     1       6.777   8.633  -7.903  1.00  0.00     0.024 C 
HETATM   18  C12 UNL     1       4.700  10.445  -8.983  1.00  0.00    -0.013 C 
HETATM   19  C14 UNL     1       5.068  10.418  -7.513  1.00  0.00     0.024 C 
ENDBRANCH   7  10
ENDBRANCH   1   6
BRANCH   1  20
HETATM   20  C16 UNL     1       6.419  11.495  -3.055  1.00  0.00     0.243 C 
HETATM   21  O2  UNL     1       5.458  12.312  -3.357  1.00  0.00    -0.271 OA
HETATM   22  N2  UNL     1       7.576  11.988  -2.421  1.00  0.00    -0.347 N 
HETATM   23  C17 UNL     1       8.682  11.164  -2.117  1.00  0.00     0.145 C 
HETATM   24  C21 UNL     1       7.605  13.403  -2.069  1.00  0.00     0.145 C 
HETATM   25  C18 UNL     1      10.021  11.860  -2.226  1.00  0.00     0.145 C 
HETATM   26  N3  UNL     1       9.959  13.281  -2.175  1.00  0.00    -0.353 N 
HETATM   27  C19 UNL     1      11.008  14.014  -1.573  1.00  0.00     0.184 C 
HETATM   28  C20 UNL     1       8.833  13.989  -2.734  1.00  0.00     0.145 C 
HETATM   29  N4  UNL     1      11.102  14.259  -0.313  1.00  0.00    -0.374 N 
HETATM   30  N5  UNL     1      12.036  14.520  -2.418  1.00  0.00    -0.064 NA
ATOM     31  H42 UNL     1      10.365  13.896   0.292  1.00  0.00     0.158 HD
ATOM     32  H41 UNL     1      11.858  14.788   0.121  1.00  0.00     0.158 HD
ENDBRANCH   1  20
TORSDOF 5
ENDMDL
MODEL 5
REMARK VINA RESULT: -7.133638849      1.479      2.263
REMARK  5 active torsions:
REMARK  status: ('A' for Active; 'I' for Inactive)
REMARK    1  A    between atoms: C2_2  and  C3_3 
REMARK    2  A    between atoms: C2_2  and  C4_5 
REMARK    3  A    between atoms: C4_5  and  N1_6 
REMARK    4  A    between atoms: C4_5  and  C16_20 
REMARK       I    between atoms: N1_6  and  C5_8 
REMARK    5  A    between atoms: C5_8  and  C6_10 
REMARK       I    between atoms: C16_20  and  N2_22 
REMARK       I    between atoms: N3_25  and  C19_26 
ROOT
HETATM    1  C4  UNL     1       5.882  10.179  -2.920  1.00  0.00     0.181 C 
ENDROOT
BRANCH   1   2
HETATM    2  C2  UNL     1       4.967  11.277  -2.455  1.00  0.00     0.027 C 
HETATM    3  C1  UNL     1       3.843  10.662  -1.647  1.00  0.00     0.014 C 
BRANCH   2   4
HETATM    4  C3  UNL     1       4.536  12.266  -3.470  1.00  0.00     0.121 C 
HETATM    5 CL1  UNL     1       3.088  11.867  -4.380  1.00  0.00    -0.130 Cl
ENDBRANCH   2   4
ENDBRANCH   1   2
BRANCH   1   6
HETATM    6  N1  UNL     1       6.220  10.362  -4.331  1.00  0.00    -0.347 N 
HETATM    7  C5  UNL     1       5.754   9.478  -5.341  1.00  0.00     0.227 C 
HETATM    8  O1  UNL     1       5.031   8.520  -4.967  1.00  0.00    -0.273 OA
ATOM      9  H1  UNL     1       6.810  11.150  -4.598  1.00  0.00     0.163 HD
BRANCH   7  10
HETATM   10  C6  UNL     1       6.069   9.626  -6.762  1.00  0.00     0.042 C 
HETATM   11  C7  UNL     1       7.234  10.612  -6.922  1.00  0.00     0.024 C 
HETATM   12  C8  UNL     1       7.547  10.822  -8.375  1.00  0.00    -0.013 C 
HETATM   13  C9  UNL     1       7.907   9.523  -9.059  1.00  0.00     0.009 C 
HETATM   14  C13 UNL     1       6.345  11.441  -9.037  1.00  0.00     0.009 C 
HETATM   15  C10 UNL     1       6.755   8.570  -8.857  1.00  0.00    -0.013 C 
HETATM   16  C11 UNL     1       5.549   9.142  -9.558  1.00  0.00     0.009 C 
HETATM   17  C15 UNL     1       6.526   8.330  -7.399  1.00  0.00     0.024 C 
HETATM   18  C12 UNL     1       5.202  10.478  -8.947  1.00  0.00    -0.013 C 
HETATM   19  C14 UNL     1       4.904  10.232  -7.481  1.00  0.00     0.024 C 
ENDBRANCH   7  10
ENDBRANCH   1   6
BRANCH   1  20
HETATM   20  C16 UNL     1       7.133  10.226  -2.127  1.00  0.00     0.243 C 
HETATM   21  O2  UNL     1       7.162   9.471  -1.072  1.00  0.00    -0.271 OA
HETATM   22  N2  UNL     1       8.253  11.019  -2.443  1.00  0.00    -0.347 N 
HETATM   23  C17 UNL     1       8.264  11.906  -3.544  1.00  0.00     0.145 C 
HETATM   24  C21 UNL     1       9.431  10.898  -1.595  1.00  0.00     0.145 C 
HETATM   25  C18 UNL     1       9.063  13.170  -3.311  1.00  0.00     0.145 C 
HETATM   26  N3  UNL     1      10.011  13.089  -2.253  1.00  0.00    -0.353 N 
HETATM   27  C19 UNL     1      11.232  13.796  -2.340  1.00  0.00     0.184 C 
HETATM   28  C20 UNL     1       9.741  12.289  -1.082  1.00  0.00     0.145 C 
HETATM   29  N4  UNL     1      12.288  13.365  -2.936  1.00  0.00    -0.374 N 
HETATM   30  N5  UNL     1      11.303  15.079  -1.727  1.00  0.00    -0.064 NA
ATOM     31  H42 UNL     1      12.237  12.446  -3.375  1.00  0.00     0.158 HD
ATOM     32  H41 UNL     1      13.169  13.875  -2.999  1.00  0.00     0.158 HD
ENDBRANCH   1  20
TORSDOF 5
ENDMDL
