MODEL 1
REMARK VINA RESULT: -8.127786745      0.000      0.000
REMARK  6 active torsions:
REMARK  status: ('A' for Active; 'I' for Inactive)
REMARK    1  A    between atoms: C2_2  and  C3_3 
REMARK    2  A    between atoms: C3_3  and  N1_4 
REMARK    3  A    between atoms: C3_3  and  C8_12 
REMARK       I    between atoms: N1_4  and  C4_6 
REMARK    4  A    between atoms: C4_6  and  C5_8 
REMARK       I    between atoms: C8_12  and  N2_14 
REMARK    5  A    between atoms: N2_14  and  C9_16 
REMARK    6  A    between atoms: C16_23  and  C17_24 
ROOT
HETATM    1  C8  UNL     1       6.050   9.698  -5.818  1.00  0.00     0.240 C 
HETATM    2  O2  UNL     1       5.389   8.651  -5.637  1.00  0.00    -0.271 OA
HETATM    3  N2  UNL     1       5.952  10.720  -4.845  1.00  0.00    -0.354 N 
ATOM      4  H2  UNL     1       6.484  11.581  -4.963  1.00  0.00     0.162 HD
ENDROOT
BRANCH   3   5
HETATM    5  C9  UNL     1       5.116  10.558  -3.695  1.00  0.00     0.092 C 
HETATM    6  C10 UNL     1       3.651  10.449  -4.055  1.00  0.00     0.010 C 
HETATM    7  C11 UNL     1       2.932   9.908  -2.839  1.00  0.00     0.011 C 
HETATM    8  C19 UNL     1       3.033  11.762  -4.445  1.00  0.00     0.025 C 
HETATM    9  C12 UNL     1       3.131  10.843  -1.667  1.00  0.00    -0.013 C 
HETATM   10  C13 UNL     1       4.576  11.122  -1.390  1.00  0.00     0.011 C 
HETATM   11  C18 UNL     1       2.472  12.155  -2.040  1.00  0.00     0.023 C 
HETATM   12  C14 UNL     1       5.264  11.641  -2.653  1.00  0.00     0.010 C 
HETATM   13  C15 UNL     1       4.623  12.932  -3.029  1.00  0.00     0.025 C 
HETATM   14  C16 UNL     1       3.139  12.729  -3.267  1.00  0.00     0.040 C 
BRANCH  14  15
HETATM   15  C17 UNL     1       2.453  13.971  -3.641  1.00  0.00     0.239 C 
HETATM   16  N3  UNL     1       3.043  15.254  -3.533  1.00  0.00    -0.061 NA
HETATM   17  O3  UNL     1       1.266  13.898  -4.086  1.00  0.00    -0.276 OA
ENDBRANCH  14  15
ENDBRANCH   3   5
BRANCH   1  18
HETATM   18  C3  UNL     1       6.896   9.830  -7.030  1.00  0.00     0.176 C 
BRANCH  18  19
HETATM   19  C2  UNL     1       8.115  10.660  -6.685  1.00  0.00     0.030 C 
HETATM   20  C1  UNL     1       8.751  11.252  -7.924  1.00  0.00     0.007 C 
ENDBRANCH  18  19
BRANCH  18  21
HETATM   21  N1  UNL     1       6.200  10.320  -8.172  1.00  0.00    -0.346 N 
HETATM   22  C4  UNL     1       6.262   9.705  -9.448  1.00  0.00     0.237 C 
HETATM   23  O1  UNL     1       6.966   8.656  -9.644  1.00  0.00    -0.272 OA
ATOM     24  H1  UNL     1       5.627  11.158  -8.066  1.00  0.00     0.163 HD
BRANCH  22  25
HETATM   25  C5  UNL     1       5.526  10.232 -10.611  1.00  0.00     0.091 C 
HETATM   26  C6  UNL     1       4.282   9.352 -10.797  1.00  0.00     0.037 C 
HETATM   27  C7  UNL     1       5.058  11.660 -10.390  1.00  0.00     0.037 C 
HETATM   28 BR1  UNL     1       6.579  10.173 -12.202  1.00  0.00    -0.076 Br
ENDBRANCH  22  25
ENDBRANCH  18  21
ENDBRANCH   1  18
TORSDOF 6
ENDMDL
MODEL 2
REMARK VINA RESULT: -7.405817642      2.549      4.044
REMARK  6 active torsions:
REMARK  status: ('A' for Active; 'I' for Inactive)
REMARK    1  A    between atoms: C2_2  and  C3_3 
REMARK    2  A    between atoms: C3_3  and  N1_4 
REMARK    3  A    between atoms: C3_3  and  C8_12 
REMARK       I    between atoms: N1_4  and  C4_6 
REMARK    4  A    between atoms: C4_6  and  C5_8 
REMARK       I    between atoms: C8_12  and  N2_14 
REMARK    5  A    between atoms: N2_14  and  C9_16 
REMARK    6  A    between atoms: C16_23  and  C17_24 
ROOT
HETATM    1  C8  UNL     1       5.881   9.982  -5.226  1.00  0.00     0.240 C 
HETATM    2  O2  UNL     1       6.164  11.113  -4.773  1.00  0.00    -0.271 OA
HETATM    3  N2  UNL     1       4.993   9.172  -4.479  1.00  0.00    -0.354 N 
ATOM      4  H2  UNL     1       4.740   8.248  -4.827  1.00  0.00     0.162 HD
ENDROOT
BRANCH   3   5
HETATM    5  C9  UNL     1       4.447   9.636  -3.241  1.00  0.00     0.092 C 
HETATM    6  C10 UNL     1       5.317   9.282  -2.055  1.00  0.00     0.010 C 
HETATM    7  C11 UNL     1       4.854  10.132  -0.893  1.00  0.00     0.011 C 
HETATM    8  C19 UNL     1       5.235   7.833  -1.665  1.00  0.00     0.025 C 
HETATM    9  C12 UNL     1       3.398   9.847  -0.597  1.00  0.00    -0.013 C 
HETATM   10  C13 UNL     1       2.522  10.012  -1.800  1.00  0.00     0.011 C 
HETATM   11  C18 UNL     1       3.317   8.399  -0.163  1.00  0.00     0.023 C 
HETATM   12  C14 UNL     1       3.044   9.155  -2.954  1.00  0.00     0.010 C 
HETATM   13  C15 UNL     1       2.969   7.726  -2.537  1.00  0.00     0.025 C 
HETATM   14  C16 UNL     1       3.793   7.504  -1.283  1.00  0.00     0.040 C 
BRANCH  14  15
HETATM   15  C17 UNL     1       3.755   6.111  -0.824  1.00  0.00     0.239 C 
HETATM   16  N3  UNL     1       4.917   5.336  -0.581  1.00  0.00    -0.061 NA
HETATM   17  O3  UNL     1       2.625   5.566  -0.632  1.00  0.00    -0.276 OA
ENDBRANCH  14  15
ENDBRANCH   3   5
BRANCH   1  18
HETATM   18  C3  UNL     1       6.479   9.535  -6.509  1.00  0.00     0.176 C 
BRANCH  18  19
HETATM   19  C2  UNL     1       7.981   9.717  -6.437  1.00  0.00     0.030 C 
HETATM   20  C1  UNL     1       8.419  10.985  -7.135  1.00  0.00     0.007 C 
ENDBRANCH  18  19
BRANCH  18  21
HETATM   21  N1  UNL     1       5.904  10.148  -7.660  1.00  0.00    -0.346 N 
HETATM   22  C4  UNL     1       6.018   9.613  -8.968  1.00  0.00     0.237 C 
HETATM   23  O1  UNL     1       6.660   8.529  -9.187  1.00  0.00    -0.272 OA
ATOM     24  H1  UNL     1       5.385  11.017  -7.536  1.00  0.00     0.163 HD
BRANCH  22  25
HETATM   25  C5  UNL     1       5.408  10.265 -10.140  1.00  0.00     0.091 C 
HETATM   26  C6  UNL     1       4.075   9.555 -10.412  1.00  0.00     0.037 C 
HETATM   27  C7  UNL     1       5.110  11.733  -9.883  1.00  0.00     0.037 C 
HETATM   28 BR1  UNL     1       6.519  10.128 -11.686  1.00  0.00    -0.076 Br
ENDBRANCH  22  25
ENDBRANCH  18  21
ENDBRANCH   1  18
TORSDOF 6
ENDMDL
MODEL 3
REMARK VINA RESULT: -7.301324633      1.959      2.873
REMARK  6 active torsions:
REMARK  status: ('A' for Active; 'I' for Inactive)
REMARK    1  A    between atoms: C2_2  and  C3_3 
REMARK    2  A    between atoms: C3_3  and  N1_4 
REMARK    3  A    between atoms: C3_3  and  C8_12 
REMARK       I    between atoms: N1_4  and  C4_6 
REMARK    4  A    between atoms: C4_6  and  C5_8 
REMARK       I    between atoms: C8_12  and  N2_14 
REMARK    5  A    between atoms: N2_14  and  C9_16 
REMARK    6  A    between atoms: C16_23  and  C17_24 
ROOT
HETATM    1  C8  UNL     1       6.505  10.389  -5.736  1.00  0.00     0.240 C 
HETATM    2  O2  UNL     1       7.369  10.888  -4.980  1.00  0.00    -0.271 OA
HETATM    3  N2  UNL     1       5.155  10.428  -5.315  1.00  0.00    -0.354 N 
ATOM      4  H2  UNL     1       4.429  10.035  -5.913  1.00  0.00     0.162 HD
ENDROOT
BRANCH   3   5
HETATM    5  C9  UNL     1       4.796  11.012  -4.059  1.00  0.00     0.092 C 
HETATM    6  C10 UNL     1       5.174  10.137  -2.884  1.00  0.00     0.010 C 
HETATM    7  C11 UNL     1       5.104  11.002  -1.645  1.00  0.00     0.011 C 
HETATM    8  C19 UNL     1       4.268   8.952  -2.706  1.00  0.00     0.025 C 
HETATM    9  C12 UNL     1       3.705  11.551  -1.480  1.00  0.00    -0.013 C 
HETATM   10  C13 UNL     1       3.221  12.273  -2.699  1.00  0.00     0.011 C 
HETATM   11  C18 UNL     1       2.794  10.361  -1.258  1.00  0.00     0.023 C 
HETATM   12  C14 UNL     1       3.335  11.370  -3.927  1.00  0.00     0.010 C 
HETATM   13  C15 UNL     1       2.442  10.195  -3.719  1.00  0.00     0.025 C 
HETATM   14  C16 UNL     1       2.845   9.450  -2.461  1.00  0.00     0.040 C 
BRANCH  14  15
HETATM   15  C17 UNL     1       1.997   8.280  -2.204  1.00  0.00     0.239 C 
HETATM   16  N3  UNL     1       1.256   8.099  -1.010  1.00  0.00    -0.061 NA
HETATM   17  O3  UNL     1       1.920   7.379  -3.095  1.00  0.00    -0.276 OA
ENDBRANCH  14  15
ENDBRANCH   3   5
BRANCH   1  18
HETATM   18  C3  UNL     1       6.921   9.783  -7.025  1.00  0.00     0.176 C 
BRANCH  18  19
HETATM   19  C2  UNL     1       8.421   9.935  -7.174  1.00  0.00     0.030 C 
HETATM   20  C1  UNL     1       8.774  11.164  -7.984  1.00  0.00     0.007 C 
ENDBRANCH  18  19
BRANCH  18  21
HETATM   21  N1  UNL     1       6.202  10.273  -8.153  1.00  0.00    -0.346 N 
HETATM   22  C4  UNL     1       6.235   9.653  -9.429  1.00  0.00     0.237 C 
HETATM   23  O1  UNL     1       6.931   8.601  -9.636  1.00  0.00    -0.272 OA
ATOM     24  H1  UNL     1       5.635  11.112  -8.038  1.00  0.00     0.163 HD
BRANCH  22  25
HETATM   25  C5  UNL     1       5.476  10.178 -10.578  1.00  0.00     0.091 C 
HETATM   26  C6  UNL     1       4.234   9.292 -10.745  1.00  0.00     0.037 C 
HETATM   27  C7  UNL     1       5.003  11.603 -10.344  1.00  0.00     0.037 C 
HETATM   28 BR1  UNL     1       6.502  10.130 -12.186  1.00  0.00    -0.076 Br
ENDBRANCH  22  25
ENDBRANCH  18  21
ENDBRANCH   1  18
TORSDOF 6
ENDMDL
MODEL 4
REMARK VINA RESULT: -7.225315626      2.019      2.499
REMARK  6 active torsions:
REMARK  status: ('A' for Active; 'I' for Inactive)
REMARK    1  A    between atoms: C2_2  and  C3_3 
REMARK    2  A    between atoms: C3_3  and  N1_4 
REMARK    3  A    between atoms: C3_3  and  C8_12 
REMARK       I    between atoms: N1_4  and  C4_6 
REMARK    4  A    between atoms: C4_6  and  C5_8 
REMARK       I    between atoms: C8_12  and  N2_14 
REMARK    5  A    between atoms: N2_14  and  C9_16 
REMARK    6  A    between atoms: C16_23  and  C17_24 
ROOT
HETATM    1  C8  UNL     1       6.102   9.577  -5.945  1.00  0.00     0.240 C 
HETATM    2  O2  UNL     1       5.380   8.558  -5.861  1.00  0.00    -0.271 OA
HETATM    3  N2  UNL     1       6.080  10.494  -4.868  1.00  0.00    -0.354 N 
ATOM      4  H2  UNL     1       6.663  11.330  -4.906  1.00  0.00     0.162 HD
ENDROOT
BRANCH   3   5
HETATM    5  C9  UNL     1       5.251  10.263  -3.725  1.00  0.00     0.092 C 
HETATM    6  C10 UNL     1       4.493  11.501  -3.299  1.00  0.00     0.010 C 
HETATM    7  C11 UNL     1       3.395  11.051  -2.361  1.00  0.00     0.011 C 
HETATM    8  C19 UNL     1       5.353  12.513  -2.596  1.00  0.00     0.025 C 
HETATM    9  C12 UNL     1       3.997  10.348  -1.165  1.00  0.00    -0.013 C 
HETATM   10  C13 UNL     1       4.904   9.221  -1.553  1.00  0.00     0.011 C 
HETATM   11  C18 UNL     1       4.831  11.377  -0.430  1.00  0.00     0.023 C 
HETATM   12  C14 UNL     1       5.980   9.719  -2.519  1.00  0.00     0.010 C 
HETATM   13  C15 UNL     1       6.806  10.733  -1.805  1.00  0.00     0.025 C 
HETATM   14  C16 UNL     1       5.932  11.879  -1.333  1.00  0.00     0.040 C 
BRANCH  14  15
HETATM   15  C17 UNL     1       6.694  12.912  -0.620  1.00  0.00     0.239 C 
HETATM   16  N3  UNL     1       7.912  13.455  -1.098  1.00  0.00    -0.061 NA
HETATM   17  O3  UNL     1       6.242  13.345   0.485  1.00  0.00    -0.276 OA
ENDBRANCH  14  15
ENDBRANCH   3   5
BRANCH   1  18
HETATM   18  C3  UNL     1       6.939   9.785  -7.152  1.00  0.00     0.176 C 
BRANCH  18  19
HETATM   19  C2  UNL     1       8.127  10.647  -6.779  1.00  0.00     0.030 C 
HETATM   20  C1  UNL     1       8.746  11.294  -7.999  1.00  0.00     0.007 C 
ENDBRANCH  18  19
BRANCH  18  21
HETATM   21  N1  UNL     1       6.221  10.290  -8.274  1.00  0.00    -0.346 N 
HETATM   22  C4  UNL     1       6.298   9.720  -9.571  1.00  0.00     0.237 C 
HETATM   23  O1  UNL     1       7.034   8.703  -9.805  1.00  0.00    -0.272 OA
ATOM     24  H1  UNL     1       5.622  11.104  -8.138  1.00  0.00     0.163 HD
BRANCH  22  25
HETATM   25  C5  UNL     1       5.539  10.261 -10.713  1.00  0.00     0.091 C 
HETATM   26  C6  UNL     1       4.289   9.386 -10.882  1.00  0.00     0.037 C 
HETATM   27  C7  UNL     1       5.078  11.688 -10.466  1.00  0.00     0.037 C 
HETATM   28 BR1  UNL     1       6.558  10.217 -12.325  1.00  0.00    -0.076 Br
ENDBRANCH  22  25
ENDBRANCH  18  21
ENDBRANCH   1  18
TORSDOF 6
ENDMDL
MODEL 5
REMARK VINA RESULT: -6.969091525      3.236      7.567
REMARK  6 active torsions:
REMARK  status: ('A' for Active; 'I' for Inactive)
REMARK    1  A    between atoms: C2_2  and  C3_3 
REMARK    2  A    between atoms: C3_3  and  N1_4 
REMARK    3  A    between atoms: C3_3  and  C8_12 
REMARK       I    between atoms: N1_4  and  C4_6 
REMARK    4  A    between atoms: C4_6  and  C5_8 
REMARK       I    between atoms: C8_12  and  N2_14 
REMARK    5  A    between atoms: N2_14  and  C9_16 
REMARK    6  A    between atoms: C16_23  and  C17_24 
ROOT
HETATM    1  C8  UNL     1       4.708  10.636  -5.387  1.00  0.00     0.240 C 
HETATM    2  O2  UNL     1       5.799  10.389  -4.828  1.00  0.00    -0.271 OA
HETATM    3  N2  UNL     1       4.607  10.398  -6.779  1.00  0.00    -0.354 N 
ATOM      4  H2  UNL     1       3.728  10.584  -7.259  1.00  0.00     0.162 HD
ENDROOT
BRANCH   3   5
HETATM    5  C9  UNL     1       5.725   9.897  -7.518  1.00  0.00     0.092 C 
HETATM    6  C10 UNL     1       6.614  11.003  -8.043  1.00  0.00     0.010 C 
HETATM    7  C11 UNL     1       7.922  10.365  -8.455  1.00  0.00     0.011 C 
HETATM    8  C19 UNL     1       6.030  11.729  -9.222  1.00  0.00     0.025 C 
HETATM    9  C12 UNL     1       7.671   9.323  -9.521  1.00  0.00    -0.013 C 
HETATM   10  C13 UNL     1       6.654   8.305  -9.107  1.00  0.00     0.011 C 
HETATM   11  C18 UNL     1       7.122  10.057 -10.727  1.00  0.00     0.023 C 
HETATM   12  C14 UNL     1       5.361   8.998  -8.675  1.00  0.00     0.010 C 
HETATM   13  C15 UNL     1       4.812   9.724  -9.855  1.00  0.00     0.025 C 
HETATM   14  C16 UNL     1       5.823  10.734 -10.362  1.00  0.00     0.040 C 
BRANCH  14  15
HETATM   15  C17 UNL     1       5.336  11.482 -11.528  1.00  0.00     0.239 C 
HETATM   16  N3  UNL     1       5.975  11.462 -12.792  1.00  0.00    -0.061 NA
HETATM   17  O3  UNL     1       4.286  12.185 -11.403  1.00  0.00    -0.276 OA
ENDBRANCH  14  15
ENDBRANCH   3   5
BRANCH   1  18
HETATM   18  C3  UNL     1       3.576  11.165  -4.586  1.00  0.00     0.176 C 
BRANCH  18  19
HETATM   19  C2  UNL     1       4.070  12.333  -3.756  1.00  0.00     0.030 C 
HETATM   20  C1  UNL     1       3.144  13.523  -3.870  1.00  0.00     0.007 C 
ENDBRANCH  18  19
BRANCH  18  21
HETATM   21  N1  UNL     1       2.908  10.178  -3.805  1.00  0.00    -0.346 N 
HETATM   22  C4  UNL     1       3.386   9.721  -2.550  1.00  0.00     0.237 C 
HETATM   23  O1  UNL     1       4.466  10.180  -2.046  1.00  0.00    -0.272 OA
ATOM     24  H1  UNL     1       2.043   9.778  -4.168  1.00  0.00     0.163 HD
BRANCH  22  25
HETATM   25  C5  UNL     1       2.672   8.701  -1.761  1.00  0.00     0.091 C 
HETATM   26  C6  UNL     1       1.786   9.447  -0.753  1.00  0.00     0.037 C 
HETATM   27  C7  UNL     1       1.769   7.840  -2.628  1.00  0.00     0.037 C 
HETATM   28 BR1  UNL     1       3.878   7.564  -0.816  1.00  0.00    -0.076 Br
ENDBRANCH  22  25
ENDBRANCH  18  21
ENDBRANCH   1  18
TORSDOF 6
ENDMDL
