MODEL 1
REMARK VINA RESULT: -6.591408635      0.000      0.000
REMARK  5 active torsions:
REMARK  status: ('A' for Active; 'I' for Inactive)
REMARK    1  A    between atoms: C2_2  and  C3_3 
REMARK    2  A    between atoms: C3_3  and  C4_4 
REMARK    3  A    between atoms: C6_11  and  C7_12 
REMARK       I    between atoms: C7_12  and  N2_14 
REMARK    4  A    between atoms: N2_14  and  C8_16 
REMARK    5  A    between atoms: C13_21  and  C14_22 
REMARK       I    between atoms: C14_22  and  N3_24 
ROOT
HETATM    1  C7  UNL     1       7.110  10.446  -5.535  1.00  0.00     0.226 C 
HETATM    2  O3  UNL     1       8.206  10.276  -4.923  1.00  0.00    -0.273 OA
HETATM    3  N2  UNL     1       5.938  10.247  -4.779  1.00  0.00    -0.355 N 
ATOM      4  H2  UNL     1       5.040  10.379  -5.245  1.00  0.00     0.162 HD
ENDROOT
BRANCH   3   5
HETATM    5  C8  UNL     1       5.930   9.868  -3.387  1.00  0.00     0.097 C 
HETATM    6  C9  UNL     1       5.389   8.447  -3.211  1.00  0.00     0.026 C 
HETATM    7  C10 UNL     1       5.529   8.013  -1.793  1.00  0.00     0.002 C 
HETATM    8  C11 UNL     1       5.000   9.019  -0.802  1.00  0.00     0.001 C 
HETATM    9  C12 UNL     1       5.517  10.416  -1.085  1.00  0.00     0.016 C 
HETATM   10  C13 UNL     1       5.066  10.749  -2.514  1.00  0.00     0.101 C 
BRANCH  10  11
HETATM   11  C14 UNL     1       5.201  12.188  -2.828  1.00  0.00     0.227 C 
HETATM   12  O4  UNL     1       6.330  12.718  -3.052  1.00  0.00    -0.273 OA
HETATM   13  N3  UNL     1       4.064  13.006  -2.887  1.00  0.00    -0.338 N 
HETATM   14  C15 UNL     1       4.110  14.449  -3.203  1.00  0.00     0.127 C 
HETATM   15  C18 UNL     1       2.661  12.675  -2.692  1.00  0.00     0.159 C 
HETATM   16  C16 UNL     1       2.747  14.777  -3.723  1.00  0.00     0.023 C 
HETATM   17  C17 UNL     1       2.064  13.456  -3.887  1.00  0.00     0.038 C 
HETATM   18 BR1  UNL     1       1.925  13.522  -1.108  1.00  0.00    -0.068 Br
ENDBRANCH  10  11
ENDBRANCH   3   5
BRANCH   1  19
HETATM   19  C6  UNL     1       7.067  10.823  -6.940  1.00  0.00     0.150 C 
HETATM   20  C3  UNL     1       7.170   9.802  -8.006  1.00  0.00     0.225 C 
HETATM   21  N1  UNL     1       8.616   9.858  -7.855  1.00  0.00    -0.054 N 
HETATM   22  C5  UNL     1       8.471  11.224  -7.404  1.00  0.00     0.251 C 
ATOM     23  H12 UNL     1       9.108   9.170  -7.285  1.00  0.00     0.278 HD
ATOM     24  H11 UNL     1       9.231   9.629  -8.635  1.00  0.00     0.278 HD
BRANCH  20  25
HETATM   25  C2  UNL     1       6.763  10.377  -9.360  1.00  0.00     0.047 C 
HETATM   26  C1  UNL     1       5.356  10.904  -9.331  1.00  0.00     0.008 C 
ENDBRANCH  20  25
BRANCH  20  27
HETATM   27  C4  UNL     1       6.589   8.466  -7.781  1.00  0.00     0.211 C 
HETATM   28  O1  UNL     1       5.876   8.176  -6.793  1.00  0.00    -0.646 OA
HETATM   29  O2  UNL     1       6.842   7.470  -8.710  1.00  0.00    -0.646 OA
ENDBRANCH  20  27
ENDBRANCH   1  19
TORSDOF 5
ENDMDL
MODEL 2
REMARK VINA RESULT: -6.537476817      2.706      3.365
REMARK  5 active torsions:
REMARK  status: ('A' for Active; 'I' for Inactive)
REMARK    1  A    between atoms: C2_2  and  C3_3 
REMARK    2  A    between atoms: C3_3  and  C4_4 
REMARK    3  A    between atoms: C6_11  and  C7_12 
REMARK       I    between atoms: C7_12  and  N2_14 
REMARK    4  A    between atoms: N2_14  and  C8_16 
REMARK    5  A    between atoms: C13_21  and  C14_22 
REMARK       I    between atoms: C14_22  and  N3_24 
ROOT
HETATM    1  C7  UNL     1       6.791   9.898  -7.194  1.00  0.00     0.226 C 
HETATM    2  O3  UNL     1       6.991   8.656  -7.046  1.00  0.00    -0.273 OA
HETATM    3  N2  UNL     1       6.377  10.602  -6.047  1.00  0.00    -0.355 N 
ATOM      4  H2  UNL     1       6.210  11.605  -6.135  1.00  0.00     0.162 HD
ENDROOT
BRANCH   3   5
HETATM    5  C8  UNL     1       6.175   9.993  -4.755  1.00  0.00     0.097 C 
HETATM    6  C9  UNL     1       4.695   9.678  -4.524  1.00  0.00     0.026 C 
HETATM    7  C10 UNL     1       4.520   8.913  -3.259  1.00  0.00     0.002 C 
HETATM    8  C11 UNL     1       5.226   9.534  -2.080  1.00  0.00     0.001 C 
HETATM    9  C12 UNL     1       6.664   9.890  -2.405  1.00  0.00     0.016 C 
HETATM   10  C13 UNL     1       6.598  10.861  -3.591  1.00  0.00     0.101 C 
BRANCH  10  11
HETATM   11  C14 UNL     1       7.881  11.557  -3.823  1.00  0.00     0.227 C 
HETATM   12  O4  UNL     1       8.699  11.169  -4.711  1.00  0.00    -0.273 OA
HETATM   13  N3  UNL     1       8.224  12.679  -3.056  1.00  0.00    -0.338 N 
HETATM   14  C15 UNL     1       9.480  13.437  -3.230  1.00  0.00     0.127 C 
HETATM   15  C18 UNL     1       7.486  13.349  -1.996  1.00  0.00     0.159 C 
HETATM   16  C16 UNL     1       9.191  14.800  -2.685  1.00  0.00     0.023 C 
HETATM   17  C17 UNL     1       7.717  14.815  -2.434  1.00  0.00     0.038 C 
HETATM   18 BR1  UNL     1       8.371  13.184  -0.276  1.00  0.00    -0.068 Br
ENDBRANCH  10  11
ENDBRANCH   3   5
BRANCH   1  19
HETATM   19  C6  UNL     1       6.976  10.557  -8.478  1.00  0.00     0.150 C 
HETATM   20  C3  UNL     1       6.258  10.088  -9.685  1.00  0.00     0.225 C 
HETATM   21  N1  UNL     1       7.296   9.083  -9.854  1.00  0.00    -0.054 N 
HETATM   22  C5  UNL     1       8.209   9.976  -9.177  1.00  0.00     0.251 C 
ATOM     23  H12 UNL     1       7.157   8.129  -9.522  1.00  0.00     0.278 HD
ATOM     24  H11 UNL     1       7.518   8.712 -10.778  1.00  0.00     0.278 HD
BRANCH  20  25
HETATM   25  C2  UNL     1       6.340  11.118 -10.808  1.00  0.00     0.047 C 
HETATM   26  C1  UNL     1       5.048  11.872 -10.957  1.00  0.00     0.008 C 
ENDBRANCH  20  25
BRANCH  20  27
HETATM   27  C4  UNL     1       4.898   9.538  -9.545  1.00  0.00     0.211 C 
HETATM   28  O1  UNL     1       4.206   9.653  -8.508  1.00  0.00    -0.646 OA
HETATM   29  O2  UNL     1       4.349   8.851 -10.615  1.00  0.00    -0.646 OA
ENDBRANCH  20  27
ENDBRANCH   1  19
TORSDOF 5
ENDMDL
MODEL 3
REMARK VINA RESULT: -6.510858358      2.595      2.981
REMARK  5 active torsions:
REMARK  status: ('A' for Active; 'I' for Inactive)
REMARK    1  A    between atoms: C2_2  and  C3_3 
REMARK    2  A    between atoms: C3_3  and  C4_4 
REMARK    3  A    between atoms: C6_11  and  C7_12 
REMARK       I    between atoms: C7_12  and  N2_14 
REMARK    4  A    between atoms: N2_14  and  C8_16 
REMARK    5  A    between atoms: C13_21  and  C14_22 
REMARK       I    between atoms: C14_22  and  N3_24 
ROOT
HETATM    1  C7  UNL     1       7.487  10.382  -6.413  1.00  0.00     0.226 C 
HETATM    2  O3  UNL     1       8.181   9.343  -6.206  1.00  0.00    -0.273 OA
HETATM    3  N2  UNL     1       6.823  10.919  -5.294  1.00  0.00    -0.355 N 
ATOM      4  H2  UNL     1       6.258  11.758  -5.430  1.00  0.00     0.162 HD
ENDROOT
BRANCH   3   5
HETATM    5  C8  UNL     1       6.891  10.357  -3.967  1.00  0.00     0.097 C 
HETATM    6  C9  UNL     1       5.581   9.657  -3.601  1.00  0.00     0.026 C 
HETATM    7  C10 UNL     1       5.717   8.951  -2.297  1.00  0.00     0.002 C 
HETATM    8  C11 UNL     1       6.301   9.814  -1.206  1.00  0.00     0.001 C 
HETATM    9  C12 UNL     1       7.553  10.535  -1.664  1.00  0.00     0.016 C 
HETATM   10  C13 UNL     1       7.133  11.377  -2.877  1.00  0.00     0.101 C 
BRANCH  10  11
HETATM   11  C14 UNL     1       8.148  12.387  -3.242  1.00  0.00     0.227 C 
HETATM   12  O4  UNL     1       9.044  12.149  -4.108  1.00  0.00    -0.273 OA
HETATM   13  N3  UNL     1       8.140  13.648  -2.631  1.00  0.00    -0.338 N 
HETATM   14  C15 UNL     1       9.111  14.717  -2.945  1.00  0.00     0.127 C 
HETATM   15  C18 UNL     1       7.237  14.198  -1.631  1.00  0.00     0.159 C 
HETATM   16  C16 UNL     1       8.429  15.989  -2.558  1.00  0.00     0.023 C 
HETATM   17  C17 UNL     1       7.017  15.598  -2.252  1.00  0.00     0.038 C 
HETATM   18 BR1  UNL     1       8.134  14.523   0.060  1.00  0.00    -0.068 Br
ENDBRANCH  10  11
ENDBRANCH   3   5
BRANCH   1  19
HETATM   19  C6  UNL     1       7.383  10.983  -7.734  1.00  0.00     0.150 C 
HETATM   20  C3  UNL     1       7.065  10.159  -8.922  1.00  0.00     0.225 C 
HETATM   21  N1  UNL     1       8.476   9.813  -9.000  1.00  0.00    -0.054 N 
HETATM   22  C5  UNL     1       8.776  11.076  -8.364  1.00  0.00     0.251 C 
ATOM     23  H12 UNL     1       8.820   8.936  -8.608  1.00  0.00     0.278 HD
ATOM     24  H11 UNL     1       8.903   9.563  -9.892  1.00  0.00     0.278 HD
BRANCH  20  25
HETATM   25  C2  UNL     1       6.676  11.035 -10.110  1.00  0.00     0.047 C 
HETATM   26  C1  UNL     1       6.635  10.242 -11.387  1.00  0.00     0.008 C 
ENDBRANCH  20  25
BRANCH  20  27
HETATM   27  C4  UNL     1       6.164   9.003  -8.776  1.00  0.00     0.211 C 
HETATM   28  O1  UNL     1       4.932   9.104  -8.576  1.00  0.00    -0.646 OA
HETATM   29  O2  UNL     1       6.702   7.730  -8.860  1.00  0.00    -0.646 OA
ENDBRANCH  20  27
ENDBRANCH   1  19
TORSDOF 5
ENDMDL
MODEL 4
REMARK VINA RESULT: -6.444217839      3.603      6.676
REMARK  5 active torsions:
REMARK  status: ('A' for Active; 'I' for Inactive)
REMARK    1  A    between atoms: C2_2  and  C3_3 
REMARK    2  A    between atoms: C3_3  and  C4_4 
REMARK    3  A    between atoms: C6_11  and  C7_12 
REMARK       I    between atoms: C7_12  and  N2_14 
REMARK    4  A    between atoms: N2_14  and  C8_16 
REMARK    5  A    between atoms: C13_21  and  C14_22 
REMARK       I    between atoms: C14_22  and  N3_24 
ROOT
HETATM    1  C7  UNL     1       5.972   8.532  -1.240  1.00  0.00     0.226 C 
HETATM    2  O3  UNL     1       5.692   9.346  -0.311  1.00  0.00    -0.273 OA
HETATM    3  N2  UNL     1       5.466   8.847  -2.516  1.00  0.00    -0.355 N 
ATOM      4  H2  UNL     1       5.678   8.211  -3.285  1.00  0.00     0.162 HD
ENDROOT
BRANCH   3   5
HETATM    5  C8  UNL     1       4.668  10.013  -2.803  1.00  0.00     0.097 C 
HETATM    6  C9  UNL     1       3.179   9.717  -2.613  1.00  0.00     0.026 C 
HETATM    7  C10 UNL     1       2.379  10.965  -2.761  1.00  0.00     0.002 C 
HETATM    8  C11 UNL     1       2.716  11.748  -4.005  1.00  0.00     0.001 C 
HETATM    9  C12 UNL     1       4.211  11.937  -4.168  1.00  0.00     0.016 C 
HETATM   10  C13 UNL     1       4.809  10.524  -4.219  1.00  0.00     0.101 C 
BRANCH  10  11
HETATM   11  C14 UNL     1       6.207  10.520  -4.701  1.00  0.00     0.227 C 
HETATM   12  O4  UNL     1       7.167  10.900  -3.964  1.00  0.00    -0.273 OA
HETATM   13  N3  UNL     1       6.504  10.087  -6.000  1.00  0.00    -0.338 N 
HETATM   14  C15 UNL     1       7.872  10.042  -6.555  1.00  0.00     0.127 C 
HETATM   15  C18 UNL     1       5.622   9.589  -7.045  1.00  0.00     0.159 C 
HETATM   16  C16 UNL     1       7.814   9.028  -7.653  1.00  0.00     0.023 C 
HETATM   17  C17 UNL     1       6.471   8.384  -7.518  1.00  0.00     0.038 C 
HETATM   18 BR1  UNL     1       5.546  10.790  -8.568  1.00  0.00    -0.068 Br
ENDBRANCH  10  11
ENDBRANCH   3   5
BRANCH   1  19
HETATM   19  C6  UNL     1       6.770   7.339  -0.999  1.00  0.00     0.150 C 
HETATM   20  C3  UNL     1       6.240   6.221  -0.187  1.00  0.00     0.225 C 
HETATM   21  N1  UNL     1       6.656   6.950   1.001  1.00  0.00    -0.054 N 
HETATM   22  C5  UNL     1       7.688   7.572   0.204  1.00  0.00     0.251 C 
ATOM     23  H12 UNL     1       5.989   7.516   1.526  1.00  0.00     0.278 HD
ATOM     24  H11 UNL     1       6.889   6.455   1.862  1.00  0.00     0.278 HD
BRANCH  20  25
HETATM   25  C2  UNL     1       7.094   4.966  -0.355  1.00  0.00     0.047 C 
HETATM   26  C1  UNL     1       7.017   4.435  -1.760  1.00  0.00     0.008 C 
ENDBRANCH  20  25
BRANCH  20  27
HETATM   27  C4  UNL     1       4.800   5.913  -0.237  1.00  0.00     0.211 C 
HETATM   28  O1  UNL     1       4.041   6.291  -1.159  1.00  0.00    -0.646 OA
HETATM   29  O2  UNL     1       4.246   5.168   0.790  1.00  0.00    -0.646 OA
ENDBRANCH  20  27
ENDBRANCH   1  19
TORSDOF 5
ENDMDL
MODEL 5
REMARK VINA RESULT: -6.288711897      2.622      3.610
REMARK  5 active torsions:
REMARK  status: ('A' for Active; 'I' for Inactive)
REMARK    1  A    between atoms: C2_2  and  C3_3 
REMARK    2  A    between atoms: C3_3  and  C4_4 
REMARK    3  A    between atoms: C6_11  and  C7_12 
REMARK       I    between atoms: C7_12  and  N2_14 
REMARK    4  A    between atoms: N2_14  and  C8_16 
REMARK    5  A    between atoms: C13_21  and  C14_22 
REMARK       I    between atoms: C14_22  and  N3_24 
ROOT
HETATM    1  C7  UNL     1       6.001   9.673  -6.342  1.00  0.00     0.226 C 
HETATM    2  O3  UNL     1       5.367   8.633  -5.993  1.00  0.00    -0.273 OA
HETATM    3  N2  UNL     1       5.805  10.817  -5.544  1.00  0.00    -0.355 N 
ATOM      4  H2  UNL     1       6.305  11.669  -5.799  1.00  0.00     0.162 HD
ENDROOT
BRANCH   3   5
HETATM    5  C8  UNL     1       4.942  10.858  -4.389  1.00  0.00     0.097 C 
HETATM    6  C9  UNL     1       3.558  11.395  -4.760  1.00  0.00     0.026 C 
HETATM    7  C10 UNL     1       2.633  11.289  -3.598  1.00  0.00     0.002 C 
HETATM    8  C11 UNL     1       3.207  11.847  -2.320  1.00  0.00     0.001 C 
HETATM    9  C12 UNL     1       4.608  11.331  -2.058  1.00  0.00     0.016 C 
HETATM   10  C13 UNL     1       5.445  11.748  -3.275  1.00  0.00     0.101 C 
BRANCH  10  11
HETATM   11  C14 UNL     1       6.898  11.613  -3.036  1.00  0.00     0.227 C 
HETATM   12  O4  UNL     1       7.528  10.557  -3.345  1.00  0.00    -0.273 OA
HETATM   13  N3  UNL     1       7.618  12.665  -2.455  1.00  0.00    -0.338 N 
HETATM   14  C15 UNL     1       9.071  12.616  -2.191  1.00  0.00     0.127 C 
HETATM   15  C18 UNL     1       7.168  13.979  -2.020  1.00  0.00     0.159 C 
HETATM   16  C16 UNL     1       9.506  14.045  -2.142  1.00  0.00     0.023 C 
HETATM   17  C17 UNL     1       8.320  14.831  -2.604  1.00  0.00     0.038 C 
HETATM   18 BR1  UNL     1       7.298  14.193  -0.095  1.00  0.00    -0.068 Br
ENDBRANCH  10  11
ENDBRANCH   3   5
BRANCH   1  19
HETATM   19  C6  UNL     1       6.879   9.682  -7.502  1.00  0.00     0.150 C 
HETATM   20  C3  UNL     1       6.327   9.693  -8.875  1.00  0.00     0.225 C 
HETATM   21  N1  UNL     1       6.183   8.249  -8.778  1.00  0.00    -0.054 N 
HETATM   22  C5  UNL     1       7.287   8.246  -7.845  1.00  0.00     0.251 C 
ATOM     23  H12 UNL     1       5.287   7.830  -8.528  1.00  0.00     0.278 HD
ATOM     24  H11 UNL     1       6.204   7.665  -9.614  1.00  0.00     0.278 HD
BRANCH  20  25
HETATM   25  C2  UNL     1       7.404  10.043  -9.898  1.00  0.00     0.047 C 
HETATM   26  C1  UNL     1       6.825  10.182 -11.279  1.00  0.00     0.008 C 
ENDBRANCH  20  25
BRANCH  20  27
HETATM   27  C4  UNL     1       5.067  10.412  -9.138  1.00  0.00     0.211 C 
HETATM   28  O1  UNL     1       4.963  11.660  -9.116  1.00  0.00    -0.646 OA
HETATM   29  O2  UNL     1       3.931   9.673  -9.424  1.00  0.00    -0.646 OA
ENDBRANCH  20  27
ENDBRANCH   1  19
TORSDOF 5
ENDMDL
