MODEL 1
REMARK VINA RESULT: -6.340741911      0.000      0.000
REMARK  4 active torsions:
REMARK  status: ('A' for Active; 'I' for Inactive)
REMARK       I    between atoms: C3_3  and  N1_5 
REMARK    1  A    between atoms: N1_5  and  N2_7 
REMARK    2  A    between atoms: N2_7  and  C4_9 
REMARK    3  A    between atoms: C4_9  and  N3_11 
REMARK    4  A    between atoms: N3_11  and  C5_13 
ROOT
HETATM    1  C1  UNL     1     -16.674   6.175  31.377  1.00  0.00     0.023 C 
HETATM    2  C2  UNL     1     -16.744   7.320  31.662  1.00  0.00    -0.015 C 
HETATM    3  C3  UNL     1     -16.802   8.769  32.026  1.00  0.00     0.314 C 
HETATM    4  O1  UNL     1     -15.802   9.406  32.166  1.00  0.00    -0.256 OA
HETATM    5  N1  UNL     1     -18.148   9.220  32.171  1.00  0.00    -0.257 N 
ATOM      6  H1  UNL     1     -18.936   8.588  32.028  1.00  0.00     0.191 HD
ENDROOT
BRANCH   5   7
HETATM    7  N2  UNL     1     -18.349  10.564  32.518  1.00  0.00    -0.273 N 
ATOM      8  H2  UNL     1     -18.478  11.279  31.802  1.00  0.00     0.189 HD
BRANCH   7   9
HETATM    9  C4  UNL     1     -18.368  10.897  33.894  1.00  0.00     0.186 C 
HETATM   10  S1  UNL     1     -19.828  10.945  34.620  1.00  0.00    -0.040 SA
BRANCH   9  11
HETATM   11  N3  UNL     1     -17.179  11.152  34.615  1.00  0.00    -0.361 N 
ATOM     12  H3  UNL     1     -17.023  10.595  35.455  1.00  0.00     0.162 HD
BRANCH  11  13
HETATM   13  C5  UNL     1     -16.179  12.107  34.287  1.00  0.00     0.088 C 
HETATM   14  C6  UNL     1     -16.666  13.548  34.277  1.00  0.00     0.051 C 
HETATM   15  C7  UNL     1     -15.475  14.494  34.494  1.00  0.00     0.169 C 
HETATM   16  O2  UNL     1     -14.390  13.969  33.838  1.00  0.00    -0.391 OA
HETATM   17  C8  UNL     1     -13.857  12.822  34.377  1.00  0.00     0.169 C 
HETATM   18  C9  UNL     1     -14.916  12.019  35.145  1.00  0.00     0.051 C 
ENDBRANCH  11  13
ENDBRANCH   9  11
ENDBRANCH   7   9
ENDBRANCH   5   7
TORSDOF 4
ENDMDL
MODEL 2
REMARK VINA RESULT: -6.284881816      1.143      1.358
REMARK  4 active torsions:
REMARK  status: ('A' for Active; 'I' for Inactive)
REMARK       I    between atoms: C3_3  and  N1_5 
REMARK    1  A    between atoms: N1_5  and  N2_7 
REMARK    2  A    between atoms: N2_7  and  C4_9 
REMARK    3  A    between atoms: C4_9  and  N3_11 
REMARK    4  A    between atoms: N3_11  and  C5_13 
ROOT
HETATM    1  C1  UNL     1     -16.705   5.718  31.334  1.00  0.00     0.023 C 
HETATM    2  C2  UNL     1     -16.576   6.890  31.404  1.00  0.00    -0.015 C 
HETATM    3  C3  UNL     1     -16.383   8.371  31.483  1.00  0.00     0.314 C 
HETATM    4  O1  UNL     1     -15.384   8.881  31.073  1.00  0.00    -0.256 OA
HETATM    5  N1  UNL     1     -17.504   9.016  32.086  1.00  0.00    -0.257 N 
ATOM      6  H1  UNL     1     -18.313   8.481  32.403  1.00  0.00     0.191 HD
ENDROOT
BRANCH   5   7
HETATM    7  N2  UNL     1     -17.454  10.410  32.228  1.00  0.00    -0.273 N 
ATOM      8  H2  UNL     1     -17.306  11.017  31.421  1.00  0.00     0.189 HD
BRANCH   7   9
HETATM    9  C4  UNL     1     -17.615  10.949  33.527  1.00  0.00     0.186 C 
HETATM   10  S1  UNL     1     -18.984  11.789  33.811  1.00  0.00    -0.040 SA
BRANCH   9  11
HETATM   11  N3  UNL     1     -16.650  10.752  34.540  1.00  0.00    -0.361 N 
ATOM     12  H3  UNL     1     -16.698   9.872  35.055  1.00  0.00     0.162 HD
BRANCH  11  13
HETATM   13  C5  UNL     1     -15.619  11.655  34.914  1.00  0.00     0.088 C 
HETATM   14  C6  UNL     1     -14.805  12.196  33.749  1.00  0.00     0.051 C 
HETATM   15  C7  UNL     1     -14.158  13.531  34.150  1.00  0.00     0.169 C 
HETATM   16  O2  UNL     1     -13.785  13.444  35.468  1.00  0.00    -0.391 OA
HETATM   17  C8  UNL     1     -14.809  13.415  36.384  1.00  0.00     0.169 C 
HETATM   18  C9  UNL     1     -16.091  12.830  35.774  1.00  0.00     0.051 C 
ENDBRANCH  11  13
ENDBRANCH   9  11
ENDBRANCH   7   9
ENDBRANCH   5   7
TORSDOF 4
ENDMDL
MODEL 3
REMARK VINA RESULT: -6.208632973      3.080      4.634
REMARK  4 active torsions:
REMARK  status: ('A' for Active; 'I' for Inactive)
REMARK       I    between atoms: C3_3  and  N1_5 
REMARK    1  A    between atoms: N1_5  and  N2_7 
REMARK    2  A    between atoms: N2_7  and  C4_9 
REMARK    3  A    between atoms: C4_9  and  N3_11 
REMARK    4  A    between atoms: N3_11  and  C5_13 
ROOT
HETATM    1  C1  UNL     1     -16.726   6.281  31.383  1.00  0.00     0.023 C 
HETATM    2  C2  UNL     1     -16.820   7.446  31.555  1.00  0.00    -0.015 C 
HETATM    3  C3  UNL     1     -16.907   8.924  31.767  1.00  0.00     0.314 C 
HETATM    4  O1  UNL     1     -15.992   9.638  31.486  1.00  0.00    -0.256 OA
HETATM    5  N1  UNL     1     -18.167   9.301  32.320  1.00  0.00    -0.257 N 
ATOM      6  H1  UNL     1     -18.885   8.605  32.524  1.00  0.00     0.191 HD
ENDROOT
BRANCH   5   7
HETATM    7  N2  UNL     1     -18.384  10.664  32.575  1.00  0.00    -0.273 N 
ATOM      8  H2  UNL     1     -18.763  11.280  31.857  1.00  0.00     0.189 HD
BRANCH   7   9
HETATM    9  C4  UNL     1     -18.058  11.155  33.862  1.00  0.00     0.186 C 
HETATM   10  S1  UNL     1     -16.833  12.229  33.952  1.00  0.00    -0.040 SA
BRANCH   9  11
HETATM   11  N3  UNL     1     -18.772  10.756  35.015  1.00  0.00    -0.361 N 
ATOM     12  H3  UNL     1     -18.217  10.472  35.823  1.00  0.00     0.162 HD
BRANCH  11  13
HETATM   13  C5  UNL     1     -20.185  10.710  35.162  1.00  0.00     0.088 C 
HETATM   14  C6  UNL     1     -20.659  10.246  36.531  1.00  0.00     0.051 C 
HETATM   15  C7  UNL     1     -22.083  10.768  36.784  1.00  0.00     0.169 C 
HETATM   16  O2  UNL     1     -22.769  10.725  35.598  1.00  0.00    -0.391 OA
HETATM   17  C8  UNL     1     -22.375  11.628  34.639  1.00  0.00     0.169 C 
HETATM   18  C9  UNL     1     -20.899  12.016  34.808  1.00  0.00     0.051 C 
ENDBRANCH  11  13
ENDBRANCH   9  11
ENDBRANCH   7   9
ENDBRANCH   5   7
TORSDOF 4
ENDMDL
MODEL 4
REMARK VINA RESULT: -6.168062936      0.435      1.310
REMARK  4 active torsions:
REMARK  status: ('A' for Active; 'I' for Inactive)
REMARK       I    between atoms: C3_3  and  N1_5 
REMARK    1  A    between atoms: N1_5  and  N2_7 
REMARK    2  A    between atoms: N2_7  and  C4_9 
REMARK    3  A    between atoms: C4_9  and  N3_11 
REMARK    4  A    between atoms: N3_11  and  C5_13 
ROOT
HETATM    1  C1  UNL     1     -16.662   6.206  31.376  1.00  0.00     0.023 C 
HETATM    2  C2  UNL     1     -16.735   7.351  31.659  1.00  0.00    -0.015 C 
HETATM    3  C3  UNL     1     -16.795   8.800  32.023  1.00  0.00     0.314 C 
HETATM    4  O1  UNL     1     -15.796   9.438  32.166  1.00  0.00    -0.256 OA
HETATM    5  N1  UNL     1     -18.142   9.251  32.160  1.00  0.00    -0.257 N 
ATOM      6  H1  UNL     1     -18.929   8.618  32.014  1.00  0.00     0.191 HD
ENDROOT
BRANCH   5   7
HETATM    7  N2  UNL     1     -18.346  10.595  32.505  1.00  0.00    -0.273 N 
ATOM      8  H2  UNL     1     -18.471  11.309  31.789  1.00  0.00     0.189 HD
BRANCH   7   9
HETATM    9  C4  UNL     1     -18.372  10.928  33.881  1.00  0.00     0.186 C 
HETATM   10  S1  UNL     1     -19.841  11.101  34.569  1.00  0.00    -0.040 SA
BRANCH   9  11
HETATM   11  N3  UNL     1     -17.184  11.081  34.633  1.00  0.00    -0.361 N 
ATOM     12  H3  UNL     1     -16.885  10.278  35.187  1.00  0.00     0.162 HD
BRANCH  11  13
HETATM   13  C5  UNL     1     -16.366  12.241  34.695  1.00  0.00     0.088 C 
HETATM   14  C6  UNL     1     -14.886  11.978  34.466  1.00  0.00     0.051 C 
HETATM   15  C7  UNL     1     -14.204  13.268  33.983  1.00  0.00     0.169 C 
HETATM   16  O2  UNL     1     -14.778  14.325  34.641  1.00  0.00    -0.391 OA
HETATM   17  C8  UNL     1     -16.075  14.621  34.293  1.00  0.00     0.169 C 
HETATM   18  C9  UNL     1     -16.814  13.379  33.775  1.00  0.00     0.051 C 
ENDBRANCH  11  13
ENDBRANCH   9  11
ENDBRANCH   7   9
ENDBRANCH   5   7
TORSDOF 4
ENDMDL
MODEL 5
REMARK VINA RESULT: -6.145476845      2.765      3.858
REMARK  4 active torsions:
REMARK  status: ('A' for Active; 'I' for Inactive)
REMARK       I    between atoms: C3_3  and  N1_5 
REMARK    1  A    between atoms: N1_5  and  N2_7 
REMARK    2  A    between atoms: N2_7  and  C4_9 
REMARK    3  A    between atoms: C4_9  and  N3_11 
REMARK    4  A    between atoms: N3_11  and  C5_13 
ROOT
HETATM    1  C1  UNL     1     -16.681   5.838  31.312  1.00  0.00     0.023 C 
HETATM    2  C2  UNL     1     -16.580   7.013  31.389  1.00  0.00    -0.015 C 
HETATM    3  C3  UNL     1     -16.421   8.497  31.476  1.00  0.00     0.314 C 
HETATM    4  O1  UNL     1     -15.430   9.032  31.080  1.00  0.00    -0.256 OA
HETATM    5  N1  UNL     1     -17.564   9.113  32.070  1.00  0.00    -0.257 N 
ATOM      6  H1  UNL     1     -18.364   8.558  32.376  1.00  0.00     0.191 HD
ENDROOT
BRANCH   5   7
HETATM    7  N2  UNL     1     -17.547  10.507  32.219  1.00  0.00    -0.273 N 
ATOM      8  H2  UNL     1     -17.723  11.124  31.426  1.00  0.00     0.189 HD
BRANCH   7   9
HETATM    9  C4  UNL     1     -17.278  11.032  33.506  1.00  0.00     0.186 C 
HETATM   10  S1  UNL     1     -16.017  12.059  33.634  1.00  0.00    -0.040 SA
BRANCH   9  11
HETATM   11  N3  UNL     1     -18.075  10.702  34.627  1.00  0.00    -0.361 N 
ATOM     12  H3  UNL     1     -17.723   9.966  35.239  1.00  0.00     0.162 HD
BRANCH  11  13
HETATM   13  C5  UNL     1     -19.315  11.293  34.985  1.00  0.00     0.088 C 
HETATM   14  C6  UNL     1     -19.240  12.785  35.275  1.00  0.00     0.051 C 
HETATM   15  C7  UNL     1     -20.627  13.417  35.076  1.00  0.00     0.169 C 
HETATM   16  O2  UNL     1     -21.569  12.522  35.515  1.00  0.00    -0.391 OA
HETATM   17  C8  UNL     1     -21.733  11.394  34.747  1.00  0.00     0.169 C 
HETATM   18  C9  UNL     1     -20.447  11.041  33.987  1.00  0.00     0.051 C 
ENDBRANCH  11  13
ENDBRANCH   9  11
ENDBRANCH   7   9
ENDBRANCH   5   7
TORSDOF 4
ENDMDL
