MODEL 1
REMARK VINA RESULT: -6.554129990      0.000      0.000
REMARK  4 active torsions:
REMARK  status: ('A' for Active; 'I' for Inactive)
REMARK    1  A    between atoms: C2_2  and  N1_3 
REMARK    2  A    between atoms: C2_2  and  C9_17 
REMARK       I    between atoms: N1_3  and  C3_5 
REMARK       I    between atoms: C3_5  and  N2_7 
REMARK    3  A    between atoms: N2_7  and  N3_9 
REMARK       I    between atoms: N3_9  and  C4_11 
REMARK    4  A    between atoms: C4_11  and  C5_13 
ROOT
HETATM    1  N1  UNL     1     -17.737   9.146  32.074  1.00  0.00    -0.329 N 
ATOM      2  H1  UNL     1     -18.550   8.868  31.524  1.00  0.00     0.165 HD
HETATM    3  C3  UNL     1     -17.914  10.116  33.102  1.00  0.00     0.335 C 
HETATM    4  O1  UNL     1     -17.017  10.566  33.852  1.00  0.00    -0.246 OA
HETATM    5  N2  UNL     1     -19.233  10.574  33.219  1.00  0.00    -0.249 N 
ATOM      6  H2  UNL     1     -19.952  10.175  32.615  1.00  0.00     0.192 HD
ENDROOT
BRANCH   5   7
HETATM    7  N3  UNL     1     -19.586  11.549  34.125  1.00  0.00    -0.265 N 
HETATM    8  C4  UNL     1     -20.908  11.716  34.568  1.00  0.00     0.243 C 
HETATM    9  O2  UNL     1     -21.810  10.930  34.152  1.00  0.00    -0.271 OA
ATOM     10  H3  UNL     1     -18.863  12.169  34.487  1.00  0.00     0.190 HD
BRANCH   8  11
HETATM   11  C5  UNL     1     -21.220  12.819  35.509  1.00  0.00     0.032 C 
HETATM   12  C6  UNL     1     -20.873  12.407  36.912  1.00  0.00     0.025 C 
HETATM   13  C7  UNL     1     -20.687  14.147  35.123  1.00  0.00     0.025 C 
HETATM   14  C8  UNL     1     -22.769  12.896  35.439  1.00  0.00     0.025 C 
ENDBRANCH   8  11
ENDBRANCH   5   7
BRANCH   1  15
HETATM   15  C2  UNL     1     -16.491   8.548  31.780  1.00  0.00     0.171 C 
HETATM   16  C1  UNL     1     -16.509   7.098  31.508  1.00  0.00     0.042 C 
BRANCH  15  17
HETATM   17  C9  UNL     1     -15.843   9.417  30.774  1.00  0.00     0.253 C 
HETATM   18  N4  UNL     1     -14.969  10.509  31.134  1.00  0.00    -0.060 NA
HETATM   19  O3  UNL     1     -16.060   9.185  29.542  1.00  0.00    -0.275 OA
ENDBRANCH  15  17
ENDBRANCH   1  15
TORSDOF 4
ENDMDL
MODEL 2
REMARK VINA RESULT: -6.509610699      0.339      1.129
REMARK  4 active torsions:
REMARK  status: ('A' for Active; 'I' for Inactive)
REMARK    1  A    between atoms: C2_2  and  N1_3 
REMARK    2  A    between atoms: C2_2  and  C9_17 
REMARK       I    between atoms: N1_3  and  C3_5 
REMARK       I    between atoms: C3_5  and  N2_7 
REMARK    3  A    between atoms: N2_7  and  N3_9 
REMARK       I    between atoms: N3_9  and  C4_11 
REMARK    4  A    between atoms: C4_11  and  C5_13 
ROOT
HETATM    1  N1  UNL     1     -17.818   9.295  32.083  1.00  0.00    -0.329 N 
ATOM      2  H1  UNL     1     -18.586   9.021  31.470  1.00  0.00     0.165 HD
HETATM    3  C3  UNL     1     -18.068  10.276  33.085  1.00  0.00     0.335 C 
HETATM    4  O1  UNL     1     -17.231  10.724  33.903  1.00  0.00    -0.246 OA
HETATM    5  N2  UNL     1     -19.386  10.749  33.089  1.00  0.00    -0.249 N 
ATOM      6  H2  UNL     1     -20.058  10.352  32.432  1.00  0.00     0.192 HD
ENDROOT
BRANCH   5   7
HETATM    7  N3  UNL     1     -19.802  11.735  33.955  1.00  0.00    -0.265 N 
HETATM    8  C4  UNL     1     -20.873  11.549  34.844  1.00  0.00     0.243 C 
HETATM    9  O2  UNL     1     -21.465  10.430  34.882  1.00  0.00    -0.271 OA
ATOM     10  H3  UNL     1     -19.315  12.631  33.952  1.00  0.00     0.190 HD
BRANCH   8  11
HETATM   11  C5  UNL     1     -21.295  12.674  35.713  1.00  0.00     0.032 C 
HETATM   12  C6  UNL     1     -22.751  12.974  35.489  1.00  0.00     0.025 C 
HETATM   13  C7  UNL     1     -20.921  12.543  37.141  1.00  0.00     0.025 C 
HETATM   14  C8  UNL     1     -20.501  13.872  35.127  1.00  0.00     0.025 C 
ENDBRANCH   8  11
ENDBRANCH   5   7
BRANCH   1  15
HETATM   15  C2  UNL     1     -16.559   8.682  31.897  1.00  0.00     0.171 C 
HETATM   16  C1  UNL     1     -16.570   7.231  31.632  1.00  0.00     0.042 C 
BRANCH  15  17
HETATM   17  C9  UNL     1     -15.819   9.537  30.943  1.00  0.00     0.253 C 
HETATM   18  N4  UNL     1     -14.953  10.611  31.369  1.00  0.00    -0.060 NA
HETATM   19  O3  UNL     1     -15.947   9.309  29.699  1.00  0.00    -0.275 OA
ENDBRANCH  15  17
ENDBRANCH   1  15
TORSDOF 4
ENDMDL
MODEL 3
REMARK VINA RESULT: -6.506903295      0.342      1.096
REMARK  4 active torsions:
REMARK  status: ('A' for Active; 'I' for Inactive)
REMARK    1  A    between atoms: C2_2  and  N1_3 
REMARK    2  A    between atoms: C2_2  and  C9_17 
REMARK       I    between atoms: N1_3  and  C3_5 
REMARK       I    between atoms: C3_5  and  N2_7 
REMARK    3  A    between atoms: N2_7  and  N3_9 
REMARK       I    between atoms: N3_9  and  C4_11 
REMARK    4  A    between atoms: C4_11  and  C5_13 
ROOT
HETATM    1  N1  UNL     1     -17.865   9.306  32.112  1.00  0.00    -0.329 N 
ATOM      2  H1  UNL     1     -18.615   9.031  31.477  1.00  0.00     0.165 HD
HETATM    3  C3  UNL     1     -18.138  10.306  33.089  1.00  0.00     0.335 C 
HETATM    4  O1  UNL     1     -17.325  10.758  33.928  1.00  0.00    -0.246 OA
HETATM    5  N2  UNL     1     -19.450  10.794  33.039  1.00  0.00    -0.249 N 
ATOM      6  H2  UNL     1     -20.103  10.394  32.365  1.00  0.00     0.192 HD
ENDROOT
BRANCH   5   7
HETATM    7  N3  UNL     1     -19.884  11.799  33.875  1.00  0.00    -0.265 N 
HETATM    8  C4  UNL     1     -20.995  11.644  34.720  1.00  0.00     0.243 C 
HETATM    9  O2  UNL     1     -21.608  10.536  34.747  1.00  0.00    -0.271 OA
ATOM     10  H3  UNL     1     -19.381  12.686  33.880  1.00  0.00     0.190 HD
BRANCH   8  11
HETATM   11  C5  UNL     1     -21.432  12.788  35.556  1.00  0.00     0.032 C 
HETATM   12  C6  UNL     1     -20.607  14.002  35.231  1.00  0.00     0.025 C 
HETATM   13  C7  UNL     1     -22.893  13.039  35.567  1.00  0.00     0.025 C 
HETATM   14  C8  UNL     1     -21.021  12.341  36.984  1.00  0.00     0.025 C 
ENDBRANCH   8  11
ENDBRANCH   5   7
BRANCH   1  15
HETATM   15  C2  UNL     1     -16.608   8.676  31.980  1.00  0.00     0.171 C 
HETATM   16  C1  UNL     1     -16.628   7.223  31.724  1.00  0.00     0.042 C 
BRANCH  15  17
HETATM   17  C9  UNL     1     -15.820   9.515  31.051  1.00  0.00     0.253 C 
HETATM   18  N4  UNL     1     -15.016  10.628  31.498  1.00  0.00    -0.060 NA
HETATM   19  O3  UNL     1     -15.847   9.237  29.811  1.00  0.00    -0.275 OA
ENDBRANCH  15  17
ENDBRANCH   1  15
TORSDOF 4
ENDMDL
MODEL 4
REMARK VINA RESULT: -6.350801875      1.700      2.257
REMARK  4 active torsions:
REMARK  status: ('A' for Active; 'I' for Inactive)
REMARK    1  A    between atoms: C2_2  and  N1_3 
REMARK    2  A    between atoms: C2_2  and  C9_17 
REMARK       I    between atoms: N1_3  and  C3_5 
REMARK       I    between atoms: C3_5  and  N2_7 
REMARK    3  A    between atoms: N2_7  and  N3_9 
REMARK       I    between atoms: N3_9  and  C4_11 
REMARK    4  A    between atoms: C4_11  and  C5_13 
ROOT
HETATM    1  N1  UNL     1     -17.444  10.249  32.394  1.00  0.00    -0.329 N 
ATOM      2  H1  UNL     1     -17.616   9.244  32.433  1.00  0.00     0.165 HD
HETATM    3  C3  UNL     1     -18.473  11.129  32.835  1.00  0.00     0.335 C 
HETATM    4  O1  UNL     1     -18.420  12.381  32.839  1.00  0.00    -0.246 OA
HETATM    5  N2  UNL     1     -19.626  10.467  33.278  1.00  0.00    -0.249 N 
ATOM      6  H2  UNL     1     -19.638   9.447  33.290  1.00  0.00     0.192 HD
ENDROOT
BRANCH   5   7
HETATM    7  N3  UNL     1     -20.743  11.154  33.696  1.00  0.00    -0.265 N 
HETATM    8  C4  UNL     1     -21.341  10.923  34.946  1.00  0.00     0.243 C 
HETATM    9  O2  UNL     1     -20.825  10.078  35.737  1.00  0.00    -0.271 OA
ATOM     10  H3  UNL     1     -21.151  11.855  33.078  1.00  0.00     0.190 HD
BRANCH   8  11
HETATM   11  C5  UNL     1     -22.571  11.666  35.307  1.00  0.00     0.032 C 
HETATM   12  C6  UNL     1     -22.225  13.086  35.658  1.00  0.00     0.025 C 
HETATM   13  C7  UNL     1     -23.690  11.541  34.343  1.00  0.00     0.025 C 
HETATM   14  C8  UNL     1     -23.009  10.978  36.627  1.00  0.00     0.025 C 
ENDBRANCH   8  11
ENDBRANCH   5   7
BRANCH   1  15
HETATM   15  C2  UNL     1     -16.197  10.698  31.906  1.00  0.00     0.171 C 
HETATM   16  C1  UNL     1     -15.343  11.426  32.864  1.00  0.00     0.042 C 
BRANCH  15  17
HETATM   17  C9  UNL     1     -15.591   9.551  31.197  1.00  0.00     0.253 C 
HETATM   18  N4  UNL     1     -16.084   8.200  31.336  1.00  0.00    -0.060 NA
HETATM   19  O3  UNL     1     -14.601   9.767  30.429  1.00  0.00    -0.275 OA
ENDBRANCH  15  17
ENDBRANCH   1  15
TORSDOF 4
ENDMDL
MODEL 5
REMARK VINA RESULT: -6.281013682      1.696      2.359
REMARK  4 active torsions:
REMARK  status: ('A' for Active; 'I' for Inactive)
REMARK    1  A    between atoms: C2_2  and  N1_3 
REMARK    2  A    between atoms: C2_2  and  C9_17 
REMARK       I    between atoms: N1_3  and  C3_5 
REMARK       I    between atoms: C3_5  and  N2_7 
REMARK    3  A    between atoms: N2_7  and  N3_9 
REMARK       I    between atoms: N3_9  and  C4_11 
REMARK    4  A    between atoms: C4_11  and  C5_13 
ROOT
HETATM    1  N1  UNL     1     -17.489  10.206  32.414  1.00  0.00    -0.329 N 
ATOM      2  H1  UNL     1     -17.663   9.201  32.404  1.00  0.00     0.165 HD
HETATM    3  C3  UNL     1     -18.518  11.067  32.894  1.00  0.00     0.335 C 
HETATM    4  O1  UNL     1     -18.461  12.317  32.958  1.00  0.00    -0.246 OA
HETATM    5  N2  UNL     1     -19.674  10.387  33.299  1.00  0.00    -0.249 N 
ATOM      6  H2  UNL     1     -19.688   9.367  33.261  1.00  0.00     0.192 HD
ENDROOT
BRANCH   5   7
HETATM    7  N3  UNL     1     -20.791  11.055  33.746  1.00  0.00    -0.265 N 
HETATM    8  C4  UNL     1     -21.326  10.848  35.028  1.00  0.00     0.243 C 
HETATM    9  O2  UNL     1     -20.751  10.045  35.821  1.00  0.00    -0.271 OA
ATOM     10  H3  UNL     1     -21.246  11.724  33.125  1.00  0.00     0.190 HD
BRANCH   8  11
HETATM   11  C5  UNL     1     -22.560  11.569  35.421  1.00  0.00     0.032 C 
HETATM   12  C6  UNL     1     -23.532  11.579  34.274  1.00  0.00     0.025 C 
HETATM   13  C7  UNL     1     -23.155  11.143  36.710  1.00  0.00     0.025 C 
HETATM   14  C8  UNL     1     -22.061  13.028  35.592  1.00  0.00     0.025 C 
ENDBRANCH   8  11
ENDBRANCH   5   7
BRANCH   1  15
HETATM   15  C2  UNL     1     -16.239  10.675  31.954  1.00  0.00     0.171 C 
HETATM   16  C1  UNL     1     -15.393  11.365  32.946  1.00  0.00     0.042 C 
BRANCH  15  17
HETATM   17  C9  UNL     1     -15.627   9.557  31.204  1.00  0.00     0.253 C 
HETATM   18  N4  UNL     1     -16.117   8.202  31.287  1.00  0.00    -0.060 NA
HETATM   19  O3  UNL     1     -14.632   9.805  30.450  1.00  0.00    -0.275 OA
ENDBRANCH  15  17
ENDBRANCH   1  15
TORSDOF 4
ENDMDL
