MODEL 1
REMARK VINA RESULT: -7.612151388      0.000      0.000
REMARK  3 active torsions:
REMARK  status: ('A' for Active; 'I' for Inactive)
REMARK    1  A    between atoms: C3_3  and  C4_4 
REMARK       I    between atoms: C4_4  and  N1_6 
REMARK    2  A    between atoms: N1_6  and  C5_8 
REMARK    3  A    between atoms: C5_8  and  C6_9 
ROOT
HETATM    1  C6  UNL     1      -2.677  41.181  68.925  1.00  0.00     0.139 C 
HETATM    2  C7  UNL     1      -3.627  42.374  68.772  1.00  0.00     0.034 C 
HETATM    3  C8  UNL     1      -5.054  41.964  68.896  1.00  0.00     0.003 C 
HETATM    4  C9  UNL     1      -5.792  42.544  70.041  1.00  0.00     0.006 C 
HETATM    5  C10 UNL     1      -5.072  42.526  71.347  1.00  0.00     0.079 C 
HETATM    6  C11 UNL     1      -4.813  41.161  71.898  1.00  0.00     0.245 C 
HETATM    7  F1  UNL     1      -5.189  41.071  73.247  1.00  0.00    -0.206 F 
HETATM    8  F2  UNL     1      -5.512  40.163  71.251  1.00  0.00    -0.206 F 
HETATM    9  C12 UNL     1      -3.316  40.926  71.868  1.00  0.00     0.105 C 
HETATM   10  C13 UNL     1      -2.926  39.896  70.835  1.00  0.00     0.174 C 
HETATM   11  O2  UNL     1      -3.411  40.175  69.584  1.00  0.00    -0.384 OA
ENDROOT
BRANCH   1  12
HETATM   12  C5  UNL     1      -2.283  40.634  67.590  1.00  0.00     0.154 C 
BRANCH  12  13
HETATM   13  N1  UNL     1      -1.313  41.404  66.894  1.00  0.00    -0.355 N 
HETATM   14  C4  UNL     1       0.049  41.031  66.902  1.00  0.00     0.240 C 
HETATM   15  O1  UNL     1       0.406  40.004  67.534  1.00  0.00    -0.269 OA
ATOM     16  H1  UNL     1      -1.604  42.237  66.383  1.00  0.00     0.162 HD
BRANCH  14  17
HETATM   17  C3  UNL     1       1.054  41.810  66.193  1.00  0.00     0.070 C 
HETATM   18  C2  UNL     1       2.092  42.301  66.816  1.00  0.00    -0.026 C 
HETATM   19  C1  UNL     1       3.151  43.103  66.153  1.00  0.00     0.036 C 
ENDBRANCH  14  17
ENDBRANCH  12  13
ENDBRANCH   1  12
TORSDOF 3
ENDMDL
MODEL 2
REMARK VINA RESULT: -7.491241881      1.177      1.185
REMARK  3 active torsions:
REMARK  status: ('A' for Active; 'I' for Inactive)
REMARK    1  A    between atoms: C3_3  and  C4_4 
REMARK       I    between atoms: C4_4  and  N1_6 
REMARK    2  A    between atoms: N1_6  and  C5_8 
REMARK    3  A    between atoms: C5_8  and  C6_9 
ROOT
HETATM    1  C6  UNL     1      -2.520  41.219  69.119  1.00  0.00     0.139 C 
HETATM    2  C7  UNL     1      -3.457  42.429  69.042  1.00  0.00     0.034 C 
HETATM    3  C8  UNL     1      -4.891  42.023  69.092  1.00  0.00     0.003 C 
HETATM    4  C9  UNL     1      -5.656  42.511  70.262  1.00  0.00     0.006 C 
HETATM    5  C10 UNL     1      -4.972  42.376  71.580  1.00  0.00     0.079 C 
HETATM    6  C11 UNL     1      -4.738  40.967  72.021  1.00  0.00     0.245 C 
HETATM    7  F1  UNL     1      -5.152  40.767  73.346  1.00  0.00    -0.206 F 
HETATM    8  F2  UNL     1      -5.426  40.033  71.273  1.00  0.00    -0.206 F 
HETATM    9  C12 UNL     1      -3.242  40.722  72.012  1.00  0.00     0.105 C 
HETATM   10  C13 UNL     1      -2.830  39.779  70.906  1.00  0.00     0.174 C 
HETATM   11  O2  UNL     1      -3.279  40.168  69.670  1.00  0.00    -0.384 OA
ENDROOT
BRANCH   1  12
HETATM   12  C5  UNL     1      -2.093  40.783  67.754  1.00  0.00     0.154 C 
BRANCH  12  13
HETATM   13  N1  UNL     1      -1.620  41.829  66.916  1.00  0.00    -0.355 N 
HETATM   14  C4  UNL     1      -0.236  42.080  66.783  1.00  0.00     0.240 C 
HETATM   15  O1  UNL     1       0.585  41.368  67.415  1.00  0.00    -0.269 OA
ATOM     16  H1  UNL     1      -2.288  42.405  66.405  1.00  0.00     0.162 HD
BRANCH  14  17
HETATM   17  C3  UNL     1       0.263  43.147  65.928  1.00  0.00     0.070 C 
HETATM   18  C2  UNL     1       0.383  44.369  66.374  1.00  0.00    -0.026 C 
HETATM   19  C1  UNL     1       0.885  45.501  65.555  1.00  0.00     0.036 C 
ENDBRANCH  14  17
ENDBRANCH  12  13
ENDBRANCH   1  12
TORSDOF 3
ENDMDL
MODEL 3
REMARK VINA RESULT: -7.324478103      3.394      4.547
REMARK  3 active torsions:
REMARK  status: ('A' for Active; 'I' for Inactive)
REMARK    1  A    between atoms: C3_3  and  C4_4 
REMARK       I    between atoms: C4_4  and  N1_6 
REMARK    2  A    between atoms: N1_6  and  C5_8 
REMARK    3  A    between atoms: C5_8  and  C6_9 
ROOT
HETATM    1  C6  UNL     1      -3.273  40.275  71.131  1.00  0.00     0.139 C 
HETATM    2  C7  UNL     1      -4.706  40.767  71.355  1.00  0.00     0.034 C 
HETATM    3  C8  UNL     1      -4.834  42.232  71.112  1.00  0.00     0.003 C 
HETATM    4  C9  UNL     1      -5.723  42.622  69.994  1.00  0.00     0.006 C 
HETATM    5  C10 UNL     1      -5.556  41.842  68.735  1.00  0.00     0.079 C 
HETATM    6  C11 UNL     1      -4.235  42.021  68.060  1.00  0.00     0.245 C 
HETATM    7  F1  UNL     1      -4.388  42.287  66.691  1.00  0.00    -0.206 F 
HETATM    8  F2  UNL     1      -3.497  43.074  68.561  1.00  0.00    -0.206 F 
HETATM    9  C12 UNL     1      -3.489  40.705  68.147  1.00  0.00     0.105 C 
HETATM   10  C13 UNL     1      -2.310  40.784  69.087  1.00  0.00     0.174 C 
HETATM   11  O2  UNL     1      -2.643  41.250  70.333  1.00  0.00    -0.384 OA
ENDROOT
BRANCH   1  12
HETATM   12  C5  UNL     1      -2.519  40.211  72.421  1.00  0.00     0.154 C 
BRANCH  12  13
HETATM   13  N1  UNL     1      -1.107  40.146  72.282  1.00  0.00    -0.355 N 
HETATM   14  C4  UNL     1      -0.435  38.903  72.294  1.00  0.00     0.240 C 
HETATM   15  O1  UNL     1      -1.097  37.843  72.432  1.00  0.00    -0.269 OA
ATOM     16  H1  UNL     1      -0.571  41.007  72.171  1.00  0.00     0.162 HD
BRANCH  14  17
HETATM   17  C3  UNL     1       1.011  38.820  72.152  1.00  0.00     0.070 C 
HETATM   18  C2  UNL     1       1.558  38.393  71.046  1.00  0.00    -0.026 C 
HETATM   19  C1  UNL     1       3.025  38.285  70.838  1.00  0.00     0.036 C 
ENDBRANCH  14  17
ENDBRANCH  12  13
ENDBRANCH   1  12
TORSDOF 3
ENDMDL
MODEL 4
REMARK VINA RESULT: -7.293940377      2.280      2.939
REMARK  3 active torsions:
REMARK  status: ('A' for Active; 'I' for Inactive)
REMARK    1  A    between atoms: C3_3  and  C4_4 
REMARK       I    between atoms: C4_4  and  N1_6 
REMARK    2  A    between atoms: N1_6  and  C5_8 
REMARK    3  A    between atoms: C5_8  and  C6_9 
ROOT
HETATM    1  C6  UNL     1      -2.380  40.339  70.367  1.00  0.00     0.139 C 
HETATM    2  C7  UNL     1      -3.101  41.599  69.879  1.00  0.00     0.034 C 
HETATM    3  C8  UNL     1      -4.581  41.426  69.880  1.00  0.00     0.003 C 
HETATM    4  C9  UNL     1      -5.332  42.316  70.794  1.00  0.00     0.006 C 
HETATM    5  C10 UNL     1      -4.768  42.452  72.168  1.00  0.00     0.079 C 
HETATM    6  C11 UNL     1      -4.795  41.199  72.981  1.00  0.00     0.245 C 
HETATM    7  F1  UNL     1      -5.322  41.427  74.261  1.00  0.00    -0.206 F 
HETATM    8  F2  UNL     1      -5.575  40.201  72.432  1.00  0.00    -0.206 F 
HETATM    9  C12 UNL     1      -3.362  40.755  73.196  1.00  0.00     0.105 C 
HETATM   10  C13 UNL     1      -3.037  39.499  72.423  1.00  0.00     0.174 C 
HETATM   11  O2  UNL     1      -3.334  39.593  71.088  1.00  0.00    -0.384 OA
ENDROOT
BRANCH   1  12
HETATM   12  C5  UNL     1      -1.941  39.491  69.216  1.00  0.00     0.154 C 
BRANCH  12  13
HETATM   13  N1  UNL     1      -2.617  39.753  67.994  1.00  0.00    -0.355 N 
HETATM   14  C4  UNL     1      -1.932  40.314  66.893  1.00  0.00     0.240 C 
HETATM   15  O1  UNL     1      -0.709  40.585  66.999  1.00  0.00    -0.269 OA
ATOM     16  H1  UNL     1      -3.609  39.533  67.910  1.00  0.00     0.162 HD
BRANCH  14  17
HETATM   17  C3  UNL     1      -2.611  40.587  65.635  1.00  0.00     0.070 C 
HETATM   18  C2  UNL     1      -3.858  40.974  65.610  1.00  0.00    -0.026 C 
HETATM   19  C1  UNL     1      -4.607  41.269  64.362  1.00  0.00     0.036 C 
ENDBRANCH  14  17
ENDBRANCH  12  13
ENDBRANCH   1  12
TORSDOF 3
ENDMDL
MODEL 5
REMARK VINA RESULT: -7.253336299      1.565      2.501
REMARK  3 active torsions:
REMARK  status: ('A' for Active; 'I' for Inactive)
REMARK    1  A    between atoms: C3_3  and  C4_4 
REMARK       I    between atoms: C4_4  and  N1_6 
REMARK    2  A    between atoms: N1_6  and  C5_8 
REMARK    3  A    between atoms: C5_8  and  C6_9 
ROOT
HETATM    1  C6  UNL     1      -2.831  40.599  67.477  1.00  0.00     0.139 C 
HETATM    2  C7  UNL     1      -2.511  39.796  68.742  1.00  0.00     0.034 C 
HETATM    3  C8  UNL     1      -2.004  40.669  69.839  1.00  0.00     0.003 C 
HETATM    4  C9  UNL     1      -2.848  40.730  71.053  1.00  0.00     0.006 C 
HETATM    5  C10 UNL     1      -4.311  40.895  70.814  1.00  0.00     0.079 C 
HETATM    6  C11 UNL     1      -4.698  42.198  70.191  1.00  0.00     0.245 C 
HETATM    7  F1  UNL     1      -5.761  42.801  70.878  1.00  0.00    -0.206 F 
HETATM    8  F2  UNL     1      -3.682  43.132  70.188  1.00  0.00    -0.206 F 
HETATM    9  C12 UNL     1      -5.215  41.908  68.796  1.00  0.00     0.105 C 
HETATM   10  C13 UNL     1      -4.267  42.398  67.728  1.00  0.00     0.174 C 
HETATM   11  O2  UNL     1      -2.986  41.937  67.889  1.00  0.00    -0.384 OA
ENDROOT
BRANCH   1  12
HETATM   12  C5  UNL     1      -1.687  40.566  66.515  1.00  0.00     0.154 C 
BRANCH  12  13
HETATM   13  N1  UNL     1      -0.744  41.617  66.677  1.00  0.00    -0.355 N 
HETATM   14  C4  UNL     1       0.554  41.356  67.167  1.00  0.00     0.240 C 
HETATM   15  O1  UNL     1       0.878  40.178  67.464  1.00  0.00    -0.269 OA
ATOM     16  H1  UNL     1      -1.009  42.572  66.437  1.00  0.00     0.162 HD
BRANCH  14  17
HETATM   17  C3  UNL     1       1.530  42.422  67.339  1.00  0.00     0.070 C 
HETATM   18  C2  UNL     1       1.453  43.526  66.646  1.00  0.00    -0.026 C 
HETATM   19  C1  UNL     1       2.416  44.650  66.772  1.00  0.00     0.036 C 
ENDBRANCH  14  17
ENDBRANCH  12  13
ENDBRANCH   1  12
TORSDOF 3
ENDMDL
