MODEL 1
REMARK VINA RESULT: -6.882686914      0.000      0.000
REMARK  3 active torsions:
REMARK  status: ('A' for Active; 'I' for Inactive)
REMARK    1  A    between atoms: C4_5  and  C5_6 
REMARK    2  A    between atoms: C11_12  and  C12_13 
REMARK    3  A    between atoms: C12_13  and  N1_14 
ROOT
HETATM    1  C5  UNL     1      -2.992  41.600  67.837  1.00  0.00    -0.006 C 
HETATM    2  C6  UNL     1      -3.550  41.311  66.488  1.00  0.00     0.018 C 
HETATM    3  C7  UNL     1      -2.230  40.546  66.326  1.00  0.00    -0.008 C 
HETATM    4  C8  UNL     1      -1.272  41.722  66.320  1.00  0.00     0.010 C 
HETATM    5  C9  UNL     1      -1.714  42.391  67.597  1.00  0.00    -0.002 C 
HETATM    6  C10 UNL     1      -0.910  41.871  68.753  1.00  0.00     0.012 C 
HETATM    7  C11 UNL     1      -0.972  40.388  68.437  1.00  0.00     0.007 C 
HETATM    8  C13 UNL     1      -2.355  40.247  67.809  1.00  0.00     0.006 C 
ENDROOT
BRANCH   1   9
HETATM    9  C4  UNL     1      -3.816  42.103  68.918  1.00  0.00     0.134 C 
HETATM   10  C3  UNL     1      -4.128  41.215  70.067  1.00  0.00     0.038 C 
HETATM   11  C2  UNL     1      -5.336  41.979  70.640  1.00  0.00     0.068 C 
HETATM   12  C1  UNL     1      -6.009  42.383  69.350  1.00  0.00     0.307 C 
HETATM   13  F1  UNL     1      -6.878  41.362  69.011  1.00  0.00    -0.220 F 
HETATM   14  O1  UNL     1      -5.053  42.439  68.356  1.00  0.00    -0.351 OA
ENDBRANCH   1   9
BRANCH   7  15
HETATM   15  C12 UNL     1      -0.847  39.495  69.679  1.00  0.00     0.134 C 
BRANCH  15  16
HETATM   16  N1  UNL     1      -0.399  40.284  70.819  1.00  0.00    -0.143 NA
HETATM   17 CL1  UNL     1      -1.415  40.185  72.205  1.00  0.00    -0.004 Cl
ENDBRANCH  15  16
ENDBRANCH   7  15
TORSDOF 3
ENDMDL
MODEL 2
REMARK VINA RESULT: -6.850953208      3.910      5.337
REMARK  3 active torsions:
REMARK  status: ('A' for Active; 'I' for Inactive)
REMARK    1  A    between atoms: C4_5  and  C5_6 
REMARK    2  A    between atoms: C11_12  and  C12_13 
REMARK    3  A    between atoms: C12_13  and  N1_14 
ROOT
HETATM    1  C5  UNL     1      -1.968  41.560  68.605  1.00  0.00    -0.006 C 
HETATM    2  C6  UNL     1      -1.520  40.821  69.816  1.00  0.00     0.018 C 
HETATM    3  C7  UNL     1      -2.990  40.381  69.846  1.00  0.00    -0.008 C 
HETATM    4  C8  UNL     1      -3.631  41.714  70.181  1.00  0.00     0.010 C 
HETATM    5  C9  UNL     1      -3.017  42.551  69.088  1.00  0.00    -0.002 C 
HETATM    6  C10 UNL     1      -3.905  42.544  67.878  1.00  0.00     0.012 C 
HETATM    7  C11 UNL     1      -4.213  41.059  67.819  1.00  0.00     0.007 C 
HETATM    8  C13 UNL     1      -2.917  40.437  68.331  1.00  0.00     0.006 C 
ENDROOT
BRANCH   1   9
HETATM    9  C4  UNL     1      -1.028  42.101  67.644  1.00  0.00     0.134 C 
HETATM   10  C3  UNL     1      -0.751  41.347  66.395  1.00  0.00     0.038 C 
HETATM   11  C2  UNL     1       0.569  42.028  65.990  1.00  0.00     0.068 C 
HETATM   12  C1  UNL     1       1.204  42.168  67.352  1.00  0.00     0.307 C 
HETATM   13  F1  UNL     1       1.929  41.012  67.580  1.00  0.00    -0.220 F 
HETATM   14  O1  UNL     1       0.203  42.204  68.302  1.00  0.00    -0.351 OA
ENDBRANCH   1   9
BRANCH   7  15
HETATM   15  C12 UNL     1      -4.532  40.558  66.403  1.00  0.00     0.134 C 
BRANCH  15  16
HETATM   16  N1  UNL     1      -4.260  41.608  65.429  1.00  0.00    -0.143 NA
HETATM   17 CL1  UNL     1      -4.659  41.201  63.805  1.00  0.00    -0.004 Cl
ENDBRANCH  15  16
ENDBRANCH   7  15
TORSDOF 3
ENDMDL
MODEL 3
REMARK VINA RESULT: -6.841719702      1.169      1.169
REMARK  3 active torsions:
REMARK  status: ('A' for Active; 'I' for Inactive)
REMARK    1  A    between atoms: C4_5  and  C5_6 
REMARK    2  A    between atoms: C11_12  and  C12_13 
REMARK    3  A    between atoms: C12_13  and  N1_14 
ROOT
HETATM    1  C5  UNL     1      -2.955  41.600  67.834  1.00  0.00    -0.006 C 
HETATM    2  C6  UNL     1      -3.507  41.278  66.490  1.00  0.00     0.018 C 
HETATM    3  C7  UNL     1      -2.175  40.532  66.343  1.00  0.00    -0.008 C 
HETATM    4  C8  UNL     1      -1.236  41.723  66.317  1.00  0.00     0.010 C 
HETATM    5  C9  UNL     1      -1.690  42.407  67.581  1.00  0.00    -0.002 C 
HETATM    6  C10 UNL     1      -0.879  41.921  68.747  1.00  0.00     0.012 C 
HETATM    7  C11 UNL     1      -0.917  40.432  68.458  1.00  0.00     0.007 C 
HETATM    8  C13 UNL     1      -2.297  40.257  67.831  1.00  0.00     0.006 C 
ENDROOT
BRANCH   1   9
HETATM    9  C4  UNL     1      -3.789  42.109  68.905  1.00  0.00     0.134 C 
HETATM   10  C3  UNL     1      -4.103  41.231  70.061  1.00  0.00     0.038 C 
HETATM   11  C2  UNL     1      -5.319  41.993  70.619  1.00  0.00     0.068 C 
HETATM   12  C1  UNL     1      -5.986  42.381  69.320  1.00  0.00     0.307 C 
HETATM   13  F1  UNL     1      -6.847  41.351  68.987  1.00  0.00    -0.220 F 
HETATM   14  O1  UNL     1      -5.024  42.432  68.332  1.00  0.00    -0.351 OA
ENDBRANCH   1   9
BRANCH   7  15
HETATM   15  C12 UNL     1      -0.780  39.563  69.716  1.00  0.00     0.134 C 
BRANCH  15  16
HETATM   16  N1  UNL     1       0.596  39.591  70.195  1.00  0.00    -0.143 NA
HETATM   17 CL1  UNL     1       1.789  39.459  68.961  1.00  0.00    -0.004 Cl
ENDBRANCH  15  16
ENDBRANCH   7  15
TORSDOF 3
ENDMDL
MODEL 4
REMARK VINA RESULT: -6.825152771      2.954      3.477
REMARK  3 active torsions:
REMARK  status: ('A' for Active; 'I' for Inactive)
REMARK    1  A    between atoms: C4_5  and  C5_6 
REMARK    2  A    between atoms: C11_12  and  C12_13 
REMARK    3  A    between atoms: C12_13  and  N1_14 
ROOT
HETATM    1  C5  UNL     1      -2.594  42.044  68.700  1.00  0.00    -0.006 C 
HETATM    2  C6  UNL     1      -2.136  43.456  68.811  1.00  0.00     0.018 C 
HETATM    3  C7  UNL     1      -1.209  43.036  67.664  1.00  0.00    -0.008 C 
HETATM    4  C8  UNL     1      -0.315  42.073  68.420  1.00  0.00     0.010 C 
HETATM    5  C9  UNL     1      -1.377  41.188  69.020  1.00  0.00    -0.002 C 
HETATM    6  C10 UNL     1      -1.666  40.038  68.100  1.00  0.00     0.012 C 
HETATM    7  C11 UNL     1      -1.753  40.799  66.789  1.00  0.00     0.007 C 
HETATM    8  C13 UNL     1      -2.349  42.134  67.227  1.00  0.00     0.006 C 
ENDROOT
BRANCH   1   9
HETATM    9  C4  UNL     1      -3.827  41.587  69.307  1.00  0.00     0.134 C 
HETATM   10  C3  UNL     1      -5.115  42.192  68.880  1.00  0.00     0.038 C 
HETATM   11  C2  UNL     1      -5.989  41.763  70.072  1.00  0.00     0.068 C 
HETATM   12  C1  UNL     1      -4.998  41.966  71.193  1.00  0.00     0.307 C 
HETATM   13  F1  UNL     1      -5.138  43.273  71.624  1.00  0.00    -0.220 F 
HETATM   14  O1  UNL     1      -3.723  41.852  70.677  1.00  0.00    -0.351 OA
ENDBRANCH   1   9
BRANCH   7  15
HETATM   15  C12 UNL     1      -2.653  40.119  65.748  1.00  0.00     0.134 C 
BRANCH  15  16
HETATM   16  N1  UNL     1      -3.979  40.723  65.765  1.00  0.00    -0.143 NA
HETATM   17 CL1  UNL     1      -4.582  41.175  64.218  1.00  0.00    -0.004 Cl
ENDBRANCH  15  16
ENDBRANCH   7  15
TORSDOF 3
ENDMDL
MODEL 5
REMARK VINA RESULT: -6.777334412      3.777      5.067
REMARK  3 active torsions:
REMARK  status: ('A' for Active; 'I' for Inactive)
REMARK    1  A    between atoms: C4_5  and  C5_6 
REMARK    2  A    between atoms: C11_12  and  C12_13 
REMARK    3  A    between atoms: C12_13  and  N1_14 
ROOT
HETATM    1  C5  UNL     1      -0.324  41.048  68.056  1.00  0.00    -0.006 C 
HETATM    2  C6  UNL     1       0.550  42.232  68.278  1.00  0.00     0.018 C 
HETATM    3  C7  UNL     1      -0.568  42.950  67.512  1.00  0.00    -0.008 C 
HETATM    4  C8  UNL     1      -0.363  42.323  66.146  1.00  0.00     0.010 C 
HETATM    5  C9  UNL     1      -0.406  40.870  66.547  1.00  0.00    -0.002 C 
HETATM    6  C10 UNL     1      -1.815  40.357  66.460  1.00  0.00     0.012 C 
HETATM    7  C11 UNL     1      -2.530  41.508  67.143  1.00  0.00     0.007 C 
HETATM    8  C13 UNL     1      -1.504  41.959  68.179  1.00  0.00     0.006 C 
ENDROOT
BRANCH   1   9
HETATM    9  C4  UNL     1      -0.151  39.816  68.798  1.00  0.00     0.134 C 
HETATM   10  C3  UNL     1      -0.269  39.836  70.278  1.00  0.00     0.038 C 
HETATM   11  C2  UNL     1       0.435  38.505  70.595  1.00  0.00     0.068 C 
HETATM   12  C1  UNL     1       1.553  38.568  69.581  1.00  0.00     0.307 C 
HETATM   13  F1  UNL     1       2.613  39.215  70.190  1.00  0.00    -0.220 F 
HETATM   14  O1  UNL     1       1.147  39.366  68.531  1.00  0.00    -0.351 OA
ENDBRANCH   1   9
BRANCH   7  15
HETATM   15  C12 UNL     1      -3.841  41.093  67.824  1.00  0.00     0.134 C 
BRANCH  15  16
HETATM   16  N1  UNL     1      -4.744  42.234  67.905  1.00  0.00    -0.143 NA
HETATM   17 CL1  UNL     1      -5.754  42.253  69.299  1.00  0.00    -0.004 Cl
ENDBRANCH  15  16
ENDBRANCH   7  15
TORSDOF 3
ENDMDL
