MODEL 1
REMARK VINA RESULT: -9.598009445      0.000      0.000
REMARK  5 active torsions:
REMARK  status: ('A' for Active; 'I' for Inactive)
REMARK    1  A    between atoms: C1_2  and  C2_3 
REMARK    2  A    between atoms: C1_2  and  C14_16 
REMARK    3  A    between atoms: C2_3  and  O2_4 
REMARK    4  A    between atoms: O2_4  and  C3_5 
REMARK    5  A    between atoms: C16_20  and  C17_21 
ROOT
HETATM    1  C14 UNL     1       2.315 -10.736  -9.234  1.00  0.00     0.068 A 
HETATM    2  C15 UNL     1       3.040  -9.750  -9.866  1.00  0.00     0.106 A 
HETATM    3  N1  UNL     1       3.366 -10.169 -11.106  1.00  0.00    -0.365 N 
ATOM      4  H1  UNL     1       3.903  -9.628 -11.783  1.00  0.00     0.165 HD
HETATM    5  C16 UNL     1       2.880 -11.405 -11.320  1.00  0.00     0.053 A 
HETATM    6  C22 UNL     1       2.226 -11.752 -10.151  1.00  0.00     0.154 A 
HETATM    7  F1  UNL     1       1.595 -12.934  -9.969  1.00  0.00    -0.203 F 
ENDROOT
BRANCH   1   8
HETATM    8  C1  UNL     1       1.773 -10.696  -7.880  1.00  0.00     0.187 C 
HETATM    9  O1  UNL     1       0.686 -11.325  -7.647  1.00  0.00    -0.290 OA
BRANCH   8  10
HETATM   10  C2  UNL     1       2.443  -9.952  -6.780  1.00  0.00     0.252 C 
BRANCH  10  11
HETATM   11  O2  UNL     1       3.392 -10.761  -6.199  1.00  0.00    -0.372 OA
BRANCH  11  12
HETATM   12  C3  UNL     1       3.234 -11.007  -4.870  1.00  0.00     0.066 C 
HETATM   13  C4  UNL     1       2.526  -9.875  -4.180  1.00  0.00     0.043 C 
HETATM   14  C5  UNL     1       2.605  -9.950  -2.686  1.00  0.00    -0.011 C 
HETATM   15  C6  UNL     1       3.860  -9.336  -2.159  1.00  0.00     0.005 C 
HETATM   16  C12 UNL     1       2.346 -11.346  -2.191  1.00  0.00     0.009 C 
HETATM   17  C7  UNL     1       4.914  -9.110  -3.186  1.00  0.00     0.001 C 
HETATM   18  C8  UNL     1       5.444 -10.281  -3.885  1.00  0.00     0.007 C 
HETATM   19  C9  UNL     1       4.560 -11.369  -4.285  1.00  0.00     0.021 C 
HETATM   20  C10 UNL     1       4.339 -12.339  -3.164  1.00  0.00     0.012 C 
HETATM   21  C11 UNL     1       2.834 -12.429  -3.076  1.00  0.00    -0.011 C 
HETATM   22  C13 UNL     1       2.421 -12.246  -4.539  1.00  0.00     0.043 C 
ENDBRANCH  11  12
ENDBRANCH  10  11
ENDBRANCH   8  10
ENDBRANCH   1   8
BRANCH   5  23
HETATM   23  C17 UNL     1       3.010 -12.254 -12.560  1.00  0.00     0.042 C 
HETATM   24  C18 UNL     1       1.906 -11.971 -13.516  1.00  0.00     0.038 C 
HETATM   25  C19 UNL     1       2.237 -12.178 -14.950  1.00  0.00     0.233 C 
HETATM   26  N2  UNL     1       3.376 -13.081 -15.096  1.00  0.00    -0.075 N 
HETATM   27  C20 UNL     1       4.518 -12.307 -14.589  1.00  0.00     0.233 C 
ATOM     28  H22 UNL     1       3.251 -13.988 -14.645  1.00  0.00     0.277 HD
ATOM     29  H21 UNL     1       3.503 -13.444 -16.041  1.00  0.00     0.277 HD
HETATM   30  C21 UNL     1       4.391 -12.214 -13.110  1.00  0.00     0.038 C 
ENDBRANCH   5  23
TORSDOF 5
ENDMDL
MODEL 2
REMARK VINA RESULT: -9.555374211      0.582      1.845
REMARK  5 active torsions:
REMARK  status: ('A' for Active; 'I' for Inactive)
REMARK    1  A    between atoms: C1_2  and  C2_3 
REMARK    2  A    between atoms: C1_2  and  C14_16 
REMARK    3  A    between atoms: C2_3  and  O2_4 
REMARK    4  A    between atoms: O2_4  and  C3_5 
REMARK    5  A    between atoms: C16_20  and  C17_21 
ROOT
HETATM    1  C14 UNL     1       2.229 -10.667  -9.438  1.00  0.00     0.068 A 
HETATM    2  C15 UNL     1       2.774  -9.634 -10.166  1.00  0.00     0.106 A 
HETATM    3  N1  UNL     1       3.052 -10.071 -11.412  1.00  0.00    -0.365 N 
ATOM      4  H1  UNL     1       3.463  -9.503 -12.152  1.00  0.00     0.165 HD
HETATM    5  C16 UNL     1       2.708 -11.366 -11.536  1.00  0.00     0.053 A 
HETATM    6  C22 UNL     1       2.195 -11.731 -10.304  1.00  0.00     0.154 A 
HETATM    7  F1  UNL     1       1.733 -12.970 -10.024  1.00  0.00    -0.203 F 
ENDROOT
BRANCH   1   8
HETATM    8  C1  UNL     1       1.793 -10.627  -8.046  1.00  0.00     0.187 C 
HETATM    9  O1  UNL     1       0.631 -11.076  -7.765  1.00  0.00    -0.290 OA
BRANCH   8  10
HETATM   10  C2  UNL     1       2.654 -10.083  -6.962  1.00  0.00     0.252 C 
BRANCH  10  11
HETATM   11  O2  UNL     1       2.231 -10.584  -5.753  1.00  0.00    -0.372 OA
BRANCH  11  12
HETATM   12  C3  UNL     1       3.206 -10.841  -4.839  1.00  0.00     0.066 C 
HETATM   13  C4  UNL     1       3.108 -12.242  -4.307  1.00  0.00     0.043 C 
HETATM   14  C5  UNL     1       3.947 -12.473  -3.087  1.00  0.00    -0.011 C 
HETATM   15  C6  UNL     1       3.239 -12.069  -1.835  1.00  0.00     0.005 C 
HETATM   16  C12 UNL     1       5.317 -11.874  -3.240  1.00  0.00     0.009 C 
HETATM   17  C7  UNL     1       2.040 -11.214  -2.053  1.00  0.00     0.001 C 
HETATM   18  C8  UNL     1       2.240  -9.915  -2.696  1.00  0.00     0.007 C 
HETATM   19  C9  UNL     1       3.184  -9.770  -3.797  1.00  0.00     0.021 C 
HETATM   20  C10 UNL     1       4.583  -9.559  -3.300  1.00  0.00     0.012 C 
HETATM   21  C11 UNL     1       5.373 -10.620  -4.028  1.00  0.00    -0.011 C 
HETATM   22  C13 UNL     1       4.625 -10.711  -5.361  1.00  0.00     0.043 C 
ENDBRANCH  11  12
ENDBRANCH  10  11
ENDBRANCH   8  10
ENDBRANCH   1   8
BRANCH   5  23
HETATM   23  C17 UNL     1       2.846 -12.253 -12.748  1.00  0.00     0.042 C 
HETATM   24  C18 UNL     1       1.763 -11.982 -13.730  1.00  0.00     0.038 C 
HETATM   25  C19 UNL     1       2.115 -12.235 -15.153  1.00  0.00     0.233 C 
HETATM   26  N2  UNL     1       3.241 -13.160 -15.252  1.00  0.00    -0.075 N 
HETATM   27  C20 UNL     1       4.387 -12.389 -14.748  1.00  0.00     0.233 C 
ATOM     28  H22 UNL     1       3.095 -14.051 -14.776  1.00  0.00     0.277 HD
ATOM     29  H21 UNL     1       3.379 -13.552 -16.183  1.00  0.00     0.277 HD
HETATM   30  C21 UNL     1       4.237 -12.249 -13.275  1.00  0.00     0.038 C 
ENDBRANCH   5  23
TORSDOF 5
ENDMDL
MODEL 3
REMARK VINA RESULT: -9.266742559      0.726      1.755
REMARK  5 active torsions:
REMARK  status: ('A' for Active; 'I' for Inactive)
REMARK    1  A    between atoms: C1_2  and  C2_3 
REMARK    2  A    between atoms: C1_2  and  C14_16 
REMARK    3  A    between atoms: C2_3  and  O2_4 
REMARK    4  A    between atoms: O2_4  and  C3_5 
REMARK    5  A    between atoms: C16_20  and  C17_21 
ROOT
HETATM    1  C14 UNL     1       2.521 -10.642  -9.482  1.00  0.00     0.068 A 
HETATM    2  C15 UNL     1       2.993  -9.616 -10.269  1.00  0.00     0.106 A 
HETATM    3  N1  UNL     1       3.113 -10.055 -11.539  1.00  0.00    -0.365 N 
ATOM      4  H1  UNL     1       3.443  -9.492 -12.323  1.00  0.00     0.165 HD
HETATM    5  C16 UNL     1       2.735 -11.344 -11.622  1.00  0.00     0.053 A 
HETATM    6  C22 UNL     1       2.366 -11.703 -10.337  1.00  0.00     0.154 A 
HETATM    7  F1  UNL     1       1.920 -12.935 -10.004  1.00  0.00    -0.203 F 
ENDROOT
BRANCH   1   8
HETATM    8  C1  UNL     1       2.254 -10.598  -8.047  1.00  0.00     0.187 C 
HETATM    9  O1  UNL     1       1.045 -10.458  -7.663  1.00  0.00    -0.290 OA
BRANCH   8  10
HETATM   10  C2  UNL     1       3.340 -10.709  -7.036  1.00  0.00     0.252 C 
BRANCH  10  11
HETATM   11  O2  UNL     1       2.841 -11.302  -5.900  1.00  0.00    -0.372 OA
BRANCH  11  12
HETATM   12  C3  UNL     1       3.165 -10.702  -4.722  1.00  0.00     0.066 C 
HETATM   13  C4  UNL     1       4.628 -10.368  -4.657  1.00  0.00     0.043 C 
HETATM   14  C5  UNL     1       5.091 -10.000  -3.281  1.00  0.00    -0.011 C 
HETATM   15  C6  UNL     1       5.445 -11.202  -2.468  1.00  0.00     0.005 C 
HETATM   16  C12 UNL     1       4.127  -9.063  -2.609  1.00  0.00     0.009 C 
HETATM   17  C7  UNL     1       4.946 -12.490  -3.022  1.00  0.00     0.001 C 
HETATM   18  C8  UNL     1       3.498 -12.656  -3.156  1.00  0.00     0.007 C 
HETATM   19  C9  UNL     1       2.662 -11.546  -3.596  1.00  0.00     0.021 C 
HETATM   20  C10 UNL     1       2.292 -10.648  -2.455  1.00  0.00     0.012 C 
HETATM   21  C11 UNL     1       2.700  -9.279  -2.945  1.00  0.00    -0.011 C 
HETATM   22  C13 UNL     1       2.445  -9.394  -4.450  1.00  0.00     0.043 C 
ENDBRANCH  11  12
ENDBRANCH  10  11
ENDBRANCH   8  10
ENDBRANCH   1   8
BRANCH   5  23
HETATM   23  C17 UNL     1       2.712 -12.230 -12.842  1.00  0.00     0.042 C 
HETATM   24  C18 UNL     1       1.551 -11.907 -13.712  1.00  0.00     0.038 C 
HETATM   25  C19 UNL     1       1.749 -12.169 -15.162  1.00  0.00     0.233 C 
HETATM   26  N2  UNL     1       2.818 -13.142 -15.373  1.00  0.00    -0.075 N 
HETATM   27  C20 UNL     1       4.040 -12.424 -14.984  1.00  0.00     0.233 C 
ATOM     28  H22 UNL     1       2.680 -14.027 -14.886  1.00  0.00     0.277 HD
ATOM     29  H21 UNL     1       2.845 -13.535 -16.313  1.00  0.00     0.277 HD
HETATM   30  C21 UNL     1       4.044 -12.286 -13.504  1.00  0.00     0.038 C 
ENDBRANCH   5  23
TORSDOF 5
ENDMDL
MODEL 4
REMARK VINA RESULT: -9.066892527      1.123      1.551
REMARK  5 active torsions:
REMARK  status: ('A' for Active; 'I' for Inactive)
REMARK    1  A    between atoms: C1_2  and  C2_3 
REMARK    2  A    between atoms: C1_2  and  C14_16 
REMARK    3  A    between atoms: C2_3  and  O2_4 
REMARK    4  A    between atoms: O2_4  and  C3_5 
REMARK    5  A    between atoms: C16_20  and  C17_21 
ROOT
HETATM    1  C14 UNL     1       1.931 -11.035  -8.948  1.00  0.00     0.068 A 
HETATM    2  C15 UNL     1       1.396 -12.267  -9.248  1.00  0.00     0.106 A 
HETATM    3  N1  UNL     1       1.682 -12.571 -10.531  1.00  0.00    -0.365 N 
ATOM      4  H1  UNL     1       1.401 -13.429 -11.004  1.00  0.00     0.165 HD
HETATM    5  C16 UNL     1       2.393 -11.578 -11.095  1.00  0.00     0.053 A 
HETATM    6  C22 UNL     1       2.545 -10.624 -10.103  1.00  0.00     0.154 A 
HETATM    7  F1  UNL     1       3.212  -9.462 -10.280  1.00  0.00    -0.203 F 
ENDROOT
BRANCH   1   8
HETATM    8  C1  UNL     1       1.849 -10.328  -7.673  1.00  0.00     0.187 C 
HETATM    9  O1  UNL     1       0.697  -9.966  -7.258  1.00  0.00    -0.290 OA
BRANCH   8  10
HETATM   10  C2  UNL     1       3.055 -10.024  -6.858  1.00  0.00     0.252 C 
BRANCH  10  11
HETATM   11  O2  UNL     1       3.472 -11.169  -6.220  1.00  0.00    -0.372 OA
BRANCH  11  12
HETATM   12  C3  UNL     1       3.271 -11.211  -4.875  1.00  0.00     0.066 C 
HETATM   13  C4  UNL     1       2.718  -9.912  -4.360  1.00  0.00     0.043 C 
HETATM   14  C5  UNL     1       2.773  -9.795  -2.868  1.00  0.00    -0.011 C 
HETATM   15  C6  UNL     1       4.096  -9.291  -2.393  1.00  0.00     0.005 C 
HETATM   16  C12 UNL     1       2.322 -11.064  -2.200  1.00  0.00     0.009 C 
HETATM   17  C7  UNL     1       5.179  -9.347  -3.411  1.00  0.00     0.001 C 
HETATM   18  C8  UNL     1       5.551 -10.662  -3.936  1.00  0.00     0.007 C 
HETATM   19  C9  UNL     1       4.530 -11.665  -4.212  1.00  0.00     0.021 C 
HETATM   20  C10 UNL     1       4.168 -12.438  -2.980  1.00  0.00     0.012 C 
HETATM   21  C11 UNL     1       2.665 -12.313  -2.921  1.00  0.00    -0.011 C 
HETATM   22  C13 UNL     1       2.293 -12.273  -4.406  1.00  0.00     0.043 C 
ENDBRANCH  11  12
ENDBRANCH  10  11
ENDBRANCH   8  10
ENDBRANCH   1   8
BRANCH   5  23
HETATM   23  C17 UNL     1       2.919 -11.495 -12.506  1.00  0.00     0.042 C 
HETATM   24  C18 UNL     1       4.334 -11.946 -12.572  1.00  0.00     0.038 C 
HETATM   25  C19 UNL     1       4.752 -12.546 -13.867  1.00  0.00     0.233 C 
HETATM   26  N2  UNL     1       3.869 -12.116 -14.947  1.00  0.00    -0.075 N 
HETATM   27  C20 UNL     1       2.592 -12.783 -14.657  1.00  0.00     0.233 C 
ATOM     28  H22 UNL     1       3.797 -11.104 -15.052  1.00  0.00     0.277 HD
ATOM     29  H21 UNL     1       4.233 -12.300 -15.882  1.00  0.00     0.277 HD
HETATM   30  C21 UNL     1       1.979 -12.114 -13.479  1.00  0.00     0.038 C 
ENDBRANCH   5  23
TORSDOF 5
ENDMDL
MODEL 5
REMARK VINA RESULT: -9.031110541      1.328      2.346
REMARK  5 active torsions:
REMARK  status: ('A' for Active; 'I' for Inactive)
REMARK    1  A    between atoms: C1_2  and  C2_3 
REMARK    2  A    between atoms: C1_2  and  C14_16 
REMARK    3  A    between atoms: C2_3  and  O2_4 
REMARK    4  A    between atoms: O2_4  and  C3_5 
REMARK    5  A    between atoms: C16_20  and  C17_21 
ROOT
HETATM    1  C14 UNL     1       2.197 -11.159  -8.767  1.00  0.00     0.068 A 
HETATM    2  C15 UNL     1       1.454 -12.267  -9.106  1.00  0.00     0.106 A 
HETATM    3  N1  UNL     1       1.601 -12.510 -10.425  1.00  0.00    -0.365 N 
ATOM      4  H1  UNL     1       1.156 -13.275 -10.931  1.00  0.00     0.165 HD
HETATM    5  C16 UNL     1       2.420 -11.595 -10.976  1.00  0.00     0.053 A 
HETATM    6  C22 UNL     1       2.788 -10.757  -9.938  1.00  0.00     0.154 A 
HETATM    7  F1  UNL     1       3.617  -9.700 -10.089  1.00  0.00    -0.203 F 
ENDROOT
BRANCH   1   8
HETATM    8  C1  UNL     1       2.314 -10.550  -7.446  1.00  0.00     0.187 C 
HETATM    9  O1  UNL     1       1.304  -9.925  -6.978  1.00  0.00    -0.290 OA
BRANCH   8  10
HETATM   10  C2  UNL     1       3.563 -10.638  -6.642  1.00  0.00     0.252 C 
BRANCH  10  11
HETATM   11  O2  UNL     1       3.305 -11.325  -5.478  1.00  0.00    -0.372 OA
BRANCH  11  12
HETATM   12  C3  UNL     1       3.709 -10.722  -4.327  1.00  0.00     0.066 C 
HETATM   13  C4  UNL     1       5.115 -10.204  -4.440  1.00  0.00     0.043 C 
HETATM   14  C5  UNL     1       5.712  -9.818  -3.122  1.00  0.00    -0.011 C 
HETATM   15  C6  UNL     1       6.319 -10.987  -2.418  1.00  0.00     0.005 C 
HETATM   16  C12 UNL     1       4.739  -9.033  -2.286  1.00  0.00     0.009 C 
HETATM   17  C7  UNL     1       5.913 -12.312  -2.959  1.00  0.00     0.001 C 
HETATM   18  C8  UNL     1       4.492 -12.660  -2.909  1.00  0.00     0.007 C 
HETATM   19  C9  UNL     1       3.473 -11.656  -3.184  1.00  0.00     0.021 C 
HETATM   20  C10 UNL     1       3.153 -10.845  -1.965  1.00  0.00     0.012 C 
HETATM   21  C11 UNL     1       3.318  -9.422  -2.441  1.00  0.00    -0.011 C 
HETATM   22  C13 UNL     1       2.876  -9.525  -3.904  1.00  0.00     0.043 C 
ENDBRANCH  11  12
ENDBRANCH  10  11
ENDBRANCH   8  10
ENDBRANCH   1   8
BRANCH   5  23
HETATM   23  C17 UNL     1       2.855 -11.484 -12.415  1.00  0.00     0.042 C 
HETATM   24  C18 UNL     1       4.252 -11.963 -12.587  1.00  0.00     0.038 C 
HETATM   25  C19 UNL     1       4.571 -12.535 -13.922  1.00  0.00     0.233 C 
HETATM   26  N2  UNL     1       3.629 -12.055 -14.930  1.00  0.00    -0.075 N 
HETATM   27  C20 UNL     1       2.358 -12.702 -14.575  1.00  0.00     0.233 C 
ATOM     28  H22 UNL     1       3.576 -11.039 -15.002  1.00  0.00     0.277 HD
ATOM     29  H21 UNL     1       3.928 -12.219 -15.891  1.00  0.00     0.277 HD
HETATM   30  C21 UNL     1       1.839 -12.053 -13.342  1.00  0.00     0.038 C 
ENDBRANCH   5  23
TORSDOF 5
ENDMDL
