MODEL 1
REMARK VINA RESULT: -10.864369503      0.000      0.000
REMARK  6 active torsions:
REMARK  status: ('A' for Active; 'I' for Inactive)
REMARK    1  A    between atoms: N1_1  and  C1_5 
REMARK    2  A    between atoms: C5_9  and  C6_10 
REMARK    3  A    between atoms: C6_10  and  C7_11 
REMARK       I    between atoms: C7_11  and  N2_13 
REMARK    4  A    between atoms: C8_15  and  C9_16 
REMARK    5  A    between atoms: C9_16  and  C10_17 
REMARK    6  A    between atoms: C13_22  and  C14_23 
ROOT
HETATM    1  C1  UNL     1       0.968 -10.547  -7.991  1.00  0.00     0.126 C 
HETATM    2  C2  UNL     1       0.423 -11.887  -7.706  1.00  0.00     0.043 C 
HETATM    3  C3  UNL     1       1.608 -12.833  -7.510  1.00  0.00    -0.010 C 
HETATM    4  C4  UNL     1       2.507 -12.303  -6.424  1.00  0.00     0.014 C 
HETATM    5  C5  UNL     1       3.141 -11.007  -6.904  1.00  0.00    -0.029 C 
HETATM    6  C11 UNL     1       1.893 -10.051  -6.944  1.00  0.00     0.048 C 
HETATM    7  C12 UNL     1       3.805 -11.065  -8.205  1.00  0.00     0.024 C 
HETATM    8  C13 UNL     1       2.843 -11.587  -9.251  1.00  0.00    -0.010 C 
HETATM    9  C20 UNL     1       2.364 -12.946  -8.785  1.00  0.00     0.019 C 
HETATM   10  C21 UNL     1       1.696 -10.552  -9.309  1.00  0.00     0.053 C 
ENDROOT
BRANCH   5  11
HETATM   11  C6  UNL     1       3.921 -10.380  -5.793  1.00  0.00     0.112 C 
BRANCH  11  12
HETATM   12  C7  UNL     1       3.837 -11.080  -4.468  1.00  0.00     0.222 C 
HETATM   13  O1  UNL     1       2.690 -11.165  -3.955  1.00  0.00    -0.273 OA
HETATM   14  N2  UNL     1       5.026 -11.543  -3.977  1.00  0.00    -0.340 N 
HETATM   15  C8  UNL     1       5.821 -11.746  -3.114  1.00  0.00     0.074 C 
ATOM     16  H2  UNL     1       5.484 -11.922  -4.805  1.00  0.00     0.167 HD
BRANCH  15  17
HETATM   17  C9  UNL     1       7.140 -12.431  -3.463  1.00  0.00     0.157 C 
BRANCH  17  18
HETATM   18  C10 UNL     1       8.092 -11.392  -3.887  1.00  0.00     0.177 C 
HETATM   19  O2  UNL     1       7.688 -10.237  -4.198  1.00  0.00    -0.648 OA
HETATM   20  O3  UNL     1       9.448 -11.746  -3.926  1.00  0.00    -0.648 OA
ENDBRANCH  17  18
ENDBRANCH  15  17
ENDBRANCH  11  12
ENDBRANCH   5  11
BRANCH   1  21
HETATM   21  N1  UNL     1      -0.148  -9.599  -8.114  1.00  0.00    -0.070 N 
ATOM     22  H13 UNL     1      -1.044 -10.067  -8.250  1.00  0.00     0.275 HD
ATOM     23  H12 UNL     1      -0.364  -9.134  -7.232  1.00  0.00     0.275 HD
ATOM     24  H11 UNL     1       0.064  -8.938  -8.862  1.00  0.00     0.275 HD
ENDBRANCH   1  21
BRANCH   8  25
HETATM   25  C14 UNL     1       3.344 -11.693 -10.634  1.00  0.00    -0.046 A 
HETATM   26  C15 UNL     1       4.712 -11.749 -10.931  1.00  0.00     0.008 A 
HETATM   27  C16 UNL     1       5.183 -11.969 -12.213  1.00  0.00     0.004 A 
HETATM   28  C17 UNL     1       4.316 -12.150 -13.258  1.00  0.00     0.042 A 
HETATM   29  C18 UNL     1       2.963 -12.106 -13.015  1.00  0.00     0.117 A 
HETATM   30  F1  UNL     1       2.115 -12.305 -14.045  1.00  0.00    -0.206 F 
HETATM   31  C19 UNL     1       2.504 -11.876 -11.714  1.00  0.00     0.050 A 
ENDBRANCH   8  25
TORSDOF 6
ENDMDL
MODEL 2
REMARK VINA RESULT: -10.696966827      0.881      1.264
REMARK  6 active torsions:
REMARK  status: ('A' for Active; 'I' for Inactive)
REMARK    1  A    between atoms: N1_1  and  C1_5 
REMARK    2  A    between atoms: C5_9  and  C6_10 
REMARK    3  A    between atoms: C6_10  and  C7_11 
REMARK       I    between atoms: C7_11  and  N2_13 
REMARK    4  A    between atoms: C8_15  and  C9_16 
REMARK    5  A    between atoms: C9_16  and  C10_17 
REMARK    6  A    between atoms: C13_22  and  C14_23 
ROOT
HETATM    1  C1  UNL     1       0.966 -10.542  -8.031  1.00  0.00     0.126 C 
HETATM    2  C2  UNL     1       0.374 -11.843  -7.671  1.00  0.00     0.043 C 
HETATM    3  C3  UNL     1       1.525 -12.823  -7.441  1.00  0.00    -0.010 C 
HETATM    4  C4  UNL     1       2.459 -12.275  -6.394  1.00  0.00     0.014 C 
HETATM    5  C5  UNL     1       3.134 -11.030  -6.948  1.00  0.00    -0.029 C 
HETATM    6  C11 UNL     1       1.923 -10.030  -7.022  1.00  0.00     0.048 C 
HETATM    7  C12 UNL     1       3.778 -11.179  -8.252  1.00  0.00     0.024 C 
HETATM    8  C13 UNL     1       2.781 -11.716  -9.258  1.00  0.00    -0.010 C 
HETATM    9  C20 UNL     1       2.257 -13.031  -8.718  1.00  0.00     0.019 C 
HETATM   10  C21 UNL     1       1.674 -10.641  -9.355  1.00  0.00     0.053 C 
ENDROOT
BRANCH   5  11
HETATM   11  C6  UNL     1       3.953 -10.378  -5.880  1.00  0.00     0.112 C 
BRANCH  11  12
HETATM   12  C7  UNL     1       3.859 -11.005  -4.520  1.00  0.00     0.222 C 
HETATM   13  O1  UNL     1       2.716 -11.020  -3.991  1.00  0.00    -0.273 OA
HETATM   14  N2  UNL     1       5.035 -11.485  -4.016  1.00  0.00    -0.340 N 
HETATM   15  C8  UNL     1       5.832 -11.672  -3.151  1.00  0.00     0.074 C 
ATOM     16  H2  UNL     1       5.470 -11.924  -4.827  1.00  0.00     0.167 HD
BRANCH  15  17
HETATM   17  C9  UNL     1       7.122 -12.423  -3.475  1.00  0.00     0.157 C 
BRANCH  17  18
HETATM   18  C10 UNL     1       8.123 -11.437  -3.913  1.00  0.00     0.177 C 
HETATM   19  O2  UNL     1       7.778 -10.262  -4.220  1.00  0.00    -0.648 OA
HETATM   20  O3  UNL     1       9.457 -11.863  -3.968  1.00  0.00    -0.648 OA
ENDBRANCH  17  18
ENDBRANCH  15  17
ENDBRANCH  11  12
ENDBRANCH   5  11
BRANCH   1  21
HETATM   21  N1  UNL     1      -0.115  -9.558  -8.189  1.00  0.00    -0.070 N 
ATOM     22  H13 UNL     1      -0.371  -9.115  -7.307  1.00  0.00     0.275 HD
ATOM     23  H12 UNL     1       0.190  -8.720  -8.685  1.00  0.00     0.275 HD
ATOM     24  H11 UNL     1      -0.908 -10.012  -8.641  1.00  0.00     0.275 HD
ENDBRANCH   1  21
BRANCH   8  25
HETATM   25  C14 UNL     1       3.258 -11.911 -10.640  1.00  0.00    -0.046 A 
HETATM   26  C15 UNL     1       2.380 -11.980 -11.731  1.00  0.00     0.008 A 
HETATM   27  C16 UNL     1       2.829 -12.041 -13.038  1.00  0.00     0.004 A 
HETATM   28  C17 UNL     1       4.168 -12.030 -13.323  1.00  0.00     0.042 A 
HETATM   29  C18 UNL     1       5.068 -11.960 -12.285  1.00  0.00     0.117 A 
HETATM   30  F1  UNL     1       6.385 -11.931 -12.574  1.00  0.00    -0.206 F 
HETATM   31  C19 UNL     1       4.598 -11.906 -10.969  1.00  0.00     0.050 A 
ENDBRANCH   8  25
TORSDOF 6
ENDMDL
MODEL 3
REMARK VINA RESULT: -10.607319656      2.164      2.606
REMARK  6 active torsions:
REMARK  status: ('A' for Active; 'I' for Inactive)
REMARK    1  A    between atoms: N1_1  and  C1_5 
REMARK    2  A    between atoms: C5_9  and  C6_10 
REMARK    3  A    between atoms: C6_10  and  C7_11 
REMARK       I    between atoms: C7_11  and  N2_13 
REMARK    4  A    between atoms: C8_15  and  C9_16 
REMARK    5  A    between atoms: C9_16  and  C10_17 
REMARK    6  A    between atoms: C13_22  and  C14_23 
ROOT
HETATM    1  C1  UNL     1       0.952 -10.526  -8.038  1.00  0.00     0.126 C 
HETATM    2  C2  UNL     1       0.364 -11.853  -7.776  1.00  0.00     0.043 C 
HETATM    3  C3  UNL     1       1.519 -12.835  -7.577  1.00  0.00    -0.010 C 
HETATM    4  C4  UNL     1       2.419 -12.345  -6.474  1.00  0.00     0.014 C 
HETATM    5  C5  UNL     1       3.096 -11.063  -6.930  1.00  0.00    -0.029 C 
HETATM    6  C11 UNL     1       1.878 -10.070  -6.974  1.00  0.00     0.048 C 
HETATM    7  C12 UNL     1       3.775 -11.124  -8.224  1.00  0.00     0.024 C 
HETATM    8  C13 UNL     1       2.811 -11.606  -9.288  1.00  0.00    -0.010 C 
HETATM    9  C20 UNL     1       2.286 -12.956  -8.844  1.00  0.00     0.019 C 
HETATM   10  C21 UNL     1       1.696 -10.536  -9.347  1.00  0.00     0.053 C 
ENDROOT
BRANCH   5  11
HETATM   11  C6  UNL     1       3.881 -10.472  -5.803  1.00  0.00     0.112 C 
BRANCH  11  12
HETATM   12  C7  UNL     1       3.202 -10.490  -4.464  1.00  0.00     0.222 C 
HETATM   13  O1  UNL     1       2.477  -9.497  -4.193  1.00  0.00    -0.273 OA
HETATM   14  N2  UNL     1       3.458 -11.592  -3.696  1.00  0.00    -0.340 N 
HETATM   15  C8  UNL     1       3.698 -12.150  -2.672  1.00  0.00     0.074 C 
ATOM     16  H2  UNL     1       3.428 -12.355  -4.372  1.00  0.00     0.167 HD
BRANCH  15  17
HETATM   17  C9  UNL     1       3.873 -13.667  -2.674  1.00  0.00     0.157 C 
BRANCH  17  18
HETATM   18  C10 UNL     1       2.618 -14.268  -3.154  1.00  0.00     0.177 C 
HETATM   19  O2  UNL     1       2.634 -15.325  -3.845  1.00  0.00    -0.648 OA
HETATM   20  O3  UNL     1       1.426 -13.617  -2.809  1.00  0.00    -0.648 OA
ENDBRANCH  17  18
ENDBRANCH  15  17
ENDBRANCH  11  12
ENDBRANCH   5  11
BRANCH   1  21
HETATM   21  N1  UNL     1      -0.134  -9.544  -8.163  1.00  0.00    -0.070 N 
ATOM     22  H13 UNL     1      -0.113  -9.050  -9.055  1.00  0.00     0.275 HD
ATOM     23  H12 UNL     1      -1.049  -9.985  -8.268  1.00  0.00     0.275 HD
ATOM     24  H11 UNL     1      -0.097  -8.910  -7.365  1.00  0.00     0.275 HD
ENDBRANCH   1  21
BRANCH   8  25
HETATM   25  C14 UNL     1       3.325 -11.710 -10.666  1.00  0.00    -0.046 A 
HETATM   26  C15 UNL     1       4.697 -11.734 -10.952  1.00  0.00     0.008 A 
HETATM   27  C16 UNL     1       5.183 -11.952 -12.228  1.00  0.00     0.004 A 
HETATM   28  C17 UNL     1       4.330 -12.163 -13.278  1.00  0.00     0.042 A 
HETATM   29  C18 UNL     1       2.975 -12.152 -13.046  1.00  0.00     0.117 A 
HETATM   30  F1  UNL     1       2.141 -12.380 -14.082  1.00  0.00    -0.206 F 
HETATM   31  C19 UNL     1       2.499 -11.923 -11.751  1.00  0.00     0.050 A 
ENDBRANCH   8  25
TORSDOF 6
ENDMDL
MODEL 4
REMARK VINA RESULT: -10.401750475      1.851      2.693
REMARK  6 active torsions:
REMARK  status: ('A' for Active; 'I' for Inactive)
REMARK    1  A    between atoms: N1_1  and  C1_5 
REMARK    2  A    between atoms: C5_9  and  C6_10 
REMARK    3  A    between atoms: C6_10  and  C7_11 
REMARK       I    between atoms: C7_11  and  N2_13 
REMARK    4  A    between atoms: C8_15  and  C9_16 
REMARK    5  A    between atoms: C9_16  and  C10_17 
REMARK    6  A    between atoms: C13_22  and  C14_23 
ROOT
HETATM    1  C1  UNL     1       0.957 -10.500  -7.937  1.00  0.00     0.126 C 
HETATM    2  C2  UNL     1       0.402 -11.833  -7.637  1.00  0.00     0.043 C 
HETATM    3  C3  UNL     1       1.581 -12.787  -7.441  1.00  0.00    -0.010 C 
HETATM    4  C4  UNL     1       2.491 -12.256  -6.365  1.00  0.00     0.014 C 
HETATM    5  C5  UNL     1       3.132 -10.969  -6.860  1.00  0.00    -0.029 C 
HETATM    6  C11 UNL     1       1.893 -10.003  -6.900  1.00  0.00     0.048 C 
HETATM    7  C12 UNL     1       3.788 -11.043  -8.165  1.00  0.00     0.024 C 
HETATM    8  C13 UNL     1       2.814 -11.566  -9.200  1.00  0.00    -0.010 C 
HETATM    9  C20 UNL     1       2.327 -12.918  -8.720  1.00  0.00     0.019 C 
HETATM   10  C21 UNL     1       1.676 -10.522  -9.260  1.00  0.00     0.053 C 
ENDROOT
BRANCH   5  11
HETATM   11  C6  UNL     1       3.925 -10.339  -5.760  1.00  0.00     0.112 C 
BRANCH  11  12
HETATM   12  C7  UNL     1       3.738 -10.946  -4.399  1.00  0.00     0.222 C 
HETATM   13  O1  UNL     1       4.259 -12.078  -4.219  1.00  0.00    -0.273 OA
HETATM   14  N2  UNL     1       3.018 -10.190  -3.518  1.00  0.00    -0.340 N 
HETATM   15  C8  UNL     1       2.209 -10.026  -2.660  1.00  0.00     0.074 C 
ATOM     16  H2  UNL     1       3.365  -9.246  -3.688  1.00  0.00     0.167 HD
BRANCH  15  17
HETATM   17  C9  UNL     1       1.955  -8.616  -2.133  1.00  0.00     0.157 C 
BRANCH  17  18
HETATM   18  C10 UNL     1       3.238  -7.897  -2.125  1.00  0.00     0.177 C 
HETATM   19  O2  UNL     1       4.278  -8.441  -1.659  1.00  0.00    -0.648 OA
HETATM   20  O3  UNL     1       3.246  -6.599  -2.655  1.00  0.00    -0.648 OA
ENDBRANCH  17  18
ENDBRANCH  15  17
ENDBRANCH  11  12
ENDBRANCH   5  11
BRANCH   1  21
HETATM   21  N1  UNL     1      -0.152  -9.543  -8.061  1.00  0.00    -0.070 N 
ATOM     22  H13 UNL     1      -0.659  -9.645  -8.940  1.00  0.00     0.275 HD
ATOM     23  H12 UNL     1      -0.924  -9.756  -7.428  1.00  0.00     0.275 HD
ATOM     24  H11 UNL     1       0.212  -8.600  -7.928  1.00  0.00     0.275 HD
ENDBRANCH   1  21
BRANCH   8  25
HETATM   25  C14 UNL     1       3.305 -11.688 -10.586  1.00  0.00    -0.046 A 
HETATM   26  C15 UNL     1       4.672 -11.717 -10.894  1.00  0.00     0.008 A 
HETATM   27  C16 UNL     1       5.136 -11.952 -12.176  1.00  0.00     0.004 A 
HETATM   28  C17 UNL     1       4.264 -12.174 -13.209  1.00  0.00     0.042 A 
HETATM   29  C18 UNL     1       2.913 -12.159 -12.954  1.00  0.00     0.117 A 
HETATM   30  F1  UNL     1       2.061 -12.399 -13.972  1.00  0.00    -0.206 F 
HETATM   31  C19 UNL     1       2.460 -11.913 -11.653  1.00  0.00     0.050 A 
ENDBRANCH   8  25
TORSDOF 6
ENDMDL
MODEL 5
REMARK VINA RESULT: -10.344642864      1.944      3.024
REMARK  6 active torsions:
REMARK  status: ('A' for Active; 'I' for Inactive)
REMARK    1  A    between atoms: N1_1  and  C1_5 
REMARK    2  A    between atoms: C5_9  and  C6_10 
REMARK    3  A    between atoms: C6_10  and  C7_11 
REMARK       I    between atoms: C7_11  and  N2_13 
REMARK    4  A    between atoms: C8_15  and  C9_16 
REMARK    5  A    between atoms: C9_16  and  C10_17 
REMARK    6  A    between atoms: C13_22  and  C14_23 
ROOT
HETATM    1  C1  UNL     1       0.978 -10.520  -7.901  1.00  0.00     0.126 C 
HETATM    2  C2  UNL     1       0.431 -11.828  -7.494  1.00  0.00     0.043 C 
HETATM    3  C3  UNL     1       1.615 -12.768  -7.264  1.00  0.00    -0.010 C 
HETATM    4  C4  UNL     1       2.555 -12.165  -6.253  1.00  0.00     0.014 C 
HETATM    5  C5  UNL     1       3.182 -10.918  -6.854  1.00  0.00    -0.029 C 
HETATM    6  C11 UNL     1       1.942  -9.954  -6.928  1.00  0.00     0.048 C 
HETATM    7  C12 UNL     1       3.801 -11.084  -8.168  1.00  0.00     0.024 C 
HETATM    8  C13 UNL     1       2.799 -11.676  -9.137  1.00  0.00    -0.010 C 
HETATM    9  C20 UNL     1       2.325 -12.989  -8.551  1.00  0.00     0.019 C 
HETATM   10  C21 UNL     1       1.660 -10.635  -9.238  1.00  0.00     0.053 C 
ENDROOT
BRANCH   5  11
HETATM   11  C6  UNL     1       4.005 -10.214  -5.823  1.00  0.00     0.112 C 
BRANCH  11  12
HETATM   12  C7  UNL     1       4.054 -10.874  -4.475  1.00  0.00     0.222 C 
HETATM   13  O1  UNL     1       4.926 -11.770  -4.325  1.00  0.00    -0.273 OA
HETATM   14  N2  UNL     1       3.137 -10.418  -3.570  1.00  0.00    -0.340 N 
HETATM   15  C8  UNL     1       2.333 -10.551  -2.701  1.00  0.00     0.074 C 
ATOM     16  H2  UNL     1       3.145  -9.410  -3.722  1.00  0.00     0.167 HD
BRANCH  15  17
HETATM   17  C9  UNL     1       1.631  -9.316  -2.141  1.00  0.00     0.157 C 
BRANCH  17  18
HETATM   18  C10 UNL     1       2.661  -8.315  -1.819  1.00  0.00     0.177 C 
HETATM   19  O2  UNL     1       3.099  -7.533  -2.708  1.00  0.00    -0.648 OA
HETATM   20  O3  UNL     1       3.121  -8.276  -0.495  1.00  0.00    -0.648 OA
ENDBRANCH  17  18
ENDBRANCH  15  17
ENDBRANCH  11  12
ENDBRANCH   5  11
BRANCH   1  21
HETATM   21  N1  UNL     1      -0.134  -9.572  -8.061  1.00  0.00    -0.070 N 
ATOM     22  H13 UNL     1      -0.604  -9.370  -7.179  1.00  0.00     0.275 HD
ATOM     23  H12 UNL     1       0.187  -8.626  -8.270  1.00  0.00     0.275 HD
ATOM     24  H11 UNL     1      -0.773  -9.932  -8.770  1.00  0.00     0.275 HD
ENDBRANCH   1  21
BRANCH   8  25
HETATM   25  C14 UNL     1       3.252 -11.895 -10.524  1.00  0.00    -0.046 A 
HETATM   26  C15 UNL     1       2.354 -11.993 -11.596  1.00  0.00     0.008 A 
HETATM   27  C16 UNL     1       2.778 -12.076 -12.910  1.00  0.00     0.004 A 
HETATM   28  C17 UNL     1       4.112 -12.061 -13.221  1.00  0.00     0.042 A 
HETATM   29  C18 UNL     1       5.030 -11.962 -12.202  1.00  0.00     0.117 A 
HETATM   30  F1  UNL     1       6.342 -11.927 -12.516  1.00  0.00    -0.206 F 
HETATM   31  C19 UNL     1       4.585 -11.885 -10.878  1.00  0.00     0.050 A 
ENDBRANCH   8  25
TORSDOF 6
ENDMDL
