MODEL 1
REMARK VINA RESULT: -7.246140165      0.000      0.000
REMARK  8 active torsions:
REMARK  status: ('A' for Active; 'I' for Inactive)
REMARK    1  A    between atoms: C2_2  and  O1_3 
REMARK    2  A    between atoms: O1_3  and  C3_4 
REMARK    3  A    between atoms: C3_4  and  C4_6 
REMARK    4  A    between atoms: C4_6  and  C5_7 
REMARK    5  A    between atoms: C4_6  and  N1_9 
REMARK    6  A    between atoms: N1_9  and  C7_11 
REMARK    7  A    between atoms: C7_11  and  N2_13 
REMARK    8  A    between atoms: N2_13  and  C8_15 
ROOT
HETATM    1  N2  UNL     1       2.413 -10.640  -7.086  1.00  0.00    -0.358 N 
ATOM      2  H2  UNL     1       2.035  -9.719  -7.307  1.00  0.00     0.162 HD
ENDROOT
BRANCH   1   3
HETATM    3  C7  UNL     1       2.474 -11.581  -8.142  1.00  0.00     0.169 C 
HETATM    4  S1  UNL     1       1.662 -12.985  -8.196  1.00  0.00    -0.041 SA
BRANCH   3   5
HETATM    5  N1  UNL     1       3.278 -11.301  -9.336  1.00  0.00    -0.353 N 
ATOM      6  H1  UNL     1       4.280 -11.135  -9.245  1.00  0.00     0.162 HD
BRANCH   5   7
HETATM    7  C4  UNL     1       2.668 -11.260 -10.622  1.00  0.00     0.183 C 
BRANCH   7   8
HETATM    8  C3  UNL     1       3.628 -11.855 -11.645  1.00  0.00     0.281 C 
HETATM    9  O2  UNL     1       4.861 -11.978 -11.398  1.00  0.00    -0.263 OA
BRANCH   8  10
HETATM   10  O1  UNL     1       3.156 -12.272 -12.858  1.00  0.00    -0.320 OA
BRANCH  10  11
HETATM   11  C2  UNL     1       3.746 -12.280 -14.111  1.00  0.00     0.174 C 
HETATM   12  C1  UNL     1       2.980 -13.008 -15.202  1.00  0.00     0.034 C 
ENDBRANCH  10  11
ENDBRANCH   8  10
ENDBRANCH   7   8
BRANCH   7  13
HETATM   13  C5  UNL     1       2.637  -9.743 -10.984  1.00  0.00     0.031 C 
HETATM   14  C6  UNL     1       3.791  -9.093 -10.193  1.00  0.00     0.007 C 
ENDBRANCH   7  13
ENDBRANCH   5   7
ENDBRANCH   3   5
ENDBRANCH   1   3
BRANCH   1  15
HETATM   15  C8  UNL     1       2.838 -10.866  -5.726  1.00  0.00     0.035 C 
HETATM   16  C9  UNL     1       2.288  -9.691  -4.907  1.00  0.00     0.035 C 
HETATM   17  C10 UNL     1       2.760  -9.718  -3.469  1.00  0.00    -0.010 C 
HETATM   18  C11 UNL     1       4.272  -9.582  -3.489  1.00  0.00     0.014 C 
HETATM   19  C16 UNL     1       2.338 -11.021  -2.852  1.00  0.00     0.030 C 
HETATM   20  C12 UNL     1       4.854 -10.692  -4.274  1.00  0.00    -0.040 C 
HETATM   21  C13 UNL     1       6.352 -10.591  -4.239  1.00  0.00     0.015 C 
HETATM   22  C14 UNL     1       4.449 -12.006  -3.628  1.00  0.00     0.035 C 
HETATM   23  C18 UNL     1       4.374 -10.708  -5.684  1.00  0.00     0.040 C 
HETATM   24  C15 UNL     1       2.948 -12.144  -3.649  1.00  0.00     0.040 C 
HETATM   25 CL1  UNL     1       2.543 -13.681  -2.852  1.00  0.00    -0.119 Cl
HETATM   26  C17 UNL     1       2.384 -12.104  -5.065  1.00  0.00     0.056 C 
ENDBRANCH   1  15
TORSDOF 8
ENDMDL
MODEL 2
REMARK VINA RESULT: -7.160457182      4.414      7.915
REMARK  8 active torsions:
REMARK  status: ('A' for Active; 'I' for Inactive)
REMARK    1  A    between atoms: C2_2  and  O1_3 
REMARK    2  A    between atoms: O1_3  and  C3_4 
REMARK    3  A    between atoms: C3_4  and  C4_6 
REMARK    4  A    between atoms: C4_6  and  C5_7 
REMARK    5  A    between atoms: C4_6  and  N1_9 
REMARK    6  A    between atoms: N1_9  and  C7_11 
REMARK    7  A    between atoms: C7_11  and  N2_13 
REMARK    8  A    between atoms: N2_13  and  C8_15 
ROOT
HETATM    1  N2  UNL     1       2.703  -9.797  -5.765  1.00  0.00    -0.358 N 
ATOM      2  H2  UNL     1       2.287  -8.875  -5.632  1.00  0.00     0.162 HD
ENDROOT
BRANCH   1   3
HETATM    3  C7  UNL     1       3.414 -10.347  -4.672  1.00  0.00     0.169 C 
HETATM    4  S1  UNL     1       4.992 -10.724  -4.673  1.00  0.00    -0.041 SA
BRANCH   3   5
HETATM    5  N1  UNL     1       2.740 -10.572  -3.389  1.00  0.00    -0.353 N 
ATOM      6  H1  UNL     1       2.713 -11.510  -2.987  1.00  0.00     0.162 HD
BRANCH   5   7
HETATM    7  C4  UNL     1       2.122  -9.490  -2.700  1.00  0.00     0.183 C 
BRANCH   7   8
HETATM    8  C3  UNL     1       3.202  -8.535  -2.209  1.00  0.00     0.281 C 
HETATM    9  O2  UNL     1       4.148  -8.931  -1.472  1.00  0.00    -0.263 OA
BRANCH   8  10
HETATM   10  O1  UNL     1       3.159  -7.217  -2.570  1.00  0.00    -0.320 OA
BRANCH  10  11
HETATM   11  C2  UNL     1       3.204  -6.062  -1.808  1.00  0.00     0.174 C 
HETATM   12  C1  UNL     1       2.191  -5.969  -0.680  1.00  0.00     0.034 C 
ENDBRANCH  10  11
ENDBRANCH   8  10
ENDBRANCH   7   8
BRANCH   7  13
HETATM   13  C5  UNL     1       1.574 -10.133  -1.390  1.00  0.00     0.031 C 
HETATM   14  C6  UNL     1       0.384  -9.255  -0.950  1.00  0.00     0.007 C 
ENDBRANCH   7  13
ENDBRANCH   5   7
ENDBRANCH   3   5
ENDBRANCH   1   3
BRANCH   1  15
HETATM   15  C8  UNL     1       2.512 -10.422  -7.051  1.00  0.00     0.035 C 
HETATM   16  C9  UNL     1       1.148  -9.940  -7.561  1.00  0.00     0.035 C 
HETATM   17  C10 UNL     1       0.744 -10.614  -8.856  1.00  0.00    -0.010 C 
HETATM   18  C11 UNL     1       0.616 -12.100  -8.568  1.00  0.00     0.014 C 
HETATM   19  C16 UNL     1       1.805 -10.347  -9.885  1.00  0.00     0.030 C 
HETATM   20  C12 UNL     1       1.908 -12.615  -8.067  1.00  0.00    -0.040 C 
HETATM   21  C13 UNL     1       1.797 -14.096  -7.844  1.00  0.00     0.015 C 
HETATM   22  C14 UNL     1       2.972 -12.370  -9.124  1.00  0.00     0.035 C 
HETATM   23  C18 UNL     1       2.345 -11.940  -6.813  1.00  0.00     0.040 C 
HETATM   24  C15 UNL     1       3.113 -10.889  -9.371  1.00  0.00     0.040 C 
HETATM   25 CL1  UNL     1       4.344 -10.676 -10.636  1.00  0.00    -0.119 Cl
HETATM   26  C17 UNL     1       3.499 -10.127  -8.107  1.00  0.00     0.056 C 
ENDBRANCH   1  15
TORSDOF 8
ENDMDL
MODEL 3
REMARK VINA RESULT: -7.116982846      1.223      2.148
REMARK  8 active torsions:
REMARK  status: ('A' for Active; 'I' for Inactive)
REMARK    1  A    between atoms: C2_2  and  O1_3 
REMARK    2  A    between atoms: O1_3  and  C3_4 
REMARK    3  A    between atoms: C3_4  and  C4_6 
REMARK    4  A    between atoms: C4_6  and  C5_7 
REMARK    5  A    between atoms: C4_6  and  N1_9 
REMARK    6  A    between atoms: N1_9  and  C7_11 
REMARK    7  A    between atoms: C7_11  and  N2_13 
REMARK    8  A    between atoms: N2_13  and  C8_15 
ROOT
HETATM    1  N2  UNL     1       2.137 -10.665  -6.831  1.00  0.00    -0.358 N 
ATOM      2  H2  UNL     1       1.408  -9.956  -6.909  1.00  0.00     0.162 HD
ENDROOT
BRANCH   1   3
HETATM    3  C7  UNL     1       2.353 -11.493  -7.958  1.00  0.00     0.169 C 
HETATM    4  S1  UNL     1       1.732 -12.978  -8.167  1.00  0.00    -0.041 SA
BRANCH   3   5
HETATM    5  N1  UNL     1       3.154 -11.009  -9.088  1.00  0.00    -0.353 N 
ATOM      6  H1  UNL     1       4.073 -10.600  -8.920  1.00  0.00     0.162 HD
BRANCH   5   7
HETATM    7  C4  UNL     1       2.657 -11.108 -10.418  1.00  0.00     0.183 C 
BRANCH   7   8
HETATM    8  C3  UNL     1       3.716 -11.763 -11.296  1.00  0.00     0.281 C 
HETATM    9  O2  UNL     1       4.910 -11.888 -10.905  1.00  0.00    -0.263 OA
BRANCH   8  10
HETATM   10  O1  UNL     1       3.377 -12.232 -12.534  1.00  0.00    -0.320 OA
BRANCH  10  11
HETATM   11  C2  UNL     1       2.166 -12.241 -13.205  1.00  0.00     0.174 C 
HETATM   12  C1  UNL     1       2.217 -12.653 -14.666  1.00  0.00     0.034 C 
ENDBRANCH  10  11
ENDBRANCH   8  10
ENDBRANCH   7   8
BRANCH   7  13
HETATM   13  C5  UNL     1       2.618  -9.633 -10.924  1.00  0.00     0.031 C 
HETATM   14  C6  UNL     1       3.723  -8.888 -10.148  1.00  0.00     0.007 C 
ENDBRANCH   7  13
ENDBRANCH   5   7
ENDBRANCH   3   5
ENDBRANCH   1   3
BRANCH   1  15
HETATM   15  C8  UNL     1       2.853 -10.734  -5.581  1.00  0.00     0.035 C 
HETATM   16  C9  UNL     1       2.428 -12.051  -4.918  1.00  0.00     0.035 C 
HETATM   17  C10 UNL     1       3.003 -12.209  -3.526  1.00  0.00    -0.010 C 
HETATM   18  C11 UNL     1       2.446 -11.079  -2.678  1.00  0.00     0.014 C 
HETATM   19  C16 UNL     1       4.501 -12.136  -3.617  1.00  0.00     0.030 C 
HETATM   20  C12 UNL     1       2.825  -9.783  -3.279  1.00  0.00    -0.040 C 
HETATM   21  C13 UNL     1       2.327  -8.668  -2.403  1.00  0.00     0.015 C 
HETATM   22  C14 UNL     1       4.340  -9.701  -3.340  1.00  0.00     0.035 C 
HETATM   23  C18 UNL     1       2.301  -9.620  -4.664  1.00  0.00     0.040 C 
HETATM   24  C15 UNL     1       4.876 -10.806  -4.215  1.00  0.00     0.040 C 
HETATM   25 CL1  UNL     1       6.648 -10.672  -4.216  1.00  0.00    -0.119 Cl
HETATM   26  C17 UNL     1       4.327 -10.734  -5.636  1.00  0.00     0.056 C 
ENDBRANCH   1  15
TORSDOF 8
ENDMDL
MODEL 4
REMARK VINA RESULT: -7.108387391      4.319      7.833
REMARK  8 active torsions:
REMARK  status: ('A' for Active; 'I' for Inactive)
REMARK    1  A    between atoms: C2_2  and  O1_3 
REMARK    2  A    between atoms: O1_3  and  C3_4 
REMARK    3  A    between atoms: C3_4  and  C4_6 
REMARK    4  A    between atoms: C4_6  and  C5_7 
REMARK    5  A    between atoms: C4_6  and  N1_9 
REMARK    6  A    between atoms: N1_9  and  C7_11 
REMARK    7  A    between atoms: C7_11  and  N2_13 
REMARK    8  A    between atoms: N2_13  and  C8_15 
ROOT
HETATM    1  N2  UNL     1       4.077 -10.359  -5.755  1.00  0.00    -0.358 N 
ATOM      2  H2  UNL     1       4.998 -10.060  -6.076  1.00  0.00     0.162 HD
ENDROOT
BRANCH   1   3
HETATM    3  C7  UNL     1       3.851 -10.356  -4.358  1.00  0.00     0.169 C 
HETATM    4  S1  UNL     1       4.490 -11.409  -3.301  1.00  0.00    -0.041 SA
BRANCH   3   5
HETATM    5  N1  UNL     1       3.022  -9.313  -3.745  1.00  0.00    -0.353 N 
ATOM      6  H1  UNL     1       2.343  -8.806  -4.313  1.00  0.00     0.162 HD
BRANCH   5   7
HETATM    7  C4  UNL     1       3.158  -9.003  -2.362  1.00  0.00     0.183 C 
BRANCH   7   8
HETATM    8  C3  UNL     1       1.843  -9.304  -1.655  1.00  0.00     0.281 C 
HETATM    9  O2  UNL     1       1.499 -10.487  -1.378  1.00  0.00    -0.263 OA
BRANCH   8  10
HETATM   10  O1  UNL     1       1.010  -8.279  -1.304  1.00  0.00    -0.320 OA
BRANCH  10  11
HETATM   11  C2  UNL     1      -0.154  -8.267  -0.554  1.00  0.00     0.174 C 
HETATM   12  C1  UNL     1      -1.453  -8.261  -1.341  1.00  0.00     0.034 C 
ENDBRANCH  10  11
ENDBRANCH   8  10
ENDBRANCH   7   8
BRANCH   7  13
HETATM   13  C5  UNL     1       3.250  -7.447  -2.324  1.00  0.00     0.031 C 
HETATM   14  C6  UNL     1       4.308  -7.108  -1.254  1.00  0.00     0.007 C 
ENDBRANCH   7  13
ENDBRANCH   5   7
ENDBRANCH   3   5
ENDBRANCH   1   3
BRANCH   1  15
HETATM   15  C8  UNL     1       3.124 -10.746  -6.766  1.00  0.00     0.035 C 
HETATM   16  C9  UNL     1       2.654 -12.157  -6.390  1.00  0.00     0.035 C 
HETATM   17  C10 UNL     1       1.737 -12.758  -7.435  1.00  0.00    -0.010 C 
HETATM   18  C11 UNL     1       2.536 -12.877  -8.720  1.00  0.00     0.014 C 
HETATM   19  C16 UNL     1       0.553 -11.849  -7.611  1.00  0.00     0.030 C 
HETATM   20  C12 UNL     1       3.018 -11.539  -9.124  1.00  0.00    -0.040 C 
HETATM   21  C13 UNL     1       3.754 -11.652 -10.429  1.00  0.00     0.015 C 
HETATM   22  C14 UNL     1       1.817 -10.632  -9.330  1.00  0.00     0.035 C 
HETATM   23  C18 UNL     1       3.894 -10.912  -8.095  1.00  0.00     0.040 C 
HETATM   24  C15 UNL     1       1.055 -10.493  -8.037  1.00  0.00     0.040 C 
HETATM   25 CL1  UNL     1      -0.350  -9.451  -8.356  1.00  0.00    -0.119 Cl
HETATM   26  C17 UNL     1       1.915  -9.914  -6.920  1.00  0.00     0.056 C 
ENDBRANCH   1  15
TORSDOF 8
ENDMDL
MODEL 5
REMARK VINA RESULT: -7.079131971      3.818      7.099
REMARK  8 active torsions:
REMARK  status: ('A' for Active; 'I' for Inactive)
REMARK    1  A    between atoms: C2_2  and  O1_3 
REMARK    2  A    between atoms: O1_3  and  C3_4 
REMARK    3  A    between atoms: C3_4  and  C4_6 
REMARK    4  A    between atoms: C4_6  and  C5_7 
REMARK    5  A    between atoms: C4_6  and  N1_9 
REMARK    6  A    between atoms: N1_9  and  C7_11 
REMARK    7  A    between atoms: C7_11  and  N2_13 
REMARK    8  A    between atoms: N2_13  and  C8_15 
ROOT
HETATM    1  N2  UNL     1       3.892 -10.320  -5.510  1.00  0.00    -0.358 N 
ATOM      2  H2  UNL     1       4.744  -9.819  -5.764  1.00  0.00     0.162 HD
ENDROOT
BRANCH   1   3
HETATM    3  C7  UNL     1       3.675 -10.562  -4.132  1.00  0.00     0.169 C 
HETATM    4  S1  UNL     1       2.513  -9.876  -3.230  1.00  0.00    -0.041 SA
BRANCH   3   5
HETATM    5  N1  UNL     1       4.500 -11.539  -3.414  1.00  0.00    -0.353 N 
ATOM      6  H1  UNL     1       4.340 -12.538  -3.552  1.00  0.00     0.162 HD
BRANCH   5   7
HETATM    7  C4  UNL     1       5.523 -11.104  -2.525  1.00  0.00     0.183 C 
BRANCH   7   8
HETATM    8  C3  UNL     1       6.810 -10.900  -3.313  1.00  0.00     0.281 C 
HETATM    9  O2  UNL     1       6.895 -10.030  -4.224  1.00  0.00    -0.263 OA
BRANCH   8  10
HETATM   10  O1  UNL     1       7.907 -11.667  -3.033  1.00  0.00    -0.320 OA
BRANCH  10  11
HETATM   11  C2  UNL     1       8.784 -12.341  -3.867  1.00  0.00     0.174 C 
HETATM   12  C1  UNL     1       8.593 -13.845  -3.957  1.00  0.00     0.034 C 
ENDBRANCH  10  11
ENDBRANCH   8  10
ENDBRANCH   7   8
BRANCH   7  13
HETATM   13  C5  UNL     1       5.824 -12.356  -1.644  1.00  0.00     0.031 C 
HETATM   14  C6  UNL     1       4.928 -13.487  -2.190  1.00  0.00     0.007 C 
ENDBRANCH   7  13
ENDBRANCH   5   7
ENDBRANCH   3   5
ENDBRANCH   1   3
BRANCH   1  15
HETATM   15  C8  UNL     1       3.020 -10.718  -6.587  1.00  0.00     0.035 C 
HETATM   16  C9  UNL     1       2.541 -12.136  -6.245  1.00  0.00     0.035 C 
HETATM   17  C10 UNL     1       1.709 -12.747  -7.353  1.00  0.00    -0.010 C 
HETATM   18  C11 UNL     1       2.601 -12.857  -8.577  1.00  0.00     0.014 C 
HETATM   19  C16 UNL     1       0.531 -11.852  -7.615  1.00  0.00     0.030 C 
HETATM   20  C12 UNL     1       3.095 -11.513  -8.946  1.00  0.00    -0.040 C 
HETATM   21  C13 UNL     1       3.925 -11.616 -10.194  1.00  0.00     0.015 C 
HETATM   22  C14 UNL     1       1.902 -10.621  -9.240  1.00  0.00     0.035 C 
HETATM   23  C18 UNL     1       3.886 -10.876  -7.856  1.00  0.00     0.040 C 
HETATM   24  C15 UNL     1       1.046 -10.491  -8.005  1.00  0.00     0.040 C 
HETATM   25 CL1  UNL     1      -0.344  -9.466  -8.427  1.00  0.00    -0.119 Cl
HETATM   26  C17 UNL     1       1.816  -9.901  -6.829  1.00  0.00     0.056 C 
ENDBRANCH   1  15
TORSDOF 8
ENDMDL
