MODEL 1
REMARK VINA RESULT: -7.706493631      0.000      0.000
REMARK  6 active torsions:
REMARK  status: ('A' for Active; 'I' for Inactive)
REMARK    1  A    between atoms: C2_2  and  N1_5 
REMARK       I    between atoms: C5_7  and  N3_9 
REMARK    2  A    between atoms: N3_9  and  C6_11 
REMARK    3  A    between atoms: C6_11  and  C7_12 
REMARK    4  A    between atoms: C7_12  and  C8_13 
REMARK    5  A    between atoms: C8_13  and  N4_14 
REMARK    6  A    between atoms: N5_17  and  C11_18 
ROOT
HETATM    1  N4  UNL     1       2.308 -10.779  -7.917  1.00  0.00    -0.364 N 
HETATM    2  C9  UNL     1       1.413 -11.670  -8.523  1.00  0.00     0.107 C 
HETATM    3  C10 UNL     1       1.923 -12.321  -9.769  1.00  0.00     0.108 C 
HETATM    4  N5  UNL     1       3.142 -11.796 -10.223  1.00  0.00    -0.354 N 
HETATM    5  C19 UNL     1       4.130 -11.753  -9.242  1.00  0.00     0.108 C 
HETATM    6  C20 UNL     1       3.699 -10.978  -8.025  1.00  0.00     0.107 C 
ENDROOT
BRANCH   1   7
HETATM    7  C8  UNL     1       1.913 -10.283  -6.650  1.00  0.00     0.129 C 
BRANCH   7   8
HETATM    8  C7  UNL     1       3.001 -10.273  -5.594  1.00  0.00     0.040 C 
BRANCH   8   9
HETATM    9  C6  UNL     1       2.578 -11.155  -4.416  1.00  0.00     0.124 C 
BRANCH   9  10
HETATM   10  N3  UNL     1       2.930 -12.531  -4.626  1.00  0.00    -0.365 N 
HETATM   11  C5  UNL     1       1.934 -13.555  -4.652  1.00  0.00     0.184 C 
HETATM   12  N1  UNL     1       1.315 -14.124  -3.784  1.00  0.00    -0.357 N 
HETATM   13  N2  UNL     1       1.628 -13.966  -6.039  1.00  0.00    -0.064 NA
ATOM     14  H1  UNL     1       0.712 -14.776  -4.286  1.00  0.00     0.163 HD
ATOM     15  H3  UNL     1       3.909 -12.782  -4.758  1.00  0.00     0.162 HD
BRANCH  12  16
HETATM   16  C2  UNL     1       1.018 -14.332  -2.467  1.00  0.00     0.021 C 
HETATM   17  C1  UNL     1       1.872 -15.495  -1.887  1.00  0.00     0.037 C 
HETATM   18  C3  UNL     1       1.323 -13.159  -1.536  1.00  0.00     0.037 C 
HETATM   19  C4  UNL     1      -0.419 -14.804  -2.213  1.00  0.00     0.037 C 
ENDBRANCH  12  16
ENDBRANCH   9  10
ENDBRANCH   8   9
ENDBRANCH   7   8
ENDBRANCH   1   7
BRANCH   4  20
HETATM   20  C11 UNL     1       3.178 -10.966 -11.335  1.00  0.00     0.035 C 
HETATM   21  C12 UNL     1       2.905  -9.516 -10.884  1.00  0.00     0.039 C 
HETATM   22  C13 UNL     1       2.073 -11.223 -12.338  1.00  0.00     0.031 C 
HETATM   23  C14 UNL     1       2.309 -12.402 -13.211  1.00  0.00     0.002 C 
HETATM   24  C15 UNL     1       3.283 -12.100 -14.326  1.00  0.00     0.003 C 
HETATM   25  C16 UNL     1       4.682 -12.482 -13.962  1.00  0.00     0.037 C 
HETATM   26  C17 UNL     1       5.023 -12.267 -12.514  1.00  0.00     0.172 C 
HETATM   27  F1  UNL     1       6.448 -12.257 -12.461  1.00  0.00    -0.249 F 
HETATM   28  C18 UNL     1       4.491 -10.951 -12.050  1.00  0.00     0.068 C 
ENDBRANCH   4  20
TORSDOF 6
ENDMDL
MODEL 2
REMARK VINA RESULT: -7.648200663      2.409      3.518
REMARK  6 active torsions:
REMARK  status: ('A' for Active; 'I' for Inactive)
REMARK    1  A    between atoms: C2_2  and  N1_5 
REMARK       I    between atoms: C5_7  and  N3_9 
REMARK    2  A    between atoms: N3_9  and  C6_11 
REMARK    3  A    between atoms: C6_11  and  C7_12 
REMARK    4  A    between atoms: C7_12  and  C8_13 
REMARK    5  A    between atoms: C8_13  and  N4_14 
REMARK    6  A    between atoms: N5_17  and  C11_18 
ROOT
HETATM    1  N4  UNL     1       2.598 -10.820  -7.897  1.00  0.00    -0.364 N 
HETATM    2  C9  UNL     1       1.583 -11.636  -8.412  1.00  0.00     0.107 C 
HETATM    3  C10 UNL     1       1.913 -12.307  -9.707  1.00  0.00     0.108 C 
HETATM    4  N5  UNL     1       3.114 -11.867 -10.282  1.00  0.00    -0.354 N 
HETATM    5  C19 UNL     1       4.198 -11.908  -9.408  1.00  0.00     0.108 C 
HETATM    6  C20 UNL     1       3.952 -11.119  -8.149  1.00  0.00     0.107 C 
ENDROOT
BRANCH   1   7
HETATM    7  C8  UNL     1       2.373 -10.312  -6.594  1.00  0.00     0.129 C 
BRANCH   7   8
HETATM    8  C7  UNL     1       2.252 -11.360  -5.506  1.00  0.00     0.040 C 
BRANCH   8   9
HETATM    9  C6  UNL     1       3.511 -11.339  -4.633  1.00  0.00     0.124 C 
BRANCH   9  10
HETATM   10  N3  UNL     1       4.297 -10.158  -4.858  1.00  0.00    -0.365 N 
HETATM   11  C5  UNL     1       5.063  -9.567  -3.808  1.00  0.00     0.184 C 
HETATM   12  N1  UNL     1       4.769  -8.868  -2.866  1.00  0.00    -0.357 N 
HETATM   13  N2  UNL     1       6.496  -9.909  -3.935  1.00  0.00    -0.064 NA
ATOM     14  H1  UNL     1       5.655  -8.697  -2.390  1.00  0.00     0.163 HD
ATOM     15  H3  UNL     1       4.307  -9.734  -5.785  1.00  0.00     0.162 HD
BRANCH  12  16
HETATM   16  C2  UNL     1       3.845  -8.193  -2.121  1.00  0.00     0.021 C 
HETATM   17  C1  UNL     1       4.347  -8.003  -0.661  1.00  0.00     0.037 C 
HETATM   18  C3  UNL     1       3.542  -6.770  -2.588  1.00  0.00     0.037 C 
HETATM   19  C4  UNL     1       2.522  -8.943  -1.930  1.00  0.00     0.037 C 
ENDBRANCH  12  16
ENDBRANCH   9  10
ENDBRANCH   8   9
ENDBRANCH   7   8
ENDBRANCH   1   7
BRANCH   4  20
HETATM   20  C11 UNL     1       3.096 -11.028 -11.388  1.00  0.00     0.035 C 
HETATM   21  C12 UNL     1       2.783  -9.592 -10.920  1.00  0.00     0.039 C 
HETATM   22  C13 UNL     1       1.980 -11.316 -12.369  1.00  0.00     0.031 C 
HETATM   23  C14 UNL     1       2.236 -12.480 -13.256  1.00  0.00     0.002 C 
HETATM   24  C15 UNL     1       3.175 -12.136 -14.390  1.00  0.00     0.003 C 
HETATM   25  C16 UNL     1       4.593 -12.472 -14.059  1.00  0.00     0.037 C 
HETATM   26  C17 UNL     1       4.958 -12.255 -12.618  1.00  0.00     0.172 C 
HETATM   27  F1  UNL     1       6.383 -12.196 -12.595  1.00  0.00    -0.249 F 
HETATM   28  C18 UNL     1       4.392 -10.963 -12.132  1.00  0.00     0.068 C 
ENDBRANCH   4  20
TORSDOF 6
ENDMDL
MODEL 3
REMARK VINA RESULT: -7.540721528      1.059      1.686
REMARK  6 active torsions:
REMARK  status: ('A' for Active; 'I' for Inactive)
REMARK    1  A    between atoms: C2_2  and  N1_5 
REMARK       I    between atoms: C5_7  and  N3_9 
REMARK    2  A    between atoms: N3_9  and  C6_11 
REMARK    3  A    between atoms: C6_11  and  C7_12 
REMARK    4  A    between atoms: C7_12  and  C8_13 
REMARK    5  A    between atoms: C8_13  and  N4_14 
REMARK    6  A    between atoms: N5_17  and  C11_18 
ROOT
HETATM    1  N4  UNL     1       2.412 -10.839  -7.900  1.00  0.00    -0.364 N 
HETATM    2  C9  UNL     1       1.481 -11.709  -8.482  1.00  0.00     0.107 C 
HETATM    3  C10 UNL     1       1.934 -12.356  -9.751  1.00  0.00     0.108 C 
HETATM    4  N5  UNL     1       3.144 -11.847 -10.244  1.00  0.00    -0.354 N 
HETATM    5  C19 UNL     1       4.168 -11.830  -9.300  1.00  0.00     0.108 C 
HETATM    6  C20 UNL     1       3.794 -11.061  -8.060  1.00  0.00     0.107 C 
ENDROOT
BRANCH   1   7
HETATM    7  C8  UNL     1       2.072 -10.350  -6.615  1.00  0.00     0.129 C 
BRANCH   7   8
HETATM    8  C7  UNL     1       3.129 -10.553  -5.547  1.00  0.00     0.040 C 
BRANCH   8   9
HETATM    9  C6  UNL     1       2.611 -10.020  -4.207  1.00  0.00     0.124 C 
BRANCH   9  10
HETATM   10  N3  UNL     1       3.237 -10.676  -3.094  1.00  0.00    -0.365 N 
HETATM   11  C5  UNL     1       3.845 -11.961  -3.237  1.00  0.00     0.184 C 
HETATM   12  N1  UNL     1       3.396 -13.082  -3.301  1.00  0.00    -0.357 N 
HETATM   13  N2  UNL     1       5.317 -11.849  -3.325  1.00  0.00    -0.064 NA
ATOM     14  H1  UNL     1       4.217 -13.679  -3.404  1.00  0.00     0.163 HD
ATOM     15  H3  UNL     1       3.248 -10.216  -2.184  1.00  0.00     0.162 HD
BRANCH  12  16
HETATM   16  C2  UNL     1       2.341 -13.949  -3.305  1.00  0.00     0.021 C 
HETATM   17  C1  UNL     1       1.534 -13.828  -4.630  1.00  0.00     0.037 C 
HETATM   18  C3  UNL     1       2.711 -15.430  -3.240  1.00  0.00     0.037 C 
HETATM   19  C4  UNL     1       1.283 -13.656  -2.235  1.00  0.00     0.037 C 
ENDBRANCH  12  16
ENDBRANCH   9  10
ENDBRANCH   8   9
ENDBRANCH   7   8
ENDBRANCH   1   7
BRANCH   4  20
HETATM   20  C11 UNL     1       3.154 -11.006 -11.349  1.00  0.00     0.035 C 
HETATM   21  C12 UNL     1       2.862  -9.565 -10.882  1.00  0.00     0.039 C 
HETATM   22  C13 UNL     1       2.042 -11.272 -12.342  1.00  0.00     0.031 C 
HETATM   23  C14 UNL     1       2.287 -12.440 -13.228  1.00  0.00     0.002 C 
HETATM   24  C15 UNL     1       3.243 -12.112 -14.351  1.00  0.00     0.003 C 
HETATM   25  C16 UNL     1       4.652 -12.474 -14.007  1.00  0.00     0.037 C 
HETATM   26  C17 UNL     1       5.005 -12.266 -12.561  1.00  0.00     0.172 C 
HETATM   27  F1  UNL     1       6.431 -12.233 -12.524  1.00  0.00    -0.249 F 
HETATM   28  C18 UNL     1       4.458 -10.964 -12.079  1.00  0.00     0.068 C 
ENDBRANCH   4  20
TORSDOF 6
ENDMDL
MODEL 4
REMARK VINA RESULT: -7.454368854      3.516      8.137
REMARK  6 active torsions:
REMARK  status: ('A' for Active; 'I' for Inactive)
REMARK    1  A    between atoms: C2_2  and  N1_5 
REMARK       I    between atoms: C5_7  and  N3_9 
REMARK    2  A    between atoms: N3_9  and  C6_11 
REMARK    3  A    between atoms: C6_11  and  C7_12 
REMARK    4  A    between atoms: C7_12  and  C8_13 
REMARK    5  A    between atoms: C8_13  and  N4_14 
REMARK    6  A    between atoms: N5_17  and  C11_18 
ROOT
HETATM    1  N4  UNL     1       2.691 -10.086  -4.749  1.00  0.00    -0.364 N 
HETATM    2  C9  UNL     1       3.109 -11.420  -4.837  1.00  0.00     0.107 C 
HETATM    3  C10 UNL     1       3.704 -11.975  -3.583  1.00  0.00     0.108 C 
HETATM    4  N5  UNL     1       3.910 -11.015  -2.582  1.00  0.00    -0.354 N 
HETATM    5  C19 UNL     1       2.780 -10.250  -2.301  1.00  0.00     0.108 C 
HETATM    6  C20 UNL     1       2.236  -9.558  -3.524  1.00  0.00     0.107 C 
ENDROOT
BRANCH   1   7
HETATM    7  C8  UNL     1       1.973  -9.594  -5.867  1.00  0.00     0.129 C 
BRANCH   7   8
HETATM    8  C7  UNL     1       2.151 -10.388  -7.147  1.00  0.00     0.040 C 
BRANCH   8   9
HETATM    9  C6  UNL     1       0.847 -10.360  -7.951  1.00  0.00     0.124 C 
BRANCH   9  10
HETATM   10  N3  UNL     1       0.670 -11.558  -8.723  1.00  0.00    -0.365 N 
HETATM   11  C5  UNL     1       1.790 -12.326  -9.165  1.00  0.00     0.184 C 
HETATM   12  N1  UNL     1       2.584 -12.183 -10.065  1.00  0.00    -0.357 N 
HETATM   13  N2  UNL     1       1.980 -13.525  -8.321  1.00  0.00    -0.064 NA
ATOM     14  H1  UNL     1       3.207 -12.987  -9.986  1.00  0.00     0.163 HD
ATOM     15  H3  UNL     1      -0.273 -11.865  -8.961  1.00  0.00     0.162 HD
BRANCH  12  16
HETATM   16  C2  UNL     1       3.065 -11.483 -11.135  1.00  0.00     0.021 C 
HETATM   17  C1  UNL     1       4.571 -11.796 -11.366  1.00  0.00     0.037 C 
HETATM   18  C3  UNL     1       2.416 -11.816 -12.479  1.00  0.00     0.037 C 
HETATM   19  C4  UNL     1       3.058  -9.962 -10.946  1.00  0.00     0.037 C 
ENDBRANCH  12  16
ENDBRANCH   9  10
ENDBRANCH   8   9
ENDBRANCH   7   8
ENDBRANCH   1   7
BRANCH   4  20
HETATM   20  C11 UNL     1       5.191 -10.560  -2.300  1.00  0.00     0.035 C 
HETATM   21  C12 UNL     1       5.093  -9.368  -1.326  1.00  0.00     0.039 C 
HETATM   22  C13 UNL     1       5.916  -9.967  -3.489  1.00  0.00     0.031 C 
HETATM   23  C14 UNL     1       6.481 -10.978  -4.421  1.00  0.00     0.002 C 
HETATM   24  C15 UNL     1       7.769 -11.573  -3.903  1.00  0.00     0.003 C 
HETATM   25  C16 UNL     1       7.534 -12.848  -3.158  1.00  0.00     0.037 C 
HETATM   26  C17 UNL     1       6.259 -12.871  -2.363  1.00  0.00     0.172 C 
HETATM   27  F1  UNL     1       6.425 -13.925  -1.417  1.00  0.00    -0.249 F 
HETATM   28  C18 UNL     1       6.075 -11.574  -1.647  1.00  0.00     0.068 C 
ENDBRANCH   4  20
TORSDOF 6
ENDMDL
MODEL 5
REMARK VINA RESULT: -7.439621466      1.932      3.028
REMARK  6 active torsions:
REMARK  status: ('A' for Active; 'I' for Inactive)
REMARK    1  A    between atoms: C2_2  and  N1_5 
REMARK       I    between atoms: C5_7  and  N3_9 
REMARK    2  A    between atoms: N3_9  and  C6_11 
REMARK    3  A    between atoms: C6_11  and  C7_12 
REMARK    4  A    between atoms: C7_12  and  C8_13 
REMARK    5  A    between atoms: C8_13  and  N4_14 
REMARK    6  A    between atoms: N5_17  and  C11_18 
ROOT
HETATM    1  N4  UNL     1       2.318 -10.806  -7.917  1.00  0.00    -0.364 N 
HETATM    2  C9  UNL     1       1.432 -11.710  -8.518  1.00  0.00     0.107 C 
HETATM    3  C10 UNL     1       1.943 -12.352  -9.767  1.00  0.00     0.108 C 
HETATM    4  N5  UNL     1       3.151 -11.810 -10.229  1.00  0.00    -0.354 N 
HETATM    5  C19 UNL     1       4.145 -11.754  -9.255  1.00  0.00     0.108 C 
HETATM    6  C20 UNL     1       3.711 -10.986  -8.034  1.00  0.00     0.107 C 
ENDROOT
BRANCH   1   7
HETATM    7  C8  UNL     1       1.924 -10.317  -6.647  1.00  0.00     0.129 C 
BRANCH   7   8
HETATM    8  C7  UNL     1       2.875 -10.636  -5.511  1.00  0.00     0.040 C 
BRANCH   8   9
HETATM    9  C6  UNL     1       2.469 -11.963  -4.862  1.00  0.00     0.124 C 
BRANCH   9  10
HETATM   10  N3  UNL     1       2.568 -11.910  -3.430  1.00  0.00    -0.365 N 
HETATM   11  C5  UNL     1       3.273 -10.854  -2.775  1.00  0.00     0.184 C 
HETATM   12  N1  UNL     1       4.449 -10.635  -2.597  1.00  0.00    -0.357 N 
HETATM   13  N2  UNL     1       2.338  -9.850  -2.224  1.00  0.00    -0.064 NA
ATOM     14  H1  UNL     1       4.469  -9.757  -2.079  1.00  0.00     0.163 HD
ATOM     15  H3  UNL     1       2.127 -12.639  -2.871  1.00  0.00     0.162 HD
BRANCH  12  16
HETATM   16  C2  UNL     1       5.764 -10.974  -2.743  1.00  0.00     0.021 C 
HETATM   17  C1  UNL     1       6.268 -10.623  -4.172  1.00  0.00     0.037 C 
HETATM   18  C3  UNL     1       6.736 -10.235  -1.824  1.00  0.00     0.037 C 
HETATM   19  C4  UNL     1       6.039 -12.479  -2.645  1.00  0.00     0.037 C 
ENDBRANCH  12  16
ENDBRANCH   9  10
ENDBRANCH   8   9
ENDBRANCH   7   8
ENDBRANCH   1   7
BRANCH   4  20
HETATM   20  C11 UNL     1       3.167 -10.979 -11.341  1.00  0.00     0.035 C 
HETATM   21  C12 UNL     1       2.891  -9.531 -10.885  1.00  0.00     0.039 C 
HETATM   22  C13 UNL     1       2.052 -11.242 -12.330  1.00  0.00     0.031 C 
HETATM   23  C14 UNL     1       2.284 -12.419 -13.207  1.00  0.00     0.002 C 
HETATM   24  C15 UNL     1       3.242 -12.110 -14.334  1.00  0.00     0.003 C 
HETATM   25  C16 UNL     1       4.647 -12.484 -13.988  1.00  0.00     0.037 C 
HETATM   26  C17 UNL     1       5.005 -12.267 -12.545  1.00  0.00     0.172 C 
HETATM   27  F1  UNL     1       6.431 -12.249 -12.509  1.00  0.00    -0.249 F 
HETATM   28  C18 UNL     1       4.471 -10.956 -12.073  1.00  0.00     0.068 C 
ENDBRANCH   4  20
TORSDOF 6
ENDMDL
