MODEL 1
REMARK VINA RESULT: -7.233610673      0.000      0.000
REMARK  6 active torsions:
REMARK  status: ('A' for Active; 'I' for Inactive)
REMARK    1  A    between atoms: N2_5  and  C3_6 
REMARK    2  A    between atoms: C3_6  and  C4_7 
REMARK    3  A    between atoms: C3_6  and  C9_15 
REMARK       I    between atoms: C4_7  and  N3_9 
REMARK    4  A    between atoms: N3_9  and  C5_11 
REMARK    5  A    between atoms: C5_11  and  C6_12 
REMARK    6  A    between atoms: N4_23  and  C17_25 
ROOT
HETATM    1  C3  UNL     1       3.293 -10.882  -4.760  1.00  0.00     0.205 C 
ENDROOT
BRANCH   1   2
HETATM    2  N2  UNL     1       3.501  -9.912  -3.707  1.00  0.00    -0.262 N 
HETATM    3  N1  UNL     1       2.571  -9.068  -3.306  1.00  0.00    -0.300 N 
HETATM    4  C2  UNL     1       3.069  -8.300  -2.320  1.00  0.00     0.032 A 
ATOM      5  H1  UNL     1       1.625  -9.006  -3.683  1.00  0.00     0.187 HD
HETATM    6  C1  UNL     1       2.366  -7.211  -1.572  1.00  0.00     0.070 C 
HETATM    7  C20 UNL     1       4.384  -8.677  -2.081  1.00  0.00     0.007 A 
HETATM    8  C16 UNL     1       4.636  -9.697  -2.968  1.00  0.00     0.127 A 
HETATM    9  C21 UNL     1       5.273  -8.067  -1.068  1.00  0.00     0.054 C 
HETATM   10  N4  UNL     1       5.682 -10.371  -3.147  1.00  0.00    -0.371 N 
ATOM     11  H4  UNL     1       5.600 -11.077  -3.879  1.00  0.00     0.161 HD
BRANCH  10  12
HETATM   12  C17 UNL     1       6.949 -10.337  -2.526  1.00  0.00     0.075 C 
HETATM   13  C18 UNL     1       7.050 -11.352  -1.368  1.00  0.00     0.031 C 
HETATM   14  C19 UNL     1       7.971 -10.866  -3.547  1.00  0.00     0.031 C 
ENDBRANCH  10  12
ENDBRANCH   1   2
BRANCH   1  15
HETATM   15  C4  UNL     1       2.863 -10.293  -6.041  1.00  0.00     0.242 C 
HETATM   16  O1  UNL     1       1.880  -9.516  -6.095  1.00  0.00    -0.271 OA
HETATM   17  N3  UNL     1       3.553 -10.594  -7.245  1.00  0.00    -0.359 N 
ATOM     18  H3  UNL     1       4.352 -11.225  -7.191  1.00  0.00     0.162 HD
BRANCH  17  19
HETATM   19  C5  UNL     1       3.197 -10.070  -8.528  1.00  0.00     0.126 C 
BRANCH  19  20
HETATM   20  C6  UNL     1       2.994 -11.107  -9.598  1.00  0.00    -0.005 C 
HETATM   21  C7  UNL     1       4.331 -11.773  -9.874  1.00  0.00     0.011 C 
HETATM   22  C8  UNL     1       2.051 -12.169  -9.104  1.00  0.00     0.011 C 
ENDBRANCH  19  20
ENDBRANCH  17  19
ENDBRANCH   1  15
BRANCH   1  23
HETATM   23  C9  UNL     1       2.375 -11.998  -4.306  1.00  0.00     0.020 C 
HETATM   24  C10 UNL     1       1.925 -12.856  -5.465  1.00  0.00     0.007 C 
HETATM   25  C11 UNL     1       1.600 -14.233  -4.870  1.00  0.00     0.005 C 
HETATM   26  C12 UNL     1       0.961 -14.037  -3.512  1.00  0.00    -0.019 C 
HETATM   27  C13 UNL     1       0.364 -15.331  -3.022  1.00  0.00     0.010 C 
HETATM   28  C14 UNL     1       1.949 -13.542  -2.479  1.00  0.00     0.005 C 
HETATM   29  C15 UNL     1       3.054 -12.832  -3.240  1.00  0.00     0.007 C 
ENDBRANCH   1  23
TORSDOF 6
ENDMDL
MODEL 2
REMARK VINA RESULT: -6.823092771      1.132      1.425
REMARK  6 active torsions:
REMARK  status: ('A' for Active; 'I' for Inactive)
REMARK    1  A    between atoms: N2_5  and  C3_6 
REMARK    2  A    between atoms: C3_6  and  C4_7 
REMARK    3  A    between atoms: C3_6  and  C9_15 
REMARK       I    between atoms: C4_7  and  N3_9 
REMARK    4  A    between atoms: N3_9  and  C5_11 
REMARK    5  A    between atoms: C5_11  and  C6_12 
REMARK    6  A    between atoms: N4_23  and  C17_25 
ROOT
HETATM    1  C3  UNL     1       3.661 -11.453  -4.543  1.00  0.00     0.205 C 
ENDROOT
BRANCH   1   2
HETATM    2  N2  UNL     1       4.301 -10.704  -3.485  1.00  0.00    -0.262 N 
HETATM    3  N1  UNL     1       3.743  -9.668  -2.890  1.00  0.00    -0.300 N 
HETATM    4  C2  UNL     1       4.585  -9.190  -1.956  1.00  0.00     0.032 A 
ATOM      5  H1  UNL     1       2.819  -9.290  -3.102  1.00  0.00     0.187 HD
HETATM    6  C1  UNL     1       4.363  -8.026  -1.043  1.00  0.00     0.070 C 
HETATM    7  C20 UNL     1       5.739  -9.962  -1.958  1.00  0.00     0.007 A 
HETATM    8  C16 UNL     1       5.538 -10.913  -2.931  1.00  0.00     0.127 A 
HETATM    9  C21 UNL     1       6.904  -9.752  -1.070  1.00  0.00     0.054 C 
HETATM   10  N4  UNL     1       6.290 -11.845  -3.317  1.00  0.00    -0.371 N 
ATOM     11  H4  UNL     1       5.893 -12.414  -4.064  1.00  0.00     0.161 HD
BRANCH  10  12
HETATM   12  C17 UNL     1       7.578 -12.252  -2.910  1.00  0.00     0.075 C 
HETATM   13  C18 UNL     1       7.819 -13.752  -3.179  1.00  0.00     0.031 C 
HETATM   14  C19 UNL     1       8.589 -11.562  -3.843  1.00  0.00     0.031 C 
ENDBRANCH  10  12
ENDBRANCH   1   2
BRANCH   1  15
HETATM   15  C4  UNL     1       3.187 -10.621  -5.665  1.00  0.00     0.242 C 
HETATM   16  O1  UNL     1       2.351  -9.706  -5.479  1.00  0.00    -0.271 OA
HETATM   17  N3  UNL     1       3.668 -10.840  -6.983  1.00  0.00    -0.359 N 
ATOM     18  H3  UNL     1       4.350 -11.585  -7.124  1.00  0.00     0.162 HD
BRANCH  17  19
HETATM   19  C5  UNL     1       3.256 -10.082  -8.125  1.00  0.00     0.126 C 
BRANCH  19  20
HETATM   20  C6  UNL     1       2.327 -10.807  -9.060  1.00  0.00    -0.005 C 
HETATM   21  C7  UNL     1       2.591 -12.297  -8.931  1.00  0.00     0.011 C 
HETATM   22  C8  UNL     1       0.901 -10.561  -8.652  1.00  0.00     0.011 C 
ENDBRANCH  19  20
ENDBRANCH  17  19
ENDBRANCH   1  15
BRANCH   1  23
HETATM   23  C9  UNL     1       2.571 -12.353  -3.998  1.00  0.00     0.020 C 
HETATM   24  C10 UNL     1       1.832 -13.068  -5.106  1.00  0.00     0.007 C 
HETATM   25  C11 UNL     1       1.275 -14.354  -4.480  1.00  0.00     0.005 C 
HETATM   26  C12 UNL     1       0.832 -14.054  -3.064  1.00  0.00    -0.019 C 
HETATM   27  C13 UNL     1       0.020 -15.198  -2.515  1.00  0.00     0.010 C 
HETATM   28  C14 UNL     1       2.002 -13.808  -2.138  1.00  0.00     0.005 C 
HETATM   29  C15 UNL     1       3.154 -13.337  -3.006  1.00  0.00     0.007 C 
ENDBRANCH   1  23
TORSDOF 6
ENDMDL
MODEL 3
REMARK VINA RESULT: -6.507481578      2.149      5.557
REMARK  6 active torsions:
REMARK  status: ('A' for Active; 'I' for Inactive)
REMARK    1  A    between atoms: N2_5  and  C3_6 
REMARK    2  A    between atoms: C3_6  and  C4_7 
REMARK    3  A    between atoms: C3_6  and  C9_15 
REMARK       I    between atoms: C4_7  and  N3_9 
REMARK    4  A    between atoms: N3_9  and  C5_11 
REMARK    5  A    between atoms: C5_11  and  C6_12 
REMARK    6  A    between atoms: N4_23  and  C17_25 
ROOT
HETATM    1  C3  UNL     1       2.229 -12.268  -4.627  1.00  0.00     0.205 C 
ENDROOT
BRANCH   1   2
HETATM    2  N2  UNL     1       3.294 -11.522  -3.996  1.00  0.00    -0.262 N 
HETATM    3  N1  UNL     1       4.550 -11.575  -4.394  1.00  0.00    -0.300 N 
HETATM    4  C2  UNL     1       5.295 -10.774  -3.610  1.00  0.00     0.032 A 
ATOM      5  H1  UNL     1       4.902 -12.133  -5.172  1.00  0.00     0.187 HD
HETATM    6  C1  UNL     1       6.768 -10.529  -3.700  1.00  0.00     0.070 C 
HETATM    7  C20 UNL     1       4.469 -10.181  -2.665  1.00  0.00     0.007 A 
HETATM    8  C16 UNL     1       3.209 -10.666  -2.928  1.00  0.00     0.127 A 
HETATM    9  C21 UNL     1       4.916  -9.231  -1.622  1.00  0.00     0.054 C 
HETATM   10  N4  UNL     1       2.117 -10.431  -2.351  1.00  0.00    -0.371 N 
ATOM     11  H4  UNL     1       1.322 -10.929  -2.751  1.00  0.00     0.161 HD
BRANCH  10  12
HETATM   12  C17 UNL     1       1.783  -9.608  -1.255  1.00  0.00     0.075 C 
HETATM   13  C18 UNL     1       0.348  -9.050  -1.369  1.00  0.00     0.031 C 
HETATM   14  C19 UNL     1       1.710 -10.512  -0.012  1.00  0.00     0.031 C 
ENDBRANCH  10  12
ENDBRANCH   1   2
BRANCH   1  15
HETATM   15  C4  UNL     1       2.021 -13.613  -4.060  1.00  0.00     0.242 C 
HETATM   16  O1  UNL     1       2.957 -14.446  -4.020  1.00  0.00    -0.271 OA
HETATM   17  N3  UNL     1       0.754 -13.996  -3.545  1.00  0.00    -0.359 N 
ATOM     18  H3  UNL     1      -0.000 -13.311  -3.579  1.00  0.00     0.162 HD
BRANCH  17  19
HETATM   19  C5  UNL     1       0.469 -15.281  -2.983  1.00  0.00     0.126 C 
BRANCH  19  20
HETATM   20  C6  UNL     1      -0.246 -15.245  -1.661  1.00  0.00    -0.005 C 
HETATM   21  C7  UNL     1       0.117 -13.948  -0.959  1.00  0.00     0.011 C 
HETATM   22  C8  UNL     1      -1.733 -15.237  -1.888  1.00  0.00     0.011 C 
ENDBRANCH  19  20
ENDBRANCH  17  19
ENDBRANCH   1  15
BRANCH   1  23
HETATM   23  C9  UNL     1       2.397 -12.302  -6.132  1.00  0.00     0.020 C 
HETATM   24  C10 UNL     1       1.517 -13.353  -6.768  1.00  0.00     0.007 C 
HETATM   25  C11 UNL     1       1.265 -12.879  -8.206  1.00  0.00     0.005 C 
HETATM   26  C12 UNL     1       2.527 -12.232  -8.733  1.00  0.00    -0.019 C 
HETATM   27  C13 UNL     1       2.425 -12.016 -10.221  1.00  0.00     0.010 C 
HETATM   28  C14 UNL     1       2.808 -10.900  -8.073  1.00  0.00     0.005 C 
HETATM   29  C15 UNL     1       2.124 -10.933  -6.719  1.00  0.00     0.007 C 
ENDBRANCH   1  23
TORSDOF 6
ENDMDL
MODEL 4
REMARK VINA RESULT: -6.492648996      2.029      6.540
REMARK  6 active torsions:
REMARK  status: ('A' for Active; 'I' for Inactive)
REMARK    1  A    between atoms: N2_5  and  C3_6 
REMARK    2  A    between atoms: C3_6  and  C4_7 
REMARK    3  A    between atoms: C3_6  and  C9_15 
REMARK       I    between atoms: C4_7  and  N3_9 
REMARK    4  A    between atoms: N3_9  and  C5_11 
REMARK    5  A    between atoms: C5_11  and  C6_12 
REMARK    6  A    between atoms: N4_23  and  C17_25 
ROOT
HETATM    1  C3  UNL     1       3.432 -10.603  -3.029  1.00  0.00     0.205 C 
ENDROOT
BRANCH   1   2
HETATM    2  N2  UNL     1       2.999 -11.049  -4.335  1.00  0.00    -0.262 N 
HETATM    3  N1  UNL     1       3.059 -10.295  -5.415  1.00  0.00    -0.300 N 
HETATM    4  C2  UNL     1       2.584 -10.989  -6.464  1.00  0.00     0.032 A 
ATOM      5  H1  UNL     1       3.410  -9.337  -5.449  1.00  0.00     0.187 HD
HETATM    6  C1  UNL     1       2.466 -10.526  -7.882  1.00  0.00     0.070 C 
HETATM    7  C20 UNL     1       2.202 -12.250  -6.029  1.00  0.00     0.007 A 
HETATM    8  C16 UNL     1       2.474 -12.267  -4.681  1.00  0.00     0.127 A 
HETATM    9  C21 UNL     1       1.630 -13.310  -6.890  1.00  0.00     0.054 C 
HETATM   10  N4  UNL     1       2.306 -13.182  -3.835  1.00  0.00    -0.371 N 
ATOM     11  H4  UNL     1       2.595 -12.931  -2.890  1.00  0.00     0.161 HD
BRANCH  10  12
HETATM   12  C17 UNL     1       1.794 -14.492  -3.946  1.00  0.00     0.075 C 
HETATM   13  C18 UNL     1       2.675 -15.520  -3.205  1.00  0.00     0.031 C 
HETATM   14  C19 UNL     1       0.472 -14.533  -3.159  1.00  0.00     0.031 C 
ENDBRANCH  10  12
ENDBRANCH   1   2
BRANCH   1  15
HETATM   15  C4  UNL     1       2.763  -9.376  -2.561  1.00  0.00     0.242 C 
HETATM   16  O1  UNL     1       3.051  -8.259  -3.052  1.00  0.00    -0.271 OA
HETATM   17  N3  UNL     1       1.776  -9.432  -1.542  1.00  0.00    -0.359 N 
ATOM     18  H3  UNL     1       1.546 -10.345  -1.151  1.00  0.00     0.162 HD
BRANCH  17  19
HETATM   19  C5  UNL     1       1.084  -8.288  -1.029  1.00  0.00     0.126 C 
BRANCH  19  20
HETATM   20  C6  UNL     1      -0.213  -8.597  -0.335  1.00  0.00    -0.005 C 
HETATM   21  C7  UNL     1      -1.352  -8.194  -1.256  1.00  0.00     0.011 C 
HETATM   22  C8  UNL     1      -0.324 -10.078  -0.098  1.00  0.00     0.011 C 
ENDBRANCH  19  20
ENDBRANCH  17  19
ENDBRANCH   1  15
BRANCH   1  23
HETATM   23  C9  UNL     1       4.941 -10.496  -2.958  1.00  0.00     0.020 C 
HETATM   24  C10 UNL     1       5.406 -10.077  -1.582  1.00  0.00     0.007 C 
HETATM   25  C11 UNL     1       6.834 -10.622  -1.435  1.00  0.00     0.005 C 
HETATM   26  C12 UNL     1       7.540 -10.502  -2.768  1.00  0.00    -0.019 C 
HETATM   27  C13 UNL     1       9.017 -10.749  -2.603  1.00  0.00     0.010 C 
HETATM   28  C14 UNL     1       7.002 -11.475  -3.792  1.00  0.00     0.005 C 
HETATM   29  C15 UNL     1       5.579 -11.803  -3.376  1.00  0.00     0.007 C 
ENDBRANCH   1  23
TORSDOF 6
ENDMDL
MODEL 5
REMARK VINA RESULT: -6.469872703      1.737      6.528
REMARK  6 active torsions:
REMARK  status: ('A' for Active; 'I' for Inactive)
REMARK    1  A    between atoms: N2_5  and  C3_6 
REMARK    2  A    between atoms: C3_6  and  C4_7 
REMARK    3  A    between atoms: C3_6  and  C9_15 
REMARK       I    between atoms: C4_7  and  N3_9 
REMARK    4  A    between atoms: N3_9  and  C5_11 
REMARK    5  A    between atoms: C5_11  and  C6_12 
REMARK    6  A    between atoms: N4_23  and  C17_25 
ROOT
HETATM    1  C3  UNL     1       3.765 -10.506  -3.073  1.00  0.00     0.205 C 
ENDROOT
BRANCH   1   2
HETATM    2  N2  UNL     1       3.292 -10.936  -4.370  1.00  0.00    -0.262 N 
HETATM    3  N1  UNL     1       3.376 -10.191  -5.455  1.00  0.00    -0.300 N 
HETATM    4  C2  UNL     1       2.852 -10.865  -6.494  1.00  0.00     0.032 A 
ATOM      5  H1  UNL     1       3.776  -9.253  -5.500  1.00  0.00     0.187 HD
HETATM    6  C1  UNL     1       2.739 -10.405  -7.913  1.00  0.00     0.070 C 
HETATM    7  C20 UNL     1       2.411 -12.103  -6.046  1.00  0.00     0.007 A 
HETATM    8  C16 UNL     1       2.699 -12.127  -4.702  1.00  0.00     0.127 A 
HETATM    9  C21 UNL     1       1.774 -13.137  -6.893  1.00  0.00     0.054 C 
HETATM   10  N4  UNL     1       2.496 -13.028  -3.848  1.00  0.00    -0.371 N 
ATOM     11  H4  UNL     1       2.810 -12.786  -2.908  1.00  0.00     0.161 HD
BRANCH  10  12
HETATM   12  C17 UNL     1       1.915 -14.310  -3.945  1.00  0.00     0.075 C 
HETATM   13  C18 UNL     1       2.754 -15.379  -3.212  1.00  0.00     0.031 C 
HETATM   14  C19 UNL     1       0.606 -14.279  -3.138  1.00  0.00     0.031 C 
ENDBRANCH  10  12
ENDBRANCH   1   2
BRANCH   1  15
HETATM   15  C4  UNL     1       3.162  -9.246  -2.601  1.00  0.00     0.242 C 
HETATM   16  O1  UNL     1       2.110  -9.252  -1.919  1.00  0.00    -0.271 OA
HETATM   17  N3  UNL     1       3.761  -7.996  -2.909  1.00  0.00    -0.359 N 
ATOM     18  H3  UNL     1       4.618  -8.001  -3.462  1.00  0.00     0.162 HD
BRANCH  17  19
HETATM   19  C5  UNL     1       3.237  -6.730  -2.494  1.00  0.00     0.126 C 
BRANCH  19  20
HETATM   20  C6  UNL     1       4.186  -5.892  -1.682  1.00  0.00    -0.005 C 
HETATM   21  C7  UNL     1       3.449  -4.644  -1.229  1.00  0.00     0.011 C 
HETATM   22  C8  UNL     1       4.601  -6.647  -0.448  1.00  0.00     0.011 C 
ENDBRANCH  19  20
ENDBRANCH  17  19
ENDBRANCH   1  15
BRANCH   1  23
HETATM   23  C9  UNL     1       5.278 -10.470  -3.023  1.00  0.00     0.020 C 
HETATM   24  C10 UNL     1       5.783 -10.085  -1.652  1.00  0.00     0.007 C 
HETATM   25  C11 UNL     1       7.185 -10.698  -1.530  1.00  0.00     0.005 C 
HETATM   26  C12 UNL     1       7.876 -10.601  -2.873  1.00  0.00    -0.019 C 
HETATM   27  C13 UNL     1       9.342 -10.919  -2.733  1.00  0.00     0.010 C 
HETATM   28  C14 UNL     1       7.277 -11.540  -3.896  1.00  0.00     0.005 C 
HETATM   29  C15 UNL     1       5.847 -11.803  -3.461  1.00  0.00     0.007 C 
ENDBRANCH   1  23
TORSDOF 6
ENDMDL
