MODEL 1
REMARK VINA RESULT: -8.152656258      0.000      0.000
REMARK  7 active torsions:
REMARK  status: ('A' for Active; 'I' for Inactive)
REMARK    1  A    between atoms: C2_2  and  C3_3 
REMARK    2  A    between atoms: C3_3  and  N1_4 
REMARK    3  A    between atoms: C8_9  and  C9_10 
REMARK    4  A    between atoms: C9_10  and  N2_11 
REMARK    5  A    between atoms: N2_11  and  C10_13 
REMARK    6  A    between atoms: C10_13  and  N3_15 
REMARK    7  A    between atoms: N3_15  and  C11_17 
ROOT
HETATM    1  N2  UNL     1       0.969 -11.023  -7.637  1.00  0.00    -0.365 N 
ATOM      2  H2  UNL     1      -0.010 -10.880  -7.388  1.00  0.00     0.161 HD
ENDROOT
BRANCH   1   3
HETATM    3  C9  UNL     1       1.957 -10.459  -6.778  1.00  0.00     0.157 C 
BRANCH   3   4
HETATM    4  C8  UNL     1       2.800 -11.360  -5.946  1.00  0.00     0.241 C 
HETATM    5  N1  UNL     1       3.602 -10.473  -5.103  1.00  0.00     0.098 N 
HETATM    6  C4  UNL     1       3.000 -10.192  -3.849  1.00  0.00     0.273 C 
HETATM    7  C5  UNL     1       2.857 -11.484  -3.085  1.00  0.00     0.030 C 
HETATM    8  C6  UNL     1       2.150 -12.560  -3.821  1.00  0.00     0.004 C 
HETATM    9  C7  UNL     1       2.314 -12.556  -5.307  1.00  0.00     0.037 C 
BRANCH   5  10
HETATM   10  C3  UNL     1       4.990 -10.775  -5.082  1.00  0.00     0.299 C 
BRANCH  10  11
HETATM   11  C2  UNL     1       5.677  -9.947  -4.048  1.00  0.00    -0.007 C 
HETATM   12  C1  UNL     1       6.779 -10.358  -3.456  1.00  0.00     0.008 C 
ENDBRANCH  10  11
ENDBRANCH   5  10
ENDBRANCH   3   4
ENDBRANCH   1   3
BRANCH   1  13
HETATM   13  C10 UNL     1       1.241 -11.756  -8.794  1.00  0.00     0.173 C 
HETATM   14  S1  UNL     1       1.079 -13.449  -8.554  1.00  0.00    -0.041 SA
BRANCH  13  15
HETATM   15  N3  UNL     1       1.496 -11.442 -10.105  1.00  0.00    -0.319 N 
ATOM     16  H3  UNL     1       0.734 -10.920 -10.537  1.00  0.00     0.169 HD
BRANCH  15  17
HETATM   17  C11 UNL     1       2.569 -11.673 -10.998  1.00  0.00     0.107 A 
HETATM   18  C12 UNL     1       3.883 -11.598 -10.653  1.00  0.00     0.049 A 
HETATM   19  C13 UNL     1       4.871 -11.828 -11.632  1.00  0.00     0.007 A 
HETATM   20  C14 UNL     1       4.461 -12.121 -12.900  1.00  0.00     0.037 A 
HETATM   21  C15 UNL     1       3.123 -12.195 -13.236  1.00  0.00     0.081 A 
HETATM   22 BR1  UNL     1       2.625 -12.615 -15.045  1.00  0.00    -0.031 Br
HETATM   23  N4  UNL     1       2.210 -11.974 -12.300  1.00  0.00    -0.337 N 
ATOM     24  H4  UNL     1       1.221 -12.027 -12.545  1.00  0.00     0.168 HD
ENDBRANCH  15  17
ENDBRANCH  13  15
ENDBRANCH   1  13
TORSDOF 7
ENDMDL
MODEL 2
REMARK VINA RESULT: -8.151724155      1.473      2.597
REMARK  7 active torsions:
REMARK  status: ('A' for Active; 'I' for Inactive)
REMARK    1  A    between atoms: C2_2  and  C3_3 
REMARK    2  A    between atoms: C3_3  and  N1_4 
REMARK    3  A    between atoms: C8_9  and  C9_10 
REMARK    4  A    between atoms: C9_10  and  N2_11 
REMARK    5  A    between atoms: N2_11  and  C10_13 
REMARK    6  A    between atoms: C10_13  and  N3_15 
REMARK    7  A    between atoms: N3_15  and  C11_17 
ROOT
HETATM    1  N2  UNL     1       2.979  -9.871  -7.882  1.00  0.00    -0.365 N 
ATOM      2  H2  UNL     1       3.289  -8.962  -8.226  1.00  0.00     0.161 HD
ENDROOT
BRANCH   1   3
HETATM    3  C9  UNL     1       3.577 -10.363  -6.685  1.00  0.00     0.157 C 
BRANCH   3   4
HETATM    4  C8  UNL     1       2.720 -10.627  -5.498  1.00  0.00     0.241 C 
HETATM    5  N1  UNL     1       3.243 -11.861  -4.909  1.00  0.00     0.098 N 
HETATM    6  C4  UNL     1       4.227 -11.634  -3.911  1.00  0.00     0.273 C 
HETATM    7  C5  UNL     1       3.593 -10.863  -2.780  1.00  0.00     0.030 C 
HETATM    8  C6  UNL     1       2.912  -9.612  -3.193  1.00  0.00     0.004 C 
HETATM    9  C7  UNL     1       2.306  -9.617  -4.560  1.00  0.00     0.037 C 
BRANCH   5  10
HETATM   10  C3  UNL     1       2.257 -12.838  -4.611  1.00  0.00     0.299 C 
BRANCH  10  11
HETATM   11  C2  UNL     1       1.352 -13.026  -5.782  1.00  0.00    -0.007 C 
HETATM   12  C1  UNL     1       1.737 -13.690  -6.852  1.00  0.00     0.008 C 
ENDBRANCH  10  11
ENDBRANCH   5  10
ENDBRANCH   3   4
ENDBRANCH   1   3
BRANCH   1  13
HETATM   13  C10 UNL     1       1.999 -10.541  -8.619  1.00  0.00     0.173 C 
HETATM   14  S1  UNL     1       0.412 -10.000  -8.247  1.00  0.00    -0.041 SA
BRANCH  13  15
HETATM   15  N3  UNL     1       2.009 -11.446  -9.649  1.00  0.00    -0.319 N 
ATOM     16  H3  UNL     1       1.226 -12.098  -9.603  1.00  0.00     0.169 HD
BRANCH  15  17
HETATM   17  C11 UNL     1       2.852 -11.688 -10.760  1.00  0.00     0.107 A 
HETATM   18  C12 UNL     1       4.211 -11.681 -10.707  1.00  0.00     0.049 A 
HETATM   19  C13 UNL     1       4.952 -11.914 -11.883  1.00  0.00     0.007 A 
HETATM   20  C14 UNL     1       4.264 -12.142 -13.039  1.00  0.00     0.037 A 
HETATM   21  C15 UNL     1       2.883 -12.147 -13.079  1.00  0.00     0.081 A 
HETATM   22 BR1  UNL     1       1.986 -12.477 -14.747  1.00  0.00    -0.031 Br
HETATM   23  N4  UNL     1       2.206 -11.924 -11.960  1.00  0.00    -0.337 N 
ATOM     24  H4  UNL     1       1.186 -11.926 -11.986  1.00  0.00     0.168 HD
ENDBRANCH  15  17
ENDBRANCH  13  15
ENDBRANCH   1  13
TORSDOF 7
ENDMDL
MODEL 3
REMARK VINA RESULT: -8.020072022      1.243      1.281
REMARK  7 active torsions:
REMARK  status: ('A' for Active; 'I' for Inactive)
REMARK    1  A    between atoms: C2_2  and  C3_3 
REMARK    2  A    between atoms: C3_3  and  N1_4 
REMARK    3  A    between atoms: C8_9  and  C9_10 
REMARK    4  A    between atoms: C9_10  and  N2_11 
REMARK    5  A    between atoms: N2_11  and  C10_13 
REMARK    6  A    between atoms: C10_13  and  N3_15 
REMARK    7  A    between atoms: N3_15  and  C11_17 
ROOT
HETATM    1  N2  UNL     1       2.662  -9.963  -7.318  1.00  0.00    -0.365 N 
ATOM      2  H2  UNL     1       3.355  -9.306  -7.676  1.00  0.00     0.161 HD
ENDROOT
BRANCH   1   3
HETATM    3  C9  UNL     1       2.597 -10.149  -5.906  1.00  0.00     0.157 C 
BRANCH   3   4
HETATM    4  C8  UNL     1       3.103 -11.416  -5.314  1.00  0.00     0.241 C 
HETATM    5  N1  UNL     1       3.681 -11.039  -4.024  1.00  0.00     0.098 N 
HETATM    6  C4  UNL     1       2.760 -11.126  -2.947  1.00  0.00     0.273 C 
HETATM    7  C5  UNL     1       2.320 -12.561  -2.808  1.00  0.00     0.030 C 
HETATM    8  C6  UNL     1       1.789 -13.167  -4.053  1.00  0.00     0.004 C 
HETATM    9  C7  UNL     1       2.378 -12.660  -5.331  1.00  0.00     0.037 C 
BRANCH   5  10
HETATM   10  C3  UNL     1       4.981 -11.559  -3.784  1.00  0.00     0.299 C 
BRANCH  10  11
HETATM   11  C2  UNL     1       6.014 -10.586  -4.243  1.00  0.00    -0.007 C 
HETATM   12  C1  UNL     1       7.275 -10.696  -3.880  1.00  0.00     0.008 C 
ENDBRANCH  10  11
ENDBRANCH   5  10
ENDBRANCH   3   4
ENDBRANCH   1   3
BRANCH   1  13
HETATM   13  C10 UNL     1       1.848 -10.615  -8.248  1.00  0.00     0.173 C 
HETATM   14  S1  UNL     1       0.292  -9.898  -8.375  1.00  0.00    -0.041 SA
BRANCH  13  15
HETATM   15  N3  UNL     1       2.032 -11.618  -9.164  1.00  0.00    -0.319 N 
ATOM     16  H3  UNL     1       1.485 -12.451  -8.946  1.00  0.00     0.169 HD
BRANCH  15  17
HETATM   17  C11 UNL     1       2.802 -11.769 -10.341  1.00  0.00     0.107 A 
HETATM   18  C12 UNL     1       4.159 -11.681 -10.386  1.00  0.00     0.049 A 
HETATM   19  C13 UNL     1       4.823 -11.827 -11.620  1.00  0.00     0.007 A 
HETATM   20  C14 UNL     1       4.067 -12.055 -12.732  1.00  0.00     0.037 A 
HETATM   21  C15 UNL     1       2.689 -12.143 -12.673  1.00  0.00     0.081 A 
HETATM   22 BR1  UNL     1       1.692 -12.468 -14.285  1.00  0.00    -0.031 Br
HETATM   23  N4  UNL     1       2.084 -12.001 -11.501  1.00  0.00    -0.337 N 
ATOM     24  H4  UNL     1       1.067 -12.065 -11.453  1.00  0.00     0.168 HD
ENDBRANCH  15  17
ENDBRANCH  13  15
ENDBRANCH   1  13
TORSDOF 7
ENDMDL
MODEL 4
REMARK VINA RESULT: -7.946192411      1.021      2.432
REMARK  7 active torsions:
REMARK  status: ('A' for Active; 'I' for Inactive)
REMARK    1  A    between atoms: C2_2  and  C3_3 
REMARK    2  A    between atoms: C3_3  and  N1_4 
REMARK    3  A    between atoms: C8_9  and  C9_10 
REMARK    4  A    between atoms: C9_10  and  N2_11 
REMARK    5  A    between atoms: N2_11  and  C10_13 
REMARK    6  A    between atoms: C10_13  and  N3_15 
REMARK    7  A    between atoms: N3_15  and  C11_17 
ROOT
HETATM    1  N2  UNL     1       1.555 -10.233  -7.227  1.00  0.00    -0.365 N 
ATOM      2  H2  UNL     1       0.645  -9.888  -6.924  1.00  0.00     0.161 HD
ENDROOT
BRANCH   1   3
HETATM    3  C9  UNL     1       2.671  -9.989  -6.373  1.00  0.00     0.157 C 
BRANCH   3   4
HETATM    4  C8  UNL     1       2.586 -10.367  -4.937  1.00  0.00     0.241 C 
HETATM    5  N1  UNL     1       3.578 -11.427  -4.756  1.00  0.00     0.098 N 
HETATM    6  C4  UNL     1       4.851 -10.942  -4.356  1.00  0.00     0.273 C 
HETATM    7  C5  UNL     1       4.708 -10.266  -3.016  1.00  0.00     0.030 C 
HETATM    8  C6  UNL     1       3.663  -9.213  -2.966  1.00  0.00     0.004 C 
HETATM    9  C7  UNL     1       2.482  -9.420  -3.857  1.00  0.00     0.037 C 
BRANCH   5  10
HETATM   10  C3  UNL     1       3.099 -12.575  -4.071  1.00  0.00     0.299 C 
BRANCH  10  11
HETATM   11  C2  UNL     1       1.943 -13.165  -4.809  1.00  0.00    -0.007 C 
HETATM   12  C1  UNL     1       1.188 -14.101  -4.272  1.00  0.00     0.008 C 
ENDBRANCH  10  11
ENDBRANCH   5  10
ENDBRANCH   3   4
ENDBRANCH   1   3
BRANCH   1  13
HETATM   13  C10 UNL     1       1.616 -10.911  -8.447  1.00  0.00     0.173 C 
HETATM   14  S1  UNL     1       0.984 -12.505  -8.346  1.00  0.00    -0.041 SA
BRANCH  13  15
HETATM   15  N3  UNL     1       1.956 -10.569  -9.731  1.00  0.00    -0.319 N 
ATOM     16  H3  UNL     1       1.508  -9.706 -10.037  1.00  0.00     0.169 HD
BRANCH  15  17
HETATM   17  C11 UNL     1       2.783 -11.135 -10.731  1.00  0.00     0.107 A 
HETATM   18  C12 UNL     1       4.133 -11.264 -10.626  1.00  0.00     0.049 A 
HETATM   19  C13 UNL     1       4.861 -11.824 -11.695  1.00  0.00     0.007 A 
HETATM   20  C14 UNL     1       4.171 -12.219 -12.804  1.00  0.00     0.037 A 
HETATM   21  C15 UNL     1       2.799 -12.083 -12.896  1.00  0.00     0.081 A 
HETATM   22 BR1  UNL     1       1.897 -12.665 -14.492  1.00  0.00    -0.031 Br
HETATM   23  N4  UNL     1       2.133 -11.552 -11.879  1.00  0.00    -0.337 N 
ATOM     24  H4  UNL     1       1.121 -11.450 -11.944  1.00  0.00     0.168 HD
ENDBRANCH  15  17
ENDBRANCH  13  15
ENDBRANCH   1  13
TORSDOF 7
ENDMDL
MODEL 5
REMARK VINA RESULT: -7.849732674      1.503      1.605
REMARK  7 active torsions:
REMARK  status: ('A' for Active; 'I' for Inactive)
REMARK    1  A    between atoms: C2_2  and  C3_3 
REMARK    2  A    between atoms: C3_3  and  N1_4 
REMARK    3  A    between atoms: C8_9  and  C9_10 
REMARK    4  A    between atoms: C9_10  and  N2_11 
REMARK    5  A    between atoms: N2_11  and  C10_13 
REMARK    6  A    between atoms: C10_13  and  N3_15 
REMARK    7  A    between atoms: N3_15  and  C11_17 
ROOT
HETATM    1  N2  UNL     1       1.140 -10.152  -8.797  1.00  0.00    -0.365 N 
ATOM      2  H2  UNL     1       0.238  -9.783  -9.096  1.00  0.00     0.161 HD
ENDROOT
BRANCH   1   3
HETATM    3  C9  UNL     1       1.342 -10.349  -7.399  1.00  0.00     0.157 C 
BRANCH   3   4
HETATM    4  C8  UNL     1       2.300 -11.391  -6.941  1.00  0.00     0.241 C 
HETATM    5  N1  UNL     1       3.027 -10.785  -5.825  1.00  0.00     0.098 N 
HETATM    6  C4  UNL     1       2.436 -11.044  -4.561  1.00  0.00     0.273 C 
HETATM    7  C5  UNL     1       2.455 -12.532  -4.319  1.00  0.00     0.030 C 
HETATM    8  C6  UNL     1       1.846 -13.341  -5.402  1.00  0.00     0.004 C 
HETATM    9  C7  UNL     1       1.965 -12.782  -6.784  1.00  0.00     0.037 C 
BRANCH   5  10
HETATM   10  C3  UNL     1       4.439 -10.919  -5.898  1.00  0.00     0.299 C 
BRANCH  10  11
HETATM   11  C2  UNL     1       5.070 -10.379  -4.658  1.00  0.00    -0.007 C 
HETATM   12  C1  UNL     1       6.272 -10.755  -4.276  1.00  0.00     0.008 C 
ENDBRANCH  10  11
ENDBRANCH   5  10
ENDBRANCH   3   4
ENDBRANCH   1   3
BRANCH   1  13
HETATM   13  C10 UNL     1       2.087 -10.426  -9.787  1.00  0.00     0.173 C 
HETATM   14  S1  UNL     1       3.116  -9.087 -10.101  1.00  0.00    -0.041 SA
BRANCH  13  15
HETATM   15  N3  UNL     1       2.464 -11.543 -10.487  1.00  0.00    -0.319 N 
ATOM     16  H3  UNL     1       1.955 -12.377 -10.195  1.00  0.00     0.169 HD
BRANCH  15  17
HETATM   17  C11 UNL     1       3.394 -11.809 -11.520  1.00  0.00     0.107 A 
HETATM   18  C12 UNL     1       4.743 -11.823 -11.351  1.00  0.00     0.049 A 
HETATM   19  C13 UNL     1       5.578 -12.081 -12.458  1.00  0.00     0.007 A 
HETATM   20  C14 UNL     1       4.988 -12.309 -13.667  1.00  0.00     0.037 A 
HETATM   21  C15 UNL     1       3.615 -12.292 -13.824  1.00  0.00     0.081 A 
HETATM   22 BR1  UNL     1       2.858 -12.625 -15.560  1.00  0.00    -0.031 Br
HETATM   23  N4  UNL     1       2.848 -12.047 -12.769  1.00  0.00    -0.337 N 
ATOM     24  H4  UNL     1       1.835 -12.034 -12.882  1.00  0.00     0.168 HD
ENDBRANCH  15  17
ENDBRANCH  13  15
ENDBRANCH   1  13
TORSDOF 7
ENDMDL
