MODEL 1
REMARK VINA RESULT: -5.601357749      0.000      0.000
REMARK  6 active torsions:
REMARK  status: ('A' for Active; 'I' for Inactive)
REMARK    1  A    between atoms: C4_4  and  O1_5 
REMARK    2  A    between atoms: C4_4  and  C5_7 
REMARK    3  A    between atoms: C5_7  and  C6_8 
REMARK    4  A    between atoms: C6_8  and  C7_9 
REMARK    5  A    between atoms: C7_9  and  C8_10 
REMARK    6  A    between atoms: C13_17  and  O3_19 
ROOT
HETATM    1  C1  UNL     1       6.497 -11.497  -4.179  1.00  0.00     0.010 C 
HETATM    2  C2  UNL     1       5.005 -11.195  -3.862  1.00  0.00    -0.007 C 
HETATM    3  C3  UNL     1       4.514 -10.397  -4.984  1.00  0.00     0.046 C 
HETATM    4  C4  UNL     1       3.067 -10.450  -5.341  1.00  0.00     0.076 C 
HETATM    5  C9  UNL     1       2.112  -9.923  -4.396  1.00  0.00     0.007 C 
HETATM    6  C10 UNL     1       2.012  -9.687  -3.108  1.00  0.00    -0.015 C 
HETATM    7  C11 UNL     1       2.805  -9.821  -1.914  1.00  0.00     0.089 C 
HETATM    8  C12 UNL     1       2.770 -11.185  -1.289  1.00  0.00     0.169 C 
HETATM    9  O2  UNL     1       1.916 -11.703  -0.593  1.00  0.00    -0.294 OA
HETATM   10  C13 UNL     1       4.029 -11.890  -1.661  1.00  0.00     0.119 C 
HETATM   11  C14 UNL     1       4.766 -12.444  -0.482  1.00  0.00     0.055 C 
HETATM   12  C15 UNL     1       4.845 -10.866  -2.468  1.00  0.00     0.040 C 
HETATM   13  C16 UNL     1       4.272  -9.588  -1.998  1.00  0.00    -0.027 C 
HETATM   14  C17 UNL     1       4.708  -9.427  -0.517  1.00  0.00     0.016 C 
HETATM   15  C18 UNL     1       4.695  -8.331  -2.642  1.00  0.00     0.016 C 
ENDROOT
BRANCH   4  16
HETATM   16  O1  UNL     1       2.975  -9.624  -6.504  1.00  0.00    -0.386 OA
ATOM     17  H1  UNL     1       3.396 -10.141  -7.181  1.00  0.00     0.211 HD
ENDBRANCH   4  16
BRANCH   4  18
HETATM   18  C5  UNL     1       2.691 -11.824  -5.893  1.00  0.00     0.042 C 
BRANCH  18  19
HETATM   19  C6  UNL     1       1.680 -11.730  -6.974  1.00  0.00     0.004 C 
BRANCH  19  20
HETATM   20  C7  UNL     1       1.936 -12.835  -7.970  1.00  0.00     0.011 C 
BRANCH  20  21
HETATM   21  C8  UNL     1       2.121 -12.268  -9.378  1.00  0.00     0.085 C 
HETATM   22 BR1  UNL     1       3.902 -11.591  -9.564  1.00  0.00    -0.097 Br
ENDBRANCH  20  21
ENDBRANCH  19  20
ENDBRANCH  18  19
ENDBRANCH   4  18
BRANCH  10  23
HETATM   23  O3  UNL     1       3.632 -12.983  -2.422  1.00  0.00    -0.382 OA
ATOM     24  H3  UNL     1       3.957 -13.746  -1.958  1.00  0.00     0.211 HD
ENDBRANCH  10  23
TORSDOF 6
ENDMDL
MODEL 2
REMARK VINA RESULT: -5.469659135      1.824      2.585
REMARK  6 active torsions:
REMARK  status: ('A' for Active; 'I' for Inactive)
REMARK    1  A    between atoms: C4_4  and  O1_5 
REMARK    2  A    between atoms: C4_4  and  C5_7 
REMARK    3  A    between atoms: C5_7  and  C6_8 
REMARK    4  A    between atoms: C6_8  and  C7_9 
REMARK    5  A    between atoms: C7_9  and  C8_10 
REMARK    6  A    between atoms: C13_17  and  O3_19 
ROOT
HETATM    1  C1  UNL     1       4.568  -8.533  -2.765  1.00  0.00     0.010 C 
HETATM    2  C2  UNL     1       4.152  -9.954  -3.241  1.00  0.00    -0.007 C 
HETATM    3  C3  UNL     1       3.031  -9.753  -4.158  1.00  0.00     0.046 C 
HETATM    4  C4  UNL     1       2.788 -10.747  -5.244  1.00  0.00     0.076 C 
HETATM    5  C9  UNL     1       2.393 -12.083  -4.868  1.00  0.00     0.007 C 
HETATM    6  C10 UNL     1       2.485 -12.897  -3.841  1.00  0.00    -0.015 C 
HETATM    7  C11 UNL     1       3.032 -12.909  -2.510  1.00  0.00     0.089 C 
HETATM    8  C12 UNL     1       4.491 -13.247  -2.434  1.00  0.00     0.169 C 
HETATM    9  O2  UNL     1       5.047 -14.329  -2.503  1.00  0.00    -0.294 OA
HETATM   10  C13 UNL     1       5.246 -11.976  -2.246  1.00  0.00     0.119 C 
HETATM   11  C14 UNL     1       6.182 -12.013  -1.078  1.00  0.00     0.055 C 
HETATM   12  C15 UNL     1       4.173 -10.879  -2.137  1.00  0.00     0.040 C 
HETATM   13  C16 UNL     1       2.992 -11.656  -1.708  1.00  0.00    -0.027 C 
HETATM   14  C17 UNL     1       3.280 -12.133  -0.258  1.00  0.00     0.016 C 
HETATM   15  C18 UNL     1       1.684 -10.983  -1.617  1.00  0.00     0.016 C 
ENDROOT
BRANCH   4  16
HETATM   16  O1  UNL     1       1.686 -10.195  -5.968  1.00  0.00    -0.386 OA
ATOM     17  H1  UNL     1       1.788 -10.555  -6.841  1.00  0.00     0.211 HD
ENDBRANCH   4  16
BRANCH   4  18
HETATM   18  C5  UNL     1       3.907 -10.705  -6.282  1.00  0.00     0.042 C 
BRANCH  18  19
HETATM   19  C6  UNL     1       3.405 -10.318  -7.624  1.00  0.00     0.004 C 
BRANCH  19  20
HETATM   20  C7  UNL     1       3.661 -11.458  -8.580  1.00  0.00     0.011 C 
BRANCH  20  21
HETATM   21  C8  UNL     1       2.365 -11.900  -9.261  1.00  0.00     0.085 C 
HETATM   22 BR1  UNL     1       1.615 -13.381  -8.308  1.00  0.00    -0.097 Br
ENDBRANCH  20  21
ENDBRANCH  19  20
ENDBRANCH  18  19
ENDBRANCH   4  18
BRANCH  10  23
HETATM   23  O3  UNL     1       6.040 -11.844  -3.379  1.00  0.00    -0.382 OA
ATOM     24  H3  UNL     1       6.558 -12.639  -3.419  1.00  0.00     0.211 HD
ENDBRANCH  10  23
TORSDOF 6
ENDMDL
MODEL 3
REMARK VINA RESULT: -5.436796431      3.865      6.372
REMARK  6 active torsions:
REMARK  status: ('A' for Active; 'I' for Inactive)
REMARK    1  A    between atoms: C4_4  and  O1_5 
REMARK    2  A    between atoms: C4_4  and  C5_7 
REMARK    3  A    between atoms: C5_7  and  C6_8 
REMARK    4  A    between atoms: C6_8  and  C7_9 
REMARK    5  A    between atoms: C7_9  and  C8_10 
REMARK    6  A    between atoms: C13_17  and  O3_19 
ROOT
HETATM    1  C1  UNL     1       3.740  -8.492  -9.882  1.00  0.00     0.010 C 
HETATM    2  C2  UNL     1       3.126  -9.895  -9.609  1.00  0.00    -0.007 C 
HETATM    3  C3  UNL     1       2.386 -10.246 -10.821  1.00  0.00     0.046 C 
HETATM    4  C4  UNL     1       2.207 -11.684 -11.176  1.00  0.00     0.076 C 
HETATM    5  C9  UNL     1       1.402 -12.506 -10.305  1.00  0.00     0.007 C 
HETATM    6  C10 UNL     1       1.002 -12.537  -9.054  1.00  0.00    -0.015 C 
HETATM    7  C11 UNL     1       1.143 -11.763  -7.849  1.00  0.00     0.089 C 
HETATM    8  C12 UNL     1       2.393 -12.042  -7.067  1.00  0.00     0.169 C 
HETATM    9  O2  UNL     1       2.656 -12.966  -6.318  1.00  0.00    -0.294 OA
HETATM   10  C13 UNL     1       3.363 -10.945  -7.347  1.00  0.00     0.119 C 
HETATM   11  C14 UNL     1       3.904 -10.305  -6.107  1.00  0.00     0.055 C 
HETATM   12  C15 UNL     1       2.612  -9.966  -8.266  1.00  0.00     0.040 C 
HETATM   13  C16 UNL     1       1.203 -10.280  -7.953  1.00  0.00    -0.027 C 
HETATM   14  C17 UNL     1       0.955  -9.795  -6.499  1.00  0.00     0.016 C 
HETATM   15  C18 UNL     1       0.133  -9.639  -8.739  1.00  0.00     0.016 C 
ENDROOT
BRANCH   4  16
HETATM   16  O1  UNL     1       1.520 -11.640 -12.429  1.00  0.00    -0.386 OA
ATOM     17  H1  UNL     1       0.934 -10.898 -12.338  1.00  0.00     0.211 HD
ENDBRANCH   4  16
BRANCH   4  18
HETATM   18  C5  UNL     1       3.540 -12.321 -11.564  1.00  0.00     0.042 C 
BRANCH  18  19
HETATM   19  C6  UNL     1       3.827 -12.170 -13.011  1.00  0.00     0.004 C 
BRANCH  19  20
HETATM   20  C7  UNL     1       5.323 -12.202 -13.211  1.00  0.00     0.011 C 
BRANCH  20  21
HETATM   21  C8  UNL     1       5.674 -12.568 -14.653  1.00  0.00     0.085 C 
HETATM   22 BR1  UNL     1       4.237 -12.055 -15.810  1.00  0.00    -0.097 Br
ENDBRANCH  20  21
ENDBRANCH  19  20
ENDBRANCH  18  19
ENDBRANCH   4  18
BRANCH  10  23
HETATM   23  O3  UNL     1       4.442 -11.554  -7.975  1.00  0.00    -0.382 OA
ATOM     24  H3  UNL     1       4.414 -12.464  -7.702  1.00  0.00     0.211 HD
ENDBRANCH  10  23
TORSDOF 6
ENDMDL
MODEL 4
REMARK VINA RESULT: -5.361231056      2.943      4.793
REMARK  6 active torsions:
REMARK  status: ('A' for Active; 'I' for Inactive)
REMARK    1  A    between atoms: C4_4  and  O1_5 
REMARK    2  A    between atoms: C4_4  and  C5_7 
REMARK    3  A    between atoms: C5_7  and  C6_8 
REMARK    4  A    between atoms: C6_8  and  C7_9 
REMARK    5  A    between atoms: C7_9  and  C8_10 
REMARK    6  A    between atoms: C13_17  and  O3_19 
ROOT
HETATM    1  C1  UNL     1       2.560 -12.197  -4.881  1.00  0.00     0.010 C 
HETATM    2  C2  UNL     1       3.208 -11.440  -3.687  1.00  0.00    -0.007 C 
HETATM    3  C3  UNL     1       3.036 -10.017  -3.980  1.00  0.00     0.046 C 
HETATM    4  C4  UNL     1       2.954  -9.044  -2.852  1.00  0.00     0.076 C 
HETATM    5  C9  UNL     1       4.125  -8.854  -2.029  1.00  0.00     0.007 C 
HETATM    6  C10 UNL     1       5.214  -9.502  -1.683  1.00  0.00    -0.015 C 
HETATM    7  C11 UNL     1       5.851 -10.767  -1.933  1.00  0.00     0.089 C 
HETATM    8  C12 UNL     1       5.355 -11.899  -1.081  1.00  0.00     0.169 C 
HETATM    9  O2  UNL     1       5.611 -12.176   0.076  1.00  0.00    -0.294 OA
HETATM   10  C13 UNL     1       4.422 -12.718  -1.907  1.00  0.00     0.119 C 
HETATM   11  C14 UNL     1       4.768 -14.174  -1.918  1.00  0.00     0.055 C 
HETATM   12  C15 UNL     1       4.444 -12.071  -3.303  1.00  0.00     0.040 C 
HETATM   13  C16 UNL     1       5.743 -11.369  -3.289  1.00  0.00    -0.027 C 
HETATM   14  C17 UNL     1       6.840 -12.468  -3.298  1.00  0.00     0.016 C 
HETATM   15  C18 UNL     1       6.097 -10.491  -4.420  1.00  0.00     0.016 C 
ENDROOT
BRANCH   4  16
HETATM   16  O1  UNL     1       2.717  -7.793  -3.502  1.00  0.00    -0.386 OA
ATOM     17  H1  UNL     1       2.641  -8.027  -4.420  1.00  0.00     0.211 HD
ENDBRANCH   4  16
BRANCH   4  18
HETATM   18  C5  UNL     1       1.667  -9.240  -2.055  1.00  0.00     0.042 C 
BRANCH  18  19
HETATM   19  C6  UNL     1       1.652  -8.425  -0.816  1.00  0.00     0.004 C 
BRANCH  19  20
HETATM   20  C7  UNL     1       0.298  -7.770  -0.687  1.00  0.00     0.011 C 
BRANCH  20  21
HETATM   21  C8  UNL     1      -0.822  -8.805  -0.801  1.00  0.00     0.085 C 
HETATM   22 BR1  UNL     1      -2.290  -8.054  -1.773  1.00  0.00    -0.097 Br
ENDBRANCH  20  21
ENDBRANCH  19  20
ENDBRANCH  18  19
ENDBRANCH   4  18
BRANCH  10  23
HETATM   23  O3  UNL     1       3.185 -12.614  -1.284  1.00  0.00    -0.382 OA
ATOM     24  H3  UNL     1       3.372 -12.594  -0.352  1.00  0.00     0.211 HD
ENDBRANCH  10  23
TORSDOF 6
ENDMDL
MODEL 5
REMARK VINA RESULT: -5.328788905      1.024      1.066
REMARK  6 active torsions:
REMARK  status: ('A' for Active; 'I' for Inactive)
REMARK    1  A    between atoms: C4_4  and  O1_5 
REMARK    2  A    between atoms: C4_4  and  C5_7 
REMARK    3  A    between atoms: C5_7  and  C6_8 
REMARK    4  A    between atoms: C6_8  and  C7_9 
REMARK    5  A    between atoms: C7_9  and  C8_10 
REMARK    6  A    between atoms: C13_17  and  O3_19 
ROOT
HETATM    1  C1  UNL     1       6.779 -10.731  -3.944  1.00  0.00     0.010 C 
HETATM    2  C2  UNL     1       5.308 -10.695  -3.441  1.00  0.00    -0.007 C 
HETATM    3  C3  UNL     1       4.538 -10.062  -4.512  1.00  0.00     0.046 C 
HETATM    4  C4  UNL     1       3.095 -10.403  -4.673  1.00  0.00     0.076 C 
HETATM    5  C9  UNL     1       2.182 -10.012  -3.626  1.00  0.00     0.007 C 
HETATM    6  C10 UNL     1       2.199  -9.730  -2.343  1.00  0.00    -0.015 C 
HETATM    7  C11 UNL     1       3.145  -9.651  -1.261  1.00  0.00     0.089 C 
HETATM    8  C12 UNL     1       3.449 -10.962  -0.598  1.00  0.00     0.169 C 
HETATM    9  O2  UNL     1       2.803 -11.592   0.220  1.00  0.00    -0.294 OA
HETATM   10  C13 UNL     1       4.764 -11.441  -1.112  1.00  0.00     0.119 C 
HETATM   11  C14 UNL     1       5.733 -11.785  -0.025  1.00  0.00     0.055 C 
HETATM   12  C15 UNL     1       5.262 -10.327  -2.049  1.00  0.00     0.040 C 
HETATM   13  C16 UNL     1       4.518  -9.155  -1.544  1.00  0.00    -0.027 C 
HETATM   14  C17 UNL     1       5.096  -8.836  -0.139  1.00  0.00     0.016 C 
HETATM   15  C18 UNL     1       4.611  -7.877  -2.275  1.00  0.00     0.016 C 
ENDROOT
BRANCH   4  16
HETATM   16  O1  UNL     1       2.703  -9.671  -5.837  1.00  0.00    -0.386 OA
ATOM     17  H1  UNL     1       2.664 -10.334  -6.517  1.00  0.00     0.211 HD
ENDBRANCH   4  16
BRANCH   4  18
HETATM   18  C5  UNL     1       2.923 -11.849  -5.131  1.00  0.00     0.042 C 
BRANCH  18  19
HETATM   19  C6  UNL     1       2.114 -11.947  -6.370  1.00  0.00     0.004 C 
BRANCH  19  20
HETATM   20  C7  UNL     1       1.631 -13.370  -6.519  1.00  0.00     0.011 C 
BRANCH  20  21
HETATM   21  C8  UNL     1       1.660 -13.806  -7.984  1.00  0.00     0.085 C 
HETATM   22 BR1  UNL     1       2.098 -12.305  -9.089  1.00  0.00    -0.097 Br
ENDBRANCH  20  21
ENDBRANCH  19  20
ENDBRANCH  18  19
ENDBRANCH   4  18
BRANCH  10  23
HETATM   23  O3  UNL     1       4.491 -12.628  -1.782  1.00  0.00    -0.382 OA
ATOM     24  H3  UNL     1       5.335 -12.954  -2.073  1.00  0.00     0.211 HD
ENDBRANCH  10  23
TORSDOF 6
ENDMDL
