MODEL 1
REMARK VINA RESULT: -6.493311483      0.000      0.000
REMARK  10 active torsions:
REMARK  status: ('A' for Active; 'I' for Inactive)
REMARK    1  A    between atoms: C2_2  and  O2_4 
REMARK    2  A    between atoms: O2_4  and  C3_5 
REMARK    3  A    between atoms: C3_5  and  C4_6 
REMARK    4  A    between atoms: C7_9  and  C8_10 
REMARK    5  A    between atoms: C22_25  and  O3_26 
REMARK    6  A    between atoms: C22_25  and  C23_28 
REMARK    7  A    between atoms: C24_29  and  C25_30 
REMARK    8  A    between atoms: C25_30  and  O4_32 
REMARK    9  A    between atoms: C28_35  and  C29_36 
REMARK   10  A    between atoms: C29_36  and  O5_37 
ROOT
HETATM    1  C8  UNL     1      37.739  -0.821  36.529  1.00  0.00     0.004 C 
HETATM    2  C9  UNL     1      37.022   0.264  36.344  1.00  0.00    -0.070 C 
HETATM    3  C10 UNL     1      36.638   1.112  37.509  1.00  0.00     0.035 C 
HETATM    4  C11 UNL     1      35.593   2.121  37.228  1.00  0.00     0.005 C 
HETATM    5  C12 UNL     1      34.609   1.814  36.166  1.00  0.00     0.014 C 
HETATM    6  C13 UNL     1      35.063   0.992  35.024  1.00  0.00     0.007 C 
HETATM    7  C14 UNL     1      34.266  -0.284  34.872  1.00  0.00     0.020 C 
HETATM    8  C15 UNL     1      36.568   0.695  35.028  1.00  0.00     0.060 C 
HETATM    9  C16 UNL     1      37.100   2.047  34.649  1.00  0.00    -0.036 A 
HETATM   10  C17 UNL     1      38.281   2.731  34.889  1.00  0.00     0.050 A 
HETATM   11  C18 UNL     1      38.489   4.005  34.393  1.00  0.00     0.117 A 
HETATM   12  F1  UNL     1      39.647   4.690  34.620  1.00  0.00    -0.206 F 
HETATM   13  C19 UNL     1      37.522   4.633  33.643  1.00  0.00     0.043 A 
HETATM   14  C20 UNL     1      36.353   3.977  33.398  1.00  0.00     0.014 A 
HETATM   15  C21 UNL     1      36.147   2.711  33.890  1.00  0.00    -0.012 A 
HETATM   16  C22 UNL     1      34.976   1.808  33.752  1.00  0.00     0.111 C 
ENDROOT
BRANCH   1  17
HETATM   17  C7  UNL     1      38.176  -1.730  35.468  1.00  0.00     0.003 C 
HETATM   18  C6  UNL     1      37.479  -2.811  35.212  1.00  0.00    -0.079 C 
HETATM   19  C5  UNL     1      36.274  -3.091  35.996  1.00  0.00     0.041 C 
HETATM   20  C27 UNL     1      37.922  -3.722  34.142  1.00  0.00     0.041 C 
HETATM   21  C4  UNL     1      35.607  -4.384  35.629  1.00  0.00     0.014 C 
HETATM   22  C30 UNL     1      35.567  -4.643  34.153  1.00  0.00     0.014 C 
HETATM   23  C28 UNL     1      36.795  -4.341  33.388  1.00  0.00     0.013 C 
BRANCH  21  24
HETATM   24  C3  UNL     1      34.210  -4.349  36.195  1.00  0.00     0.183 C 
BRANCH  24  25
HETATM   25  O2  UNL     1      33.226  -3.952  35.306  1.00  0.00    -0.321 OA
BRANCH  25  26
HETATM   26  C2  UNL     1      32.111  -3.254  35.679  1.00  0.00     0.254 C 
HETATM   27  C1  UNL     1      32.177  -2.350  36.873  1.00  0.00     0.126 C 
HETATM   28  O1  UNL     1      31.048  -3.373  35.026  1.00  0.00    -0.266 OA
ENDBRANCH  25  26
ENDBRANCH  24  25
ENDBRANCH  21  24
BRANCH  23  29
HETATM   29  C29 UNL     1      36.453  -3.548  32.124  1.00  0.00     0.169 C 
BRANCH  29  30
HETATM   30  O5  UNL     1      35.324  -2.757  32.359  1.00  0.00    -0.400 OA
ATOM     31  H5  UNL     1      35.488  -1.871  32.057  1.00  0.00     0.209 HD
ENDBRANCH  29  30
ENDBRANCH  23  29
ENDBRANCH   1  17
BRANCH  16  32
HETATM   32  O3  UNL     1      33.785   2.500  33.632  1.00  0.00    -0.380 OA
ATOM     33  H3  UNL     1      33.880   3.433  33.787  1.00  0.00     0.211 HD
ENDBRANCH  16  32
BRANCH  16  34
HETATM   34  C23 UNL     1      35.244   0.915  32.593  1.00  0.00     0.015 C 
HETATM   35  C24 UNL     1      35.103   1.408  31.377  1.00  0.00     0.003 C 
BRANCH  35  36
HETATM   36  C25 UNL     1      35.363   0.542  30.209  1.00  0.00     0.136 C 
HETATM   37  C26 UNL     1      34.724   1.152  28.982  1.00  0.00     0.043 C 
BRANCH  36  38
HETATM   38  O4  UNL     1      34.837  -0.716  30.497  1.00  0.00    -0.392 OA
ATOM     39  H4  UNL     1      33.922  -0.708  30.239  1.00  0.00     0.210 HD
ENDBRANCH  36  38
ENDBRANCH  35  36
ENDBRANCH  16  34
TORSDOF 10
ENDMDL
MODEL 2
REMARK VINA RESULT: -6.374513346      1.281      1.674
REMARK  10 active torsions:
REMARK  status: ('A' for Active; 'I' for Inactive)
REMARK    1  A    between atoms: C2_2  and  O2_4 
REMARK    2  A    between atoms: O2_4  and  C3_5 
REMARK    3  A    between atoms: C3_5  and  C4_6 
REMARK    4  A    between atoms: C7_9  and  C8_10 
REMARK    5  A    between atoms: C22_25  and  O3_26 
REMARK    6  A    between atoms: C22_25  and  C23_28 
REMARK    7  A    between atoms: C24_29  and  C25_30 
REMARK    8  A    between atoms: C25_30  and  O4_32 
REMARK    9  A    between atoms: C28_35  and  C29_36 
REMARK   10  A    between atoms: C29_36  and  O5_37 
ROOT
HETATM    1  C8  UNL     1      38.109  -2.234  35.842  1.00  0.00     0.004 C 
HETATM    2  C9  UNL     1      37.784  -1.005  36.174  1.00  0.00    -0.070 C 
HETATM    3  C10 UNL     1      38.016  -0.521  37.565  1.00  0.00     0.035 C 
HETATM    4  C11 UNL     1      37.345   0.754  37.902  1.00  0.00     0.005 C 
HETATM    5  C12 UNL     1      36.083   1.073  37.197  1.00  0.00     0.014 C 
HETATM    6  C13 UNL     1      35.929   0.588  35.809  1.00  0.00     0.007 C 
HETATM    7  C14 UNL     1      34.732  -0.322  35.640  1.00  0.00     0.020 C 
HETATM    8  C15 UNL     1      37.192  -0.064  35.231  1.00  0.00     0.060 C 
HETATM    9  C16 UNL     1      38.042   1.157  35.024  1.00  0.00    -0.036 A 
HETATM   10  C17 UNL     1      39.405   1.402  35.003  1.00  0.00     0.050 A 
HETATM   11  C18 UNL     1      39.905   2.671  34.782  1.00  0.00     0.117 A 
HETATM   12  F1  UNL     1      41.246   2.928  34.757  1.00  0.00    -0.206 F 
HETATM   13  C19 UNL     1      39.057   3.735  34.575  1.00  0.00     0.043 A 
HETATM   14  C20 UNL     1      37.712   3.514  34.594  1.00  0.00     0.014 A 
HETATM   15  C21 UNL     1      37.216   2.251  34.814  1.00  0.00    -0.012 A 
HETATM   16  C22 UNL     1      35.812   1.771  34.872  1.00  0.00     0.111 C 
ENDROOT
BRANCH   1  17
HETATM   17  C7  UNL     1      37.930  -2.821  34.514  1.00  0.00     0.003 C 
HETATM   18  C6  UNL     1      36.904  -3.605  34.284  1.00  0.00    -0.079 C 
HETATM   19  C5  UNL     1      35.954  -3.881  35.365  1.00  0.00     0.041 C 
HETATM   20  C27 UNL     1      36.727  -4.193  32.944  1.00  0.00     0.041 C 
HETATM   21  C4  UNL     1      34.861  -4.832  34.975  1.00  0.00     0.014 C 
HETATM   22  C30 UNL     1      34.317  -4.590  33.598  1.00  0.00     0.014 C 
HETATM   23  C28 UNL     1      35.299  -4.304  32.532  1.00  0.00     0.013 C 
BRANCH  21  24
HETATM   24  C3  UNL     1      33.766  -4.707  36.003  1.00  0.00     0.183 C 
BRANCH  24  25
HETATM   25  O2  UNL     1      33.269  -3.427  36.181  1.00  0.00    -0.321 OA
BRANCH  25  26
HETATM   26  C2  UNL     1      31.949  -3.104  36.030  1.00  0.00     0.254 C 
HETATM   27  C1  UNL     1      31.048  -4.033  35.273  1.00  0.00     0.126 C 
HETATM   28  O1  UNL     1      31.503  -2.040  36.520  1.00  0.00    -0.266 OA
ENDBRANCH  25  26
ENDBRANCH  24  25
ENDBRANCH  21  24
BRANCH  23  29
HETATM   29  C29 UNL     1      34.850  -3.097  31.704  1.00  0.00     0.169 C 
BRANCH  29  30
HETATM   30  O5  UNL     1      33.767  -2.475  32.334  1.00  0.00    -0.400 OA
ATOM     31  H5  UNL     1      33.428  -3.042  33.017  1.00  0.00     0.209 HD
ENDBRANCH  29  30
ENDBRANCH  23  29
ENDBRANCH   1  17
BRANCH  16  32
HETATM   32  O3  UNL     1      34.939   2.740  35.331  1.00  0.00    -0.380 OA
ATOM     33  H3  UNL     1      34.318   3.024  34.670  1.00  0.00     0.211 HD
ENDBRANCH  16  32
BRANCH  16  34
HETATM   34  C23 UNL     1      35.460   1.273  33.515  1.00  0.00     0.015 C 
HETATM   35  C24 UNL     1      34.815   2.085  32.699  1.00  0.00     0.003 C 
BRANCH  35  36
HETATM   36  C25 UNL     1      34.454   1.614  31.346  1.00  0.00     0.136 C 
HETATM   37  C26 UNL     1      33.626   2.673  30.653  1.00  0.00     0.043 C 
BRANCH  36  38
HETATM   38  O4  UNL     1      33.752   0.420  31.492  1.00  0.00    -0.392 OA
ATOM     39  H4  UNL     1      34.338  -0.287  31.247  1.00  0.00     0.210 HD
ENDBRANCH  36  38
ENDBRANCH  35  36
ENDBRANCH  16  34
TORSDOF 10
ENDMDL
MODEL 3
REMARK VINA RESULT: -6.108141242      2.570      3.806
REMARK  10 active torsions:
REMARK  status: ('A' for Active; 'I' for Inactive)
REMARK    1  A    between atoms: C2_2  and  O2_4 
REMARK    2  A    between atoms: O2_4  and  C3_5 
REMARK    3  A    between atoms: C3_5  and  C4_6 
REMARK    4  A    between atoms: C7_9  and  C8_10 
REMARK    5  A    between atoms: C22_25  and  O3_26 
REMARK    6  A    between atoms: C22_25  and  C23_28 
REMARK    7  A    between atoms: C24_29  and  C25_30 
REMARK    8  A    between atoms: C25_30  and  O4_32 
REMARK    9  A    between atoms: C28_35  and  C29_36 
REMARK   10  A    between atoms: C29_36  and  O5_37 
ROOT
HETATM    1  C8  UNL     1      35.601  -1.854  36.604  1.00  0.00     0.004 C 
HETATM    2  C9  UNL     1      36.362  -0.783  36.615  1.00  0.00    -0.070 C 
HETATM    3  C10 UNL     1      37.328  -0.567  37.731  1.00  0.00     0.035 C 
HETATM    4  C11 UNL     1      37.904   0.794  37.801  1.00  0.00     0.005 C 
HETATM    5  C12 UNL     1      37.083   1.915  37.290  1.00  0.00     0.014 C 
HETATM    6  C13 UNL     1      36.166   1.639  36.164  1.00  0.00     0.007 C 
HETATM    7  C14 UNL     1      34.721   1.929  36.504  1.00  0.00     0.020 C 
HETATM    8  C15 UNL     1      36.312   0.231  35.571  1.00  0.00     0.060 C 
HETATM    9  C16 UNL     1      37.623   0.387  34.854  1.00  0.00    -0.036 A 
HETATM   10  C17 UNL     1      38.646  -0.477  34.499  1.00  0.00     0.050 A 
HETATM   11  C18 UNL     1      39.764  -0.028  33.822  1.00  0.00     0.117 A 
HETATM   12  F1  UNL     1      40.780  -0.867  33.464  1.00  0.00    -0.206 F 
HETATM   13  C19 UNL     1      39.894   1.298  33.480  1.00  0.00     0.043 A 
HETATM   14  C20 UNL     1      38.897   2.164  33.822  1.00  0.00     0.014 A 
HETATM   15  C21 UNL     1      37.786   1.716  34.494  1.00  0.00    -0.012 A 
HETATM   16  C22 UNL     1      36.586   2.458  34.961  1.00  0.00     0.111 C 
ENDROOT
BRANCH   1  17
HETATM   17  C7  UNL     1      34.619  -2.175  35.568  1.00  0.00     0.003 C 
HETATM   18  C6  UNL     1      34.328  -3.430  35.316  1.00  0.00    -0.079 C 
HETATM   19  C5  UNL     1      34.995  -4.488  36.078  1.00  0.00     0.041 C 
HETATM   20  C27 UNL     1      33.338  -3.749  34.272  1.00  0.00     0.041 C 
HETATM   21  C4  UNL     1      34.605  -5.872  35.649  1.00  0.00     0.014 C 
HETATM   22  C30 UNL     1      33.141  -6.022  35.361  1.00  0.00     0.014 C 
HETATM   23  C28 UNL     1      32.495  -4.933  34.600  1.00  0.00     0.013 C 
BRANCH  21  24
HETATM   24  C3  UNL     1      35.026  -6.820  36.744  1.00  0.00     0.183 C 
BRANCH  24  25
HETATM   25  O2  UNL     1      34.586  -8.124  36.594  1.00  0.00    -0.321 OA
BRANCH  25  26
HETATM   26  C2  UNL     1      33.997  -8.840  37.599  1.00  0.00     0.254 C 
HETATM   27  C1  UNL     1      32.546  -9.203  37.490  1.00  0.00     0.126 C 
HETATM   28  O1  UNL     1      34.668  -9.186  38.600  1.00  0.00    -0.266 OA
ENDBRANCH  25  26
ENDBRANCH  24  25
ENDBRANCH  21  24
BRANCH  23  29
HETATM   29  C29 UNL     1      31.178  -4.527  35.267  1.00  0.00     0.169 C 
BRANCH  29  30
HETATM   30  O5  UNL     1      30.856  -3.215  34.907  1.00  0.00    -0.400 OA
ATOM     31  H5  UNL     1      30.015  -2.979  35.281  1.00  0.00     0.209 HD
ENDBRANCH  29  30
ENDBRANCH  23  29
ENDBRANCH   1  17
BRANCH  16  32
HETATM   32  O3  UNL     1      36.866   3.775  35.275  1.00  0.00    -0.380 OA
ATOM     33  H3  UNL     1      36.899   4.340  34.511  1.00  0.00     0.211 HD
ENDBRANCH  16  32
BRANCH  16  34
HETATM   34  C23 UNL     1      35.547   2.323  33.906  1.00  0.00     0.015 C 
HETATM   35  C24 UNL     1      35.596   3.142  32.872  1.00  0.00     0.003 C 
BRANCH  35  36
HETATM   36  C25 UNL     1      34.576   3.029  31.810  1.00  0.00     0.136 C 
HETATM   37  C26 UNL     1      34.586   4.287  30.971  1.00  0.00     0.043 C 
BRANCH  36  38
HETATM   38  O4  UNL     1      33.345   2.831  32.432  1.00  0.00    -0.392 OA
ATOM     39  H4  UNL     1      32.882   3.661  32.419  1.00  0.00     0.210 HD
ENDBRANCH  36  38
ENDBRANCH  35  36
ENDBRANCH  16  34
TORSDOF 10
ENDMDL
MODEL 4
REMARK VINA RESULT: -6.095405751      2.945      7.302
REMARK  10 active torsions:
REMARK  status: ('A' for Active; 'I' for Inactive)
REMARK    1  A    between atoms: C2_2  and  O2_4 
REMARK    2  A    between atoms: O2_4  and  C3_5 
REMARK    3  A    between atoms: C3_5  and  C4_6 
REMARK    4  A    between atoms: C7_9  and  C8_10 
REMARK    5  A    between atoms: C22_25  and  O3_26 
REMARK    6  A    between atoms: C22_25  and  C23_28 
REMARK    7  A    between atoms: C24_29  and  C25_30 
REMARK    8  A    between atoms: C25_30  and  O4_32 
REMARK    9  A    between atoms: C28_35  and  C29_36 
REMARK   10  A    between atoms: C29_36  and  O5_37 
ROOT
HETATM    1  C8  UNL     1      38.395  -2.798  33.072  1.00  0.00     0.004 C 
HETATM    2  C9  UNL     1      37.302  -3.375  32.629  1.00  0.00    -0.070 C 
HETATM    3  C10 UNL     1      37.286  -4.006  31.277  1.00  0.00     0.035 C 
HETATM    4  C11 UNL     1      35.942  -4.350  30.766  1.00  0.00     0.005 C 
HETATM    5  C12 UNL     1      34.801  -3.525  31.222  1.00  0.00     0.014 C 
HETATM    6  C13 UNL     1      34.867  -2.953  32.584  1.00  0.00     0.007 C 
HETATM    7  C14 UNL     1      34.787  -1.442  32.585  1.00  0.00     0.020 C 
HETATM    8  C15 UNL     1      36.070  -3.433  33.405  1.00  0.00     0.060 C 
HETATM    9  C16 UNL     1      35.638  -4.842  33.698  1.00  0.00    -0.036 A 
HETATM   10  C17 UNL     1      36.303  -6.032  33.945  1.00  0.00     0.050 A 
HETATM   11  C18 UNL     1      35.613  -7.205  34.188  1.00  0.00     0.117 A 
HETATM   12  F1  UNL     1      36.253  -8.385  34.435  1.00  0.00    -0.206 F 
HETATM   13  C19 UNL     1      34.237  -7.224  34.190  1.00  0.00     0.043 A 
HETATM   14  C20 UNL     1      33.565  -6.062  33.946  1.00  0.00     0.014 A 
HETATM   15  C21 UNL     1      34.253  -4.897  33.706  1.00  0.00    -0.012 A 
HETATM   16  C22 UNL     1      33.748  -3.528  33.426  1.00  0.00     0.111 C 
ENDROOT
BRANCH   1  17
HETATM   17  C7  UNL     1      38.532  -2.148  34.376  1.00  0.00     0.003 C 
HETATM   18  C6  UNL     1      38.321  -0.858  34.483  1.00  0.00    -0.079 C 
HETATM   19  C5  UNL     1      37.953  -0.089  33.292  1.00  0.00     0.041 C 
HETATM   20  C27 UNL     1      38.459  -0.207  35.799  1.00  0.00     0.041 C 
HETATM   21  C4  UNL     1      37.793   1.380  33.552  1.00  0.00     0.014 C 
HETATM   22  C30 UNL     1      37.090   1.690  34.840  1.00  0.00     0.014 C 
HETATM   23  C28 UNL     1      37.475   0.890  36.021  1.00  0.00     0.013 C 
BRANCH  21  24
HETATM   24  C3  UNL     1      37.037   1.966  32.386  1.00  0.00     0.183 C 
BRANCH  24  25
HETATM   25  O2  UNL     1      35.889   2.663  32.720  1.00  0.00    -0.321 OA
BRANCH  25  26
HETATM   26  C2  UNL     1      34.645   2.327  32.262  1.00  0.00     0.254 C 
HETATM   27  C1  UNL     1      34.488   1.845  30.851  1.00  0.00     0.126 C 
HETATM   28  O1  UNL     1      33.650   2.425  33.018  1.00  0.00    -0.266 OA
ENDBRANCH  25  26
ENDBRANCH  24  25
ENDBRANCH  21  24
BRANCH  23  29
HETATM   29  C29 UNL     1      36.228   0.396  36.759  1.00  0.00     0.169 C 
BRANCH  29  30
HETATM   30  O5  UNL     1      36.610  -0.289  37.916  1.00  0.00    -0.400 OA
ATOM     31  H5  UNL     1      36.680  -1.218  37.727  1.00  0.00     0.209 HD
ENDBRANCH  29  30
ENDBRANCH  23  29
ENDBRANCH   1  17
BRANCH  16  32
HETATM   32  O3  UNL     1      32.529  -3.536  32.774  1.00  0.00    -0.380 OA
ATOM     33  H3  UNL     1      32.608  -3.702  31.841  1.00  0.00     0.211 HD
ENDBRANCH  16  32
BRANCH  16  34
HETATM   34  C23 UNL     1      33.705  -2.801  34.723  1.00  0.00     0.015 C 
HETATM   35  C24 UNL     1      32.622  -2.917  35.468  1.00  0.00     0.003 C 
BRANCH  35  36
HETATM   36  C25 UNL     1      32.553  -2.205  36.761  1.00  0.00     0.136 C 
HETATM   37  C26 UNL     1      33.206  -3.050  37.831  1.00  0.00     0.043 C 
BRANCH  36  38
HETATM   38  O4  UNL     1      31.208  -1.967  37.036  1.00  0.00    -0.392 OA
ATOM     39  H4  UNL     1      30.975  -2.491  37.794  1.00  0.00     0.210 HD
ENDBRANCH  36  38
ENDBRANCH  35  36
ENDBRANCH  16  34
TORSDOF 10
ENDMDL
MODEL 5
REMARK VINA RESULT: -6.006598941      3.689      8.192
REMARK  10 active torsions:
REMARK  status: ('A' for Active; 'I' for Inactive)
REMARK    1  A    between atoms: C2_2  and  O2_4 
REMARK    2  A    between atoms: O2_4  and  C3_5 
REMARK    3  A    between atoms: C3_5  and  C4_6 
REMARK    4  A    between atoms: C7_9  and  C8_10 
REMARK    5  A    between atoms: C22_25  and  O3_26 
REMARK    6  A    between atoms: C22_25  and  C23_28 
REMARK    7  A    between atoms: C24_29  and  C25_30 
REMARK    8  A    between atoms: C25_30  and  O4_32 
REMARK    9  A    between atoms: C28_35  and  C29_36 
REMARK   10  A    between atoms: C29_36  and  O5_37 
ROOT
HETATM    1  C8  UNL     1      37.705  -5.929  34.140  1.00  0.00     0.004 C 
HETATM    2  C9  UNL     1      36.516  -6.469  33.996  1.00  0.00    -0.070 C 
HETATM    3  C10 UNL     1      36.314  -7.580  33.022  1.00  0.00     0.035 C 
HETATM    4  C11 UNL     1      34.900  -7.901  32.727  1.00  0.00     0.005 C 
HETATM    5  C12 UNL     1      33.910  -6.805  32.831  1.00  0.00     0.014 C 
HETATM    6  C13 UNL     1      34.156  -5.750  33.838  1.00  0.00     0.007 C 
HETATM    7  C14 UNL     1      34.265  -4.372  33.223  1.00  0.00     0.020 C 
HETATM    8  C15 UNL     1      35.353  -6.030  34.757  1.00  0.00     0.060 C 
HETATM    9  C16 UNL     1      34.775  -7.123  35.609  1.00  0.00    -0.036 A 
HETATM   10  C17 UNL     1      35.304  -8.196  36.307  1.00  0.00     0.050 A 
HETATM   11  C18 UNL     1      34.496  -9.059  37.024  1.00  0.00     0.117 A 
HETATM   12  F1  UNL     1      35.003 -10.119  37.717  1.00  0.00    -0.206 F 
HETATM   13  C19 UNL     1      33.133  -8.874  37.064  1.00  0.00     0.043 A 
HETATM   14  C20 UNL     1      32.593  -7.823  36.382  1.00  0.00     0.014 A 
HETATM   15  C21 UNL     1      33.398  -6.967  35.671  1.00  0.00    -0.012 A 
HETATM   16  C22 UNL     1      33.046  -5.769  34.867  1.00  0.00     0.111 C 
ENDROOT
BRANCH   1  17
HETATM   17  C7  UNL     1      38.026  -4.838  35.060  1.00  0.00     0.003 C 
HETATM   18  C6  UNL     1      37.926  -3.594  34.653  1.00  0.00    -0.079 C 
HETATM   19  C5  UNL     1      37.495  -3.321  33.279  1.00  0.00     0.041 C 
HETATM   20  C27 UNL     1      38.248  -2.498  35.583  1.00  0.00     0.041 C 
HETATM   21  C4  UNL     1      37.475  -1.861  32.936  1.00  0.00     0.014 C 
HETATM   22  C30 UNL     1      36.935  -0.992  34.034  1.00  0.00     0.014 C 
HETATM   23  C28 UNL     1      37.379  -1.300  35.409  1.00  0.00     0.013 C 
BRANCH  21  24
HETATM   24  C3  UNL     1      36.650  -1.702  31.685  1.00  0.00     0.183 C 
BRANCH  24  25
HETATM   25  O2  UNL     1      35.366  -1.224  31.885  1.00  0.00    -0.321 OA
BRANCH  25  26
HETATM   26  C2  UNL     1      34.860  -0.132  31.236  1.00  0.00     0.254 C 
HETATM   27  C1  UNL     1      35.319   0.171  29.841  1.00  0.00     0.126 C 
HETATM   28  O1  UNL     1      34.022   0.606  31.806  1.00  0.00    -0.266 OA
ENDBRANCH  25  26
ENDBRANCH  24  25
ENDBRANCH  21  24
BRANCH  23  29
HETATM   29  C29 UNL     1      36.182  -1.321  36.363  1.00  0.00     0.169 C 
BRANCH  29  30
HETATM   30  O5  UNL     1      36.550  -0.759  37.589  1.00  0.00    -0.400 OA
ATOM     31  H5  UNL     1      37.016   0.056  37.438  1.00  0.00     0.209 HD
ENDBRANCH  29  30
ENDBRANCH  23  29
ENDBRANCH   1  17
BRANCH  16  32
HETATM   32  O3  UNL     1      31.787  -5.860  34.303  1.00  0.00    -0.380 OA
ATOM     33  H3  UNL     1      31.317  -5.034  34.307  1.00  0.00     0.211 HD
ENDBRANCH  16  32
BRANCH  16  34
HETATM   34  C23 UNL     1      33.198  -4.584  35.754  1.00  0.00     0.015 C 
HETATM   35  C24 UNL     1      32.218  -3.700  35.789  1.00  0.00     0.003 C 
BRANCH  35  36
HETATM   36  C25 UNL     1      32.344  -2.514  36.661  1.00  0.00     0.136 C 
HETATM   37  C26 UNL     1      33.151  -2.879  37.886  1.00  0.00     0.043 C 
BRANCH  36  38
HETATM   38  O4  UNL     1      31.055  -2.101  36.993  1.00  0.00    -0.392 OA
ATOM     39  H4  UNL     1      30.522  -2.174  36.209  1.00  0.00     0.210 HD
ENDBRANCH  36  38
ENDBRANCH  35  36
ENDBRANCH  16  34
TORSDOF 10
ENDMDL
