MODEL 1
REMARK VINA RESULT: -7.290436985      0.000      0.000
REMARK  9 active torsions:
REMARK  status: ('A' for Active; 'I' for Inactive)
REMARK    1  A    between atoms: C8_8  and  O1_9 
REMARK    2  A    between atoms: O1_9  and  C9_10 
REMARK    3  A    between atoms: C9_10  and  C10_12 
REMARK    4  A    between atoms: C10_12  and  C11_13 
REMARK    5  A    between atoms: C17_20  and  O3_21 
REMARK    6  A    between atoms: C17_20  and  C18_23 
REMARK    7  A    between atoms: C18_23  and  C19_24 
REMARK    8  A    between atoms: C19_24  and  C20_25 
REMARK    9  A    between atoms: C20_25  and  O4_26 
ROOT
HETATM    1  C1  UNL     1      39.645  -0.691  35.371  1.00  0.00     0.010 C 
HETATM    2  C2  UNL     1      38.410  -0.171  36.130  1.00  0.00    -0.017 C 
HETATM    3  C3  UNL     1      37.278  -1.027  35.755  1.00  0.00     0.010 C 
HETATM    4  C4  UNL     1      35.895  -0.463  35.900  1.00  0.00     0.004 C 
HETATM    5  C5  UNL     1      34.842  -1.383  35.384  1.00  0.00    -0.024 C 
HETATM    6  C6  UNL     1      33.617  -1.187  36.293  1.00  0.00     0.016 C 
HETATM    7  C7  UNL     1      35.184  -2.835  35.460  1.00  0.00     0.046 C 
HETATM    8  C8  UNL     1      34.199  -3.461  34.428  1.00  0.00     0.167 C 
HETATM    9  C17 UNL     1      34.434  -2.583  33.297  1.00  0.00     0.095 C 
HETATM   10  C21 UNL     1      34.466  -1.217  33.935  1.00  0.00     0.101 C 
HETATM   11  C22 UNL     1      35.204  -0.184  33.212  1.00  0.00     0.135 C 
HETATM   12  O5  UNL     1      35.049  -0.070  32.016  1.00  0.00    -0.297 OA
HETATM   13  C23 UNL     1      36.168   0.780  33.855  1.00  0.00     0.089 C 
HETATM   14  C24 UNL     1      35.857   0.925  35.326  1.00  0.00    -0.026 C 
HETATM   15  C25 UNL     1      34.557   1.640  35.443  1.00  0.00     0.016 C 
HETATM   16  C26 UNL     1      36.890   1.744  36.046  1.00  0.00    -0.039 C 
HETATM   17  C27 UNL     1      36.814   3.209  35.624  1.00  0.00     0.015 C 
HETATM   18  C28 UNL     1      36.707   1.692  37.549  1.00  0.00     0.015 C 
HETATM   19  C29 UNL     1      38.300   1.275  35.783  1.00  0.00     0.013 C 
ENDROOT
BRANCH   8  20
HETATM   20  O1  UNL     1      33.016  -3.600  35.057  1.00  0.00    -0.313 OA
BRANCH  20  21
HETATM   21  C9  UNL     1      32.474  -4.718  35.606  1.00  0.00     0.263 C 
HETATM   22  O2  UNL     1      32.280  -4.563  36.822  1.00  0.00    -0.265 OA
BRANCH  21  23
HETATM   23  C10 UNL     1      32.140  -5.966  34.917  1.00  0.00     0.151 C 
BRANCH  23  24
HETATM   24  C11 UNL     1      32.960  -7.128  35.262  1.00  0.00    -0.027 A 
HETATM   25  C12 UNL     1      32.706  -7.869  36.391  1.00  0.00     0.009 A 
HETATM   26  C13 UNL     1      33.470  -8.950  36.747  1.00  0.00     0.001 A 
HETATM   27  C14 UNL     1      34.535  -9.334  35.968  1.00  0.00     0.002 A 
HETATM   28  C15 UNL     1      34.811  -8.610  34.831  1.00  0.00     0.024 A 
HETATM   29  C16 UNL     1      34.018  -7.504  34.481  1.00  0.00     0.040 A 
HETATM   30 CL1  UNL     1      34.467  -6.687  33.006  1.00  0.00    -0.084 Cl
ENDBRANCH  23  24
ENDBRANCH  21  23
ENDBRANCH  20  21
ENDBRANCH   8  20
BRANCH   9  31
HETATM   31  O3  UNL     1      33.465  -2.630  32.273  1.00  0.00    -0.386 OA
ATOM     32  H3  UNL     1      33.356  -1.831  31.771  1.00  0.00     0.210 HD
ENDBRANCH   9  31
BRANCH   9  33
HETATM   33  C18 UNL     1      35.682  -2.952  32.544  1.00  0.00     0.043 C 
BRANCH  33  34
HETATM   34  C19 UNL     1      35.426  -3.650  31.231  1.00  0.00     0.029 C 
BRANCH  34  35
HETATM   35  C20 UNL     1      36.598  -4.612  30.957  1.00  0.00     0.164 C 
BRANCH  35  36
HETATM   36  O4  UNL     1      36.246  -5.526  29.976  1.00  0.00    -0.401 OA
ATOM     37  H4  UNL     1      35.355  -5.825  30.111  1.00  0.00     0.209 HD
ENDBRANCH  35  36
ENDBRANCH  34  35
ENDBRANCH  33  34
ENDBRANCH   9  33
TORSDOF 9
ENDMDL
MODEL 2
REMARK VINA RESULT: -7.223808520      1.943      2.804
REMARK  9 active torsions:
REMARK  status: ('A' for Active; 'I' for Inactive)
REMARK    1  A    between atoms: C8_8  and  O1_9 
REMARK    2  A    between atoms: O1_9  and  C9_10 
REMARK    3  A    between atoms: C9_10  and  C10_12 
REMARK    4  A    between atoms: C10_12  and  C11_13 
REMARK    5  A    between atoms: C17_20  and  O3_21 
REMARK    6  A    between atoms: C17_20  and  C18_23 
REMARK    7  A    between atoms: C18_23  and  C19_24 
REMARK    8  A    between atoms: C19_24  and  C20_25 
REMARK    9  A    between atoms: C20_25  and  O4_26 
ROOT
HETATM    1  C1  UNL     1      39.974   1.029  33.356  1.00  0.00     0.010 C 
HETATM    2  C2  UNL     1      38.863   1.944  33.906  1.00  0.00    -0.017 C 
HETATM    3  C3  UNL     1      37.797   1.074  34.417  1.00  0.00     0.010 C 
HETATM    4  C4  UNL     1      36.412   1.643  34.512  1.00  0.00     0.004 C 
HETATM    5  C5  UNL     1      35.402   0.632  34.937  1.00  0.00    -0.024 C 
HETATM    6  C6  UNL     1      34.373   1.388  35.796  1.00  0.00     0.016 C 
HETATM    7  C7  UNL     1      35.935  -0.463  35.801  1.00  0.00     0.046 C 
HETATM    8  C8  UNL     1      34.849  -1.568  35.640  1.00  0.00     0.167 C 
HETATM    9  C17 UNL     1      34.734  -1.595  34.195  1.00  0.00     0.095 C 
HETATM   10  C21 UNL     1      34.721  -0.131  33.833  1.00  0.00     0.101 C 
HETATM   11  C22 UNL     1      35.158   0.204  32.479  1.00  0.00     0.135 C 
HETATM   12  O5  UNL     1      34.749  -0.450  31.544  1.00  0.00    -0.297 OA
HETATM   13  C23 UNL     1      36.101   1.330  32.144  1.00  0.00     0.089 C 
HETATM   14  C24 UNL     1      36.081   2.370  33.239  1.00  0.00    -0.026 C 
HETATM   15  C25 UNL     1      34.751   3.038  33.201  1.00  0.00     0.016 C 
HETATM   16  C26 UNL     1      37.126   3.430  33.034  1.00  0.00    -0.039 C 
HETATM   17  C27 UNL     1      36.779   4.312  31.838  1.00  0.00     0.015 C 
HETATM   18  C28 UNL     1      37.262   4.332  34.243  1.00  0.00     0.015 C 
HETATM   19  C29 UNL     1      38.500   2.859  32.786  1.00  0.00     0.013 C 
ENDROOT
BRANCH   8  20
HETATM   20  O1  UNL     1      33.847  -1.250  36.483  1.00  0.00    -0.313 OA
BRANCH  20  21
HETATM   21  C9  UNL     1      32.923  -2.069  37.049  1.00  0.00     0.263 C 
HETATM   22  O2  UNL     1      31.813  -1.514  37.098  1.00  0.00    -0.265 OA
BRANCH  21  23
HETATM   23  C10 UNL     1      33.138  -3.427  37.552  1.00  0.00     0.151 C 
BRANCH  23  24
HETATM   24  C11 UNL     1      33.165  -4.486  36.543  1.00  0.00    -0.027 A 
HETATM   25  C12 UNL     1      32.058  -4.774  35.782  1.00  0.00     0.009 A 
HETATM   26  C13 UNL     1      32.052  -5.774  34.843  1.00  0.00     0.001 A 
HETATM   27  C14 UNL     1      33.178  -6.533  34.630  1.00  0.00     0.002 A 
HETATM   28  C15 UNL     1      34.301  -6.264  35.377  1.00  0.00     0.024 A 
HETATM   29  C16 UNL     1      34.290  -5.237  36.336  1.00  0.00     0.040 A 
HETATM   30 CL1  UNL     1      35.786  -4.992  37.200  1.00  0.00    -0.084 Cl
ENDBRANCH  23  24
ENDBRANCH  21  23
ENDBRANCH  20  21
ENDBRANCH   8  20
BRANCH   9  31
HETATM   31  O3  UNL     1      33.591  -2.243  33.683  1.00  0.00    -0.386 OA
ATOM     32  H3  UNL     1      33.402  -2.084  32.765  1.00  0.00     0.210 HD
ENDBRANCH   9  31
BRANCH   9  33
HETATM   33  C18 UNL     1      35.839  -2.389  33.554  1.00  0.00     0.043 C 
BRANCH  33  34
HETATM   34  C19 UNL     1      35.409  -3.742  33.042  1.00  0.00     0.029 C 
BRANCH  34  35
HETATM   35  C20 UNL     1      35.603  -3.765  31.514  1.00  0.00     0.164 C 
BRANCH  35  36
HETATM   36  O4  UNL     1      34.568  -3.082  30.892  1.00  0.00    -0.401 OA
ATOM     37  H4  UNL     1      34.265  -3.568  30.133  1.00  0.00     0.209 HD
ENDBRANCH  35  36
ENDBRANCH  34  35
ENDBRANCH  33  34
ENDBRANCH   9  33
TORSDOF 9
ENDMDL
MODEL 3
REMARK VINA RESULT: -7.169942149      2.561      4.001
REMARK  9 active torsions:
REMARK  status: ('A' for Active; 'I' for Inactive)
REMARK    1  A    between atoms: C8_8  and  O1_9 
REMARK    2  A    between atoms: O1_9  and  C9_10 
REMARK    3  A    between atoms: C9_10  and  C10_12 
REMARK    4  A    between atoms: C10_12  and  C11_13 
REMARK    5  A    between atoms: C17_20  and  O3_21 
REMARK    6  A    between atoms: C17_20  and  C18_23 
REMARK    7  A    between atoms: C18_23  and  C19_24 
REMARK    8  A    between atoms: C19_24  and  C20_25 
REMARK    9  A    between atoms: C20_25  and  O4_26 
ROOT
HETATM    1  C1  UNL     1      35.141  -0.426  31.283  1.00  0.00     0.010 C 
HETATM    2  C2  UNL     1      36.191  -0.191  32.385  1.00  0.00    -0.017 C 
HETATM    3  C3  UNL     1      36.117  -1.330  33.307  1.00  0.00     0.010 C 
HETATM    4  C4  UNL     1      36.611  -1.131  34.709  1.00  0.00     0.004 C 
HETATM    5  C5  UNL     1      36.379  -2.322  35.576  1.00  0.00    -0.024 C 
HETATM    6  C6  UNL     1      37.572  -2.387  36.545  1.00  0.00     0.016 C 
HETATM    7  C7  UNL     1      36.364  -3.630  34.854  1.00  0.00     0.046 C 
HETATM    8  C8  UNL     1      35.616  -4.554  35.861  1.00  0.00     0.167 C 
HETATM    9  C17 UNL     1      34.464  -3.722  36.153  1.00  0.00     0.095 C 
HETATM   10  C21 UNL     1      35.075  -2.354  36.327  1.00  0.00     0.101 C 
HETATM   11  C22 UNL     1      34.189  -1.217  36.090  1.00  0.00     0.135 C 
HETATM   12  O5  UNL     1      33.073  -1.226  36.560  1.00  0.00    -0.297 OA
HETATM   13  C23 UNL     1      34.565   0.003  35.288  1.00  0.00     0.089 C 
HETATM   14  C24 UNL     1      36.067   0.160  35.253  1.00  0.00    -0.026 C 
HETATM   15  C25 UNL     1      36.514   0.524  36.626  1.00  0.00     0.016 C 
HETATM   16  C26 UNL     1      36.501   1.262  34.329  1.00  0.00    -0.039 C 
HETATM   17  C27 UNL     1      36.114   2.627  34.892  1.00  0.00     0.015 C 
HETATM   18  C28 UNL     1      38.000   1.264  34.115  1.00  0.00     0.015 C 
HETATM   19  C29 UNL     1      35.886   1.153  32.956  1.00  0.00     0.013 C 
ENDROOT
BRANCH   8  20
HETATM   20  O1  UNL     1      36.527  -4.949  36.772  1.00  0.00    -0.313 OA
BRANCH  20  21
HETATM   21  C9  UNL     1      36.572  -6.108  37.479  1.00  0.00     0.263 C 
HETATM   22  O2  UNL     1      36.730  -5.880  38.689  1.00  0.00    -0.265 OA
BRANCH  21  23
HETATM   23  C10 UNL     1      36.456  -7.469  36.951  1.00  0.00     0.151 C 
BRANCH  23  24
HETATM   24  C11 UNL     1      35.136  -8.090  37.068  1.00  0.00    -0.027 A 
HETATM   25  C12 UNL     1      34.109  -7.748  36.221  1.00  0.00     0.009 A 
HETATM   26  C13 UNL     1      32.859  -8.302  36.321  1.00  0.00     0.001 A 
HETATM   27  C14 UNL     1      32.589  -9.236  37.292  1.00  0.00     0.002 A 
HETATM   28  C15 UNL     1      33.600  -9.598  38.154  1.00  0.00     0.024 A 
HETATM   29  C16 UNL     1      34.875  -9.020  38.037  1.00  0.00     0.040 A 
HETATM   30 CL1  UNL     1      36.068  -9.581  39.181  1.00  0.00    -0.084 Cl
ENDBRANCH  23  24
ENDBRANCH  21  23
ENDBRANCH  20  21
ENDBRANCH   8  20
BRANCH   9  31
HETATM   31  O3  UNL     1      33.722  -4.084  37.296  1.00  0.00    -0.386 OA
ATOM     32  H3  UNL     1      33.359  -3.363  37.798  1.00  0.00     0.210 HD
ENDBRANCH   9  31
BRANCH   9  33
HETATM   33  C18 UNL     1      33.417  -3.808  35.078  1.00  0.00     0.043 C 
BRANCH  33  34
HETATM   34  C19 UNL     1      32.288  -4.760  35.392  1.00  0.00     0.029 C 
BRANCH  34  35
HETATM   35  C20 UNL     1      30.956  -4.031  35.131  1.00  0.00     0.164 C 
BRANCH  35  36
HETATM   36  O4  UNL     1      31.048  -2.708  35.538  1.00  0.00    -0.401 OA
ATOM     37  H4  UNL     1      30.607  -2.591  36.371  1.00  0.00     0.209 HD
ENDBRANCH  35  36
ENDBRANCH  34  35
ENDBRANCH  33  34
ENDBRANCH   9  33
TORSDOF 9
ENDMDL
MODEL 4
REMARK VINA RESULT: -6.986499064      3.264      7.891
REMARK  9 active torsions:
REMARK  status: ('A' for Active; 'I' for Inactive)
REMARK    1  A    between atoms: C8_8  and  O1_9 
REMARK    2  A    between atoms: O1_9  and  C9_10 
REMARK    3  A    between atoms: C9_10  and  C10_12 
REMARK    4  A    between atoms: C10_12  and  C11_13 
REMARK    5  A    between atoms: C17_20  and  O3_21 
REMARK    6  A    between atoms: C17_20  and  C18_23 
REMARK    7  A    between atoms: C18_23  and  C19_24 
REMARK    8  A    between atoms: C19_24  and  C20_25 
REMARK    9  A    between atoms: C20_25  and  O4_26 
ROOT
HETATM    1  C1  UNL     1      35.739  -5.787  32.431  1.00  0.00     0.010 C 
HETATM    2  C2  UNL     1      34.416  -5.348  33.089  1.00  0.00    -0.017 C 
HETATM    3  C3  UNL     1      34.682  -4.094  33.802  1.00  0.00     0.010 C 
HETATM    4  C4  UNL     1      33.771  -3.726  34.936  1.00  0.00     0.004 C 
HETATM    5  C5  UNL     1      34.209  -2.492  35.650  1.00  0.00    -0.024 C 
HETATM    6  C6  UNL     1      32.923  -1.772  36.091  1.00  0.00     0.016 C 
HETATM    7  C7  UNL     1      34.961  -1.514  34.809  1.00  0.00     0.046 C 
HETATM    8  C8  UNL     1      35.698  -0.656  35.880  1.00  0.00     0.167 C 
HETATM    9  C17 UNL     1      36.274  -1.711  36.691  1.00  0.00     0.095 C 
HETATM   10  C21 UNL     1      35.137  -2.694  36.817  1.00  0.00     0.101 C 
HETATM   11  C22 UNL     1      35.510  -4.081  37.088  1.00  0.00     0.135 C 
HETATM   12  O5  UNL     1      36.347  -4.318  37.930  1.00  0.00    -0.297 OA
HETATM   13  C23 UNL     1      34.917  -5.274  36.383  1.00  0.00     0.089 C 
HETATM   14  C24 UNL     1      33.560  -4.924  35.819  1.00  0.00    -0.026 C 
HETATM   15  C25 UNL     1      32.631  -4.730  36.966  1.00  0.00     0.016 C 
HETATM   16  C26 UNL     1      32.999  -6.026  34.965  1.00  0.00    -0.039 C 
HETATM   17  C27 UNL     1      32.618  -7.233  35.816  1.00  0.00     0.015 C 
HETATM   18  C28 UNL     1      31.760  -5.585  34.214  1.00  0.00     0.015 C 
HETATM   19  C29 UNL     1      33.971  -6.507  33.915  1.00  0.00     0.013 C 
ENDROOT
BRANCH   8  20
HETATM   20  O1  UNL     1      34.808   0.253  36.324  1.00  0.00    -0.313 OA
BRANCH  20  21
HETATM   21  C9  UNL     1      34.952   1.600  36.428  1.00  0.00     0.263 C 
HETATM   22  O2  UNL     1      34.158   2.065  37.261  1.00  0.00    -0.265 OA
BRANCH  21  23
HETATM   23  C10 UNL     1      35.892   2.446  35.691  1.00  0.00     0.151 C 
BRANCH  23  24
HETATM   24  C11 UNL     1      35.519   2.768  34.313  1.00  0.00    -0.027 A 
HETATM   25  C12 UNL     1      34.412   2.206  33.725  1.00  0.00     0.009 A 
HETATM   26  C13 UNL     1      34.051   2.477  32.430  1.00  0.00     0.001 A 
HETATM   27  C14 UNL     1      34.801   3.338  31.666  1.00  0.00     0.002 A 
HETATM   28  C15 UNL     1      35.915   3.916  32.231  1.00  0.00     0.024 A 
HETATM   29  C16 UNL     1      36.271   3.627  33.559  1.00  0.00     0.040 A 
HETATM   30 CL1  UNL     1      37.695   4.441  34.155  1.00  0.00    -0.084 Cl
ENDBRANCH  23  24
ENDBRANCH  21  23
ENDBRANCH  20  21
ENDBRANCH   8  20
BRANCH   9  31
HETATM   31  O3  UNL     1      36.738  -1.322  37.964  1.00  0.00    -0.386 OA
ATOM     32  H3  UNL     1      36.068  -1.191  38.626  1.00  0.00     0.210 HD
ENDBRANCH   9  31
BRANCH   9  33
HETATM   33  C18 UNL     1      37.525  -2.277  36.077  1.00  0.00     0.043 C 
BRANCH  33  34
HETATM   34  C19 UNL     1      38.793  -1.583  36.515  1.00  0.00     0.029 C 
BRANCH  34  35
HETATM   35  C20 UNL     1      39.762  -2.648  37.064  1.00  0.00     0.164 C 
BRANCH  35  36
HETATM   36  O4  UNL     1      39.101  -3.477  37.959  1.00  0.00    -0.401 OA
ATOM     37  H4  UNL     1      39.505  -4.337  37.967  1.00  0.00     0.209 HD
ENDBRANCH  35  36
ENDBRANCH  34  35
ENDBRANCH  33  34
ENDBRANCH   9  33
TORSDOF 9
ENDMDL
MODEL 5
REMARK VINA RESULT: -6.947950171     12.470     15.667
REMARK  9 active torsions:
REMARK  status: ('A' for Active; 'I' for Inactive)
REMARK    1  A    between atoms: C8_8  and  O1_9 
REMARK    2  A    between atoms: O1_9  and  C9_10 
REMARK    3  A    between atoms: C9_10  and  C10_12 
REMARK    4  A    between atoms: C10_12  and  C11_13 
REMARK    5  A    between atoms: C17_20  and  O3_21 
REMARK    6  A    between atoms: C17_20  and  C18_23 
REMARK    7  A    between atoms: C18_23  and  C19_24 
REMARK    8  A    between atoms: C19_24  and  C20_25 
REMARK    9  A    between atoms: C20_25  and  O4_26 
ROOT
HETATM    1  C1  UNL     1      35.859  -7.731  44.339  1.00  0.00     0.010 C 
HETATM    2  C2  UNL     1      36.642  -9.028  44.058  1.00  0.00    -0.017 C 
HETATM    3  C3  UNL     1      35.701 -10.144  44.200  1.00  0.00     0.010 C 
HETATM    4  C4  UNL     1      36.262 -11.500  44.510  1.00  0.00     0.004 C 
HETATM    5  C5  UNL     1      35.202 -12.523  44.740  1.00  0.00    -0.024 C 
HETATM    6  C6  UNL     1      35.756 -13.848  44.187  1.00  0.00     0.016 C 
HETATM    7  C7  UNL     1      33.922 -12.276  44.012  1.00  0.00     0.046 C 
HETATM    8  C8  UNL     1      32.911 -13.144  44.819  1.00  0.00     0.167 C 
HETATM    9  C17 UNL     1      33.229 -12.710  46.166  1.00  0.00     0.095 C 
HETATM   10  C21 UNL     1      34.737 -12.689  46.162  1.00  0.00     0.101 C 
HETATM   11  C22 UNL     1      35.373 -11.804  47.136  1.00  0.00     0.135 C 
HETATM   12  O5  UNL     1      34.968 -11.789  48.278  1.00  0.00    -0.297 OA
HETATM   13  C23 UNL     1      36.525 -10.884  46.824  1.00  0.00     0.089 C 
HETATM   14  C24 UNL     1      37.276 -11.383  45.612  1.00  0.00    -0.026 C 
HETATM   15  C25 UNL     1      37.964 -12.646  45.997  1.00  0.00     0.016 C 
HETATM   16  C26 UNL     1      38.331 -10.414  45.160  1.00  0.00    -0.039 C 
HETATM   17  C27 UNL     1      39.479 -10.350  46.164  1.00  0.00     0.015 C 
HETATM   18  C28 UNL     1      38.918 -10.801  43.818  1.00  0.00     0.015 C 
HETATM   19  C29 UNL     1      37.805  -9.009  44.992  1.00  0.00     0.013 C 
ENDROOT
BRANCH   8  20
HETATM   20  O1  UNL     1      33.043 -14.407  44.369  1.00  0.00    -0.313 OA
BRANCH  20  21
HETATM   21  C9  UNL     1      32.562 -15.556  44.912  1.00  0.00     0.263 C 
HETATM   22  O2  UNL     1      33.465 -16.184  45.486  1.00  0.00    -0.265 OA
BRANCH  21  23
HETATM   23  C10 UNL     1      31.182 -16.044  44.865  1.00  0.00     0.151 C 
BRANCH  23  24
HETATM   24  C11 UNL     1      30.323 -15.642  45.980  1.00  0.00    -0.027 A 
HETATM   25  C12 UNL     1      29.593 -14.479  45.933  1.00  0.00     0.009 A 
HETATM   26  C13 UNL     1      28.794 -14.070  46.971  1.00  0.00     0.001 A 
HETATM   27  C14 UNL     1      28.698 -14.829  48.112  1.00  0.00     0.002 A 
HETATM   28  C15 UNL     1      29.418 -15.999  48.185  1.00  0.00     0.024 A 
HETATM   29  C16 UNL     1      30.231 -16.403  47.113  1.00  0.00     0.040 A 
HETATM   30 CL1  UNL     1      31.075 -17.915  47.330  1.00  0.00    -0.084 Cl
ENDBRANCH  23  24
ENDBRANCH  21  23
ENDBRANCH  20  21
ENDBRANCH   8  20
BRANCH   9  31
HETATM   31  O3  UNL     1      32.746 -13.532  47.204  1.00  0.00    -0.386 OA
ATOM     32  H3  UNL     1      32.118 -13.128  47.792  1.00  0.00     0.210 HD
ENDBRANCH   9  31
BRANCH   9  33
HETATM   33  C18 UNL     1      32.585 -11.393  46.502  1.00  0.00     0.043 C 
BRANCH  33  34
HETATM   34  C19 UNL     1      31.478 -11.493  47.524  1.00  0.00     0.029 C 
BRANCH  34  35
HETATM   35  C20 UNL     1      31.396 -10.152  48.279  1.00  0.00     0.164 C 
BRANCH  35  36
HETATM   36  O4  UNL     1      32.273  -9.235  47.719  1.00  0.00    -0.401 OA
ATOM     37  H4  UNL     1      31.883  -8.839  46.948  1.00  0.00     0.209 HD
ENDBRANCH  35  36
ENDBRANCH  34  35
ENDBRANCH  33  34
ENDBRANCH   9  33
TORSDOF 9
ENDMDL
