MODEL 1
REMARK VINA RESULT: -7.483030943      0.000      0.000
REMARK  8 active torsions:
REMARK  status: ('A' for Active; 'I' for Inactive)
REMARK    1  A    between atoms: C6_8  and  O3_9 
REMARK    2  A    between atoms: C16_20  and  N1_21 
REMARK    3  A    between atoms: N1_21  and  C17_23 
REMARK    4  A    between atoms: C17_23  and  C18_24 
REMARK    5  A    between atoms: C18_24  and  C19_25 
REMARK    6  A    between atoms: C19_25  and  C20_26 
REMARK    7  A    between atoms: C20_26  and  C21_27 
REMARK    8  A    between atoms: C31_38  and  O4_39 
ROOT
HETATM    1  C1  UNL     1      35.999 -10.343  48.054  1.00  0.00     0.049 C 
HETATM    2  C2  UNL     1      35.678 -11.323  46.940  1.00  0.00     0.095 C 
HETATM    3  C3  UNL     1      36.525 -12.526  47.140  1.00  0.00     0.049 C 
HETATM    4  O1  UNL     1      35.873 -10.719  45.654  1.00  0.00    -0.307 OA
HETATM    5  C4  UNL     1      34.843 -11.067  44.793  1.00  0.00     0.269 C 
HETATM    6  O2  UNL     1      34.588 -10.589  43.669  1.00  0.00    -0.265 OA
HETATM    7  C5  UNL     1      34.102 -12.131  45.492  1.00  0.00     0.151 C 
HETATM    8  C6  UNL     1      32.735 -12.417  45.020  1.00  0.00     0.135 C 
HETATM    9  C7  UNL     1      32.412 -13.847  45.390  1.00  0.00     0.043 C 
HETATM   10  C8  UNL     1      32.227 -14.170  46.792  1.00  0.00    -0.030 C 
HETATM   11  C9  UNL     1      33.232 -15.281  47.172  1.00  0.00     0.016 C 
HETATM   12  C10 UNL     1      32.399 -13.132  47.840  1.00  0.00    -0.003 C 
HETATM   13  C11 UNL     1      31.293 -12.155  48.047  1.00  0.00     0.006 C 
HETATM   14  C12 UNL     1      29.917 -12.681  47.855  1.00  0.00     0.006 C 
HETATM   15  C13 UNL     1      29.865 -13.736  46.814  1.00  0.00    -0.005 C 
HETATM   16  C14 UNL     1      28.459 -14.192  46.613  1.00  0.00     0.007 C 
HETATM   17  C15 UNL     1      28.520 -15.103  45.366  1.00  0.00     0.025 C 
HETATM   18  C16 UNL     1      29.188 -16.338  45.832  1.00  0.00     0.081 C 
HETATM   19  C27 UNL     1      30.684 -16.033  46.169  1.00  0.00     0.035 C 
HETATM   20  C28 UNL     1      30.851 -14.841  47.030  1.00  0.00    -0.031 C 
HETATM   21  C29 UNL     1      30.798 -15.349  48.464  1.00  0.00     0.016 C 
HETATM   22  C30 UNL     1      33.745 -12.516  47.929  1.00  0.00     0.047 C 
HETATM   23  C31 UNL     1      34.187 -11.589  46.903  1.00  0.00     0.104 C 
ENDROOT
BRANCH  18  24
HETATM   24  N1  UNL     1      29.104 -17.522  45.153  1.00  0.00    -0.398 N 
ATOM     25  H1  UNL     1      28.177 -17.945  45.114  1.00  0.00     0.159 HD
BRANCH  24  26
HETATM   26  C17 UNL     1      30.109 -18.221  44.512  1.00  0.00     0.056 C 
BRANCH  26  27
HETATM   27  C18 UNL     1      30.400 -18.017  43.067  1.00  0.00     0.044 C 
BRANCH  27  28
HETATM   28  C19 UNL     1      31.827 -17.493  42.889  1.00  0.00     0.010 C 
BRANCH  28  29
HETATM   29  C20 UNL     1      32.805 -18.095  43.858  1.00  0.00     0.039 C 
BRANCH  29  30
HETATM   30  C21 UNL     1      33.982 -17.167  44.036  1.00  0.00    -0.058 A 
HETATM   31  C22 UNL     1      34.988 -17.409  44.939  1.00  0.00     0.010 A 
HETATM   32  C23 UNL     1      36.046 -16.532  45.061  1.00  0.00     0.043 A 
HETATM   33  C24 UNL     1      36.145 -15.387  44.294  1.00  0.00     0.116 A 
HETATM   34  F1  UNL     1      37.199 -14.533  44.429  1.00  0.00    -0.206 F 
HETATM   35  C25 UNL     1      35.137 -15.143  43.388  1.00  0.00     0.043 A 
HETATM   36  C26 UNL     1      34.076 -16.020  43.263  1.00  0.00     0.010 A 
ENDBRANCH  29  30
ENDBRANCH  28  29
ENDBRANCH  27  28
ENDBRANCH  26  27
ENDBRANCH  24  26
ENDBRANCH  18  24
BRANCH   8  37
HETATM   37  O3  UNL     1      32.802 -12.432  43.596  1.00  0.00    -0.395 OA
ATOM     38  H3  UNL     1      33.720 -12.333  43.373  1.00  0.00     0.210 HD
ENDBRANCH   8  37
BRANCH  23  39
HETATM   39  O4  UNL     1      33.593 -10.329  46.909  1.00  0.00    -0.386 OA
ATOM     40  H4  UNL     1      33.642 -10.028  46.009  1.00  0.00     0.210 HD
ENDBRANCH  23  39
TORSDOF 8
ENDMDL
MODEL 2
REMARK VINA RESULT: -6.912428140      2.454      5.175
REMARK  8 active torsions:
REMARK  status: ('A' for Active; 'I' for Inactive)
REMARK    1  A    between atoms: C6_8  and  O3_9 
REMARK    2  A    between atoms: C16_20  and  N1_21 
REMARK    3  A    between atoms: N1_21  and  C17_23 
REMARK    4  A    between atoms: C17_23  and  C18_24 
REMARK    5  A    between atoms: C18_24  and  C19_25 
REMARK    6  A    between atoms: C19_25  and  C20_26 
REMARK    7  A    between atoms: C20_26  and  C21_27 
REMARK    8  A    between atoms: C31_38  and  O4_39 
ROOT
HETATM    1  C1  UNL     1      39.007  -8.400  44.414  1.00  0.00     0.049 C 
HETATM    2  C2  UNL     1      37.524  -8.684  44.261  1.00  0.00     0.095 C 
HETATM    3  C3  UNL     1      37.191  -8.572  42.818  1.00  0.00     0.049 C 
HETATM    4  O1  UNL     1      36.745  -7.800  45.077  1.00  0.00    -0.307 OA
HETATM    5  C4  UNL     1      35.714  -8.492  45.696  1.00  0.00     0.269 C 
HETATM    6  O2  UNL     1      34.960  -8.092  46.605  1.00  0.00    -0.265 OA
HETATM    7  C5  UNL     1      35.697  -9.814  45.047  1.00  0.00     0.151 C 
HETATM    8  C6  UNL     1      34.992 -10.898  45.755  1.00  0.00     0.135 C 
HETATM    9  C7  UNL     1      34.557 -11.913  44.721  1.00  0.00     0.043 C 
HETATM   10  C8  UNL     1      35.578 -12.710  44.067  1.00  0.00    -0.030 C 
HETATM   11  C9  UNL     1      35.462 -12.492  42.542  1.00  0.00     0.016 C 
HETATM   12  C10 UNL     1      37.016 -12.501  44.370  1.00  0.00    -0.003 C 
HETATM   13  C11 UNL     1      37.555 -13.072  45.637  1.00  0.00     0.006 C 
HETATM   14  C12 UNL     1      36.971 -14.368  46.066  1.00  0.00     0.006 C 
HETATM   15  C13 UNL     1      35.543 -14.488  45.682  1.00  0.00    -0.005 C 
HETATM   16  C14 UNL     1      34.981 -15.775  46.184  1.00  0.00     0.007 C 
HETATM   17  C15 UNL     1      33.462 -15.666  45.922  1.00  0.00     0.025 C 
HETATM   18  C16 UNL     1      33.320 -15.811  44.456  1.00  0.00     0.081 C 
HETATM   19  C27 UNL     1      33.934 -14.563  43.741  1.00  0.00     0.035 C 
HETATM   20  C28 UNL     1      35.289 -14.224  44.231  1.00  0.00    -0.031 C 
HETATM   21  C29 UNL     1      36.259 -15.003  43.354  1.00  0.00     0.016 C 
HETATM   22  C30 UNL     1      37.554 -11.154  44.062  1.00  0.00     0.047 C 
HETATM   23  C31 UNL     1      37.188 -10.020  44.892  1.00  0.00     0.104 C 
ENDROOT
BRANCH  18  24
HETATM   24  N1  UNL     1      32.135 -16.144  43.860  1.00  0.00    -0.398 N 
ATOM     25  H1  UNL     1      31.868 -15.573  43.058  1.00  0.00     0.159 HD
BRANCH  24  26
HETATM   26  C17 UNL     1      31.252 -17.150  44.200  1.00  0.00     0.056 C 
BRANCH  26  27
HETATM   27  C18 UNL     1      29.795 -17.036  43.915  1.00  0.00     0.044 C 
BRANCH  27  28
HETATM   28  C19 UNL     1      29.069 -16.442  45.124  1.00  0.00     0.010 C 
BRANCH  28  29
HETATM   29  C20 UNL     1      28.686 -15.001  44.936  1.00  0.00     0.039 C 
BRANCH  29  30
HETATM   30  C21 UNL     1      29.518 -14.131  45.849  1.00  0.00    -0.058 A 
HETATM   31  C22 UNL     1      30.582 -13.388  45.398  1.00  0.00     0.010 A 
HETATM   32  C23 UNL     1      31.307 -12.604  46.272  1.00  0.00     0.043 A 
HETATM   33  C24 UNL     1      31.006 -12.527  47.617  1.00  0.00     0.116 A 
HETATM   34  F1  UNL     1      31.735 -11.747  48.463  1.00  0.00    -0.206 F 
HETATM   35  C25 UNL     1      29.939 -13.272  48.070  1.00  0.00     0.043 A 
HETATM   36  C26 UNL     1      29.209 -14.058  47.197  1.00  0.00     0.010 A 
ENDBRANCH  29  30
ENDBRANCH  28  29
ENDBRANCH  27  28
ENDBRANCH  26  27
ENDBRANCH  24  26
ENDBRANCH  18  24
BRANCH   8  37
HETATM   37  O3  UNL     1      33.771 -10.336  46.226  1.00  0.00    -0.395 OA
ATOM     38  H3  UNL     1      33.718 -10.553  47.149  1.00  0.00     0.210 HD
ENDBRANCH   8  37
BRANCH  23  39
HETATM   39  O4  UNL     1      37.757  -9.973  46.163  1.00  0.00    -0.386 OA
ATOM     40  H4  UNL     1      38.658  -9.709  46.021  1.00  0.00     0.210 HD
ENDBRANCH  23  39
TORSDOF 8
ENDMDL
MODEL 3
REMARK VINA RESULT: -6.821102195     13.260     15.663
REMARK  8 active torsions:
REMARK  status: ('A' for Active; 'I' for Inactive)
REMARK    1  A    between atoms: C6_8  and  O3_9 
REMARK    2  A    between atoms: C16_20  and  N1_21 
REMARK    3  A    between atoms: N1_21  and  C17_23 
REMARK    4  A    between atoms: C17_23  and  C18_24 
REMARK    5  A    between atoms: C18_24  and  C19_25 
REMARK    6  A    between atoms: C19_25  and  C20_26 
REMARK    7  A    between atoms: C20_26  and  C21_27 
REMARK    8  A    between atoms: C31_38  and  O4_39 
ROOT
HETATM    1  C1  UNL     1      36.469   2.481  36.581  1.00  0.00     0.049 C 
HETATM    2  C2  UNL     1      36.493   1.688  35.287  1.00  0.00     0.095 C 
HETATM    3  C3  UNL     1      37.860   1.128  35.127  1.00  0.00     0.049 C 
HETATM    4  O1  UNL     1      36.100   2.504  34.176  1.00  0.00    -0.307 OA
HETATM    5  C4  UNL     1      35.254   1.800  33.332  1.00  0.00     0.269 C 
HETATM    6  O2  UNL     1      34.580   2.241  32.380  1.00  0.00    -0.265 OA
HETATM    7  C5  UNL     1      35.317   0.406  33.802  1.00  0.00     0.151 C 
HETATM    8  C6  UNL     1      34.233  -0.496  33.372  1.00  0.00     0.135 C 
HETATM    9  C7  UNL     1      34.772  -1.908  33.404  1.00  0.00     0.043 C 
HETATM   10  C8  UNL     1      35.053  -2.509  34.695  1.00  0.00    -0.030 C 
HETATM   11  C9  UNL     1      36.538  -2.936  34.720  1.00  0.00     0.016 C 
HETATM   12  C10 UNL     1      34.861  -1.738  35.949  1.00  0.00    -0.003 C 
HETATM   13  C11 UNL     1      33.473  -1.574  36.465  1.00  0.00     0.006 C 
HETATM   14  C12 UNL     1      32.559  -2.724  36.250  1.00  0.00     0.006 C 
HETATM   15  C13 UNL     1      32.860  -3.445  34.989  1.00  0.00    -0.005 C 
HETATM   16  C14 UNL     1      31.883  -4.552  34.783  1.00  0.00     0.007 C 
HETATM   17  C15 UNL     1      32.165  -5.060  33.351  1.00  0.00     0.025 C 
HETATM   18  C16 UNL     1      33.450  -5.788  33.453  1.00  0.00     0.081 C 
HETATM   19  C27 UNL     1      34.606  -4.777  33.747  1.00  0.00     0.035 C 
HETATM   20  C28 UNL     1      34.295  -3.851  34.859  1.00  0.00    -0.031 C 
HETATM   21  C29 UNL     1      34.787  -4.536  36.126  1.00  0.00     0.016 C 
HETATM   22  C30 UNL     1      35.684  -0.512  36.090  1.00  0.00     0.047 C 
HETATM   23  C31 UNL     1      35.379   0.662  35.292  1.00  0.00     0.104 C 
ENDROOT
BRANCH  18  24
HETATM   24  N1  UNL     1      33.861  -6.692  32.514  1.00  0.00    -0.398 N 
ATOM     25  H1  UNL     1      33.120  -7.223  32.057  1.00  0.00     0.159 HD
BRANCH  24  26
HETATM   26  C17 UNL     1      35.147  -6.982  32.101  1.00  0.00     0.056 C 
BRANCH  26  27
HETATM   27  C18 UNL     1      35.796  -8.281  32.430  1.00  0.00     0.044 C 
BRANCH  27  28
HETATM   28  C19 UNL     1      36.007  -8.394  33.942  1.00  0.00     0.010 C 
BRANCH  28  29
HETATM   29  C20 UNL     1      35.486  -9.680  34.519  1.00  0.00     0.039 C 
BRANCH  29  30
HETATM   30  C21 UNL     1      34.484  -9.380  35.608  1.00  0.00    -0.058 A 
HETATM   31  C22 UNL     1      34.195 -10.268  36.615  1.00  0.00     0.010 A 
HETATM   32  C23 UNL     1      33.275  -9.945  37.590  1.00  0.00     0.043 A 
HETATM   33  C24 UNL     1      32.611  -8.735  37.604  1.00  0.00     0.116 A 
HETATM   34  F1  UNL     1      31.705  -8.434  38.577  1.00  0.00    -0.206 F 
HETATM   35  C25 UNL     1      32.900  -7.843  36.594  1.00  0.00     0.043 A 
HETATM   36  C26 UNL     1      33.822  -8.163  35.616  1.00  0.00     0.010 A 
ENDBRANCH  29  30
ENDBRANCH  28  29
ENDBRANCH  27  28
ENDBRANCH  26  27
ENDBRANCH  24  26
ENDBRANCH  18  24
BRANCH   8  37
HETATM   37  O3  UNL     1      34.025  -0.235  31.987  1.00  0.00    -0.395 OA
ATOM     38  H3  UNL     1      33.541  -0.978  31.646  1.00  0.00     0.210 HD
ENDBRANCH   8  37
BRANCH  23  39
HETATM   39  O4  UNL     1      34.234   1.371  35.647  1.00  0.00    -0.386 OA
ATOM     40  H4  UNL     1      34.215   1.351  36.597  1.00  0.00     0.210 HD
ENDBRANCH  23  39
TORSDOF 8
ENDMDL
MODEL 4
REMARK VINA RESULT: -6.772869989     11.515     14.476
REMARK  8 active torsions:
REMARK  status: ('A' for Active; 'I' for Inactive)
REMARK    1  A    between atoms: C6_8  and  O3_9 
REMARK    2  A    between atoms: C16_20  and  N1_21 
REMARK    3  A    between atoms: N1_21  and  C17_23 
REMARK    4  A    between atoms: C17_23  and  C18_24 
REMARK    5  A    between atoms: C18_24  and  C19_25 
REMARK    6  A    between atoms: C19_25  and  C20_26 
REMARK    7  A    between atoms: C20_26  and  C21_27 
REMARK    8  A    between atoms: C31_38  and  O4_39 
ROOT
HETATM    1  C1  UNL     1      35.689   0.611  34.482  1.00  0.00     0.049 C 
HETATM    2  C2  UNL     1      34.927  -0.690  34.656  1.00  0.00     0.095 C 
HETATM    3  C3  UNL     1      34.789  -1.315  33.315  1.00  0.00     0.049 C 
HETATM    4  O1  UNL     1      33.661  -0.463  35.290  1.00  0.00    -0.307 OA
HETATM    5  C4  UNL     1      33.411  -1.443  36.240  1.00  0.00     0.269 C 
HETATM    6  O2  UNL     1      32.509  -1.464  37.101  1.00  0.00    -0.265 OA
HETATM    7  C5  UNL     1      34.448  -2.465  36.018  1.00  0.00     0.151 C 
HETATM    8  C6  UNL     1      34.694  -3.419  37.114  1.00  0.00     0.135 C 
HETATM    9  C7  UNL     1      35.270  -4.678  36.506  1.00  0.00     0.043 C 
HETATM   10  C8  UNL     1      36.614  -4.626  35.960  1.00  0.00    -0.030 C 
HETATM   11  C9  UNL     1      36.553  -5.052  34.476  1.00  0.00     0.016 C 
HETATM   12  C10 UNL     1      37.384  -3.357  35.956  1.00  0.00    -0.003 C 
HETATM   13  C11 UNL     1      38.017  -2.917  37.232  1.00  0.00     0.006 C 
HETATM   14  C12 UNL     1      38.531  -4.000  38.108  1.00  0.00     0.006 C 
HETATM   15  C13 UNL     1      37.712  -5.233  38.008  1.00  0.00    -0.005 C 
HETATM   16  C14 UNL     1      38.226  -6.271  38.947  1.00  0.00     0.007 C 
HETATM   17  C15 UNL     1      37.164  -7.392  38.909  1.00  0.00     0.025 C 
HETATM   18  C16 UNL     1      37.345  -8.041  37.592  1.00  0.00     0.081 C 
HETATM   19  C27 UNL     1      36.919  -7.055  36.455  1.00  0.00     0.035 C 
HETATM   20  C28 UNL     1      37.516  -5.709  36.603  1.00  0.00    -0.031 C 
HETATM   21  C29 UNL     1      38.838  -5.752  35.850  1.00  0.00     0.016 C 
HETATM   22  C30 UNL     1      36.787  -2.238  35.186  1.00  0.00     0.047 C 
HETATM   23  C31 UNL     1      35.612  -1.553  35.695  1.00  0.00     0.104 C 
ENDROOT
BRANCH  18  24
HETATM   24  N1  UNL     1      36.869  -9.292  37.315  1.00  0.00    -0.398 N 
ATOM     25  H1  UNL     1      37.390  -9.819  36.614  1.00  0.00     0.159 HD
BRANCH  24  26
HETATM   26  C17 UNL     1      35.776  -9.938  37.859  1.00  0.00     0.056 C 
BRANCH  26  27
HETATM   27  C18 UNL     1      34.652 -10.418  37.009  1.00  0.00     0.044 C 
BRANCH  27  28
HETATM   28  C19 UNL     1      34.323  -9.374  35.938  1.00  0.00     0.010 C 
BRANCH  28  29
HETATM   29  C20 UNL     1      33.203  -8.453  36.333  1.00  0.00     0.039 C 
BRANCH  29  30
HETATM   30  C21 UNL     1      33.088  -7.332  35.327  1.00  0.00    -0.058 A 
HETATM   31  C22 UNL     1      33.862  -7.270  34.194  1.00  0.00     0.010 A 
HETATM   32  C23 UNL     1      33.715  -6.227  33.303  1.00  0.00     0.043 A 
HETATM   33  C24 UNL     1      32.800  -5.212  33.502  1.00  0.00     0.116 A 
HETATM   34  F1  UNL     1      32.670  -4.190  32.609  1.00  0.00    -0.206 F 
HETATM   35  C25 UNL     1      32.023  -5.274  34.638  1.00  0.00     0.043 A 
HETATM   36  C26 UNL     1      32.168  -6.318  35.533  1.00  0.00     0.010 A 
ENDBRANCH  29  30
ENDBRANCH  28  29
ENDBRANCH  27  28
ENDBRANCH  26  27
ENDBRANCH  24  26
ENDBRANCH  18  24
BRANCH   8  37
HETATM   37  O3  UNL     1      33.411  -3.818  37.588  1.00  0.00    -0.395 OA
ATOM     38  H3  UNL     1      33.561  -4.548  38.177  1.00  0.00     0.210 HD
ENDBRANCH   8  37
BRANCH  23  39
HETATM   39  O4  UNL     1      35.809  -0.715  36.790  1.00  0.00    -0.386 OA
ATOM     40  H4  UNL     1      35.062  -0.868  37.357  1.00  0.00     0.210 HD
ENDBRANCH  23  39
TORSDOF 8
ENDMDL
MODEL 5
REMARK VINA RESULT: -6.684349238      3.362      4.636
REMARK  8 active torsions:
REMARK  status: ('A' for Active; 'I' for Inactive)
REMARK    1  A    between atoms: C6_8  and  O3_9 
REMARK    2  A    between atoms: C16_20  and  N1_21 
REMARK    3  A    between atoms: N1_21  and  C17_23 
REMARK    4  A    between atoms: C17_23  and  C18_24 
REMARK    5  A    between atoms: C18_24  and  C19_25 
REMARK    6  A    between atoms: C19_25  and  C20_26 
REMARK    7  A    between atoms: C20_26  and  C21_27 
REMARK    8  A    between atoms: C31_38  and  O4_39 
ROOT
HETATM    1  C1  UNL     1      36.109 -10.168  48.162  1.00  0.00     0.049 C 
HETATM    2  C2  UNL     1      35.838 -11.061  46.965  1.00  0.00     0.095 C 
HETATM    3  C3  UNL     1      36.727 -12.246  47.076  1.00  0.00     0.049 C 
HETATM    4  O1  UNL     1      36.028 -10.345  45.737  1.00  0.00    -0.307 OA
HETATM    5  C4  UNL     1      35.021 -10.655  44.834  1.00  0.00     0.269 C 
HETATM    6  O2  UNL     1      34.763 -10.093  43.751  1.00  0.00    -0.265 OA
HETATM    7  C5  UNL     1      34.311 -11.800  45.430  1.00  0.00     0.151 C 
HETATM    8  C6  UNL     1      32.962 -12.094  44.914  1.00  0.00     0.135 C 
HETATM    9  C7  UNL     1      32.688 -13.561  45.157  1.00  0.00     0.043 C 
HETATM   10  C8  UNL     1      32.498 -14.008  46.525  1.00  0.00    -0.030 C 
HETATM   11  C9  UNL     1      33.539 -15.110  46.825  1.00  0.00     0.016 C 
HETATM   12  C10 UNL     1      32.618 -13.057  47.659  1.00  0.00    -0.003 C 
HETATM   13  C11 UNL     1      31.474 -12.141  47.930  1.00  0.00     0.006 C 
HETATM   14  C12 UNL     1      30.122 -12.698  47.674  1.00  0.00     0.006 C 
HETATM   15  C13 UNL     1      30.121 -13.662  46.546  1.00  0.00    -0.005 C 
HETATM   16  C14 UNL     1      28.736 -14.149  46.286  1.00  0.00     0.007 C 
HETATM   17  C15 UNL     1      28.845 -14.949  44.968  1.00  0.00     0.025 C 
HETATM   18  C16 UNL     1      29.553 -16.195  45.338  1.00  0.00     0.081 C 
HETATM   19  C27 UNL     1      31.033 -15.865  45.723  1.00  0.00     0.035 C 
HETATM   20  C28 UNL     1      31.144 -14.745  46.685  1.00  0.00    -0.031 C 
HETATM   21  C29 UNL     1      31.093 -15.375  48.070  1.00  0.00     0.016 C 
HETATM   22  C30 UNL     1      33.939 -12.403  47.820  1.00  0.00     0.047 C 
HETATM   23  C31 UNL     1      34.359 -11.377  46.882  1.00  0.00     0.104 C 
ENDROOT
BRANCH  18  24
HETATM   24  N1  UNL     1      29.522 -17.319  44.561  1.00  0.00    -0.398 N 
ATOM     25  H1  UNL     1      28.606 -17.578  44.196  1.00  0.00     0.159 HD
BRANCH  24  26
HETATM   26  C17 UNL     1      30.566 -18.150  44.206  1.00  0.00     0.056 C 
BRANCH  26  27
HETATM   27  C18 UNL     1      30.576 -18.874  42.905  1.00  0.00     0.044 C 
BRANCH  27  28
HETATM   28  C19 UNL     1      29.671 -20.106  42.983  1.00  0.00     0.010 C 
BRANCH  28  29
HETATM   29  C20 UNL     1      30.387 -21.389  42.668  1.00  0.00     0.039 C 
BRANCH  29  30
HETATM   30  C21 UNL     1      29.820 -21.990  41.404  1.00  0.00    -0.058 A 
HETATM   31  C22 UNL     1      30.488 -22.942  40.672  1.00  0.00     0.010 A 
HETATM   32  C23 UNL     1      29.925 -23.464  39.526  1.00  0.00     0.043 A 
HETATM   33  C24 UNL     1      28.686 -23.065  39.066  1.00  0.00     0.116 A 
HETATM   34  F1  UNL     1      28.147 -23.594  37.931  1.00  0.00    -0.206 F 
HETATM   35  C25 UNL     1      28.016 -22.110  39.799  1.00  0.00     0.043 A 
HETATM   36  C26 UNL     1      28.576 -21.586  40.949  1.00  0.00     0.010 A 
ENDBRANCH  29  30
ENDBRANCH  28  29
ENDBRANCH  27  28
ENDBRANCH  26  27
ENDBRANCH  24  26
ENDBRANCH  18  24
BRANCH   8  37
HETATM   37  O3  UNL     1      33.047 -11.987  43.496  1.00  0.00    -0.395 OA
ATOM     38  H3  UNL     1      33.867 -11.543  43.313  1.00  0.00     0.210 HD
ENDBRANCH   8  37
BRANCH  23  39
HETATM   39  O4  UNL     1      33.719 -10.144  46.985  1.00  0.00    -0.386 OA
ATOM     40  H4  UNL     1      32.883 -10.333  47.396  1.00  0.00     0.210 HD
ENDBRANCH  23  39
TORSDOF 8
ENDMDL
