MODEL 1
REMARK VINA RESULT: -6.037012482      0.000      0.000
REMARK  9 active torsions:
REMARK  status: ('A' for Active; 'I' for Inactive)
REMARK    1  A    between atoms: C4_4  and  C5_5 
REMARK    2  A    between atoms: C5_5  and  O1_6 
REMARK    3  A    between atoms: O1_6  and  C6_7 
REMARK    4  A    between atoms: C8_9  and  O2_11 
REMARK    5  A    between atoms: C10_13  and  C11_14 
REMARK    6  A    between atoms: C17_22  and  C18_23 
REMARK    7  A    between atoms: C18_23  and  O4_26 
REMARK    8  A    between atoms: C25_32  and  C26_33 
REMARK    9  A    between atoms: C26_33  and  O5_36 
ROOT
HETATM    1  C6  UNL     1      34.906  -1.652  33.088  1.00  0.00     0.054 C 
HETATM    2  C7  UNL     1      34.867  -2.890  32.689  1.00  0.00     0.046 C 
HETATM    3  C8  UNL     1      34.536  -4.206  33.307  1.00  0.00     0.107 C 
HETATM    4  C9  UNL     1      33.180  -4.537  32.825  1.00  0.00     0.053 C 
HETATM    5  C10 UNL     1      34.705  -4.116  34.848  1.00  0.00     0.119 C 
HETATM    6  O3  UNL     1      35.962  -3.578  34.796  1.00  0.00    -0.359 OA
HETATM    7  C13 UNL     1      36.588  -2.621  35.342  1.00  0.00     0.082 C 
HETATM    8  C14 UNL     1      37.714  -2.218  34.354  1.00  0.00     0.051 C 
HETATM    9  C15 UNL     1      37.357  -2.859  36.624  1.00  0.00     0.043 C 
HETATM   10  C16 UNL     1      37.934  -1.610  37.177  1.00  0.00     0.015 C 
HETATM   11  C17 UNL     1      37.043  -0.427  37.254  1.00  0.00     0.042 C 
HETATM   12  C21 UNL     1      35.955  -0.438  36.241  1.00  0.00    -0.012 C 
HETATM   13  C22 UNL     1      35.734  -1.390  35.393  1.00  0.00    -0.039 C 
HETATM   14  C23 UNL     1      34.578  -1.218  34.463  1.00  0.00     0.074 C 
HETATM   15  C24 UNL     1      33.464  -1.941  35.091  1.00  0.00     0.026 C 
HETATM   16  C25 UNL     1      33.586  -3.411  35.408  1.00  0.00     0.060 C 
ENDROOT
BRANCH   1  17
HETATM   17  O1  UNL     1      35.268  -0.638  32.225  1.00  0.00    -0.351 OA
BRANCH  17  18
HETATM   18  C5  UNL     1      34.640   0.586  32.070  1.00  0.00     0.203 C 
BRANCH  18  19
HETATM   19  C4  UNL     1      35.601   1.653  32.461  1.00  0.00     0.001 C 
HETATM   20  C2  UNL     1      35.426   2.419  33.529  1.00  0.00    -0.089 C 
HETATM   21  C1  UNL     1      34.236   2.242  34.402  1.00  0.00     0.042 C 
HETATM   22  C3  UNL     1      36.417   3.470  33.877  1.00  0.00     0.042 C 
ENDBRANCH  18  19
ENDBRANCH  17  18
ENDBRANCH   1  17
BRANCH   3  23
HETATM   23  O2  UNL     1      35.430  -5.106  32.748  1.00  0.00    -0.383 OA
ATOM     24  H2  UNL     1      36.279  -4.869  33.102  1.00  0.00     0.211 HD
ENDBRANCH   3  23
BRANCH   5  25
HETATM   25  C11 UNL     1      35.126  -5.477  35.321  1.00  0.00     0.116 C 
HETATM   26  C12 UNL     1      35.640  -5.738  36.645  1.00  0.00     0.030 C 
HETATM   27 CL1  UNL     1      33.792  -6.691  35.160  1.00  0.00    -0.122 Cl
ENDBRANCH   5  25
BRANCH  16  28
HETATM   28  C26 UNL     1      33.006  -3.559  36.766  1.00  0.00     0.057 C 
HETATM   29  C27 UNL     1      33.807  -3.376  37.981  1.00  0.00     0.045 C 
HETATM   30  C28 UNL     1      32.129  -4.773  37.006  1.00  0.00     0.045 C 
BRANCH  28  31
HETATM   31  O5  UNL     1      31.983  -2.544  36.885  1.00  0.00    -0.390 OA
ATOM     32  H5  UNL     1      31.697  -2.557  37.791  1.00  0.00     0.210 HD
ENDBRANCH  28  31
ENDBRANCH  16  28
BRANCH  11  33
HETATM   33  C18 UNL     1      37.743   0.891  37.190  1.00  0.00     0.057 C 
HETATM   34  C19 UNL     1      36.809   2.064  37.373  1.00  0.00     0.046 C 
HETATM   35  C20 UNL     1      38.473   1.084  35.878  1.00  0.00     0.046 C 
BRANCH  33  36
HETATM   36  O4  UNL     1      38.718   0.917  38.192  1.00  0.00    -0.390 OA
ATOM     37  H4  UNL     1      38.390   0.430  38.939  1.00  0.00     0.210 HD
ENDBRANCH  33  36
ENDBRANCH  11  33
TORSDOF 9
ENDMDL
MODEL 2
REMARK VINA RESULT: -6.002488080      2.488      6.152
REMARK  9 active torsions:
REMARK  status: ('A' for Active; 'I' for Inactive)
REMARK    1  A    between atoms: C4_4  and  C5_5 
REMARK    2  A    between atoms: C5_5  and  O1_6 
REMARK    3  A    between atoms: O1_6  and  C6_7 
REMARK    4  A    between atoms: C8_9  and  O2_11 
REMARK    5  A    between atoms: C10_13  and  C11_14 
REMARK    6  A    between atoms: C17_22  and  C18_23 
REMARK    7  A    between atoms: C18_23  and  O4_26 
REMARK    8  A    between atoms: C25_32  and  C26_33 
REMARK    9  A    between atoms: C26_33  and  O5_36 
ROOT
HETATM    1  C6  UNL     1      34.732  -1.303  34.143  1.00  0.00     0.054 C 
HETATM    2  C7  UNL     1      35.812  -1.892  34.565  1.00  0.00     0.046 C 
HETATM    3  C8  UNL     1      36.990  -1.508  35.396  1.00  0.00     0.107 C 
HETATM    4  C9  UNL     1      36.748  -2.110  36.722  1.00  0.00     0.053 C 
HETATM    5  C10 UNL     1      37.162   0.035  35.374  1.00  0.00     0.119 C 
HETATM    6  O3  UNL     1      37.109   0.138  34.011  1.00  0.00    -0.359 OA
HETATM    7  C13 UNL     1      36.518   0.861  33.154  1.00  0.00     0.082 C 
HETATM    8  C14 UNL     1      36.423   0.014  31.858  1.00  0.00     0.051 C 
HETATM    9  C15 UNL     1      37.176   2.131  32.658  1.00  0.00     0.043 C 
HETATM   10  C16 UNL     1      36.298   2.904  31.748  1.00  0.00     0.015 C 
HETATM   11  C17 UNL     1      34.893   3.116  32.176  1.00  0.00     0.042 C 
HETATM   12  C21 UNL     1      34.386   2.056  33.085  1.00  0.00    -0.012 C 
HETATM   13  C22 UNL     1      35.079   1.057  33.529  1.00  0.00    -0.039 C 
HETATM   14  C23 UNL     1      34.387   0.103  34.446  1.00  0.00     0.074 C 
HETATM   15  C24 UNL     1      34.737   0.547  35.803  1.00  0.00     0.026 C 
HETATM   16  C25 UNL     1      36.180   0.635  36.233  1.00  0.00     0.060 C 
ENDROOT
BRANCH   1  17
HETATM   17  O1  UNL     1      33.815  -1.975  33.362  1.00  0.00    -0.351 OA
BRANCH  17  18
HETATM   18  C5  UNL     1      33.956  -3.238  32.813  1.00  0.00     0.203 C 
BRANCH  18  19
HETATM   19  C4  UNL     1      32.832  -4.084  33.300  1.00  0.00     0.001 C 
HETATM   20  C2  UNL     1      32.956  -4.929  34.313  1.00  0.00    -0.089 C 
HETATM   21  C1  UNL     1      34.253  -5.073  35.025  1.00  0.00     0.042 C 
HETATM   22  C3  UNL     1      31.801  -5.750  34.761  1.00  0.00     0.042 C 
ENDBRANCH  18  19
ENDBRANCH  17  18
ENDBRANCH   1  17
BRANCH   3  23
HETATM   23  O2  UNL     1      38.071  -2.150  34.815  1.00  0.00    -0.383 OA
ATOM     24  H2  UNL     1      37.721  -2.587  34.048  1.00  0.00     0.211 HD
ENDBRANCH   3  23
BRANCH   5  25
HETATM   25  C11 UNL     1      38.632   0.311  35.504  1.00  0.00     0.116 C 
HETATM   26  C12 UNL     1      39.229   1.599  35.237  1.00  0.00     0.030 C 
HETATM   27 CL1  UNL     1      39.250  -0.084  37.159  1.00  0.00    -0.122 Cl
ENDBRANCH   5  25
BRANCH  16  28
HETATM   28  C26 UNL     1      36.281   1.919  36.970  1.00  0.00     0.057 C 
HETATM   29  C27 UNL     1      36.651   3.174  36.307  1.00  0.00     0.045 C 
HETATM   30  C28 UNL     1      37.030   1.892  38.290  1.00  0.00     0.045 C 
BRANCH  28  31
HETATM   31  O5  UNL     1      34.962   2.194  37.493  1.00  0.00    -0.390 OA
ATOM     32  H5  UNL     1      35.042   2.189  38.440  1.00  0.00     0.210 HD
ENDBRANCH  28  31
ENDBRANCH  16  28
BRANCH  11  33
HETATM   33  C18 UNL     1      33.918   3.299  31.060  1.00  0.00     0.057 C 
HETATM   34  C19 UNL     1      34.083   2.276  29.961  1.00  0.00     0.046 C 
HETATM   35  C20 UNL     1      34.024   4.672  30.431  1.00  0.00     0.046 C 
BRANCH  33  36
HETATM   36  O4  UNL     1      32.627   3.205  31.587  1.00  0.00    -0.390 OA
ATOM     37  H4  UNL     1      32.524   3.883  32.245  1.00  0.00     0.210 HD
ENDBRANCH  33  36
ENDBRANCH  11  33
TORSDOF 9
ENDMDL
MODEL 3
REMARK VINA RESULT: -5.913762001     13.159     17.371
REMARK  9 active torsions:
REMARK  status: ('A' for Active; 'I' for Inactive)
REMARK    1  A    between atoms: C4_4  and  C5_5 
REMARK    2  A    between atoms: C5_5  and  O1_6 
REMARK    3  A    between atoms: O1_6  and  C6_7 
REMARK    4  A    between atoms: C8_9  and  O2_11 
REMARK    5  A    between atoms: C10_13  and  C11_14 
REMARK    6  A    between atoms: C17_22  and  C18_23 
REMARK    7  A    between atoms: C18_23  and  O4_26 
REMARK    8  A    between atoms: C25_32  and  C26_33 
REMARK    9  A    between atoms: C26_33  and  O5_36 
ROOT
HETATM    1  C6  UNL     1      32.700 -12.101  47.380  1.00  0.00     0.054 C 
HETATM    2  C7  UNL     1      33.779 -11.483  47.764  1.00  0.00     0.046 C 
HETATM    3  C8  UNL     1      35.097 -11.145  47.154  1.00  0.00     0.107 C 
HETATM    4  C9  UNL     1      35.011  -9.714  46.799  1.00  0.00     0.053 C 
HETATM    5  C10 UNL     1      35.392 -12.117  45.979  1.00  0.00     0.119 C 
HETATM    6  O3  UNL     1      35.141 -13.252  46.701  1.00  0.00    -0.359 OA
HETATM    7  C13 UNL     1      34.488 -14.327  46.549  1.00  0.00     0.082 C 
HETATM    8  C14 UNL     1      34.127 -14.825  47.973  1.00  0.00     0.051 C 
HETATM    9  C15 UNL     1      35.167 -15.540  45.948  1.00  0.00     0.043 C 
HETATM   10  C16 UNL     1      34.228 -16.669  45.743  1.00  0.00     0.015 C 
HETATM   11  C17 UNL     1      32.928 -16.362  45.098  1.00  0.00     0.042 C 
HETATM   12  C21 UNL     1      32.478 -14.962  45.311  1.00  0.00    -0.012 C 
HETATM   13  C22 UNL     1      33.145 -14.051  45.943  1.00  0.00    -0.039 C 
HETATM   14  C23 UNL     1      32.523 -12.696  46.038  1.00  0.00     0.074 C 
HETATM   15  C24 UNL     1      33.111 -11.922  44.936  1.00  0.00     0.026 C 
HETATM   16  C25 UNL     1      34.606 -11.738  44.839  1.00  0.00     0.060 C 
ENDROOT
BRANCH   1  17
HETATM   17  O1  UNL     1      31.622 -12.242  48.229  1.00  0.00    -0.351 OA
BRANCH  17  18
HETATM   18  C5  UNL     1      30.297 -12.422  47.869  1.00  0.00     0.203 C 
BRANCH  18  19
HETATM   19  C4  UNL     1      29.823 -13.701  48.464  1.00  0.00     0.001 C 
HETATM   20  C2  UNL     1      29.093 -14.579  47.792  1.00  0.00    -0.089 C 
HETATM   21  C1  UNL     1      28.706 -14.319  46.380  1.00  0.00     0.042 C 
HETATM   22  C3  UNL     1      28.647 -15.843  48.433  1.00  0.00     0.042 C 
ENDBRANCH  18  19
ENDBRANCH  17  18
ENDBRANCH   1  17
BRANCH   3  23
HETATM   23  O2  UNL     1      36.020 -11.287  48.177  1.00  0.00    -0.383 OA
ATOM     24  H2  UNL     1      35.918 -12.180  48.485  1.00  0.00     0.211 HD
ENDBRANCH   3  23
BRANCH   5  25
HETATM   25  C11 UNL     1      36.882 -12.286  45.917  1.00  0.00     0.116 C 
HETATM   26  C12 UNL     1      37.537 -13.318  45.148  1.00  0.00     0.030 C 
HETATM   27 CL1  UNL     1      37.711 -10.778  45.355  1.00  0.00    -0.122 Cl
ENDBRANCH   5  25
BRANCH  16  28
HETATM   28  C26 UNL     1      34.924 -11.947  43.405  1.00  0.00     0.057 C 
HETATM   29  C27 UNL     1      35.323 -13.256  42.876  1.00  0.00     0.045 C 
HETATM   30  C28 UNL     1      35.833 -10.924  42.750  1.00  0.00     0.045 C 
BRANCH  28  31
HETATM   31  O5  UNL     1      33.716 -11.644  42.671  1.00  0.00    -0.390 OA
ATOM     32  H5  UNL     1      33.916 -10.892  42.125  1.00  0.00     0.210 HD
ENDBRANCH  28  31
ENDBRANCH  16  28
BRANCH  11  33
HETATM   33  C18 UNL     1      31.813 -17.286  45.464  1.00  0.00     0.057 C 
HETATM   34  C19 UNL     1      30.505 -16.922  44.801  1.00  0.00     0.046 C 
HETATM   35  C20 UNL     1      31.576 -17.326  46.959  1.00  0.00     0.046 C 
BRANCH  33  36
HETATM   36  O4  UNL     1      32.176 -18.582  45.087  1.00  0.00    -0.390 OA
ATOM     37  H4  UNL     1      32.672 -18.971  45.798  1.00  0.00     0.210 HD
ENDBRANCH  33  36
ENDBRANCH  11  33
TORSDOF 9
ENDMDL
MODEL 4
REMARK VINA RESULT: -5.784654617      2.867      7.092
REMARK  9 active torsions:
REMARK  status: ('A' for Active; 'I' for Inactive)
REMARK    1  A    between atoms: C4_4  and  C5_5 
REMARK    2  A    between atoms: C5_5  and  O1_6 
REMARK    3  A    between atoms: O1_6  and  C6_7 
REMARK    4  A    between atoms: C8_9  and  O2_11 
REMARK    5  A    between atoms: C10_13  and  C11_14 
REMARK    6  A    between atoms: C17_22  and  C18_23 
REMARK    7  A    between atoms: C18_23  and  O4_26 
REMARK    8  A    between atoms: C25_32  and  C26_33 
REMARK    9  A    between atoms: C26_33  and  O5_36 
ROOT
HETATM    1  C6  UNL     1      33.194  -4.998  35.233  1.00  0.00     0.054 C 
HETATM    2  C7  UNL     1      33.292  -4.220  36.271  1.00  0.00     0.046 C 
HETATM    3  C8  UNL     1      33.861  -2.870  36.551  1.00  0.00     0.107 C 
HETATM    4  C9  UNL     1      32.700  -1.959  36.609  1.00  0.00     0.053 C 
HETATM    5  C10 UNL     1      34.938  -2.527  35.485  1.00  0.00     0.119 C 
HETATM    6  O3  UNL     1      35.624  -3.701  35.632  1.00  0.00    -0.359 OA
HETATM    7  C13 UNL     1      36.119  -4.590  34.877  1.00  0.00     0.082 C 
HETATM    8  C14 UNL     1      36.156  -5.899  35.710  1.00  0.00     0.051 C 
HETATM    9  C15 UNL     1      37.554  -4.467  34.411  1.00  0.00     0.043 C 
HETATM   10  C16 UNL     1      37.930  -5.533  33.450  1.00  0.00     0.015 C 
HETATM   11  C17 UNL     1      36.987  -5.806  32.338  1.00  0.00     0.042 C 
HETATM   12  C21 UNL     1      35.577  -5.465  32.660  1.00  0.00    -0.012 C 
HETATM   13  C22 UNL     1      35.171  -4.930  33.766  1.00  0.00    -0.039 C 
HETATM   14  C23 UNL     1      33.710  -4.651  33.891  1.00  0.00     0.074 C 
HETATM   15  C24 UNL     1      33.550  -3.240  33.513  1.00  0.00     0.026 C 
HETATM   16  C25 UNL     1      34.291  -2.158  34.258  1.00  0.00     0.060 C 
ENDROOT
BRANCH   1  17
HETATM   17  O1  UNL     1      32.584  -6.232  35.325  1.00  0.00    -0.351 OA
BRANCH  17  18
HETATM   18  C5  UNL     1      32.697  -7.141  36.363  1.00  0.00     0.203 C 
BRANCH  18  19
HETATM   19  C4  UNL     1      33.535  -8.279  35.896  1.00  0.00     0.001 C 
HETATM   20  C2  UNL     1      33.692  -9.391  36.600  1.00  0.00    -0.089 C 
HETATM   21  C1  UNL     1      33.024  -9.554  37.918  1.00  0.00     0.042 C 
HETATM   22  C3  UNL     1      34.538 -10.499  36.087  1.00  0.00     0.042 C 
ENDBRANCH  18  19
ENDBRANCH  17  18
ENDBRANCH   1  17
BRANCH   3  23
HETATM   23  O2  UNL     1      34.409  -2.960  37.820  1.00  0.00    -0.383 OA
ATOM     24  H2  UNL     1      34.580  -2.063  38.083  1.00  0.00     0.211 HD
ENDBRANCH   3  23
BRANCH   5  25
HETATM   25  C11 UNL     1      35.955  -1.655  36.161  1.00  0.00     0.116 C 
HETATM   26  C12 UNL     1      37.295  -1.455  35.658  1.00  0.00     0.030 C 
HETATM   27 CL1  UNL     1      35.353   0.038  36.386  1.00  0.00    -0.122 Cl
ENDBRANCH   5  25
BRANCH  16  28
HETATM   28  C26 UNL     1      34.797  -1.246  33.203  1.00  0.00     0.057 C 
HETATM   29  C27 UNL     1      36.129  -1.402  32.608  1.00  0.00     0.045 C 
HETATM   30  C28 UNL     1      34.600   0.241  33.432  1.00  0.00     0.045 C 
BRANCH  28  31
HETATM   31  O5  UNL     1      33.908  -1.396  32.073  1.00  0.00    -0.390 OA
ATOM     32  H5  UNL     1      34.103  -2.242  31.688  1.00  0.00     0.210 HD
ENDBRANCH  28  31
ENDBRANCH  16  28
BRANCH  11  33
HETATM   33  C18 UNL     1      37.034  -7.201  31.806  1.00  0.00     0.057 C 
HETATM   34  C19 UNL     1      35.675  -7.723  31.401  1.00  0.00     0.046 C 
HETATM   35  C20 UNL     1      37.620  -8.173  32.807  1.00  0.00     0.046 C 
BRANCH  33  36
HETATM   36  O4  UNL     1      37.883  -7.218  30.696  1.00  0.00    -0.390 OA
ATOM     37  H4  UNL     1      38.235  -8.096  30.604  1.00  0.00     0.210 HD
ENDBRANCH  33  36
ENDBRANCH  11  33
TORSDOF 9
ENDMDL
MODEL 5
REMARK VINA RESULT: -5.778342066     14.328     17.770
REMARK  9 active torsions:
REMARK  status: ('A' for Active; 'I' for Inactive)
REMARK    1  A    between atoms: C4_4  and  C5_5 
REMARK    2  A    between atoms: C5_5  and  O1_6 
REMARK    3  A    between atoms: O1_6  and  C6_7 
REMARK    4  A    between atoms: C8_9  and  O2_11 
REMARK    5  A    between atoms: C10_13  and  C11_14 
REMARK    6  A    between atoms: C17_22  and  C18_23 
REMARK    7  A    between atoms: C18_23  and  O4_26 
REMARK    8  A    between atoms: C25_32  and  C26_33 
REMARK    9  A    between atoms: C26_33  and  O5_36 
ROOT
HETATM    1  C6  UNL     1      34.428 -16.031  45.132  1.00  0.00     0.054 C 
HETATM    2  C7  UNL     1      34.487 -17.262  45.551  1.00  0.00     0.046 C 
HETATM    3  C8  UNL     1      33.503 -18.343  45.846  1.00  0.00     0.107 C 
HETATM    4  C9  UNL     1      33.574 -19.264  44.695  1.00  0.00     0.053 C 
HETATM    5  C10 UNL     1      32.109 -17.717  46.128  1.00  0.00     0.119 C 
HETATM    6  O3  UNL     1      32.571 -16.817  47.050  1.00  0.00    -0.359 OA
HETATM    7  C13 UNL     1      32.434 -15.581  47.293  1.00  0.00     0.082 C 
HETATM    8  C14 UNL     1      33.715 -15.141  48.049  1.00  0.00     0.051 C 
HETATM    9  C15 UNL     1      31.336 -15.114  48.225  1.00  0.00     0.043 C 
HETATM   10  C16 UNL     1      31.254 -13.636  48.307  1.00  0.00     0.015 C 
HETATM   11  C17 UNL     1      31.280 -12.883  47.029  1.00  0.00     0.042 C 
HETATM   12  C21 UNL     1      31.990 -13.596  45.936  1.00  0.00    -0.012 C 
HETATM   13  C22 UNL     1      32.504 -14.781  46.027  1.00  0.00    -0.039 C 
HETATM   14  C23 UNL     1      33.167 -15.329  44.807  1.00  0.00     0.074 C 
HETATM   15  C24 UNL     1      32.148 -16.161  44.152  1.00  0.00     0.026 C 
HETATM   16  C25 UNL     1      31.510 -17.313  44.887  1.00  0.00     0.060 C 
ENDROOT
BRANCH   1  17
HETATM   17  O1  UNL     1      35.575 -15.284  44.961  1.00  0.00    -0.351 OA
BRANCH  17  18
HETATM   18  C5  UNL     1      35.841 -14.392  43.936  1.00  0.00     0.203 C 
BRANCH  18  19
HETATM   19  C4  UNL     1      35.986 -13.034  44.528  1.00  0.00     0.001 C 
HETATM   20  C2  UNL     1      35.192 -12.023  44.207  1.00  0.00    -0.089 C 
HETATM   21  C1  UNL     1      34.096 -12.204  43.219  1.00  0.00     0.042 C 
HETATM   22  C3  UNL     1      35.378 -10.686  44.829  1.00  0.00     0.042 C 
ENDBRANCH  18  19
ENDBRANCH  17  18
ENDBRANCH   1  17
BRANCH   3  23
HETATM   23  O2  UNL     1      34.002 -18.997  46.961  1.00  0.00    -0.383 OA
ATOM     24  H2  UNL     1      34.218 -19.873  46.661  1.00  0.00     0.211 HD
ENDBRANCH   3  23
BRANCH   5  25
HETATM   25  C11 UNL     1      31.417 -18.618  47.109  1.00  0.00     0.116 C 
HETATM   26  C12 UNL     1      30.231 -18.240  47.841  1.00  0.00     0.030 C 
HETATM   27 CL1  UNL     1      30.940 -20.195  46.358  1.00  0.00    -0.122 Cl
ENDBRANCH   5  25
BRANCH  16  28
HETATM   28  C26 UNL     1      30.064 -17.218  44.565  1.00  0.00     0.057 C 
HETATM   29  C27 UNL     1      29.149 -16.362  45.327  1.00  0.00     0.045 C 
HETATM   30  C28 UNL     1      29.331 -18.524  44.322  1.00  0.00     0.045 C 
BRANCH  28  31
HETATM   31  O5  UNL     1      29.980 -16.687  43.224  1.00  0.00    -0.390 OA
ATOM     32  H5  UNL     1      29.586 -17.367  42.690  1.00  0.00     0.210 HD
ENDBRANCH  28  31
ENDBRANCH  16  28
BRANCH  11  33
HETATM   33  C18 UNL     1      31.824 -11.496  47.130  1.00  0.00     0.057 C 
HETATM   34  C19 UNL     1      33.267 -11.460  47.576  1.00  0.00     0.046 C 
HETATM   35  C20 UNL     1      31.025 -10.639  48.088  1.00  0.00     0.046 C 
BRANCH  33  36
HETATM   36  O4  UNL     1      31.715 -10.891  45.875  1.00  0.00    -0.390 OA
ATOM     37  H4  UNL     1      31.683 -11.575  45.216  1.00  0.00     0.210 HD
ENDBRANCH  33  36
ENDBRANCH  11  33
TORSDOF 9
ENDMDL
