MODEL 1
REMARK VINA RESULT: -7.536642299      0.000      0.000
REMARK  9 active torsions:
REMARK  status: ('A' for Active; 'I' for Inactive)
REMARK    1  A    between atoms: C3_3  and  O1_4 
REMARK    2  A    between atoms: C14_17  and  O3_18 
REMARK    3  A    between atoms: C15_20  and  C16_21 
REMARK    4  A    between atoms: C16_21  and  C17_22 
REMARK    5  A    between atoms: C17_22  and  C18_23 
REMARK    6  A    between atoms: C18_23  and  C19_24 
REMARK    7  A    between atoms: C19_24  and  O4_25 
REMARK    8  A    between atoms: C25_32  and  O5_33 
REMARK    9  A    between atoms: O5_33  and  C26_34 
ROOT
HETATM    1  C1  UNL     1      34.183 -17.673  42.058  1.00  0.00     0.020 C 
HETATM    2  C2  UNL     1      33.886 -17.704  43.358  1.00  0.00    -0.026 C 
HETATM    3  C3  UNL     1      32.541 -18.184  43.757  1.00  0.00     0.150 C 
HETATM    4  C4  UNL     1      31.941 -17.223  44.740  1.00  0.00     0.046 C 
HETATM    5  C5  UNL     1      32.920 -16.102  45.026  1.00  0.00     0.036 C 
HETATM    6  C6  UNL     1      32.230 -14.957  45.651  1.00  0.00    -0.015 C 
HETATM    7  C7  UNL     1      31.354 -15.215  46.768  1.00  0.00     0.165 C 
HETATM    8  O2  UNL     1      31.423 -16.188  47.419  1.00  0.00    -0.292 OA
HETATM    9  C8  UNL     1      30.336 -14.201  47.088  1.00  0.00     0.045 C 
HETATM   10  C9  UNL     1      29.599 -14.472  48.363  1.00  0.00     0.029 C 
HETATM   11  C10 UNL     1      29.278 -14.078  46.001  1.00  0.00     0.029 C 
HETATM   12  C11 UNL     1      31.117 -12.911  47.136  1.00  0.00    -0.034 A 
HETATM   13  C12 UNL     1      30.418 -11.961  47.900  1.00  0.00     0.012 A 
HETATM   14  C13 UNL     1      30.980 -10.743  48.092  1.00  0.00     0.037 A 
HETATM   15  C14 UNL     1      32.207 -10.441  47.551  1.00  0.00     0.072 A 
HETATM   16  C15 UNL     1      32.875 -11.388  46.800  1.00  0.00    -0.017 A 
HETATM   17  C20 UNL     1      32.347 -12.683  46.560  1.00  0.00    -0.029 A 
HETATM   18  C21 UNL     1      33.112 -13.708  45.797  1.00  0.00     0.017 C 
HETATM   19  C22 UNL     1      33.261 -13.273  44.356  1.00  0.00     0.026 C 
HETATM   20  C23 UNL     1      34.358 -14.162  46.479  1.00  0.00     0.029 C 
HETATM   21  C24 UNL     1      34.200 -14.160  48.008  1.00  0.00     0.014 C 
HETATM   22  C25 UNL     1      34.998 -15.418  46.031  1.00  0.00     0.138 C 
HETATM   23  C28 UNL     1      34.209 -16.567  45.572  1.00  0.00     0.025 C 
HETATM   24  C29 UNL     1      34.138 -17.679  46.593  1.00  0.00     0.022 C 
HETATM   25  C30 UNL     1      34.901 -17.263  44.372  1.00  0.00     0.212 C 
HETATM   26  F1  UNL     1      35.770 -16.458  43.717  1.00  0.00    -0.244 F 
ENDROOT
BRANCH  16  27
HETATM   27  C16 UNL     1      34.190 -11.022  46.331  1.00  0.00     0.042 C 
BRANCH  27  28
HETATM   28  C17 UNL     1      35.268 -10.740  47.347  1.00  0.00     0.007 C 
BRANCH  28  29
HETATM   29  C18 UNL     1      36.021  -9.483  47.291  1.00  0.00     0.026 C 
BRANCH  29  30
HETATM   30  C19 UNL     1      35.834  -8.637  46.054  1.00  0.00     0.164 C 
BRANCH  30  31
HETATM   31  O4  UNL     1      34.823  -7.702  46.284  1.00  0.00    -0.401 OA
ATOM     32  H4  UNL     1      34.299  -7.608  45.498  1.00  0.00     0.209 HD
ENDBRANCH  30  31
ENDBRANCH  29  30
ENDBRANCH  28  29
ENDBRANCH  27  28
ENDBRANCH  16  27
BRANCH  15  33
HETATM   33  O3  UNL     1      32.712  -9.154  47.810  1.00  0.00    -0.360 OA
ATOM     34  H3  UNL     1      33.611  -9.101  48.110  1.00  0.00     0.217 HD
ENDBRANCH  15  33
BRANCH  22  35
HETATM   35  O5  UNL     1      35.753 -15.876  47.150  1.00  0.00    -0.385 OA
BRANCH  35  36
HETATM   36  C26 UNL     1      37.099 -15.689  47.012  1.00  0.00     0.163 C 
HETATM   37  C27 UNL     1      37.760 -17.059  46.873  1.00  0.00     0.033 C 
ENDBRANCH  35  36
ENDBRANCH  22  35
BRANCH   3  38
HETATM   38  O1  UNL     1      31.694 -18.146  42.618  1.00  0.00    -0.391 OA
ATOM     39  H1  UNL     1      31.818 -18.948  42.125  1.00  0.00     0.210 HD
ENDBRANCH   3  38
TORSDOF 9
ENDMDL
MODEL 2
REMARK VINA RESULT: -6.284260024     12.114     16.283
REMARK  9 active torsions:
REMARK  status: ('A' for Active; 'I' for Inactive)
REMARK    1  A    between atoms: C3_3  and  O1_4 
REMARK    2  A    between atoms: C14_17  and  O3_18 
REMARK    3  A    between atoms: C15_20  and  C16_21 
REMARK    4  A    between atoms: C16_21  and  C17_22 
REMARK    5  A    between atoms: C17_22  and  C18_23 
REMARK    6  A    between atoms: C18_23  and  C19_24 
REMARK    7  A    between atoms: C19_24  and  O4_25 
REMARK    8  A    between atoms: C25_32  and  O5_33 
REMARK    9  A    between atoms: O5_33  and  C26_34 
ROOT
HETATM    1  C1  UNL     1      36.886   1.900  37.603  1.00  0.00     0.020 C 
HETATM    2  C2  UNL     1      36.454   1.281  36.504  1.00  0.00    -0.026 C 
HETATM    3  C3  UNL     1      35.054   1.516  36.075  1.00  0.00     0.150 C 
HETATM    4  C4  UNL     1      34.398   0.201  35.776  1.00  0.00     0.046 C 
HETATM    5  C5  UNL     1      35.390  -0.926  35.978  1.00  0.00     0.036 C 
HETATM    6  C6  UNL     1      34.690  -2.220  36.088  1.00  0.00    -0.015 C 
HETATM    7  C7  UNL     1      33.691  -2.543  35.099  1.00  0.00     0.165 C 
HETATM    8  O2  UNL     1      33.648  -2.027  34.047  1.00  0.00    -0.292 OA
HETATM    9  C8  UNL     1      32.691  -3.567  35.444  1.00  0.00     0.045 C 
HETATM   10  C9  UNL     1      31.813  -3.959  34.296  1.00  0.00     0.029 C 
HETATM   11  C10 UNL     1      31.760  -3.116  36.559  1.00  0.00     0.029 C 
HETATM   12  C11 UNL     1      33.519  -4.719  35.958  1.00  0.00    -0.034 A 
HETATM   13  C12 UNL     1      32.787  -5.914  35.853  1.00  0.00     0.012 A 
HETATM   14  C13 UNL     1      33.379  -7.073  36.230  1.00  0.00     0.037 A 
HETATM   15  C14 UNL     1      34.668  -7.081  36.707  1.00  0.00     0.072 A 
HETATM   16  C15 UNL     1      35.369  -5.895  36.806  1.00  0.00    -0.017 A 
HETATM   17  C20 UNL     1      34.812  -4.646  36.427  1.00  0.00    -0.029 A 
HETATM   18  C21 UNL     1      35.606  -3.387  36.485  1.00  0.00     0.017 C 
HETATM   19  C22 UNL     1      35.925  -3.046  37.924  1.00  0.00     0.026 C 
HETATM   20  C23 UNL     1      36.753  -3.354  35.532  1.00  0.00     0.029 C 
HETATM   21  C24 UNL     1      36.435  -4.116  34.237  1.00  0.00     0.014 C 
HETATM   22  C25 UNL     1      37.379  -2.050  35.219  1.00  0.00     0.138 C 
HETATM   23  C28 UNL     1      36.593  -0.815  35.130  1.00  0.00     0.025 C 
HETATM   24  C29 UNL     1      36.365  -0.361  33.707  1.00  0.00     0.022 C 
HETATM   25  C30 UNL     1      37.375   0.378  35.737  1.00  0.00     0.212 C 
HETATM   26  F1  UNL     1      38.344  -0.004  36.603  1.00  0.00    -0.244 F 
ENDROOT
BRANCH  16  27
HETATM   27  C16 UNL     1      36.741  -5.996  37.242  1.00  0.00     0.042 C 
BRANCH  27  28
HETATM   28  C17 UNL     1      37.023  -6.149  38.715  1.00  0.00     0.007 C 
BRANCH  28  29
HETATM   29  C18 UNL     1      37.928  -7.202  39.186  1.00  0.00     0.026 C 
BRANCH  29  30
HETATM   30  C19 UNL     1      37.393  -8.123  40.257  1.00  0.00     0.164 C 
BRANCH  30  31
HETATM   31  O4  UNL     1      36.273  -8.796  39.767  1.00  0.00    -0.401 OA
ATOM     32  H4  UNL     1      35.540  -8.653  40.354  1.00  0.00     0.209 HD
ENDBRANCH  30  31
ENDBRANCH  29  30
ENDBRANCH  28  29
ENDBRANCH  27  28
ENDBRANCH  16  27
BRANCH  15  33
HETATM   33  O3  UNL     1      35.200  -8.332  37.068  1.00  0.00    -0.360 OA
ATOM     34  H3  UNL     1      35.696  -8.367  37.877  1.00  0.00     0.217 HD
ENDBRANCH  15  33
BRANCH  22  35
HETATM   35  O5  UNL     1      37.992  -2.223  33.944  1.00  0.00    -0.385 OA
BRANCH  35  36
HETATM   36  C26 UNL     1      39.349  -2.358  34.005  1.00  0.00     0.163 C 
HETATM   37  C27 UNL     1      39.982  -1.087  33.443  1.00  0.00     0.033 C 
ENDBRANCH  35  36
ENDBRANCH  22  35
BRANCH   3  38
HETATM   38  O1  UNL     1      34.335   2.065  37.168  1.00  0.00    -0.391 OA
ATOM     39  H1  UNL     1      33.413   1.871  37.049  1.00  0.00     0.210 HD
ENDBRANCH   3  38
TORSDOF 9
ENDMDL
MODEL 3
REMARK VINA RESULT: -6.278810880     14.621     18.331
REMARK  9 active torsions:
REMARK  status: ('A' for Active; 'I' for Inactive)
REMARK    1  A    between atoms: C3_3  and  O1_4 
REMARK    2  A    between atoms: C14_17  and  O3_18 
REMARK    3  A    between atoms: C15_20  and  C16_21 
REMARK    4  A    between atoms: C16_21  and  C17_22 
REMARK    5  A    between atoms: C17_22  and  C18_23 
REMARK    6  A    between atoms: C18_23  and  C19_24 
REMARK    7  A    between atoms: C19_24  and  O4_25 
REMARK    8  A    between atoms: C25_32  and  O5_33 
REMARK    9  A    between atoms: O5_33  and  C26_34 
ROOT
HETATM    1  C1  UNL     1      31.026  -3.791  34.965  1.00  0.00     0.020 C 
HETATM    2  C2  UNL     1      32.191  -3.637  35.595  1.00  0.00    -0.026 C 
HETATM    3  C3  UNL     1      32.211  -2.835  36.842  1.00  0.00     0.150 C 
HETATM    4  C4  UNL     1      33.337  -1.847  36.781  1.00  0.00     0.046 C 
HETATM    5  C5  UNL     1      34.102  -2.019  35.485  1.00  0.00     0.036 C 
HETATM    6  C6  UNL     1      34.936  -0.833  35.212  1.00  0.00    -0.015 C 
HETATM    7  C7  UNL     1      35.770  -0.326  36.275  1.00  0.00     0.165 C 
HETATM    8  O2  UNL     1      36.091  -0.976  37.196  1.00  0.00    -0.292 OA
HETATM    9  C8  UNL     1      36.227   1.071  36.180  1.00  0.00     0.045 C 
HETATM   10  C9  UNL     1      37.226   1.447  37.229  1.00  0.00     0.029 C 
HETATM   11  C10 UNL     1      35.082   2.065  36.305  1.00  0.00     0.029 C 
HETATM   12  C11 UNL     1      36.789   1.171  34.784  1.00  0.00    -0.034 A 
HETATM   13  C12 UNL     1      37.692   2.245  34.712  1.00  0.00     0.012 A 
HETATM   14  C13 UNL     1      38.335   2.475  33.541  1.00  0.00     0.037 A 
HETATM   15  C14 UNL     1      38.109   1.676  32.446  1.00  0.00     0.072 A 
HETATM   16  C15 UNL     1      37.214   0.627  32.537  1.00  0.00    -0.017 A 
HETATM   17  C20 UNL     1      36.508   0.328  33.732  1.00  0.00    -0.029 A 
HETATM   18  C21 UNL     1      35.594  -0.844  33.825  1.00  0.00     0.017 C 
HETATM   19  C22 UNL     1      34.398  -0.637  32.922  1.00  0.00     0.026 C 
HETATM   20  C23 UNL     1      36.286  -2.160  33.708  1.00  0.00     0.029 C 
HETATM   21  C24 UNL     1      37.697  -2.113  34.315  1.00  0.00     0.014 C 
HETATM   22  C25 UNL     1      35.576  -3.379  34.153  1.00  0.00     0.138 C 
HETATM   23  C28 UNL     1      34.670  -3.369  35.307  1.00  0.00     0.025 C 
HETATM   24  C29 UNL     1      35.275  -4.005  36.537  1.00  0.00     0.022 C 
HETATM   25  C30 UNL     1      33.435  -4.269  35.042  1.00  0.00     0.212 C 
HETATM   26  F1  UNL     1      33.202  -4.481  33.725  1.00  0.00    -0.244 F 
ENDROOT
BRANCH  16  27
HETATM   27  C16 UNL     1      37.090  -0.212  31.369  1.00  0.00     0.042 C 
BRANCH  27  28
HETATM   28  C17 UNL     1      36.581   0.400  30.089  1.00  0.00     0.007 C 
BRANCH  28  29
HETATM   29  C18 UNL     1      35.144   0.627  29.901  1.00  0.00     0.026 C 
BRANCH  29  30
HETATM   30  C19 UNL     1      34.628   2.006  30.241  1.00  0.00     0.164 C 
BRANCH  30  31
HETATM   31  O4  UNL     1      33.340   1.898  30.767  1.00  0.00    -0.401 OA
ATOM     32  H4  UNL     1      33.254   2.486  31.508  1.00  0.00     0.209 HD
ENDBRANCH  30  31
ENDBRANCH  29  30
ENDBRANCH  28  29
ENDBRANCH  27  28
ENDBRANCH  16  27
BRANCH  15  33
HETATM   33  O3  UNL     1      38.826   1.987  31.278  1.00  0.00    -0.360 OA
ATOM     34  H3  UNL     1      39.770   1.894  31.319  1.00  0.00     0.217 HD
ENDBRANCH  15  33
BRANCH  22  35
HETATM   35  O5  UNL     1      36.601  -4.320  34.461  1.00  0.00    -0.385 OA
BRANCH  35  36
HETATM   36  C26 UNL     1      36.750  -5.293  33.515  1.00  0.00     0.163 C 
HETATM   37  C27 UNL     1      36.210  -6.603  34.086  1.00  0.00     0.033 C 
ENDBRANCH  35  36
ENDBRANCH  22  35
BRANCH   3  38
HETATM   38  O1  UNL     1      31.023  -2.060  36.897  1.00  0.00    -0.391 OA
ATOM     39  H1  UNL     1      31.147  -1.282  36.366  1.00  0.00     0.210 HD
ENDBRANCH   3  38
TORSDOF 9
ENDMDL
MODEL 4
REMARK VINA RESULT: -6.163630454     14.837     18.831
REMARK  9 active torsions:
REMARK  status: ('A' for Active; 'I' for Inactive)
REMARK    1  A    between atoms: C3_3  and  O1_4 
REMARK    2  A    between atoms: C14_17  and  O3_18 
REMARK    3  A    between atoms: C15_20  and  C16_21 
REMARK    4  A    between atoms: C16_21  and  C17_22 
REMARK    5  A    between atoms: C17_22  and  C18_23 
REMARK    6  A    between atoms: C18_23  and  C19_24 
REMARK    7  A    between atoms: C19_24  and  O4_25 
REMARK    8  A    between atoms: C25_32  and  O5_33 
REMARK    9  A    between atoms: O5_33  and  C26_34 
ROOT
HETATM    1  C1  UNL     1      32.251  -3.669  36.468  1.00  0.00     0.020 C 
HETATM    2  C2  UNL     1      33.569  -3.683  36.263  1.00  0.00    -0.026 C 
HETATM    3  C3  UNL     1      34.460  -3.633  37.447  1.00  0.00     0.150 C 
HETATM    4  C4  UNL     1      35.519  -2.594  37.229  1.00  0.00     0.046 C 
HETATM    5  C5  UNL     1      35.349  -1.967  35.861  1.00  0.00     0.036 C 
HETATM    6  C6  UNL     1      36.095  -0.696  35.775  1.00  0.00    -0.015 C 
HETATM    7  C7  UNL     1      37.468  -0.680  36.216  1.00  0.00     0.165 C 
HETATM    8  O2  UNL     1      38.120  -1.651  36.302  1.00  0.00    -0.292 OA
HETATM    9  C8  UNL     1      38.059   0.622  36.571  1.00  0.00     0.045 C 
HETATM   10  C9  UNL     1      39.530   0.560  36.842  1.00  0.00     0.029 C 
HETATM   11  C10 UNL     1      37.420   1.229  37.811  1.00  0.00     0.029 C 
HETATM   12  C11 UNL     1      37.726   1.500  35.390  1.00  0.00    -0.034 A 
HETATM   13  C12 UNL     1      38.618   2.584  35.338  1.00  0.00     0.012 A 
HETATM   14  C13 UNL     1      38.505   3.470  34.319  1.00  0.00     0.037 A 
HETATM   15  C14 UNL     1      37.537   3.314  33.356  1.00  0.00     0.072 A 
HETATM   16  C15 UNL     1      36.667   2.242  33.427  1.00  0.00    -0.017 A 
HETATM   17  C20 UNL     1      36.730   1.277  34.465  1.00  0.00    -0.029 A 
HETATM   18  C21 UNL     1      35.820   0.097  34.490  1.00  0.00     0.017 C 
HETATM   19  C22 UNL     1      34.395   0.551  34.713  1.00  0.00     0.026 C 
HETATM   20  C23 UNL     1      36.039  -0.856  33.363  1.00  0.00     0.029 C 
HETATM   21  C24 UNL     1      37.516  -0.911  32.946  1.00  0.00     0.014 C 
HETATM   22  C25 UNL     1      35.484  -2.223  33.470  1.00  0.00     0.138 C 
HETATM   23  C28 UNL     1      35.426  -2.937  34.751  1.00  0.00     0.025 C 
HETATM   24  C29 UNL     1      36.484  -4.010  34.876  1.00  0.00     0.022 C 
HETATM   25  C30 UNL     1      34.113  -3.751  34.866  1.00  0.00     0.212 C 
HETATM   26  F1  UNL     1      33.130  -3.298  34.052  1.00  0.00    -0.244 F 
ENDROOT
BRANCH  16  27
HETATM   27  C16 UNL     1      35.730   2.105  32.338  1.00  0.00     0.042 C 
BRANCH  27  28
HETATM   28  C17 UNL     1      34.561   3.053  32.265  1.00  0.00     0.007 C 
BRANCH  28  29
HETATM   29  C18 UNL     1      34.126   3.587  30.970  1.00  0.00     0.026 C 
BRANCH  29  30
HETATM   30  C19 UNL     1      32.663   3.942  30.843  1.00  0.00     0.164 C 
BRANCH  30  31
HETATM   31  O4  UNL     1      31.950   2.814  30.432  1.00  0.00    -0.401 OA
ATOM     32  H4  UNL     1      32.008   2.146  31.105  1.00  0.00     0.209 HD
ENDBRANCH  30  31
ENDBRANCH  29  30
ENDBRANCH  28  29
ENDBRANCH  27  28
ENDBRANCH  16  27
BRANCH  15  33
HETATM   33  O3  UNL     1      37.500   4.279  32.334  1.00  0.00    -0.360 OA
ATOM     34  H3  UNL     1      36.646   4.493  31.980  1.00  0.00     0.217 HD
ENDBRANCH  15  33
BRANCH  22  35
HETATM   35  O5  UNL     1      36.285  -3.023  32.605  1.00  0.00    -0.385 OA
BRANCH  35  36
HETATM   36  C26 UNL     1      35.643  -3.399  31.460  1.00  0.00     0.163 C 
HETATM   37  C27 UNL     1      36.274  -4.697  30.961  1.00  0.00     0.033 C 
ENDBRANCH  35  36
ENDBRANCH  22  35
BRANCH   3  38
HETATM   38  O1  UNL     1      33.704  -3.182  38.560  1.00  0.00    -0.391 OA
ATOM     39  H1  UNL     1      33.879  -2.258  38.689  1.00  0.00     0.210 HD
ENDBRANCH   3  38
TORSDOF 9
ENDMDL
MODEL 5
REMARK VINA RESULT: -6.094650694      1.940      5.263
REMARK  9 active torsions:
REMARK  status: ('A' for Active; 'I' for Inactive)
REMARK    1  A    between atoms: C3_3  and  O1_4 
REMARK    2  A    between atoms: C14_17  and  O3_18 
REMARK    3  A    between atoms: C15_20  and  C16_21 
REMARK    4  A    between atoms: C16_21  and  C17_22 
REMARK    5  A    between atoms: C17_22  and  C18_23 
REMARK    6  A    between atoms: C18_23  and  C19_24 
REMARK    7  A    between atoms: C19_24  and  O4_25 
REMARK    8  A    between atoms: C25_32  and  O5_33 
REMARK    9  A    between atoms: O5_33  and  C26_34 
ROOT
HETATM    1  C1  UNL     1      37.968 -17.920  46.786  1.00  0.00     0.020 C 
HETATM    2  C2  UNL     1      37.660 -16.926  45.952  1.00  0.00    -0.026 C 
HETATM    3  C3  UNL     1      38.570 -15.757  45.891  1.00  0.00     0.150 C 
HETATM    4  C4  UNL     1      37.766 -14.494  45.983  1.00  0.00     0.046 C 
HETATM    5  C5  UNL     1      36.292 -14.830  46.073  1.00  0.00     0.036 C 
HETATM    6  C6  UNL     1      35.524 -13.669  46.563  1.00  0.00    -0.015 C 
HETATM    7  C7  UNL     1      35.755 -12.387  45.943  1.00  0.00     0.165 C 
HETATM    8  O2  UNL     1      36.231 -12.272  44.878  1.00  0.00    -0.292 OA
HETATM    9  C8  UNL     1      35.370 -11.182  46.697  1.00  0.00     0.045 C 
HETATM   10  C9  UNL     1      35.482  -9.917  45.905  1.00  0.00     0.029 C 
HETATM   11  C10 UNL     1      36.219 -10.982  47.944  1.00  0.00     0.029 C 
HETATM   12  C11 UNL     1      33.954 -11.468  47.132  1.00  0.00    -0.034 A 
HETATM   13  C12 UNL     1      33.290 -10.261  47.411  1.00  0.00     0.012 A 
HETATM   14  C13 UNL     1      31.987 -10.308  47.782  1.00  0.00     0.037 A 
HETATM   15  C14 UNL     1      31.328 -11.510  47.885  1.00  0.00     0.072 A 
HETATM   16  C15 UNL     1      32.000 -12.685  47.609  1.00  0.00    -0.017 A 
HETATM   17  C20 UNL     1      33.363 -12.709  47.214  1.00  0.00    -0.029 A 
HETATM   18  C21 UNL     1      34.051 -13.984  46.865  1.00  0.00     0.017 C 
HETATM   19  C22 UNL     1      34.174 -14.856  48.094  1.00  0.00     0.026 C 
HETATM   20  C23 UNL     1      33.511 -14.644  45.641  1.00  0.00     0.029 C 
HETATM   21  C24 UNL     1      33.022 -13.614  44.611  1.00  0.00     0.014 C 
HETATM   22  C25 UNL     1      34.326 -15.686  44.977  1.00  0.00     0.138 C 
HETATM   23  C28 UNL     1      35.790 -15.606  44.923  1.00  0.00     0.025 C 
HETATM   24  C29 UNL     1      36.308 -15.195  43.564  1.00  0.00     0.022 C 
HETATM   25  C30 UNL     1      36.422 -17.010  45.107  1.00  0.00     0.212 C 
HETATM   26  F1  UNL     1      35.598 -17.890  45.724  1.00  0.00    -0.244 F 
ENDROOT
BRANCH  16  27
HETATM   27  C16 UNL     1      31.219 -13.897  47.665  1.00  0.00     0.042 C 
BRANCH  27  28
HETATM   28  C17 UNL     1      30.021 -14.029  46.760  1.00  0.00     0.007 C 
BRANCH  28  29
HETATM   29  C18 UNL     1      29.793 -15.272  46.016  1.00  0.00     0.026 C 
BRANCH  29  30
HETATM   30  C19 UNL     1      28.791 -15.210  44.888  1.00  0.00     0.164 C 
BRANCH  30  31
HETATM   31  O4  UNL     1      28.723 -13.903  44.403  1.00  0.00    -0.401 OA
ATOM     32  H4  UNL     1      28.973 -13.300  45.093  1.00  0.00     0.209 HD
ENDBRANCH  30  31
ENDBRANCH  29  30
ENDBRANCH  28  29
ENDBRANCH  27  28
ENDBRANCH  16  27
BRANCH  15  33
HETATM   33  O3  UNL     1      29.977 -11.458  48.270  1.00  0.00    -0.360 OA
ATOM     34  H3  UNL     1      29.590 -10.595  48.356  1.00  0.00     0.217 HD
ENDBRANCH  15  33
BRANCH  22  35
HETATM   35  O5  UNL     1      33.878 -15.708  43.624  1.00  0.00    -0.385 OA
BRANCH  35  36
HETATM   36  C26 UNL     1      33.432 -16.933  43.218  1.00  0.00     0.163 C 
HETATM   37  C27 UNL     1      31.942 -17.030  43.537  1.00  0.00     0.033 C 
ENDBRANCH  35  36
ENDBRANCH  22  35
BRANCH   3  38
HETATM   38  O1  UNL     1      39.397 -15.770  47.044  1.00  0.00    -0.391 OA
ATOM     39  H1  UNL     1      40.286 -15.566  46.779  1.00  0.00     0.210 HD
ENDBRANCH   3  38
TORSDOF 9
ENDMDL
