MODEL 1
REMARK VINA RESULT: -7.092563059      0.000      0.000
REMARK  5 active torsions:
REMARK  status: ('A' for Active; 'I' for Inactive)
REMARK    1  A    between atoms: C6_7  and  S1_8 
REMARK    2  A    between atoms: S1_8  and  C7_9 
REMARK    3  A    between atoms: C10_12  and  N1_13 
REMARK    4  A    between atoms: N1_13  and  C11_15 
REMARK    5  A    between atoms: C15_19  and  N2_20 
ROOT
HETATM    1  C7  UNL     1      -5.179   3.808   0.157  1.00  0.00     0.007 A 
HETATM    2  C8  UNL     1      -3.929   3.939   0.684  1.00  0.00     0.021 A 
HETATM    3  C9  UNL     1      -3.580   4.995   1.543  1.00  0.00     0.032 A 
HETATM    4  C10 UNL     1      -4.549   5.909   1.846  1.00  0.00     0.046 A 
HETATM    5  C23 UNL     1      -5.808   5.789   1.324  1.00  0.00     0.038 A 
HETATM    6 BR1  UNL     1      -7.202   7.082   1.749  1.00  0.00    -0.049 Br
HETATM    7  C24 UNL     1      -6.137   4.743   0.481  1.00  0.00     0.040 A 
ENDROOT
BRANCH   4   8
HETATM    8  N1  UNL     1      -4.274   7.033   2.639  1.00  0.00    -0.380 N 
ATOM      9  H1  UNL     1      -4.962   7.782   2.548  1.00  0.00     0.160 HD
BRANCH   8  10
HETATM   10  C11 UNL     1      -3.223   7.323   3.541  1.00  0.00     0.114 C 
HETATM   11  C12 UNL     1      -2.663   8.773   3.385  1.00  0.00     0.109 C 
HETATM   12  C13 UNL     1      -2.673   9.357   4.652  1.00  0.00    -0.178 C 
HETATM   13  C14 UNL     1      -2.720   9.938   5.947  1.00  0.00     0.119 C 
HETATM   14  C15 UNL     1      -3.267   8.799   6.856  1.00  0.00     0.255 C 
HETATM   15  C21 UNL     1      -3.133   7.421   6.177  1.00  0.00     0.007 C 
HETATM   16  C22 UNL     1      -3.794   7.124   4.965  1.00  0.00    -0.003 C 
BRANCH  14  17
HETATM   17  N2  UNL     1      -2.885   8.733   8.162  1.00  0.00     0.097 N 
HETATM   18  C16 UNL     1      -2.524  10.050   8.672  1.00  0.00     0.273 C 
HETATM   19  C17 UNL     1      -1.435  10.051   9.687  1.00  0.00     0.030 C 
HETATM   20  C18 UNL     1      -0.140   9.488   9.168  1.00  0.00     0.003 C 
HETATM   21  C19 UNL     1      -0.437   8.298   8.261  1.00  0.00     0.030 C 
HETATM   22  C20 UNL     1      -1.846   7.851   8.580  1.00  0.00     0.273 C 
ENDBRANCH  14  17
ENDBRANCH   8  10
ENDBRANCH   4   8
BRANCH   1  23
HETATM   23  S1  UNL     1      -5.655   2.536  -0.995  1.00  0.00    -0.089 SA
BRANCH  23  24
HETATM   24  C6  UNL     1      -4.518   1.165  -1.005  1.00  0.00     0.027 A 
HETATM   25  C1  UNL     1      -3.380   1.239  -1.795  1.00  0.00     0.051 A 
HETATM   26 CL1  UNL     1      -3.075   2.669  -2.774  1.00  0.00    -0.083 Cl
HETATM   27  C2  UNL     1      -2.469   0.203  -1.821  1.00  0.00     0.025 A 
HETATM   28  C3  UNL     1      -2.668  -0.949  -1.054  1.00  0.00     0.002 A 
HETATM   29  C4  UNL     1      -3.799  -1.014  -0.271  1.00  0.00     0.001 A 
HETATM   30  C5  UNL     1      -4.716   0.024  -0.243  1.00  0.00     0.021 A 
ENDBRANCH  23  24
ENDBRANCH   1  23
TORSDOF 5
ENDMDL
MODEL 2
REMARK VINA RESULT: -7.079097720      4.597     10.171
REMARK  5 active torsions:
REMARK  status: ('A' for Active; 'I' for Inactive)
REMARK    1  A    between atoms: C6_7  and  S1_8 
REMARK    2  A    between atoms: S1_8  and  C7_9 
REMARK    3  A    between atoms: C10_12  and  N1_13 
REMARK    4  A    between atoms: N1_13  and  C11_15 
REMARK    5  A    between atoms: C15_19  and  N2_20 
ROOT
HETATM    1  C7  UNL     1      -6.453   4.852   0.534  1.00  0.00     0.007 A 
HETATM    2  C8  UNL     1      -5.133   4.568   0.718  1.00  0.00     0.021 A 
HETATM    3  C9  UNL     1      -4.609   3.274   0.555  1.00  0.00     0.032 A 
HETATM    4  C10 UNL     1      -5.478   2.283   0.197  1.00  0.00     0.046 A 
HETATM    5  C23 UNL     1      -6.806   2.553   0.008  1.00  0.00     0.038 A 
HETATM    6 BR1  UNL     1      -8.057   1.152  -0.506  1.00  0.00    -0.049 Br
HETATM    7  C24 UNL     1      -7.306   3.833   0.171  1.00  0.00     0.040 A 
ENDROOT
BRANCH   4   8
HETATM    8  N1  UNL     1      -5.060   0.948   0.078  1.00  0.00    -0.380 N 
ATOM      9  H1  UNL     1      -5.807   0.301  -0.175  1.00  0.00     0.160 HD
BRANCH   8  10
HETATM   10  C11 UNL     1      -3.796   0.333   0.242  1.00  0.00     0.114 C 
HETATM   11  C12 UNL     1      -3.836  -1.215   0.035  1.00  0.00     0.109 C 
HETATM   12  C13 UNL     1      -2.840  -1.532  -0.889  1.00  0.00    -0.178 C 
HETATM   13  C14 UNL     1      -1.839  -1.825  -1.853  1.00  0.00     0.119 C 
HETATM   14  C15 UNL     1      -1.194  -0.443  -2.164  1.00  0.00     0.255 C 
HETATM   15  C21 UNL     1      -1.520   0.592  -1.070  1.00  0.00     0.007 C 
HETATM   16  C22 UNL     1      -2.849   0.985  -0.794  1.00  0.00    -0.003 C 
BRANCH  14  17
HETATM   17  N2  UNL     1       0.120  -0.375  -2.517  1.00  0.00     0.097 N 
HETATM   18  C16 UNL     1       0.727   0.866  -2.052  1.00  0.00     0.273 C 
HETATM   19  C17 UNL     1       1.786   1.417  -2.941  1.00  0.00     0.030 C 
HETATM   20  C18 UNL     1       1.288   1.743  -4.323  1.00  0.00     0.003 C 
HETATM   21  C19 UNL     1       0.296   0.671  -4.767  1.00  0.00     0.030 C 
HETATM   22  C20 UNL     1       0.527  -0.528  -3.874  1.00  0.00     0.273 C 
ENDBRANCH  14  17
ENDBRANCH   8  10
ENDBRANCH   4   8
BRANCH   1  23
HETATM   23  S1  UNL     1      -7.183   6.454   0.801  1.00  0.00    -0.089 SA
BRANCH  23  24
HETATM   24  C6  UNL     1      -6.132   7.532   1.752  1.00  0.00     0.027 A 
HETATM   25  C1  UNL     1      -6.419   7.742   3.093  1.00  0.00     0.051 A 
HETATM   26 CL1  UNL     1      -7.807   6.954   3.835  1.00  0.00    -0.083 Cl
HETATM   27  C2  UNL     1      -5.622   8.561   3.867  1.00  0.00     0.025 A 
HETATM   28  C3  UNL     1      -4.506   9.202   3.321  1.00  0.00     0.002 A 
HETATM   29  C4  UNL     1      -4.227   8.986   1.990  1.00  0.00     0.001 A 
HETATM   30  C5  UNL     1      -5.025   8.166   1.210  1.00  0.00     0.021 A 
ENDBRANCH  23  24
ENDBRANCH   1  23
TORSDOF 5
ENDMDL
MODEL 3
REMARK VINA RESULT: -7.071511306      1.271      1.774
REMARK  5 active torsions:
REMARK  status: ('A' for Active; 'I' for Inactive)
REMARK    1  A    between atoms: C6_7  and  S1_8 
REMARK    2  A    between atoms: S1_8  and  C7_9 
REMARK    3  A    between atoms: C10_12  and  N1_13 
REMARK    4  A    between atoms: N1_13  and  C11_15 
REMARK    5  A    between atoms: C15_19  and  N2_20 
ROOT
HETATM    1  C7  UNL     1      -4.454   3.904  -0.222  1.00  0.00     0.007 A 
HETATM    2  C8  UNL     1      -3.382   3.944   0.619  1.00  0.00     0.021 A 
HETATM    3  C9  UNL     1      -3.305   4.835   1.702  1.00  0.00     0.032 A 
HETATM    4  C10 UNL     1      -4.358   5.682   1.898  1.00  0.00     0.046 A 
HETATM    5  C23 UNL     1      -5.442   5.653   1.063  1.00  0.00     0.038 A 
HETATM    6 BR1  UNL     1      -6.953   6.852   1.331  1.00  0.00    -0.049 Br
HETATM    7  C24 UNL     1      -5.503   4.768   0.002  1.00  0.00     0.040 A 
ENDROOT
BRANCH   4   8
HETATM    8  N1  UNL     1      -4.340   6.653   2.911  1.00  0.00    -0.380 N 
ATOM      9  H1  UNL     1      -5.259   6.860   3.303  1.00  0.00     0.160 HD
BRANCH   8  10
HETATM   10  C11 UNL     1      -3.286   7.398   3.491  1.00  0.00     0.114 C 
HETATM   11  C12 UNL     1      -3.415   8.936   3.246  1.00  0.00     0.109 C 
HETATM   12  C13 UNL     1      -3.305   9.561   4.489  1.00  0.00    -0.178 C 
HETATM   13  C14 UNL     1      -3.220  10.171   5.769  1.00  0.00     0.119 C 
HETATM   14  C15 UNL     1      -2.995   8.979   6.744  1.00  0.00     0.255 C 
HETATM   15  C21 UNL     1      -2.518   7.718   5.996  1.00  0.00     0.007 C 
HETATM   16  C22 UNL     1      -3.314   7.096   5.008  1.00  0.00    -0.003 C 
BRANCH  14  17
HETATM   17  N2  UNL     1      -2.274   9.165   7.885  1.00  0.00     0.097 N 
HETATM   18  C16 UNL     1      -2.984   8.649   9.048  1.00  0.00     0.273 C 
HETATM   19  C17 UNL     1      -2.757   9.408  10.308  1.00  0.00     0.030 C 
HETATM   20  C18 UNL     1      -3.189  10.847  10.219  1.00  0.00     0.003 C 
HETATM   21  C19 UNL     1      -2.839  11.393   8.838  1.00  0.00     0.030 C 
HETATM   22  C20 UNL     1      -1.802  10.459   8.253  1.00  0.00     0.273 C 
ENDBRANCH  14  17
ENDBRANCH   8  10
ENDBRANCH   4   8
BRANCH   1  23
HETATM   23  S1  UNL     1      -4.572   2.849  -1.652  1.00  0.00    -0.089 SA
BRANCH  23  24
HETATM   24  C6  UNL     1      -3.879   1.234  -1.366  1.00  0.00     0.027 A 
HETATM   25  C1  UNL     1      -4.589   0.322  -0.599  1.00  0.00     0.051 A 
HETATM   26 CL1  UNL     1      -6.151   0.765   0.082  1.00  0.00    -0.083 Cl
HETATM   27  C2  UNL     1      -4.092  -0.944  -0.364  1.00  0.00     0.025 A 
HETATM   28  C3  UNL     1      -2.859  -1.341  -0.891  1.00  0.00     0.002 A 
HETATM   29  C4  UNL     1      -2.162  -0.430  -1.653  1.00  0.00     0.001 A 
HETATM   30  C5  UNL     1      -2.657   0.841  -1.890  1.00  0.00     0.021 A 
ENDBRANCH  23  24
ENDBRANCH   1  23
TORSDOF 5
ENDMDL
MODEL 4
REMARK VINA RESULT: -7.070006533      5.041      9.633
REMARK  5 active torsions:
REMARK  status: ('A' for Active; 'I' for Inactive)
REMARK    1  A    between atoms: C6_7  and  S1_8 
REMARK    2  A    between atoms: S1_8  and  C7_9 
REMARK    3  A    between atoms: C10_12  and  N1_13 
REMARK    4  A    between atoms: N1_13  and  C11_15 
REMARK    5  A    between atoms: C15_19  and  N2_20 
ROOT
HETATM    1  C7  UNL     1      -2.992   7.440  -0.310  1.00  0.00     0.007 A 
HETATM    2  C8  UNL     1      -2.303   6.304  -0.006  1.00  0.00     0.021 A 
HETATM    3  C9  UNL     1      -2.068   5.289  -0.949  1.00  0.00     0.032 A 
HETATM    4  C10 UNL     1      -2.560   5.473  -2.209  1.00  0.00     0.046 A 
HETATM    5  C23 UNL     1      -3.253   6.608  -2.529  1.00  0.00     0.038 A 
HETATM    6 BR1  UNL     1      -3.957   6.887  -4.324  1.00  0.00    -0.049 Br
HETATM    7  C24 UNL     1      -3.474   7.599  -1.591  1.00  0.00     0.040 A 
ENDROOT
BRANCH   4   8
HETATM    8  N1  UNL     1      -2.435   4.483  -3.197  1.00  0.00    -0.380 N 
ATOM      9  H1  UNL     1      -1.782   4.724  -3.944  1.00  0.00     0.160 HD
BRANCH   8  10
HETATM   10  C11 UNL     1      -3.045   3.215  -3.351  1.00  0.00     0.114 C 
HETATM   11  C12 UNL     1      -2.074   2.028  -3.055  1.00  0.00     0.109 C 
HETATM   12  C13 UNL     1      -2.711   1.196  -2.134  1.00  0.00    -0.178 C 
HETATM   13  C14 UNL     1      -3.368   0.380  -1.175  1.00  0.00     0.119 C 
HETATM   14  C15 UNL     1      -4.741   1.082  -0.955  1.00  0.00     0.255 C 
HETATM   15  C21 UNL     1      -5.063   2.062  -2.100  1.00  0.00     0.007 C 
HETATM   16  C22 UNL     1      -4.243   3.180  -2.373  1.00  0.00    -0.003 C 
BRANCH  14  17
HETATM   17  N2  UNL     1      -5.836   0.339  -0.633  1.00  0.00     0.097 N 
HETATM   18  C16 UNL     1      -6.874   0.461  -1.650  1.00  0.00     0.273 C 
HETATM   19  C17 UNL     1      -8.267   0.395  -1.133  1.00  0.00     0.030 C 
HETATM   20  C18 UNL     1      -8.586   1.486  -0.146  1.00  0.00     0.003 C 
HETATM   21  C19 UNL     1      -7.372   1.726   0.748  1.00  0.00     0.030 C 
HETATM   22  C20 UNL     1      -6.492   0.501   0.621  1.00  0.00     0.273 C 
ENDBRANCH  14  17
ENDBRANCH   8  10
ENDBRANCH   4   8
BRANCH   1  23
HETATM   23  S1  UNL     1      -3.383   8.723   0.862  1.00  0.00    -0.089 SA
BRANCH  23  24
HETATM   24  C6  UNL     1      -4.806   8.326   1.856  1.00  0.00     0.027 A 
HETATM   25  C1  UNL     1      -4.918   8.880   3.123  1.00  0.00     0.051 A 
HETATM   26 CL1  UNL     1      -3.665   9.954   3.733  1.00  0.00    -0.083 Cl
HETATM   27  C2  UNL     1      -6.011   8.607   3.920  1.00  0.00     0.025 A 
HETATM   28  C3  UNL     1      -7.034   7.765   3.473  1.00  0.00     0.002 A 
HETATM   29  C4  UNL     1      -6.916   7.221   2.214  1.00  0.00     0.001 A 
HETATM   30  C5  UNL     1      -5.820   7.492   1.411  1.00  0.00     0.021 A 
ENDBRANCH  23  24
ENDBRANCH   1  23
TORSDOF 5
ENDMDL
MODEL 5
REMARK VINA RESULT: -7.023331465      0.938      1.727
REMARK  5 active torsions:
REMARK  status: ('A' for Active; 'I' for Inactive)
REMARK    1  A    between atoms: C6_7  and  S1_8 
REMARK    2  A    between atoms: S1_8  and  C7_9 
REMARK    3  A    between atoms: C10_12  and  N1_13 
REMARK    4  A    between atoms: N1_13  and  C11_15 
REMARK    5  A    between atoms: C15_19  and  N2_20 
ROOT
HETATM    1  C7  UNL     1      -5.321   3.434   0.437  1.00  0.00     0.007 A 
HETATM    2  C8  UNL     1      -4.066   3.713   0.888  1.00  0.00     0.021 A 
HETATM    3  C9  UNL     1      -3.693   4.990   1.340  1.00  0.00     0.032 A 
HETATM    4  C10 UNL     1      -4.645   5.970   1.317  1.00  0.00     0.046 A 
HETATM    5  C23 UNL     1      -5.909   5.704   0.868  1.00  0.00     0.038 A 
HETATM    6 BR1  UNL     1      -7.278   7.089   0.832  1.00  0.00    -0.049 Br
HETATM    7  C24 UNL     1      -6.261   4.441   0.427  1.00  0.00     0.040 A 
ENDROOT
BRANCH   4   8
HETATM    8  N1  UNL     1      -4.346   7.291   1.684  1.00  0.00    -0.380 N 
ATOM      9  H1  UNL     1      -4.075   7.887   0.902  1.00  0.00     0.160 HD
BRANCH   8  10
HETATM   10  C11 UNL     1      -4.352   7.951   2.937  1.00  0.00     0.114 C 
HETATM   11  C12 UNL     1      -4.852   7.044   4.105  1.00  0.00     0.109 C 
HETATM   12  C13 UNL     1      -3.892   7.108   5.116  1.00  0.00    -0.178 C 
HETATM   13  C14 UNL     1      -2.886   7.167   6.117  1.00  0.00     0.119 C 
HETATM   14  C15 UNL     1      -1.827   8.149   5.535  1.00  0.00     0.255 C 
HETATM   15  C21 UNL     1      -2.414   8.998   4.390  1.00  0.00     0.007 C 
HETATM   16  C22 UNL     1      -2.898   8.408   3.202  1.00  0.00    -0.003 C 
BRANCH  14  17
HETATM   17  N2  UNL     1      -1.086   8.920   6.379  1.00  0.00     0.097 N 
HETATM   18  C16 UNL     1      -0.938   8.284   7.682  1.00  0.00     0.273 C 
HETATM   19  C17 UNL     1      -0.878   9.224   8.834  1.00  0.00     0.030 C 
HETATM   20  C18 UNL     1      -2.114  10.070   8.974  1.00  0.00     0.003 C 
HETATM   21  C19 UNL     1      -2.606  10.476   7.588  1.00  0.00     0.030 C 
HETATM   22  C20 UNL     1      -1.443  10.275   6.640  1.00  0.00     0.273 C 
ENDBRANCH  14  17
ENDBRANCH   8  10
ENDBRANCH   4   8
BRANCH   1  23
HETATM   23  S1  UNL     1      -5.826   1.857  -0.218  1.00  0.00    -0.089 SA
BRANCH  23  24
HETATM   24  C6  UNL     1      -4.443   0.851  -0.717  1.00  0.00     0.027 A 
HETATM   25  C1  UNL     1      -3.621   1.297  -1.741  1.00  0.00     0.051 A 
HETATM   26 CL1  UNL     1      -3.949   2.834  -2.534  1.00  0.00    -0.083 Cl
HETATM   27  C2  UNL     1      -2.532   0.554  -2.149  1.00  0.00     0.025 A 
HETATM   28  C3  UNL     1      -2.230  -0.670  -1.543  1.00  0.00     0.002 A 
HETATM   29  C4  UNL     1      -3.050  -1.104  -0.526  1.00  0.00     0.001 A 
HETATM   30  C5  UNL     1      -4.144  -0.360  -0.114  1.00  0.00     0.021 A 
ENDBRANCH  23  24
ENDBRANCH   1  23
TORSDOF 5
ENDMDL
