MODEL 1
REMARK VINA RESULT: -9.227532085      0.000      0.000
REMARK  5 active torsions:
REMARK  status: ('A' for Active; 'I' for Inactive)
REMARK       I    between atoms: C1_2  and  N1_3 
REMARK    1  A    between atoms: C1_2  and  C8_13 
REMARK    2  A    between atoms: N1_3  and  C2_5 
REMARK    3  A    between atoms: C10_15  and  N2_16 
REMARK    4  A    between atoms: C21_27  and  C22_28 
REMARK    5  A    between atoms: C22_28  and  C23_30 
ROOT
HETATM    1  C8  UNL     1      -2.933   2.710  -0.801  1.00  0.00     0.048 A 
HETATM    2  C9  UNL     1      -1.986   3.424  -1.565  1.00  0.00     0.047 A 
HETATM    3  C10 UNL     1      -1.361   2.887  -2.649  1.00  0.00     0.031 A 
HETATM    4  C19 UNL     1      -1.736   1.572  -2.945  1.00  0.00     0.030 A 
HETATM    5  C20 UNL     1      -2.644   0.852  -2.231  1.00  0.00     0.018 A 
HETATM    6  C21 UNL     1      -3.264   1.428  -1.120  1.00  0.00     0.026 A 
ENDROOT
BRANCH   1   7
HETATM    7  C1  UNL     1      -3.605   3.532   0.236  1.00  0.00     0.257 C 
HETATM    8  O1  UNL     1      -3.151   3.453   1.389  1.00  0.00    -0.267 OA
HETATM    9  N1  UNL     1      -4.677   4.356  -0.087  1.00  0.00    -0.323 N 
ATOM     10  H1  UNL     1      -4.973   4.346  -1.063  1.00  0.00     0.169 HD
BRANCH   9  11
HETATM   11  C2  UNL     1      -5.406   5.204   0.774  1.00  0.00     0.036 A 
HETATM   12  C3  UNL     1      -6.771   5.351   0.727  1.00  0.00     0.031 A 
HETATM   13  C4  UNL     1      -7.460   6.223   1.569  1.00  0.00     0.028 A 
HETATM   14  C5  UNL     1      -6.786   6.980   2.493  1.00  0.00     0.055 A 
HETATM   15 CL1  UNL     1      -7.630   8.090   3.567  1.00  0.00    -0.083 Cl
HETATM   16  C6  UNL     1      -5.422   6.840   2.548  1.00  0.00     0.058 A 
HETATM   17 CL2  UNL     1      -4.517   7.807   3.725  1.00  0.00    -0.082 Cl
HETATM   18  C7  UNL     1      -4.745   5.987   1.726  1.00  0.00     0.055 A 
ENDBRANCH   9  11
ENDBRANCH   1   7
BRANCH   6  19
HETATM   19  C22 UNL     1      -4.139   0.630  -0.273  1.00  0.00     0.164 C 
HETATM   20  O2  UNL     1      -3.559  -0.204   0.513  1.00  0.00    -0.292 OA
BRANCH  19  21
HETATM   21  C23 UNL     1      -5.582   0.626  -0.185  1.00  0.00     0.060 C 
HETATM   22  C24 UNL     1      -6.215   1.165  -1.440  1.00  0.00     0.012 C 
HETATM   23  C25 UNL     1      -7.614   0.511  -1.477  1.00  0.00     0.001 C 
HETATM   24  C26 UNL     1      -8.320   0.963  -0.238  1.00  0.00     0.000 C 
HETATM   25  C27 UNL     1      -7.520   1.867   0.657  1.00  0.00     0.001 C 
HETATM   26  C28 UNL     1      -6.186   1.233   1.056  1.00  0.00     0.012 C 
ENDBRANCH  19  21
ENDBRANCH   6  19
BRANCH   3  27
HETATM   27  N2  UNL     1      -0.380   3.546  -3.423  1.00  0.00    -0.371 N 
HETATM   28  C11 UNL     1       0.997   3.730  -2.920  1.00  0.00     0.124 C 
HETATM   29  C12 UNL     1       1.847   3.851  -4.157  1.00  0.00     0.022 C 
HETATM   30  C13 UNL     1       0.886   3.675  -5.310  1.00  0.00     0.033 C 
HETATM   31  C14 UNL     1      -0.419   4.162  -4.684  1.00  0.00     0.033 C 
HETATM   32  C15 UNL     1      -1.596   3.948  -5.562  1.00  0.00     0.031 C 
HETATM   33  C18 UNL     1      -0.328   5.671  -4.473  1.00  0.00     0.031 C 
HETATM   34  C16 UNL     1      -1.583   5.178  -6.470  1.00  0.00     0.002 C 
HETATM   35  C17 UNL     1      -1.157   6.289  -5.540  1.00  0.00     0.002 C 
ENDBRANCH   3  27
TORSDOF 5
ENDMDL
MODEL 2
REMARK VINA RESULT: -8.814384581      1.183      2.065
REMARK  5 active torsions:
REMARK  status: ('A' for Active; 'I' for Inactive)
REMARK       I    between atoms: C1_2  and  N1_3 
REMARK    1  A    between atoms: C1_2  and  C8_13 
REMARK    2  A    between atoms: N1_3  and  C2_5 
REMARK    3  A    between atoms: C10_15  and  N2_16 
REMARK    4  A    between atoms: C21_27  and  C22_28 
REMARK    5  A    between atoms: C22_28  and  C23_30 
ROOT
HETATM    1  C8  UNL     1      -3.363   3.506  -1.877  1.00  0.00     0.048 A 
HETATM    2  C9  UNL     1      -2.589   4.047  -2.925  1.00  0.00     0.047 A 
HETATM    3  C10 UNL     1      -1.860   3.271  -3.774  1.00  0.00     0.031 A 
HETATM    4  C19 UNL     1      -1.943   1.897  -3.525  1.00  0.00     0.030 A 
HETATM    5  C20 UNL     1      -2.678   1.341  -2.523  1.00  0.00     0.018 A 
HETATM    6  C21 UNL     1      -3.411   2.162  -1.665  1.00  0.00     0.026 A 
ENDROOT
BRANCH   1   7
HETATM    7  C1  UNL     1      -4.199   4.512  -1.173  1.00  0.00     0.257 C 
HETATM    8  O1  UNL     1      -4.675   5.424  -1.868  1.00  0.00    -0.267 OA
HETATM    9  N1  UNL     1      -4.439   4.413   0.193  1.00  0.00    -0.323 N 
ATOM     10  H1  UNL     1      -4.000   3.626   0.670  1.00  0.00     0.169 HD
BRANCH   9  11
HETATM   11  C2  UNL     1      -5.219   5.271   0.998  1.00  0.00     0.036 A 
HETATM   12  C3  UNL     1      -6.578   5.422   0.861  1.00  0.00     0.031 A 
HETATM   13  C4  UNL     1      -7.316   6.303   1.648  1.00  0.00     0.028 A 
HETATM   14  C5  UNL     1      -6.701   7.066   2.608  1.00  0.00     0.055 A 
HETATM   15 CL1  UNL     1      -7.609   8.188   3.616  1.00  0.00    -0.083 Cl
HETATM   16  C6  UNL     1      -5.343   6.922   2.753  1.00  0.00     0.058 A 
HETATM   17 CL2  UNL     1      -4.513   7.896   3.979  1.00  0.00    -0.082 Cl
HETATM   18  C7  UNL     1      -4.618   6.060   1.983  1.00  0.00     0.055 A 
ENDBRANCH   9  11
ENDBRANCH   1   7
BRANCH   6  19
HETATM   19  C22 UNL     1      -4.097   1.592  -0.514  1.00  0.00     0.164 C 
HETATM   20  O2  UNL     1      -3.394   1.454   0.553  1.00  0.00    -0.292 OA
BRANCH  19  21
HETATM   21  C23 UNL     1      -5.466   1.144  -0.387  1.00  0.00     0.060 C 
HETATM   22  C24 UNL     1      -6.285   1.517  -1.593  1.00  0.00     0.012 C 
HETATM   23  C25 UNL     1      -7.420   0.470  -1.629  1.00  0.00     0.001 C 
HETATM   24  C26 UNL     1      -8.176   0.631  -0.348  1.00  0.00     0.000 C 
HETATM   25  C27 UNL     1      -7.652   1.696   0.573  1.00  0.00     0.001 C 
HETATM   26  C28 UNL     1      -6.173   1.484   0.900  1.00  0.00     0.012 C 
ENDBRANCH  19  21
ENDBRANCH   6  19
BRANCH   3  27
HETATM   27  N2  UNL     1      -1.041   3.765  -4.814  1.00  0.00    -0.371 N 
HETATM   28  C11 UNL     1      -1.623   4.436  -5.994  1.00  0.00     0.124 C 
HETATM   29  C12 UNL     1      -0.529   5.336  -6.506  1.00  0.00     0.022 C 
HETATM   30  C13 UNL     1       0.614   5.154  -5.533  1.00  0.00     0.033 C 
HETATM   31  C14 UNL     1       0.347   3.738  -5.027  1.00  0.00     0.033 C 
HETATM   32  C15 UNL     1       1.245   3.343  -3.914  1.00  0.00     0.031 C 
HETATM   33  C18 UNL     1       0.629   2.752  -6.157  1.00  0.00     0.031 C 
HETATM   34  C16 UNL     1       2.497   2.840  -4.636  1.00  0.00     0.002 C 
HETATM   35  C17 UNL     1       1.933   2.116  -5.836  1.00  0.00     0.002 C 
ENDBRANCH   3  27
TORSDOF 5
ENDMDL
MODEL 3
REMARK VINA RESULT: -8.593554731      0.944      1.279
REMARK  5 active torsions:
REMARK  status: ('A' for Active; 'I' for Inactive)
REMARK       I    between atoms: C1_2  and  N1_3 
REMARK    1  A    between atoms: C1_2  and  C8_13 
REMARK    2  A    between atoms: N1_3  and  C2_5 
REMARK    3  A    between atoms: C10_15  and  N2_16 
REMARK    4  A    between atoms: C21_27  and  C22_28 
REMARK    5  A    between atoms: C22_28  and  C23_30 
ROOT
HETATM    1  C8  UNL     1      -3.231   3.269  -1.694  1.00  0.00     0.048 A 
HETATM    2  C9  UNL     1      -2.208   3.824  -2.491  1.00  0.00     0.047 A 
HETATM    3  C10 UNL     1      -1.380   3.062  -3.258  1.00  0.00     0.031 A 
HETATM    4  C19 UNL     1      -1.628   1.687  -3.194  1.00  0.00     0.030 A 
HETATM    5  C20 UNL     1      -2.604   1.116  -2.436  1.00  0.00     0.018 A 
HETATM    6  C21 UNL     1      -3.434   1.922  -1.655  1.00  0.00     0.026 A 
ENDROOT
BRANCH   1   7
HETATM    7  C1  UNL     1      -4.112   4.283  -1.063  1.00  0.00     0.257 C 
HETATM    8  O1  UNL     1      -4.673   5.085  -1.826  1.00  0.00    -0.267 OA
HETATM    9  N1  UNL     1      -4.300   4.311   0.315  1.00  0.00    -0.323 N 
ATOM     10  H1  UNL     1      -3.791   3.609   0.852  1.00  0.00     0.169 HD
BRANCH   9  11
HETATM   11  C2  UNL     1      -5.112   5.193   1.059  1.00  0.00     0.036 A 
HETATM   12  C3  UNL     1      -6.462   5.344   0.857  1.00  0.00     0.031 A 
HETATM   13  C4  UNL     1      -7.232   6.249   1.586  1.00  0.00     0.028 A 
HETATM   14  C5  UNL     1      -6.657   7.038   2.550  1.00  0.00     0.055 A 
HETATM   15 CL1  UNL     1      -7.605   8.191   3.483  1.00  0.00    -0.083 Cl
HETATM   16  C6  UNL     1      -5.308   6.895   2.760  1.00  0.00     0.058 A 
HETATM   17 CL2  UNL     1      -4.530   7.901   3.993  1.00  0.00    -0.082 Cl
HETATM   18  C7  UNL     1      -4.553   6.009   2.048  1.00  0.00     0.055 A 
ENDBRANCH   9  11
ENDBRANCH   1   7
BRANCH   6  19
HETATM   19  C22 UNL     1      -4.395   1.319  -0.743  1.00  0.00     0.164 C 
HETATM   20  O2  UNL     1      -3.910   0.539   0.156  1.00  0.00    -0.292 OA
BRANCH  19  21
HETATM   21  C23 UNL     1      -5.834   1.459  -0.696  1.00  0.00     0.060 C 
HETATM   22  C24 UNL     1      -6.383   1.086   0.655  1.00  0.00     0.012 C 
HETATM   23  C25 UNL     1      -7.705   1.877   0.765  1.00  0.00     0.001 C 
HETATM   24  C26 UNL     1      -8.571   1.401  -0.358  1.00  0.00     0.000 C 
HETATM   25  C27 UNL     1      -7.952   0.354  -1.241  1.00  0.00     0.001 C 
HETATM   26  C28 UNL     1      -6.613   0.819  -1.816  1.00  0.00     0.012 C 
ENDBRANCH  19  21
ENDBRANCH   6  19
BRANCH   3  27
HETATM   27  N2  UNL     1      -0.320   3.565  -4.044  1.00  0.00    -0.371 N 
HETATM   28  C11 UNL     1       1.089   3.387  -3.634  1.00  0.00     0.124 C 
HETATM   29  C12 UNL     1       1.875   3.446  -4.917  1.00  0.00     0.022 C 
HETATM   30  C13 UNL     1       0.837   3.607  -6.004  1.00  0.00     0.033 C 
HETATM   31  C14 UNL     1      -0.287   4.302  -5.238  1.00  0.00     0.033 C 
HETATM   32  C15 UNL     1      -1.528   4.445  -6.039  1.00  0.00     0.031 C 
HETATM   33  C18 UNL     1       0.156   5.724  -4.902  1.00  0.00     0.031 C 
HETATM   34  C16 UNL     1      -1.286   5.730  -6.833  1.00  0.00     0.002 C 
HETATM   35  C17 UNL     1      -0.569   6.616  -5.843  1.00  0.00     0.002 C 
ENDBRANCH   3  27
TORSDOF 5
ENDMDL
MODEL 4
REMARK VINA RESULT: -8.513780529      1.123      1.534
REMARK  5 active torsions:
REMARK  status: ('A' for Active; 'I' for Inactive)
REMARK       I    between atoms: C1_2  and  N1_3 
REMARK    1  A    between atoms: C1_2  and  C8_13 
REMARK    2  A    between atoms: N1_3  and  C2_5 
REMARK    3  A    between atoms: C10_15  and  N2_16 
REMARK    4  A    between atoms: C21_27  and  C22_28 
REMARK    5  A    between atoms: C22_28  and  C23_30 
ROOT
HETATM    1  C8  UNL     1      -2.983   2.715  -1.422  1.00  0.00     0.048 A 
HETATM    2  C9  UNL     1      -2.032   3.171  -2.359  1.00  0.00     0.047 A 
HETATM    3  C10 UNL     1      -1.310   2.324  -3.144  1.00  0.00     0.031 A 
HETATM    4  C19 UNL     1      -1.591   0.967  -2.948  1.00  0.00     0.030 A 
HETATM    5  C20 UNL     1      -2.500   0.491  -2.054  1.00  0.00     0.018 A 
HETATM    6  C21 UNL     1      -3.221   1.383  -1.259  1.00  0.00     0.026 A 
ENDROOT
BRANCH   1   7
HETATM    7  C1  UNL     1      -3.765   3.805  -0.787  1.00  0.00     0.257 C 
HETATM    8  O1  UNL     1      -4.664   4.318  -1.473  1.00  0.00    -0.267 OA
HETATM    9  N1  UNL     1      -3.501   4.210   0.517  1.00  0.00    -0.323 N 
ATOM     10  H1  UNL     1      -2.740   3.725   0.992  1.00  0.00     0.169 HD
BRANCH   9  11
HETATM   11  C2  UNL     1      -4.160   5.212   1.262  1.00  0.00     0.036 A 
HETATM   12  C3  UNL     1      -3.643   5.783   2.399  1.00  0.00     0.031 A 
HETATM   13  C4  UNL     1      -4.333   6.746   3.133  1.00  0.00     0.028 A 
HETATM   14  C5  UNL     1      -5.578   7.167   2.738  1.00  0.00     0.055 A 
HETATM   15 CL1  UNL     1      -6.472   8.381   3.647  1.00  0.00    -0.083 Cl
HETATM   16  C6  UNL     1      -6.103   6.602   1.602  1.00  0.00     0.058 A 
HETATM   17 CL2  UNL     1      -7.711   7.116   1.065  1.00  0.00    -0.082 Cl
HETATM   18  C7  UNL     1      -5.429   5.659   0.882  1.00  0.00     0.055 A 
ENDBRANCH   9  11
ENDBRANCH   1   7
BRANCH   6  19
HETATM   19  C22 UNL     1      -4.100   0.886  -0.211  1.00  0.00     0.164 C 
HETATM   20  O2  UNL     1      -3.526   0.459   0.856  1.00  0.00    -0.292 OA
BRANCH  19  21
HETATM   21  C23 UNL     1      -5.543   0.789  -0.188  1.00  0.00     0.060 C 
HETATM   22  C24 UNL     1      -6.141   1.128  -1.528  1.00  0.00     0.012 C 
HETATM   23  C25 UNL     1      -7.490   0.376  -1.549  1.00  0.00     0.001 C 
HETATM   24  C26 UNL     1      -8.290   0.921  -0.408  1.00  0.00     0.000 C 
HETATM   25  C27 UNL     1      -7.600   1.981   0.404  1.00  0.00     0.001 C 
HETATM   26  C28 UNL     1      -6.252   1.496   0.939  1.00  0.00     0.012 C 
ENDBRANCH  19  21
ENDBRANCH   6  19
BRANCH   3  27
HETATM   27  N2  UNL     1      -0.322   2.727  -4.068  1.00  0.00    -0.371 N 
HETATM   28  C11 UNL     1       1.090   2.324  -3.905  1.00  0.00     0.124 C 
HETATM   29  C12 UNL     1       1.666   2.363  -5.296  1.00  0.00     0.022 C 
HETATM   30  C13 UNL     1       0.508   2.746  -6.188  1.00  0.00     0.033 C 
HETATM   31  C14 UNL     1      -0.365   3.536  -5.215  1.00  0.00     0.033 C 
HETATM   32  C15 UNL     1      -1.680   3.910  -5.792  1.00  0.00     0.031 C 
HETATM   33  C18 UNL     1       0.334   4.853  -4.888  1.00  0.00     0.031 C 
HETATM   34  C16 UNL     1      -1.374   5.202  -6.553  1.00  0.00     0.002 C 
HETATM   35  C17 UNL     1      -0.386   5.904  -5.653  1.00  0.00     0.002 C 
ENDBRANCH   3  27
TORSDOF 5
ENDMDL
MODEL 5
REMARK VINA RESULT: -8.239868333      3.780      7.608
REMARK  5 active torsions:
REMARK  status: ('A' for Active; 'I' for Inactive)
REMARK       I    between atoms: C1_2  and  N1_3 
REMARK    1  A    between atoms: C1_2  and  C8_13 
REMARK    2  A    between atoms: N1_3  and  C2_5 
REMARK    3  A    between atoms: C10_15  and  N2_16 
REMARK    4  A    between atoms: C21_27  and  C22_28 
REMARK    5  A    between atoms: C22_28  and  C23_30 
ROOT
HETATM    1  C8  UNL     1      -4.150   4.700   1.047  1.00  0.00     0.048 A 
HETATM    2  C9  UNL     1      -3.690   5.557   2.068  1.00  0.00     0.047 A 
HETATM    3  C10 UNL     1      -4.461   6.544   2.601  1.00  0.00     0.031 A 
HETATM    4  C19 UNL     1      -5.747   6.636   2.057  1.00  0.00     0.030 A 
HETATM    5  C20 UNL     1      -6.225   5.828   1.072  1.00  0.00     0.018 A 
HETATM    6  C21 UNL     1      -5.408   4.828   0.540  1.00  0.00     0.026 A 
ENDROOT
BRANCH   1   7
HETATM    7  C1  UNL     1      -3.208   3.599   0.722  1.00  0.00     0.257 C 
HETATM    8  O1  UNL     1      -2.690   3.008   1.683  1.00  0.00    -0.267 OA
HETATM    9  N1  UNL     1      -2.941   3.252  -0.598  1.00  0.00    -0.323 N 
ATOM     10  H1  UNL     1      -3.417   3.802  -1.312  1.00  0.00     0.169 HD
BRANCH   9  11
HETATM   11  C2  UNL     1      -2.090   2.228  -1.067  1.00  0.00     0.036 A 
HETATM   12  C3  UNL     1      -0.822   2.448  -1.546  1.00  0.00     0.031 A 
HETATM   13  C4  UNL     1      -0.017   1.421  -2.035  1.00  0.00     0.028 A 
HETATM   14  C5  UNL     1      -0.472   0.127  -2.055  1.00  0.00     0.055 A 
HETATM   15 CL1  UNL     1       0.522  -1.190  -2.668  1.00  0.00    -0.083 Cl
HETATM   16  C6  UNL     1      -1.738  -0.104  -1.578  1.00  0.00     0.058 A 
HETATM   17 CL2  UNL     1      -2.362  -1.762  -1.593  1.00  0.00    -0.082 Cl
HETATM   18  C7  UNL     1      -2.528   0.900  -1.098  1.00  0.00     0.055 A 
ENDBRANCH   9  11
ENDBRANCH   1   7
BRANCH   6  19
HETATM   19  C22 UNL     1      -5.859   4.043  -0.599  1.00  0.00     0.164 C 
HETATM   20  O2  UNL     1      -5.414   4.404  -1.749  1.00  0.00    -0.292 OA
BRANCH  19  21
HETATM   21  C23 UNL     1      -6.750   2.903  -0.638  1.00  0.00     0.060 C 
HETATM   22  C24 UNL     1      -6.664   2.091   0.627  1.00  0.00     0.012 C 
HETATM   23  C25 UNL     1      -8.035   1.388   0.727  1.00  0.00     0.001 C 
HETATM   24  C26 UNL     1      -8.158   0.536  -0.497  1.00  0.00     0.000 C 
HETATM   25  C27 UNL     1      -6.989   0.601  -1.439  1.00  0.00     0.001 C 
HETATM   26  C28 UNL     1      -6.688   2.037  -1.869  1.00  0.00     0.012 C 
ENDBRANCH  19  21
ENDBRANCH   6  19
BRANCH   3  27
HETATM   27  N2  UNL     1      -4.036   7.451   3.597  1.00  0.00    -0.371 N 
HETATM   28  C11 UNL     1      -4.209   7.149   5.033  1.00  0.00     0.124 C 
HETATM   29  C12 UNL     1      -3.137   7.946   5.728  1.00  0.00     0.022 C 
HETATM   30  C13 UNL     1      -2.373   8.627   4.615  1.00  0.00     0.033 C 
HETATM   31  C14 UNL     1      -3.449   8.725   3.536  1.00  0.00     0.033 C 
HETATM   32  C15 UNL     1      -2.924   9.222   2.240  1.00  0.00     0.031 C 
HETATM   33  C18 UNL     1      -4.495   9.745   3.978  1.00  0.00     0.031 C 
HETATM   34  C16 UNL     1      -2.964  10.743   2.406  1.00  0.00     0.002 C 
HETATM   35  C17 UNL     1      -4.243  10.970   3.176  1.00  0.00     0.002 C 
ENDBRANCH   3  27
TORSDOF 5
ENDMDL
