MODEL 1
REMARK VINA RESULT: -7.835497097      0.000      0.000
REMARK  8 active torsions:
REMARK  status: ('A' for Active; 'I' for Inactive)
REMARK       I    between atoms: C1_2  and  N1_3 
REMARK    1  A    between atoms: C1_2  and  C28_40 
REMARK    2  A    between atoms: N1_3  and  C2_5 
REMARK    3  A    between atoms: C5_8  and  C6_9 
REMARK       I    between atoms: C6_9  and  N2_11 
REMARK    4  A    between atoms: N3_16  and  C11_17 
REMARK    5  A    between atoms: C11_17  and  C12_18 
REMARK    6  A    between atoms: N4_27  and  C19_28 
REMARK    7  A    between atoms: C19_28  and  O4_29 
REMARK    8  A    between atoms: C19_28  and  C20_31 
ROOT
HETATM    1  C6  UNL     1     -14.151  -8.557   3.234  1.00  0.00     0.226 C 
HETATM    2  O2  UNL     1     -14.683  -7.675   2.528  1.00  0.00    -0.273 OA
HETATM    3  N2  UNL     1     -13.195  -9.495   2.689  1.00  0.00    -0.317 N 
HETATM    4  C7  UNL     1     -12.714 -10.490   3.590  1.00  0.00     0.170 C 
HETATM    5  C8  UNL     1     -11.425 -11.096   3.036  1.00  0.00     0.133 C 
HETATM    6  C9  UNL     1     -10.961 -12.145   3.968  1.00  0.00     0.063 C 
HETATM    7  C10 UNL     1      -9.443 -12.111   3.909  1.00  0.00     0.129 C 
HETATM    8  N3  UNL     1      -9.129 -10.751   3.502  1.00  0.00    -0.345 N 
HETATM    9  C18 UNL     1     -10.331 -10.063   3.193  1.00  0.00     0.250 C 
HETATM   10  O3  UNL     1     -10.398  -8.821   3.086  1.00  0.00    -0.270 OA
HETATM   11  N4  UNL     1     -11.667 -11.400   1.679  1.00  0.00    -0.341 N 
HETATM   12  C24 UNL     1     -11.716 -10.163   0.828  1.00  0.00     0.185 C 
HETATM   13  C25 UNL     1     -12.845  -9.303   1.307  1.00  0.00     0.292 C 
HETATM   14  F2  UNL     1     -13.958  -9.399   0.461  1.00  0.00    -0.225 F 
ENDROOT
BRANCH   1  15
HETATM   15  C5  UNL     1     -14.542  -8.599   4.682  1.00  0.00     0.078 C 
HETATM   16  C4  UNL     1     -15.912  -9.217   4.759  1.00  0.00     0.016 C 
HETATM   17  C3  UNL     1     -16.624  -8.840   6.045  1.00  0.00     0.026 C 
HETATM   18  C2  UNL     1     -16.963  -7.366   6.048  1.00  0.00     0.084 C 
HETATM   19  C27 UNL     1     -16.116  -6.679   5.011  1.00  0.00     0.026 C 
HETATM   20  C26 UNL     1     -14.685  -7.159   5.196  1.00  0.00     0.016 C 
BRANCH  18  21
HETATM   21  N1  UNL     1     -18.357  -7.124   5.760  1.00  0.00    -0.356 N 
HETATM   22  C1  UNL     1     -19.109  -6.105   6.379  1.00  0.00     0.222 C 
HETATM   23  O1  UNL     1     -18.497  -5.382   7.227  1.00  0.00    -0.273 OA
ATOM     24  H1  UNL     1     -18.821  -7.721   5.075  1.00  0.00     0.162 HD
BRANCH  22  25
HETATM   25  C28 UNL     1     -20.524  -5.888   6.062  1.00  0.00     0.078 C 
HETATM   26  C29 UNL     1     -21.304  -5.100   7.115  1.00  0.00     0.014 C 
HETATM   27  C30 UNL     1     -21.994  -4.374   5.965  1.00  0.00     0.002 C 
HETATM   28  C31 UNL     1     -20.748  -4.706   5.142  1.00  0.00     0.014 C 
ENDBRANCH  22  25
ENDBRANCH  18  21
ENDBRANCH   1  15
BRANCH  11  29
HETATM   29  C19 UNL     1     -11.901 -12.586   1.028  1.00  0.00     0.118 C 
BRANCH  29  30
HETATM   30  O4  UNL     1     -13.009 -13.197   1.378  1.00  0.00    -0.349 OA
ATOM     31  H4  UNL     1     -13.755 -12.624   1.513  1.00  0.00     0.219 HD
ENDBRANCH  29  30
BRANCH  29  32
HETATM   32  C20 UNL     1     -11.154 -13.325   0.009  1.00  0.00     0.060 C 
HETATM   33  C21 UNL     1      -9.689 -13.638   0.446  1.00  0.00     0.013 C 
HETATM   34  C22 UNL     1      -9.842 -14.915  -0.349  1.00  0.00     0.002 C 
HETATM   35  C23 UNL     1     -11.314 -14.830  -0.017  1.00  0.00     0.013 C 
ENDBRANCH  29  32
ENDBRANCH  11  29
BRANCH   8  36
HETATM   36  C11 UNL     1      -7.763 -10.261   3.465  1.00  0.00     0.167 C 
BRANCH  36  37
HETATM   37  C12 UNL     1      -7.233 -10.389   2.071  1.00  0.00    -0.002 A 
HETATM   38  C13 UNL     1      -6.730 -11.592   1.587  1.00  0.00     0.012 A 
HETATM   39  C14 UNL     1      -6.258 -11.668   0.296  1.00  0.00     0.001 A 
HETATM   40  C15 UNL     1      -6.263 -10.583  -0.551  1.00  0.00     0.003 A 
HETATM   41  C16 UNL     1      -6.761  -9.377  -0.087  1.00  0.00     0.043 A 
HETATM   42  C17 UNL     1      -7.237  -9.313   1.225  1.00  0.00     0.124 A 
HETATM   43  F1  UNL     1      -7.733  -8.127   1.694  1.00  0.00    -0.205 F 
ENDBRANCH  36  37
ENDBRANCH   8  36
TORSDOF 8
ENDMDL
MODEL 2
REMARK VINA RESULT: -7.775590728      1.752      2.319
REMARK  8 active torsions:
REMARK  status: ('A' for Active; 'I' for Inactive)
REMARK       I    between atoms: C1_2  and  N1_3 
REMARK    1  A    between atoms: C1_2  and  C28_40 
REMARK    2  A    between atoms: N1_3  and  C2_5 
REMARK    3  A    between atoms: C5_8  and  C6_9 
REMARK       I    between atoms: C6_9  and  N2_11 
REMARK    4  A    between atoms: N3_16  and  C11_17 
REMARK    5  A    between atoms: C11_17  and  C12_18 
REMARK    6  A    between atoms: N4_27  and  C19_28 
REMARK    7  A    between atoms: C19_28  and  O4_29 
REMARK    8  A    between atoms: C19_28  and  C20_31 
ROOT
HETATM    1  C6  UNL     1     -14.463  -8.417   3.756  1.00  0.00     0.226 C 
HETATM    2  O2  UNL     1     -14.900  -7.257   3.612  1.00  0.00    -0.273 OA
HETATM    3  N2  UNL     1     -13.579  -9.024   2.784  1.00  0.00    -0.317 N 
HETATM    4  C7  UNL     1     -13.206 -10.377   3.040  1.00  0.00     0.170 C 
HETATM    5  C8  UNL     1     -11.963 -10.723   2.222  1.00  0.00     0.133 C 
HETATM    6  C9  UNL     1     -11.612 -12.136   2.477  1.00  0.00     0.063 C 
HETATM    7  C10 UNL     1     -10.096 -12.207   2.406  1.00  0.00     0.129 C 
HETATM    8  N3  UNL     1      -9.657 -10.863   2.741  1.00  0.00    -0.345 N 
HETATM    9  C18 UNL     1     -10.787 -10.013   2.856  1.00  0.00     0.250 C 
HETATM   10  O3  UNL     1     -10.744  -8.890   3.400  1.00  0.00    -0.270 OA
HETATM   11  N4  UNL     1     -12.200 -10.271   0.906  1.00  0.00    -0.341 N 
HETATM   12  C24 UNL     1     -12.123  -8.774   0.806  1.00  0.00     0.185 C 
HETATM   13  C25 UNL     1     -13.184  -8.185   1.686  1.00  0.00     0.292 C 
HETATM   14  F2  UNL     1     -14.282  -7.740   0.937  1.00  0.00    -0.225 F 
ENDROOT
BRANCH   1  15
HETATM   15  C5  UNL     1     -14.888  -9.158   4.989  1.00  0.00     0.078 C 
HETATM   16  C4  UNL     1     -16.338  -9.521   4.818  1.00  0.00     0.016 C 
HETATM   17  C3  UNL     1     -17.013  -9.779   6.153  1.00  0.00     0.026 C 
HETATM   18  C2  UNL     1     -17.119  -8.496   6.948  1.00  0.00     0.084 C 
HETATM   19  C27 UNL     1     -16.152  -7.496   6.372  1.00  0.00     0.026 C 
HETATM   20  C26 UNL     1     -14.817  -8.201   6.188  1.00  0.00     0.016 C 
BRANCH  18  21
HETATM   21  N1  UNL     1     -18.451  -7.942   6.917  1.00  0.00    -0.356 N 
HETATM   22  C1  UNL     1     -18.827  -6.791   7.640  1.00  0.00     0.222 C 
HETATM   23  O1  UNL     1     -17.922  -6.241   8.343  1.00  0.00    -0.273 OA
ATOM     24  H1  UNL     1     -19.156  -8.406   6.344  1.00  0.00     0.162 HD
BRANCH  22  25
HETATM   25  C28 UNL     1     -20.191  -6.256   7.584  1.00  0.00     0.078 C 
HETATM   26  C29 UNL     1     -20.290  -4.802   7.120  1.00  0.00     0.014 C 
HETATM   27  C30 UNL     1     -21.517  -5.213   6.314  1.00  0.00     0.002 C 
HETATM   28  C31 UNL     1     -20.915  -6.619   6.305  1.00  0.00     0.014 C 
ENDBRANCH  22  25
ENDBRANCH  18  21
ENDBRANCH   1  15
BRANCH  11  29
HETATM   29  C19 UNL     1     -12.521 -10.934  -0.252  1.00  0.00     0.118 C 
BRANCH  29  30
HETATM   30  O4  UNL     1     -11.716 -10.699  -1.262  1.00  0.00    -0.349 OA
ATOM     31  H4  UNL     1     -12.152 -10.478  -2.076  1.00  0.00     0.219 HD
ENDBRANCH  29  30
BRANCH  29  32
HETATM   32  C20 UNL     1     -13.598 -11.862  -0.600  1.00  0.00     0.060 C 
HETATM   33  C21 UNL     1     -14.985 -11.159  -0.718  1.00  0.00     0.013 C 
HETATM   34  C22 UNL     1     -15.284 -12.172  -1.799  1.00  0.00     0.002 C 
HETATM   35  C23 UNL     1     -13.796 -12.180  -2.067  1.00  0.00     0.013 C 
ENDBRANCH  29  32
ENDBRANCH  11  29
BRANCH   8  36
HETATM   36  C11 UNL     1      -8.253 -10.542   2.925  1.00  0.00     0.167 C 
BRANCH  36  37
HETATM   37  C12 UNL     1      -7.824  -9.585   1.856  1.00  0.00    -0.002 A 
HETATM   38  C13 UNL     1      -7.651  -8.230   2.113  1.00  0.00     0.012 A 
HETATM   39  C14 UNL     1      -7.249  -7.386   1.102  1.00  0.00     0.001 A 
HETATM   40  C15 UNL     1      -7.008  -7.837  -0.176  1.00  0.00     0.003 A 
HETATM   41  C16 UNL     1      -7.175  -9.184  -0.451  1.00  0.00     0.043 A 
HETATM   42  C17 UNL     1      -7.583 -10.029   0.583  1.00  0.00     0.124 A 
HETATM   43  F1  UNL     1      -7.751 -11.362   0.325  1.00  0.00    -0.205 F 
ENDBRANCH  36  37
ENDBRANCH   8  36
TORSDOF 8
ENDMDL
MODEL 3
REMARK VINA RESULT: -7.732372862      1.573      1.998
REMARK  8 active torsions:
REMARK  status: ('A' for Active; 'I' for Inactive)
REMARK       I    between atoms: C1_2  and  N1_3 
REMARK    1  A    between atoms: C1_2  and  C28_40 
REMARK    2  A    between atoms: N1_3  and  C2_5 
REMARK    3  A    between atoms: C5_8  and  C6_9 
REMARK       I    between atoms: C6_9  and  N2_11 
REMARK    4  A    between atoms: N3_16  and  C11_17 
REMARK    5  A    between atoms: C11_17  and  C12_18 
REMARK    6  A    between atoms: N4_27  and  C19_28 
REMARK    7  A    between atoms: C19_28  and  O4_29 
REMARK    8  A    between atoms: C19_28  and  C20_31 
ROOT
HETATM    1  C6  UNL     1     -14.492  -8.436   3.846  1.00  0.00     0.226 C 
HETATM    2  O2  UNL     1     -14.904  -7.266   3.706  1.00  0.00    -0.273 OA
HETATM    3  N2  UNL     1     -13.590  -9.045   2.894  1.00  0.00    -0.317 N 
HETATM    4  C7  UNL     1     -13.249 -10.408   3.141  1.00  0.00     0.170 C 
HETATM    5  C8  UNL     1     -11.987 -10.765   2.357  1.00  0.00     0.133 C 
HETATM    6  C9  UNL     1     -11.670 -12.188   2.601  1.00  0.00     0.063 C 
HETATM    7  C10 UNL     1     -10.154 -12.286   2.577  1.00  0.00     0.129 C 
HETATM    8  N3  UNL     1      -9.702 -10.955   2.946  1.00  0.00    -0.345 N 
HETATM    9  C18 UNL     1     -10.820 -10.086   3.038  1.00  0.00     0.250 C 
HETATM   10  O3  UNL     1     -10.773  -8.973   3.600  1.00  0.00    -0.270 OA
HETATM   11  N4  UNL     1     -12.175 -10.290   1.041  1.00  0.00    -0.341 N 
HETATM   12  C24 UNL     1     -12.067  -8.793   0.966  1.00  0.00     0.185 C 
HETATM   13  C25 UNL     1     -13.145  -8.198   1.821  1.00  0.00     0.292 C 
HETATM   14  F2  UNL     1     -14.210  -7.722   1.045  1.00  0.00    -0.225 F 
ENDROOT
BRANCH   1  15
HETATM   15  C5  UNL     1     -14.970  -9.187   5.054  1.00  0.00     0.078 C 
HETATM   16  C4  UNL     1     -16.423  -9.511   4.836  1.00  0.00     0.016 C 
HETATM   17  C3  UNL     1     -17.140  -9.775   6.147  1.00  0.00     0.026 C 
HETATM   18  C2  UNL     1     -17.238  -8.503   6.961  1.00  0.00     0.084 C 
HETATM   19  C27 UNL     1     -16.233  -7.518   6.430  1.00  0.00     0.026 C 
HETATM   20  C26 UNL     1     -14.910  -8.251   6.271  1.00  0.00     0.016 C 
BRANCH  18  21
HETATM   21  N1  UNL     1     -18.556  -7.917   6.902  1.00  0.00    -0.356 N 
HETATM   22  C1  UNL     1     -18.931  -6.781   7.650  1.00  0.00     0.222 C 
HETATM   23  O1  UNL     1     -18.039  -6.275   8.401  1.00  0.00    -0.273 OA
ATOM     24  H1  UNL     1     -19.250  -8.345   6.290  1.00  0.00     0.162 HD
BRANCH  22  25
HETATM   25  C28 UNL     1     -20.279  -6.212   7.565  1.00  0.00     0.078 C 
HETATM   26  C29 UNL     1     -20.333  -4.758   7.093  1.00  0.00     0.014 C 
HETATM   27  C30 UNL     1     -21.554  -5.141   6.264  1.00  0.00     0.002 C 
HETATM   28  C31 UNL     1     -20.987  -6.562   6.273  1.00  0.00     0.014 C 
ENDBRANCH  22  25
ENDBRANCH  18  21
ENDBRANCH   1  15
BRANCH  11  29
HETATM   29  C19 UNL     1     -12.471 -10.930  -0.136  1.00  0.00     0.118 C 
BRANCH  29  30
HETATM   30  O4  UNL     1     -11.629 -10.697  -1.116  1.00  0.00    -0.349 OA
ATOM     31  H4  UNL     1     -10.940 -11.344  -1.212  1.00  0.00     0.219 HD
ENDBRANCH  29  30
BRANCH  29  32
HETATM   32  C20 UNL     1     -13.553 -11.833  -0.532  1.00  0.00     0.060 C 
HETATM   33  C21 UNL     1     -14.924 -11.103  -0.673  1.00  0.00     0.013 C 
HETATM   34  C22 UNL     1     -15.211 -12.089  -1.782  1.00  0.00     0.002 C 
HETATM   35  C23 UNL     1     -13.717 -12.117  -2.010  1.00  0.00     0.013 C 
ENDBRANCH  29  32
ENDBRANCH  11  29
BRANCH   8  36
HETATM   36  C11 UNL     1      -8.299 -10.663   3.179  1.00  0.00     0.167 C 
BRANCH  36  37
HETATM   37  C12 UNL     1      -7.580 -10.631   1.866  1.00  0.00    -0.002 A 
HETATM   38  C13 UNL     1      -6.813 -11.705   1.426  1.00  0.00     0.012 A 
HETATM   39  C14 UNL     1      -6.174 -11.636   0.208  1.00  0.00     0.001 A 
HETATM   40  C15 UNL     1      -6.263 -10.530  -0.606  1.00  0.00     0.003 A 
HETATM   41  C16 UNL     1      -7.022  -9.451  -0.184  1.00  0.00     0.043 A 
HETATM   42  C17 UNL     1      -7.666  -9.533   1.053  1.00  0.00     0.124 A 
HETATM   43  F1  UNL     1      -8.421  -8.474   1.480  1.00  0.00    -0.205 F 
ENDBRANCH  36  37
ENDBRANCH   8  36
TORSDOF 8
ENDMDL
MODEL 4
REMARK VINA RESULT: -7.724397878      2.416      3.054
REMARK  8 active torsions:
REMARK  status: ('A' for Active; 'I' for Inactive)
REMARK       I    between atoms: C1_2  and  N1_3 
REMARK    1  A    between atoms: C1_2  and  C28_40 
REMARK    2  A    between atoms: N1_3  and  C2_5 
REMARK    3  A    between atoms: C5_8  and  C6_9 
REMARK       I    between atoms: C6_9  and  N2_11 
REMARK    4  A    between atoms: N3_16  and  C11_17 
REMARK    5  A    between atoms: C11_17  and  C12_18 
REMARK    6  A    between atoms: N4_27  and  C19_28 
REMARK    7  A    between atoms: C19_28  and  O4_29 
REMARK    8  A    between atoms: C19_28  and  C20_31 
ROOT
HETATM    1  C6  UNL     1     -14.700  -8.671   3.870  1.00  0.00     0.226 C 
HETATM    2  O2  UNL     1     -15.145  -7.506   3.934  1.00  0.00    -0.273 OA
HETATM    3  N2  UNL     1     -13.798  -9.085   2.818  1.00  0.00    -0.317 N 
HETATM    4  C7  UNL     1     -13.418 -10.459   2.828  1.00  0.00     0.170 C 
HETATM    5  C8  UNL     1     -12.160 -10.644   1.980  1.00  0.00     0.133 C 
HETATM    6  C9  UNL     1     -11.802 -12.078   1.977  1.00  0.00     0.063 C 
HETATM    7  C10 UNL     1     -10.285 -12.128   1.919  1.00  0.00     0.129 C 
HETATM    8  N3  UNL     1      -9.861 -10.865   2.503  1.00  0.00    -0.345 N 
HETATM    9  C18 UNL     1     -11.000 -10.056   2.753  1.00  0.00     0.250 C 
HETATM   10  O3  UNL     1     -10.973  -9.052   3.494  1.00  0.00    -0.270 OA
HETATM   11  N4  UNL     1     -12.381  -9.959   0.766  1.00  0.00    -0.341 N 
HETATM   12  C24 UNL     1     -12.314  -8.469   0.944  1.00  0.00     0.185 C 
HETATM   13  C25 UNL     1     -13.393  -8.057   1.898  1.00  0.00     0.292 C 
HETATM   14  F2  UNL     1     -14.482  -7.487   1.227  1.00  0.00    -0.225 F 
ENDROOT
BRANCH   1  15
HETATM   15  C5  UNL     1     -15.139  -9.627   4.939  1.00  0.00     0.078 C 
HETATM   16  C4  UNL     1     -16.589  -9.347   5.226  1.00  0.00     0.016 C 
HETATM   17  C3  UNL     1     -16.995  -9.845   6.601  1.00  0.00     0.026 C 
HETATM   18  C2  UNL     1     -16.316  -9.029   7.679  1.00  0.00     0.084 C 
HETATM   19  C27 UNL     1     -15.148  -8.304   7.066  1.00  0.00     0.026 C 
HETATM   20  C26 UNL     1     -14.370  -9.309   6.230  1.00  0.00     0.016 C 
BRANCH  18  21
HETATM   21  N1  UNL     1     -17.209  -8.068   8.283  1.00  0.00    -0.356 N 
HETATM   22  C1  UNL     1     -17.884  -8.298   9.499  1.00  0.00     0.222 C 
HETATM   23  O1  UNL     1     -17.672  -9.417  10.064  1.00  0.00    -0.273 OA
ATOM     24  H1  UNL     1     -17.359  -7.180   7.805  1.00  0.00     0.162 HD
BRANCH  22  25
HETATM   25  C28 UNL     1     -18.784  -7.299  10.083  1.00  0.00     0.078 C 
HETATM   26  C29 UNL     1     -18.082  -6.104  10.730  1.00  0.00     0.014 C 
HETATM   27  C30 UNL     1     -19.164  -5.221  10.117  1.00  0.00     0.002 C 
HETATM   28  C31 UNL     1     -19.317  -6.317   9.061  1.00  0.00     0.014 C 
ENDBRANCH  22  25
ENDBRANCH  18  21
ENDBRANCH   1  15
BRANCH  11  29
HETATM   29  C19 UNL     1     -12.679 -10.400  -0.499  1.00  0.00     0.118 C 
BRANCH  29  30
HETATM   30  O4  UNL     1     -11.637 -10.602  -1.272  1.00  0.00    -0.349 OA
ATOM     31  H4  UNL     1     -11.755 -11.275  -1.932  1.00  0.00     0.219 HD
ENDBRANCH  29  30
BRANCH  29  32
HETATM   32  C20 UNL     1     -13.943 -10.693  -1.178  1.00  0.00     0.060 C 
HETATM   33  C21 UNL     1     -13.782 -11.740  -2.322  1.00  0.00     0.013 C 
HETATM   34  C22 UNL     1     -15.174 -12.198  -1.950  1.00  0.00     0.002 C 
HETATM   35  C23 UNL     1     -14.845 -11.733  -0.549  1.00  0.00     0.013 C 
ENDBRANCH  29  32
ENDBRANCH  11  29
BRANCH   8  36
HETATM   36  C11 UNL     1      -8.463 -10.577   2.765  1.00  0.00     0.167 C 
BRANCH  36  37
HETATM   37  C12 UNL     1      -7.965  -9.595   1.750  1.00  0.00    -0.002 A 
HETATM   38  C13 UNL     1      -7.912  -8.231   2.016  1.00  0.00     0.012 A 
HETATM   39  C14 UNL     1      -7.440  -7.364   1.055  1.00  0.00     0.001 A 
HETATM   40  C15 UNL     1      -7.014  -7.799  -0.179  1.00  0.00     0.003 A 
HETATM   41  C16 UNL     1      -7.060  -9.153  -0.462  1.00  0.00     0.043 A 
HETATM   42  C17 UNL     1      -7.540 -10.023   0.521  1.00  0.00     0.124 A 
HETATM   43  F1  UNL     1      -7.589 -11.364   0.254  1.00  0.00    -0.205 F 
ENDBRANCH  36  37
ENDBRANCH   8  36
TORSDOF 8
ENDMDL
MODEL 5
REMARK VINA RESULT: -7.659842304      3.130      5.218
REMARK  8 active torsions:
REMARK  status: ('A' for Active; 'I' for Inactive)
REMARK       I    between atoms: C1_2  and  N1_3 
REMARK    1  A    between atoms: C1_2  and  C28_40 
REMARK    2  A    between atoms: N1_3  and  C2_5 
REMARK    3  A    between atoms: C5_8  and  C6_9 
REMARK       I    between atoms: C6_9  and  N2_11 
REMARK    4  A    between atoms: N3_16  and  C11_17 
REMARK    5  A    between atoms: C11_17  and  C12_18 
REMARK    6  A    between atoms: N4_27  and  C19_28 
REMARK    7  A    between atoms: C19_28  and  O4_29 
REMARK    8  A    between atoms: C19_28  and  C20_31 
ROOT
HETATM    1  C6  UNL     1     -14.064  -8.066   4.865  1.00  0.00     0.226 C 
HETATM    2  O2  UNL     1     -13.504  -7.729   5.929  1.00  0.00    -0.273 OA
HETATM    3  N2  UNL     1     -13.307  -8.463   3.698  1.00  0.00    -0.317 N 
HETATM    4  C7  UNL     1     -14.071  -8.761   2.531  1.00  0.00     0.170 C 
HETATM    5  C8  UNL     1     -13.216  -9.574   1.560  1.00  0.00     0.133 C 
HETATM    6  C9  UNL     1     -14.015  -9.845   0.346  1.00  0.00     0.063 C 
HETATM    7  C10 UNL     1     -13.572 -11.212  -0.146  1.00  0.00     0.129 C 
HETATM    8  N3  UNL     1     -13.079 -11.881   1.047  1.00  0.00    -0.345 N 
HETATM    9  C18 UNL     1     -13.075 -10.967   2.132  1.00  0.00     0.250 C 
HETATM   10  O3  UNL     1     -12.971 -11.323   3.324  1.00  0.00    -0.270 OA
HETATM   11  N4  UNL     1     -11.970  -8.918   1.465  1.00  0.00    -0.341 N 
HETATM   12  C24 UNL     1     -11.141  -9.108   2.703  1.00  0.00     0.185 C 
HETATM   13  C25 UNL     1     -11.879  -8.511   3.863  1.00  0.00     0.292 C 
HETATM   14  F2  UNL     1     -11.346  -7.268   4.226  1.00  0.00    -0.225 F 
ENDROOT
BRANCH   1  15
HETATM   15  C5  UNL     1     -15.564  -8.049   4.850  1.00  0.00     0.078 C 
HETATM   16  C4  UNL     1     -16.016  -7.218   6.020  1.00  0.00     0.016 C 
HETATM   17  C3  UNL     1     -17.440  -7.550   6.426  1.00  0.00     0.026 C 
HETATM   18  C2  UNL     1     -17.511  -8.945   7.008  1.00  0.00     0.084 C 
HETATM   19  C27 UNL     1     -16.275  -9.698   6.596  1.00  0.00     0.026 C 
HETATM   20  C26 UNL     1     -16.075  -9.475   5.105  1.00  0.00     0.016 C 
BRANCH  18  21
HETATM   21  N1  UNL     1     -17.604  -8.933   8.448  1.00  0.00    -0.356 N 
HETATM   22  C1  UNL     1     -18.005 -10.053   9.206  1.00  0.00     0.222 C 
HETATM   23  O1  UNL     1     -18.291 -11.107   8.556  1.00  0.00    -0.273 OA
ATOM     24  H1  UNL     1     -17.369  -8.072   8.942  1.00  0.00     0.162 HD
BRANCH  22  25
HETATM   25  C28 UNL     1     -18.088 -10.005  10.669  1.00  0.00     0.078 C 
HETATM   26  C29 UNL     1     -18.749  -8.745  11.233  1.00  0.00     0.014 C 
HETATM   27  C30 UNL     1     -19.447  -9.645  12.247  1.00  0.00     0.002 C 
HETATM   28  C31 UNL     1     -19.278 -10.764  11.217  1.00  0.00     0.014 C 
ENDBRANCH  22  25
ENDBRANCH  18  21
ENDBRANCH   1  15
BRANCH  11  29
HETATM   29  C19 UNL     1     -11.417  -8.127   0.488  1.00  0.00     0.118 C 
BRANCH  29  30
HETATM   30  O4  UNL     1     -10.764  -8.780  -0.445  1.00  0.00    -0.349 OA
ATOM     31  H4  UNL     1     -10.585  -9.691  -0.243  1.00  0.00     0.219 HD
ENDBRANCH  29  30
BRANCH  29  32
HETATM   32  C20 UNL     1     -11.403  -6.679   0.272  1.00  0.00     0.060 C 
HETATM   33  C21 UNL     1     -12.524  -5.941   1.066  1.00  0.00     0.013 C 
HETATM   34  C22 UNL     1     -11.539  -4.801   1.182  1.00  0.00     0.002 C 
HETATM   35  C23 UNL     1     -10.459  -5.857   1.123  1.00  0.00     0.013 C 
ENDBRANCH  29  32
ENDBRANCH  11  29
BRANCH   8  36
HETATM   36  C11 UNL     1     -12.689 -13.280   1.033  1.00  0.00     0.167 C 
BRANCH  36  37
HETATM   37  C12 UNL     1     -11.216 -13.376   0.780  1.00  0.00    -0.002 A 
HETATM   38  C13 UNL     1     -10.343 -12.355   1.141  1.00  0.00     0.012 A 
HETATM   39  C14 UNL     1      -8.995 -12.488   0.896  1.00  0.00     0.001 A 
HETATM   40  C15 UNL     1      -8.466 -13.609   0.298  1.00  0.00     0.003 A 
HETATM   41  C16 UNL     1      -9.319 -14.636  -0.068  1.00  0.00     0.043 A 
HETATM   42  C17 UNL     1     -10.685 -14.489   0.186  1.00  0.00     0.124 A 
HETATM   43  F1  UNL     1     -11.539 -15.498  -0.169  1.00  0.00    -0.205 F 
ENDBRANCH  36  37
ENDBRANCH   8  36
TORSDOF 8
ENDMDL
