MODEL 1
REMARK VINA RESULT: -6.791467884      0.000      0.000
REMARK  6 active torsions:
REMARK  status: ('A' for Active; 'I' for Inactive)
REMARK       I    between atoms: C2_2  and  N1_4 
REMARK    1  A    between atoms: C5_7  and  C6_8 
REMARK    2  A    between atoms: C9_11  and  C10_12 
REMARK       I    between atoms: C10_12  and  N2_14 
REMARK    3  A    between atoms: N2_14  and  C11_16 
REMARK    4  A    between atoms: C11_16  and  C12_17 
REMARK       I    between atoms: N3_24  and  C17_25 
REMARK    5  A    between atoms: C17_25  and  C18_27 
REMARK    6  A    between atoms: C21_30  and  N4_31 
ROOT
HETATM    1  C1  UNL     1     -15.536 -11.542   9.281  1.00  0.00     0.119 C 
HETATM    2  C2  UNL     1     -14.924 -12.197   8.060  1.00  0.00     0.239 C 
HETATM    3  O1  UNL     1     -14.939 -13.465   8.187  1.00  0.00    -0.272 OA
HETATM    4  N1  UNL     1     -14.430 -11.451   7.012  1.00  0.00    -0.224 N 
HETATM    5  C3  UNL     1     -13.554 -11.969   5.951  1.00  0.00     0.040 C 
HETATM    6  C4  UNL     1     -13.005 -13.349   6.169  1.00  0.00     0.071 C 
HETATM    7  C5  UNL     1     -13.211 -11.261   4.915  1.00  0.00    -0.030 C 
HETATM    8  C15 UNL     1     -13.736  -9.825   4.828  1.00  0.00     0.062 C 
HETATM    9  C16 UNL     1     -13.802  -9.271   6.254  1.00  0.00     0.157 C 
HETATM   10  N3  UNL     1     -14.862 -10.131   6.826  1.00  0.00    -0.251 N 
HETATM   11  C17 UNL     1     -16.148  -9.641   6.967  1.00  0.00     0.242 C 
HETATM   12  O3  UNL     1     -17.163 -10.372   7.168  1.00  0.00    -0.271 OA
ENDROOT
BRANCH   7  13
HETATM   13  C6  UNL     1     -12.361 -11.657   3.794  1.00  0.00    -0.071 C 
HETATM   14  C7  UNL     1     -13.115 -11.606   2.458  1.00  0.00     0.036 C 
HETATM   15  C8  UNL     1     -12.193 -11.844   1.276  1.00  0.00     0.018 C 
HETATM   16  C9  UNL     1     -11.122 -10.789   1.183  1.00  0.00     0.078 C 
HETATM   17  C13 UNL     1     -10.801 -10.218   2.544  1.00  0.00     0.018 C 
HETATM   18  C14 UNL     1     -10.970 -11.358   3.557  1.00  0.00     0.036 C 
BRANCH  16  19
HETATM   19  C10 UNL     1      -9.893 -11.401   0.646  1.00  0.00     0.221 C 
HETATM   20  O2  UNL     1      -9.978 -12.447  -0.036  1.00  0.00    -0.273 OA
HETATM   21  N2  UNL     1      -8.605 -10.850   0.869  1.00  0.00    -0.357 N 
ATOM     22  H2  UNL     1      -8.552  -9.997   1.427  1.00  0.00     0.162 HD
BRANCH  21  23
HETATM   23  C11 UNL     1      -7.377 -11.391   0.377  1.00  0.00     0.171 C 
BRANCH  23  24
HETATM   24  C12 UNL     1      -6.481 -10.364  -0.294  1.00  0.00     0.259 C 
HETATM   25  F1  UNL     1      -5.275 -10.281   0.417  1.00  0.00    -0.236 F 
HETATM   26 BR1  UNL     1      -7.325  -8.627  -0.279  1.00  0.00    -0.054 Br
ENDBRANCH  23  24
ENDBRANCH  21  23
ENDBRANCH  16  19
ENDBRANCH   7  13
BRANCH  11  27
HETATM   27  C18 UNL     1     -16.471  -8.162   6.897  1.00  0.00     0.080 C 
HETATM   28  C19 UNL     1     -16.944  -7.650   8.205  1.00  0.00     0.016 C 
HETATM   29  C20 UNL     1     -18.432  -7.453   8.335  1.00  0.00     0.036 C 
HETATM   30  C21 UNL     1     -18.842  -6.540   7.176  1.00  0.00     0.223 C 
HETATM   31  C26 UNL     1     -18.689  -7.386   5.946  1.00  0.00     0.036 C 
HETATM   32  C27 UNL     1     -17.292  -7.832   5.701  1.00  0.00     0.016 C 
BRANCH  30  33
HETATM   33  N4  UNL     1     -20.226  -6.132   7.320  1.00  0.00     0.093 N 
HETATM   34  C22 UNL     1     -20.334  -4.845   7.982  1.00  0.00     0.273 C 
HETATM   35  C23 UNL     1     -21.629  -4.284   7.478  1.00  0.00     0.032 C 
HETATM   36  C24 UNL     1     -22.054  -5.134   6.319  1.00  0.00     0.032 C 
HETATM   37  C25 UNL     1     -20.785  -5.937   6.011  1.00  0.00     0.273 C 
ENDBRANCH  30  33
ENDBRANCH  11  27
TORSDOF 6
ENDMDL
MODEL 2
REMARK VINA RESULT: -6.752384081      2.127      2.355
REMARK  6 active torsions:
REMARK  status: ('A' for Active; 'I' for Inactive)
REMARK       I    between atoms: C2_2  and  N1_4 
REMARK    1  A    between atoms: C5_7  and  C6_8 
REMARK    2  A    between atoms: C9_11  and  C10_12 
REMARK       I    between atoms: C10_12  and  N2_14 
REMARK    3  A    between atoms: N2_14  and  C11_16 
REMARK    4  A    between atoms: C11_16  and  C12_17 
REMARK       I    between atoms: N3_24  and  C17_25 
REMARK    5  A    between atoms: C17_25  and  C18_27 
REMARK    6  A    between atoms: C21_30  and  N4_31 
ROOT
HETATM    1  C1  UNL     1     -16.011  -9.844   9.579  1.00  0.00     0.119 C 
HETATM    2  C2  UNL     1     -15.449 -10.580   8.380  1.00  0.00     0.239 C 
HETATM    3  O1  UNL     1     -15.335 -11.823   8.640  1.00  0.00    -0.272 OA
HETATM    4  N1  UNL     1     -15.119  -9.918   7.217  1.00  0.00    -0.224 N 
HETATM    5  C3  UNL     1     -14.293 -10.479   6.137  1.00  0.00     0.040 C 
HETATM    6  C4  UNL     1     -13.601 -11.775   6.445  1.00  0.00     0.071 C 
HETATM    7  C5  UNL     1     -14.108  -9.866   5.005  1.00  0.00    -0.030 C 
HETATM    8  C15 UNL     1     -14.770  -8.498   4.818  1.00  0.00     0.062 C 
HETATM    9  C16 UNL     1     -14.764  -7.794   6.178  1.00  0.00     0.157 C 
HETATM   10  N3  UNL     1     -15.686  -8.669   6.936  1.00  0.00    -0.251 N 
HETATM   11  C17 UNL     1     -16.995  -8.274   7.147  1.00  0.00     0.242 C 
HETATM   12  O3  UNL     1     -17.917  -9.059   7.520  1.00  0.00    -0.271 OA
ENDROOT
BRANCH   7  13
HETATM   13  C6  UNL     1     -13.324 -10.314   3.855  1.00  0.00    -0.071 C 
HETATM   14  C7  UNL     1     -14.133 -10.251   2.552  1.00  0.00     0.036 C 
HETATM   15  C8  UNL     1     -13.273 -10.546   1.336  1.00  0.00     0.018 C 
HETATM   16  C9  UNL     1     -12.165  -9.539   1.180  1.00  0.00     0.078 C 
HETATM   17  C13 UNL     1     -11.762  -8.962   2.516  1.00  0.00     0.018 C 
HETATM   18  C14 UNL     1     -11.934 -10.078   3.554  1.00  0.00     0.036 C 
BRANCH  16  19
HETATM   19  C10 UNL     1     -10.986 -10.211   0.600  1.00  0.00     0.221 C 
HETATM   20  O2  UNL     1     -10.117  -9.525   0.018  1.00  0.00    -0.273 OA
HETATM   21  N2  UNL     1     -10.794 -11.613   0.678  1.00  0.00    -0.357 N 
ATOM     22  H2  UNL     1     -11.512 -12.159   1.156  1.00  0.00     0.162 HD
BRANCH  21  23
HETATM   23  C11 UNL     1      -9.677 -12.326   0.141  1.00  0.00     0.171 C 
BRANCH  23  24
HETATM   24  C12 UNL     1      -9.604 -13.776   0.586  1.00  0.00     0.259 C 
HETATM   25  F1  UNL     1      -8.339 -14.288   0.258  1.00  0.00    -0.236 F 
HETATM   26 BR1  UNL     1     -10.947 -14.825  -0.322  1.00  0.00    -0.054 Br
ENDBRANCH  23  24
ENDBRANCH  21  23
ENDBRANCH  16  19
ENDBRANCH   7  13
BRANCH  11  27
HETATM   27  C18 UNL     1     -17.459  -6.845   6.953  1.00  0.00     0.080 C 
HETATM   28  C19 UNL     1     -17.997  -6.276   8.213  1.00  0.00     0.016 C 
HETATM   29  C20 UNL     1     -19.498  -6.216   8.318  1.00  0.00     0.036 C 
HETATM   30  C21 UNL     1     -19.980  -5.444   7.085  1.00  0.00     0.223 C 
HETATM   31  C26 UNL     1     -19.729  -6.370   5.930  1.00  0.00     0.036 C 
HETATM   32  C27 UNL     1     -18.292  -6.695   5.730  1.00  0.00     0.016 C 
BRANCH  30  33
HETATM   33  N4  UNL     1     -21.398  -5.164   7.188  1.00  0.00     0.093 N 
HETATM   34  C22 UNL     1     -21.640  -3.857   7.772  1.00  0.00     0.273 C 
HETATM   35  C23 UNL     1     -22.973  -3.452   7.220  1.00  0.00     0.032 C 
HETATM   36  C24 UNL     1     -23.294  -4.404   6.108  1.00  0.00     0.032 C 
HETATM   37  C25 UNL     1     -21.950  -5.098   5.863  1.00  0.00     0.273 C 
ENDBRANCH  30  33
ENDBRANCH  11  27
TORSDOF 6
ENDMDL
MODEL 3
REMARK VINA RESULT: -6.698937358      5.046     11.249
REMARK  6 active torsions:
REMARK  status: ('A' for Active; 'I' for Inactive)
REMARK       I    between atoms: C2_2  and  N1_4 
REMARK    1  A    between atoms: C5_7  and  C6_8 
REMARK    2  A    between atoms: C9_11  and  C10_12 
REMARK       I    between atoms: C10_12  and  N2_14 
REMARK    3  A    between atoms: N2_14  and  C11_16 
REMARK    4  A    between atoms: C11_16  and  C12_17 
REMARK       I    between atoms: N3_24  and  C17_25 
REMARK    5  A    between atoms: C17_25  and  C18_27 
REMARK    6  A    between atoms: C21_30  and  N4_31 
ROOT
HETATM    1  C1  UNL     1     -11.046  -6.594   3.851  1.00  0.00     0.119 C 
HETATM    2  C2  UNL     1     -12.450  -6.027   3.912  1.00  0.00     0.239 C 
HETATM    3  O1  UNL     1     -12.440  -4.793   3.594  1.00  0.00    -0.272 OA
HETATM    4  N1  UNL     1     -13.526  -6.803   4.286  1.00  0.00    -0.224 N 
HETATM    5  C3  UNL     1     -14.845  -6.281   4.672  1.00  0.00     0.040 C 
HETATM    6  C4  UNL     1     -14.930  -4.795   4.871  1.00  0.00     0.071 C 
HETATM    7  C5  UNL     1     -15.867  -7.053   4.899  1.00  0.00    -0.030 C 
HETATM    8  C15 UNL     1     -15.660  -8.565   4.774  1.00  0.00     0.062 C 
HETATM    9  C16 UNL     1     -14.236  -8.876   5.245  1.00  0.00     0.157 C 
HETATM   10  N3  UNL     1     -13.451  -8.198   4.189  1.00  0.00    -0.251 N 
HETATM   11  C17 UNL     1     -12.883  -8.940   3.168  1.00  0.00     0.242 C 
HETATM   12  O3  UNL     1     -12.452  -8.438   2.088  1.00  0.00    -0.271 OA
ENDROOT
BRANCH   7  13
HETATM   13  C6  UNL     1     -17.224  -6.663   5.278  1.00  0.00    -0.071 C 
HETATM   14  C7  UNL     1     -17.992  -7.824   5.926  1.00  0.00     0.036 C 
HETATM   15  C8  UNL     1     -19.333  -7.378   6.479  1.00  0.00     0.018 C 
HETATM   16  C9  UNL     1     -19.174  -6.340   7.558  1.00  0.00     0.078 C 
HETATM   17  C13 UNL     1     -17.910  -5.538   7.358  1.00  0.00     0.018 C 
HETATM   18  C14 UNL     1     -17.690  -5.421   5.845  1.00  0.00     0.036 C 
BRANCH  16  19
HETATM   19  C10 UNL     1     -20.317  -5.410   7.498  1.00  0.00     0.221 C 
HETATM   20  O2  UNL     1     -20.484  -4.588   8.426  1.00  0.00    -0.273 OA
HETATM   21  N2  UNL     1     -21.243  -5.406   6.424  1.00  0.00    -0.357 N 
ATOM     22  H2  UNL     1     -21.093  -6.083   5.675  1.00  0.00     0.162 HD
BRANCH  21  23
HETATM   23  C11 UNL     1     -22.368  -4.532   6.304  1.00  0.00     0.171 C 
BRANCH  23  24
HETATM   24  C12 UNL     1     -22.420  -3.778   4.986  1.00  0.00     0.259 C 
HETATM   25  F1  UNL     1     -23.121  -4.552   4.049  1.00  0.00    -0.236 F 
HETATM   26 BR1  UNL     1     -20.634  -3.472   4.318  1.00  0.00    -0.054 Br
ENDBRANCH  23  24
ENDBRANCH  21  23
ENDBRANCH  16  19
ENDBRANCH   7  13
BRANCH  11  27
HETATM   27  C18 UNL     1     -12.717 -10.444   3.245  1.00  0.00     0.080 C 
HETATM   28  C19 UNL     1     -11.289 -10.825   3.362  1.00  0.00     0.016 C 
HETATM   29  C20 UNL     1     -10.637 -11.325   2.099  1.00  0.00     0.036 C 
HETATM   30  C21 UNL     1     -11.505 -12.486   1.604  1.00  0.00     0.223 C 
HETATM   31  C26 UNL     1     -12.776 -11.842   1.132  1.00  0.00     0.036 C 
HETATM   32  C27 UNL     1     -13.524 -11.143   2.209  1.00  0.00     0.016 C 
BRANCH  30  33
HETATM   33  N4  UNL     1     -10.858 -13.163   0.497  1.00  0.00     0.093 N 
HETATM   34  C22 UNL     1      -9.472 -13.468   0.798  1.00  0.00     0.273 C 
HETATM   35  C23 UNL     1      -9.169 -14.663  -0.053  1.00  0.00     0.032 C 
HETATM   36  C24 UNL     1     -10.478 -15.175  -0.571  1.00  0.00     0.032 C 
HETATM   37  C25 UNL     1     -11.496 -14.435   0.302  1.00  0.00     0.273 C 
ENDBRANCH  30  33
ENDBRANCH  11  27
TORSDOF 6
ENDMDL
MODEL 4
REMARK VINA RESULT: -6.651764002      5.418     11.222
REMARK  6 active torsions:
REMARK  status: ('A' for Active; 'I' for Inactive)
REMARK       I    between atoms: C2_2  and  N1_4 
REMARK    1  A    between atoms: C5_7  and  C6_8 
REMARK    2  A    between atoms: C9_11  and  C10_12 
REMARK       I    between atoms: C10_12  and  N2_14 
REMARK    3  A    between atoms: N2_14  and  C11_16 
REMARK    4  A    between atoms: C11_16  and  C12_17 
REMARK       I    between atoms: N3_24  and  C17_25 
REMARK    5  A    between atoms: C17_25  and  C18_27 
REMARK    6  A    between atoms: C21_30  and  N4_31 
ROOT
HETATM    1  C1  UNL     1     -14.180  -6.175   3.249  1.00  0.00     0.119 C 
HETATM    2  C2  UNL     1     -15.417  -6.641   3.988  1.00  0.00     0.239 C 
HETATM    3  O1  UNL     1     -16.418  -5.918   3.670  1.00  0.00    -0.272 OA
HETATM    4  N1  UNL     1     -15.374  -7.696   4.874  1.00  0.00    -0.224 N 
HETATM    5  C3  UNL     1     -16.424  -8.015   5.852  1.00  0.00     0.040 C 
HETATM    6  C4  UNL     1     -17.499  -6.981   6.022  1.00  0.00     0.071 C 
HETATM    7  C5  UNL     1     -16.399  -9.090   6.584  1.00  0.00    -0.030 C 
HETATM    8  C15 UNL     1     -15.208 -10.038   6.418  1.00  0.00     0.062 C 
HETATM    9  C16 UNL     1     -13.974  -9.180   6.121  1.00  0.00     0.157 C 
HETATM   10  N3  UNL     1     -14.339  -8.636   4.794  1.00  0.00    -0.251 N 
HETATM   11  C17 UNL     1     -13.783  -9.180   3.649  1.00  0.00     0.242 C 
HETATM   12  O3  UNL     1     -14.241  -8.985   2.484  1.00  0.00    -0.271 OA
ENDROOT
BRANCH   7  13
HETATM   13  C6  UNL     1     -17.376  -9.525   7.580  1.00  0.00    -0.071 C 
HETATM   14  C7  UNL     1     -17.259 -11.027   7.877  1.00  0.00     0.036 C 
HETATM   15  C8  UNL     1     -18.148 -11.447   9.034  1.00  0.00     0.018 C 
HETATM   16  C9  UNL     1     -17.770 -10.746  10.311  1.00  0.00     0.078 C 
HETATM   17  C13 UNL     1     -17.145  -9.400  10.028  1.00  0.00     0.018 C 
HETATM   18  C14 UNL     1     -17.826  -8.847   8.771  1.00  0.00     0.036 C 
BRANCH  16  19
HETATM   19  C10 UNL     1     -18.988 -10.522  11.112  1.00  0.00     0.221 C 
HETATM   20  O2  UNL     1     -19.984 -11.256  10.929  1.00  0.00    -0.273 OA
HETATM   21  N2  UNL     1     -19.079  -9.500  12.092  1.00  0.00    -0.357 N 
ATOM     22  H2  UNL     1     -18.259  -8.909  12.229  1.00  0.00     0.162 HD
BRANCH  21  23
HETATM   23  C11 UNL     1     -20.226  -9.231  12.902  1.00  0.00     0.171 C 
BRANCH  23  24
HETATM   24  C12 UNL     1     -20.457  -7.753  13.165  1.00  0.00     0.259 C 
HETATM   25  F1  UNL     1     -21.820  -7.470  12.994  1.00  0.00    -0.236 F 
HETATM   26 BR1  UNL     1     -19.446  -6.684  11.914  1.00  0.00    -0.054 Br
ENDBRANCH  23  24
ENDBRANCH  21  23
ENDBRANCH  16  19
ENDBRANCH   7  13
BRANCH  11  27
HETATM   27  C18 UNL     1     -12.558 -10.070   3.678  1.00  0.00     0.080 C 
HETATM   28  C19 UNL     1     -11.545  -9.626   2.690  1.00  0.00     0.016 C 
HETATM   29  C20 UNL     1     -11.474 -10.427   1.417  1.00  0.00     0.036 C 
HETATM   30  C21 UNL     1     -11.266 -11.884   1.842  1.00  0.00     0.223 C 
HETATM   31  C26 UNL     1     -12.569 -12.293   2.462  1.00  0.00     0.036 C 
HETATM   32  C27 UNL     1     -12.922 -11.512   3.676  1.00  0.00     0.016 C 
BRANCH  30  33
HETATM   33  N4  UNL     1     -10.992 -12.712   0.684  1.00  0.00     0.093 N 
HETATM   34  C22 UNL     1      -9.628 -13.208   0.695  1.00  0.00     0.273 C 
HETATM   35  C23 UNL     1      -9.696 -14.481  -0.092  1.00  0.00     0.032 C 
HETATM   36  C24 UNL     1     -11.147 -14.817  -0.257  1.00  0.00     0.032 C 
HETATM   37  C25 UNL     1     -11.824 -13.882   0.751  1.00  0.00     0.273 C 
ENDBRANCH  30  33
ENDBRANCH  11  27
TORSDOF 6
ENDMDL
MODEL 5
REMARK VINA RESULT: -6.649142224      5.803     11.359
REMARK  6 active torsions:
REMARK  status: ('A' for Active; 'I' for Inactive)
REMARK       I    between atoms: C2_2  and  N1_4 
REMARK    1  A    between atoms: C5_7  and  C6_8 
REMARK    2  A    between atoms: C9_11  and  C10_12 
REMARK       I    between atoms: C10_12  and  N2_14 
REMARK    3  A    between atoms: N2_14  and  C11_16 
REMARK    4  A    between atoms: C11_16  and  C12_17 
REMARK       I    between atoms: N3_24  and  C17_25 
REMARK    5  A    between atoms: C17_25  and  C18_27 
REMARK    6  A    between atoms: C21_30  and  N4_31 
ROOT
HETATM    1  C1  UNL     1     -14.191  -6.132   3.290  1.00  0.00     0.119 C 
HETATM    2  C2  UNL     1     -15.422  -6.657   4.001  1.00  0.00     0.239 C 
HETATM    3  O1  UNL     1     -16.439  -5.951   3.700  1.00  0.00    -0.272 OA
HETATM    4  N1  UNL     1     -15.357  -7.741   4.850  1.00  0.00    -0.224 N 
HETATM    5  C3  UNL     1     -16.406  -8.123   5.807  1.00  0.00     0.040 C 
HETATM    6  C4  UNL     1     -17.510  -7.125   6.003  1.00  0.00     0.071 C 
HETATM    7  C5  UNL     1     -16.357  -9.222   6.500  1.00  0.00    -0.030 C 
HETATM    8  C15 UNL     1     -15.139 -10.131   6.311  1.00  0.00     0.062 C 
HETATM    9  C16 UNL     1     -13.927  -9.230   6.057  1.00  0.00     0.157 C 
HETATM   10  N3  UNL     1     -14.295  -8.649   4.746  1.00  0.00    -0.251 N 
HETATM   11  C17 UNL     1     -13.716  -9.137   3.588  1.00  0.00     0.242 C 
HETATM   12  O3  UNL     1     -14.169  -8.913   2.426  1.00  0.00    -0.271 OA
ENDROOT
BRANCH   7  13
HETATM   13  C6  UNL     1     -17.330  -9.719   7.471  1.00  0.00    -0.071 C 
HETATM   14  C7  UNL     1     -17.055 -11.179   7.861  1.00  0.00     0.036 C 
HETATM   15  C8  UNL     1     -17.951 -11.641   8.995  1.00  0.00     0.018 C 
HETATM   16  C9  UNL     1     -17.729 -10.834  10.246  1.00  0.00     0.078 C 
HETATM   17  C13 UNL     1     -17.251  -9.439   9.916  1.00  0.00     0.018 C 
HETATM   18  C14 UNL     1     -17.922  -9.038   8.596  1.00  0.00     0.036 C 
BRANCH  16  19
HETATM   19  C10 UNL     1     -19.008 -10.716  10.973  1.00  0.00     0.221 C 
HETATM   20  O2  UNL     1     -19.243  -9.679  11.631  1.00  0.00    -0.273 OA
HETATM   21  N2  UNL     1     -19.992 -11.737  10.955  1.00  0.00    -0.357 N 
ATOM     22  H2  UNL     1     -19.785 -12.577  10.414  1.00  0.00     0.162 HD
BRANCH  21  23
HETATM   23  C11 UNL     1     -21.249 -11.685  11.634  1.00  0.00     0.171 C 
BRANCH  23  24
HETATM   24  C12 UNL     1     -22.087 -12.941  11.467  1.00  0.00     0.259 C 
HETATM   25  F1  UNL     1     -23.358 -12.715  12.015  1.00  0.00    -0.236 F 
HETATM   26 BR1  UNL     1     -21.270 -14.421  12.399  1.00  0.00    -0.054 Br
ENDBRANCH  23  24
ENDBRANCH  21  23
ENDBRANCH  16  19
ENDBRANCH   7  13
BRANCH  11  27
HETATM   27  C18 UNL     1     -12.467  -9.994   3.597  1.00  0.00     0.080 C 
HETATM   28  C19 UNL     1     -11.507  -9.560   2.553  1.00  0.00     0.016 C 
HETATM   29  C20 UNL     1     -11.467 -10.404   1.306  1.00  0.00     0.036 C 
HETATM   30  C21 UNL     1     -11.203 -11.839   1.773  1.00  0.00     0.223 C 
HETATM   31  C26 UNL     1     -12.468 -12.259   2.461  1.00  0.00     0.036 C 
HETATM   32  C27 UNL     1     -12.792 -11.444   3.661  1.00  0.00     0.016 C 
BRANCH  30  33
HETATM   33  N4  UNL     1     -10.955 -12.702   0.634  1.00  0.00     0.093 N 
HETATM   34  C22 UNL     1      -9.597 -13.216   0.643  1.00  0.00     0.273 C 
HETATM   35  C23 UNL     1      -9.692 -14.509  -0.109  1.00  0.00     0.032 C 
HETATM   36  C24 UNL     1     -11.150 -14.828  -0.249  1.00  0.00     0.032 C 
HETATM   37  C25 UNL     1     -11.802 -13.857   0.742  1.00  0.00     0.273 C 
ENDBRANCH  30  33
ENDBRANCH  11  27
TORSDOF 6
ENDMDL
