MODEL 1
REMARK VINA RESULT: -6.888139710      0.000      0.000
REMARK  9 active torsions:
REMARK  status: ('A' for Active; 'I' for Inactive)
REMARK    1  A    between atoms: C2_2  and  N1_3 
REMARK    2  A    between atoms: N1_3  and  C3_4 
REMARK    3  A    between atoms: N1_3  and  C5_6 
REMARK    4  A    between atoms: C5_6  and  O1_7 
REMARK    5  A    between atoms: C5_6  and  C6_9 
REMARK       I    between atoms: N2_10  and  C7_11 
REMARK    6  A    between atoms: C7_11  and  C8_13 
REMARK       I    between atoms: N3_15  and  C10_16 
REMARK    7  A    between atoms: C13_20  and  C14_21 
REMARK       I    between atoms: C14_21  and  N4_23 
REMARK    8  A    between atoms: N4_23  and  C15_25 
REMARK    9  A    between atoms: C29_39  and  C31_41 
ROOT
HETATM    1  C8  UNL     1     -10.827  -9.892   3.406  1.00  0.00     0.111 C 
HETATM    2  C9  UNL     1     -11.690 -10.775   4.207  1.00  0.00     0.141 C 
HETATM    3  N3  UNL     1     -12.539  -9.802   4.926  1.00  0.00    -0.351 N 
HETATM    4  C10 UNL     1     -13.507 -10.112   5.913  1.00  0.00     0.215 C 
HETATM    5  C11 UNL     1     -13.728 -11.514   6.298  1.00  0.00     0.117 C 
HETATM    6  O3  UNL     1     -14.199  -9.241   6.489  1.00  0.00    -0.274 OA
HETATM    7  C12 UNL     1     -12.242  -8.454   4.480  1.00  0.00     0.140 C 
HETATM    8  C13 UNL     1     -11.771  -8.787   3.048  1.00  0.00     0.110 C 
ENDROOT
BRANCH   1   9
HETATM    9  C7  UNL     1     -10.035 -10.446   2.322  1.00  0.00     0.231 C 
HETATM   10  N2  UNL     1      -9.164  -9.649   1.532  1.00  0.00    -0.316 N 
HETATM   11  C6  UNL     1      -9.059  -8.245   1.669  1.00  0.00     0.079 C 
HETATM   12  C25 UNL     1      -8.320 -10.430   0.623  1.00  0.00     0.132 C 
HETATM   13  C29 UNL     1      -7.615  -7.765   1.493  1.00  0.00     0.065 C 
HETATM   14  C27 UNL     1      -6.638  -8.902   1.533  1.00  0.00     0.003 C 
HETATM   15  C30 UNL     1      -7.221  -6.824   2.612  1.00  0.00     0.028 C 
HETATM   16  C26 UNL     1      -6.898 -10.015   0.607  1.00  0.00     0.026 C 
HETATM   17  C28 UNL     1      -6.504  -9.449   2.944  1.00  0.00     0.011 C 
HETATM   18  O2  UNL     1     -10.085 -11.698   2.031  1.00  0.00    -0.273 OA
BRANCH  11  19
HETATM   19  C5  UNL     1     -10.006  -7.317   1.069  1.00  0.00     0.162 C 
BRANCH  19  20
HETATM   20  N1  UNL     1     -10.540  -6.079   1.362  1.00  0.00    -0.361 N 
BRANCH  20  21
HETATM   21  C2  UNL     1     -11.388  -5.425   0.321  1.00  0.00     0.120 C 
HETATM   22  C1  UNL     1     -12.786  -5.233   0.869  1.00  0.00     0.026 C 
ENDBRANCH  20  21
BRANCH  20  23
HETATM   23  C3  UNL     1     -10.390  -5.303   2.543  1.00  0.00     0.120 C 
HETATM   24  C4  UNL     1      -9.569  -4.049   2.412  1.00  0.00     0.026 C 
ENDBRANCH  20  23
ENDBRANCH  19  20
BRANCH  19  25
HETATM   25  O1  UNL     1     -10.514  -7.777  -0.089  1.00  0.00    -0.345 OA
ATOM     26  H1  UNL     1      -9.856  -7.734  -0.774  1.00  0.00     0.219 HD
ENDBRANCH  19  25
ENDBRANCH  11  19
BRANCH  13  27
HETATM   27  C31 UNL     1      -7.405  -6.987   0.217  1.00  0.00     0.367 C 
HETATM   28  F1  UNL     1      -6.284  -7.361  -0.486  1.00  0.00    -0.213 F 
HETATM   29  F2  UNL     1      -7.229  -5.625   0.519  1.00  0.00    -0.213 F 
ENDBRANCH  13  27
ENDBRANCH   1   9
BRANCH   8  30
HETATM   30  C14 UNL     1     -12.977  -9.174   2.317  1.00  0.00     0.224 C 
HETATM   31  O4  UNL     1     -14.171  -8.930   2.625  1.00  0.00    -0.273 OA
HETATM   32  N4  UNL     1     -12.838  -9.925   1.099  1.00  0.00    -0.355 N 
ATOM     33  H4  UNL     1     -11.896 -10.156   0.780  1.00  0.00     0.162 HD
BRANCH  32  34
HETATM   34  C15 UNL     1     -13.955 -10.369   0.303  1.00  0.00     0.092 C 
HETATM   35  C16 UNL     1     -13.570 -10.046  -1.148  1.00  0.00     0.009 C 
HETATM   36  C17 UNL     1     -14.766 -10.422  -1.987  1.00  0.00     0.011 C 
HETATM   37  C21 UNL     1     -12.365 -10.788  -1.615  1.00  0.00     0.011 C 
HETATM   38  C18 UNL     1     -15.035 -11.913  -1.866  1.00  0.00    -0.013 C 
HETATM   39  C19 UNL     1     -13.811 -12.666  -2.356  1.00  0.00     0.009 C 
HETATM   40  C24 UNL     1     -15.323 -12.234  -0.435  1.00  0.00     0.011 C 
HETATM   41  C20 UNL     1     -12.634 -12.277  -1.488  1.00  0.00    -0.013 C 
HETATM   42  C22 UNL     1     -12.954 -12.627  -0.054  1.00  0.00     0.011 C 
HETATM   43  C23 UNL     1     -14.148 -11.831   0.431  1.00  0.00     0.009 C 
ENDBRANCH  32  34
ENDBRANCH   8  30
TORSDOF 9
ENDMDL
MODEL 2
REMARK VINA RESULT: -6.833373006      3.490      7.024
REMARK  9 active torsions:
REMARK  status: ('A' for Active; 'I' for Inactive)
REMARK    1  A    between atoms: C2_2  and  N1_3 
REMARK    2  A    between atoms: N1_3  and  C3_4 
REMARK    3  A    between atoms: N1_3  and  C5_6 
REMARK    4  A    between atoms: C5_6  and  O1_7 
REMARK    5  A    between atoms: C5_6  and  C6_9 
REMARK       I    between atoms: N2_10  and  C7_11 
REMARK    6  A    between atoms: C7_11  and  C8_13 
REMARK       I    between atoms: N3_15  and  C10_16 
REMARK    7  A    between atoms: C13_20  and  C14_21 
REMARK       I    between atoms: C14_21  and  N4_23 
REMARK    8  A    between atoms: N4_23  and  C15_25 
REMARK    9  A    between atoms: C29_39  and  C31_41 
ROOT
HETATM    1  C8  UNL     1     -12.742  -7.982   3.522  1.00  0.00     0.111 C 
HETATM    2  C9  UNL     1     -12.602  -6.880   2.556  1.00  0.00     0.141 C 
HETATM    3  N3  UNL     1     -11.144  -6.643   2.572  1.00  0.00    -0.351 N 
HETATM    4  C10 UNL     1     -10.459  -5.617   1.876  1.00  0.00     0.215 C 
HETATM    5  C11 UNL     1     -11.221  -4.671   1.046  1.00  0.00     0.117 C 
HETATM    6  O3  UNL     1      -9.216  -5.467   1.927  1.00  0.00    -0.274 OA
HETATM    7  C12 UNL     1     -10.488  -7.622   3.419  1.00  0.00     0.140 C 
HETATM    8  C13 UNL     1     -11.500  -8.776   3.259  1.00  0.00     0.110 C 
ENDROOT
BRANCH   1   9
HETATM    9  C7  UNL     1     -13.987  -8.728   3.590  1.00  0.00     0.231 C 
HETATM   10  N2  UNL     1     -14.524  -9.198   4.819  1.00  0.00    -0.316 N 
HETATM   11  C6  UNL     1     -13.859  -9.063   6.059  1.00  0.00     0.079 C 
HETATM   12  C25 UNL     1     -15.874  -9.756   4.691  1.00  0.00     0.132 C 
HETATM   13  C29 UNL     1     -14.837  -8.757   7.198  1.00  0.00     0.065 C 
HETATM   14  C27 UNL     1     -16.191  -8.369   6.683  1.00  0.00     0.003 C 
HETATM   15  C30 UNL     1     -14.346  -7.590   8.029  1.00  0.00     0.028 C 
HETATM   16  C26 UNL     1     -16.820  -9.305   5.738  1.00  0.00     0.026 C 
HETATM   17  C28 UNL     1     -16.155  -6.982   6.061  1.00  0.00     0.011 C 
HETATM   18  O2  UNL     1     -14.666  -8.993   2.531  1.00  0.00    -0.273 OA
BRANCH  11  19
HETATM   19  C5  UNL     1     -12.801  -9.965   6.493  1.00  0.00     0.162 C 
BRANCH  19  20
HETATM   20  N1  UNL     1     -12.605 -11.327   6.592  1.00  0.00    -0.361 N 
BRANCH  20  21
HETATM   21  C2  UNL     1     -11.793 -11.829   7.741  1.00  0.00     0.120 C 
HETATM   22  C1  UNL     1     -12.618 -12.819   8.535  1.00  0.00     0.026 C 
ENDBRANCH  20  21
BRANCH  20  23
HETATM   23  C3  UNL     1     -13.067 -12.357   5.729  1.00  0.00     0.120 C 
HETATM   24  C4  UNL     1     -12.699 -12.220   4.277  1.00  0.00     0.026 C 
ENDBRANCH  20  23
ENDBRANCH  19  20
BRANCH  19  25
HETATM   25  O1  UNL     1     -11.708  -9.308   6.922  1.00  0.00    -0.345 OA
ATOM     26  H1  UNL     1     -10.949  -9.570   6.414  1.00  0.00     0.219 HD
ENDBRANCH  19  25
ENDBRANCH  11  19
BRANCH  13  27
HETATM   27  C31 UNL     1     -14.995  -9.905   8.163  1.00  0.00     0.367 C 
HETATM   28  F1  UNL     1     -15.577 -11.022   7.611  1.00  0.00    -0.213 F 
HETATM   29  F2  UNL     1     -15.837  -9.519   9.221  1.00  0.00    -0.213 F 
ENDBRANCH  13  27
ENDBRANCH   1   9
BRANCH   8  30
HETATM   30  C14 UNL     1     -11.322  -9.271   1.894  1.00  0.00     0.224 C 
HETATM   31  O4  UNL     1     -10.360  -9.045   1.118  1.00  0.00    -0.273 OA
HETATM   32  N4  UNL     1     -12.337 -10.114   1.324  1.00  0.00    -0.355 N 
ATOM     33  H4  UNL     1     -13.148 -10.347   1.899  1.00  0.00     0.162 HD
BRANCH  32  34
HETATM   34  C15 UNL     1     -12.273 -10.649  -0.013  1.00  0.00     0.092 C 
HETATM   35  C16 UNL     1     -12.630 -12.136   0.130  1.00  0.00     0.009 C 
HETATM   36  C17 UNL     1     -12.480 -12.732  -1.248  1.00  0.00     0.011 C 
HETATM   37  C21 UNL     1     -14.014 -12.361   0.635  1.00  0.00     0.011 C 
HETATM   38  C18 UNL     1     -13.461 -12.076  -2.205  1.00  0.00    -0.013 C 
HETATM   39  C19 UNL     1     -14.870 -12.320  -1.695  1.00  0.00     0.009 C 
HETATM   40  C24 UNL     1     -13.161 -10.613  -2.272  1.00  0.00     0.011 C 
HETATM   41  C20 UNL     1     -14.992 -11.700  -0.320  1.00  0.00    -0.013 C 
HETATM   42  C22 UNL     1     -14.697 -10.223  -0.427  1.00  0.00     0.011 C 
HETATM   43  C23 UNL     1     -13.271 -10.000  -0.891  1.00  0.00     0.009 C 
ENDBRANCH  32  34
ENDBRANCH   8  30
TORSDOF 9
ENDMDL
MODEL 3
REMARK VINA RESULT: -6.807618798      2.281      3.020
REMARK  9 active torsions:
REMARK  status: ('A' for Active; 'I' for Inactive)
REMARK    1  A    between atoms: C2_2  and  N1_3 
REMARK    2  A    between atoms: N1_3  and  C3_4 
REMARK    3  A    between atoms: N1_3  and  C5_6 
REMARK    4  A    between atoms: C5_6  and  O1_7 
REMARK    5  A    between atoms: C5_6  and  C6_9 
REMARK       I    between atoms: N2_10  and  C7_11 
REMARK    6  A    between atoms: C7_11  and  C8_13 
REMARK       I    between atoms: N3_15  and  C10_16 
REMARK    7  A    between atoms: C13_20  and  C14_21 
REMARK       I    between atoms: C14_21  and  N4_23 
REMARK    8  A    between atoms: N4_23  and  C15_25 
REMARK    9  A    between atoms: C29_39  and  C31_41 
ROOT
HETATM    1  C8  UNL     1      -9.959 -11.384   3.631  1.00  0.00     0.111 C 
HETATM    2  C9  UNL     1     -10.763 -12.234   4.526  1.00  0.00     0.141 C 
HETATM    3  N3  UNL     1     -11.330 -11.241   5.462  1.00  0.00    -0.351 N 
HETATM    4  C10 UNL     1     -12.126 -11.529   6.598  1.00  0.00     0.215 C 
HETATM    5  C11 UNL     1     -12.448 -12.927   6.922  1.00  0.00     0.117 C 
HETATM    6  O3  UNL     1     -12.581 -10.642   7.357  1.00  0.00    -0.274 OA
HETATM    7  C12 UNL     1     -10.951  -9.900   5.059  1.00  0.00     0.140 C 
HETATM    8  C13 UNL     1     -10.804 -10.151   3.543  1.00  0.00     0.110 C 
ENDROOT
BRANCH   1   9
HETATM    9  C7  UNL     1      -9.463 -11.922   2.377  1.00  0.00     0.231 C 
HETATM   10  N2  UNL     1      -8.187 -11.579   1.855  1.00  0.00    -0.316 N 
HETATM   11  C6  UNL     1      -7.333 -10.625   2.456  1.00  0.00     0.079 C 
HETATM   12  C25 UNL     1      -7.802 -12.373   0.684  1.00  0.00     0.132 C 
HETATM   13  C29 UNL     1      -5.862 -11.044   2.366  1.00  0.00     0.065 C 
HETATM   14  C27 UNL     1      -5.713 -12.478   1.956  1.00  0.00     0.003 C 
HETATM   15  C30 UNL     1      -5.183 -10.912   3.712  1.00  0.00     0.028 C 
HETATM   16  C26 UNL     1      -6.410 -12.878   0.723  1.00  0.00     0.026 C 
HETATM   17  C28 UNL     1      -6.125 -13.408   3.085  1.00  0.00     0.011 C 
HETATM   18  O2  UNL     1     -10.164 -12.746   1.680  1.00  0.00    -0.273 OA
BRANCH  11  19
HETATM   19  C5  UNL     1      -7.491  -9.190   2.267  1.00  0.00     0.162 C 
BRANCH  19  20
HETATM   20  N1  UNL     1      -7.585  -8.309   1.209  1.00  0.00    -0.361 N 
BRANCH  20  21
HETATM   21  C2  UNL     1      -6.904  -6.986   1.346  1.00  0.00     0.120 C 
HETATM   22  C1  UNL     1      -6.320  -6.589   0.008  1.00  0.00     0.026 C 
ENDBRANCH  20  21
BRANCH  20  23
HETATM   23  C3  UNL     1      -8.262  -8.474  -0.029  1.00  0.00     0.120 C 
HETATM   24  C4  UNL     1      -9.708  -8.880   0.056  1.00  0.00     0.026 C 
ENDBRANCH  20  23
ENDBRANCH  19  20
BRANCH  19  25
HETATM   25  O1  UNL     1      -7.567  -8.523   3.432  1.00  0.00    -0.345 OA
ATOM     26  H1  UNL     1      -8.411  -8.093   3.509  1.00  0.00     0.219 HD
ENDBRANCH  19  25
ENDBRANCH  11  19
BRANCH  13  27
HETATM   27  C31 UNL     1      -5.062 -10.182   1.421  1.00  0.00     0.367 C 
HETATM   28  F1  UNL     1      -4.105 -10.870   0.712  1.00  0.00    -0.213 F 
HETATM   29  F2  UNL     1      -4.364  -9.204   2.152  1.00  0.00    -0.213 F 
ENDBRANCH  13  27
ENDBRANCH   1   9
BRANCH   8  30
HETATM   30  C14 UNL     1     -12.166 -10.332   3.040  1.00  0.00     0.224 C 
HETATM   31  O4  UNL     1     -13.241 -10.027   3.615  1.00  0.00    -0.273 OA
HETATM   32  N4  UNL     1     -12.353 -10.926   1.744  1.00  0.00    -0.355 N 
ATOM     33  H4  UNL     1     -11.524 -11.194   1.213  1.00  0.00     0.162 HD
BRANCH  32  34
HETATM   34  C15 UNL     1     -13.647 -11.162   1.154  1.00  0.00     0.092 C 
HETATM   35  C16 UNL     1     -13.911  -9.942   0.260  1.00  0.00     0.009 C 
HETATM   36  C17 UNL     1     -15.301 -10.130  -0.297  1.00  0.00     0.011 C 
HETATM   37  C21 UNL     1     -12.930  -9.807  -0.854  1.00  0.00     0.011 C 
HETATM   38  C18 UNL     1     -15.352 -11.388  -1.147  1.00  0.00    -0.013 C 
HETATM   39  C19 UNL     1     -14.361 -11.240  -2.288  1.00  0.00     0.009 C 
HETATM   40  C24 UNL     1     -15.009 -12.562  -0.289  1.00  0.00     0.011 C 
HETATM   41  C20 UNL     1     -12.979 -11.067  -1.698  1.00  0.00    -0.013 C 
HETATM   42  C22 UNL     1     -12.660 -12.275  -0.850  1.00  0.00     0.011 C 
HETATM   43  C23 UNL     1     -13.629 -12.378   0.310  1.00  0.00     0.009 C 
ENDBRANCH  32  34
ENDBRANCH   8  30
TORSDOF 9
ENDMDL
MODEL 4
REMARK VINA RESULT: -6.787835173      2.421      4.675
REMARK  9 active torsions:
REMARK  status: ('A' for Active; 'I' for Inactive)
REMARK    1  A    between atoms: C2_2  and  N1_3 
REMARK    2  A    between atoms: N1_3  and  C3_4 
REMARK    3  A    between atoms: N1_3  and  C5_6 
REMARK    4  A    between atoms: C5_6  and  O1_7 
REMARK    5  A    between atoms: C5_6  and  C6_9 
REMARK       I    between atoms: N2_10  and  C7_11 
REMARK    6  A    between atoms: C7_11  and  C8_13 
REMARK       I    between atoms: N3_15  and  C10_16 
REMARK    7  A    between atoms: C13_20  and  C14_21 
REMARK       I    between atoms: C14_21  and  N4_23 
REMARK    8  A    between atoms: N4_23  and  C15_25 
REMARK    9  A    between atoms: C29_39  and  C31_41 
ROOT
HETATM    1  C8  UNL     1     -10.112  -7.946   2.901  1.00  0.00     0.111 C 
HETATM    2  C9  UNL     1     -11.178  -6.980   3.211  1.00  0.00     0.141 C 
HETATM    3  N3  UNL     1     -10.812  -5.834   2.353  1.00  0.00    -0.351 N 
HETATM    4  C10 UNL     1     -11.465  -4.577   2.319  1.00  0.00     0.215 C 
HETATM    5  C11 UNL     1     -12.617  -4.335   3.200  1.00  0.00     0.117 C 
HETATM    6  O3  UNL     1     -11.108  -3.642   1.566  1.00  0.00    -0.274 OA
HETATM    7  C12 UNL     1      -9.666  -6.173   1.530  1.00  0.00     0.140 C 
HETATM    8  C13 UNL     1      -9.891  -7.697   1.442  1.00  0.00     0.110 C 
ENDROOT
BRANCH   1   9
HETATM    9  C7  UNL     1     -10.253  -9.333   3.309  1.00  0.00     0.231 C 
HETATM   10  N2  UNL     1      -9.138 -10.203   3.442  1.00  0.00    -0.316 N 
HETATM   11  C6  UNL     1      -7.816  -9.828   3.107  1.00  0.00     0.079 C 
HETATM   12  C25 UNL     1      -9.474 -11.497   4.045  1.00  0.00     0.132 C 
HETATM   13  C29 UNL     1      -6.794 -10.414   4.086  1.00  0.00     0.065 C 
HETATM   14  C27 UNL     1      -7.450 -10.966   5.316  1.00  0.00     0.003 C 
HETATM   15  C30 UNL     1      -5.830  -9.346   4.559  1.00  0.00     0.028 C 
HETATM   16  C26 UNL     1      -8.529 -11.942   5.094  1.00  0.00     0.026 C 
HETATM   17  C28 UNL     1      -7.967  -9.845   6.202  1.00  0.00     0.011 C 
HETATM   18  O2  UNL     1     -11.406  -9.837   3.576  1.00  0.00    -0.273 OA
BRANCH  11  19
HETATM   19  C5  UNL     1      -7.312  -9.838   1.741  1.00  0.00     0.162 C 
BRANCH  19  20
HETATM   20  N1  UNL     1      -7.435 -10.633   0.619  1.00  0.00    -0.361 N 
BRANCH  20  21
HETATM   21  C2  UNL     1      -6.397 -10.493  -0.446  1.00  0.00     0.120 C 
HETATM   22  C1  UNL     1      -5.297 -11.504  -0.202  1.00  0.00     0.026 C 
ENDBRANCH  20  21
BRANCH  20  23
HETATM   23  C3  UNL     1      -8.439 -11.589   0.312  1.00  0.00     0.120 C 
HETATM   24  C4  UNL     1      -8.294 -12.936   0.966  1.00  0.00     0.026 C 
ENDBRANCH  20  23
ENDBRANCH  19  20
BRANCH  19  25
HETATM   25  O1  UNL     1      -6.502  -8.796   1.483  1.00  0.00    -0.345 OA
ATOM     26  H1  UNL     1      -7.010  -7.996   1.415  1.00  0.00     0.219 HD
ENDBRANCH  19  25
ENDBRANCH  11  19
BRANCH  13  27
HETATM   27  C31 UNL     1      -5.936 -11.490   3.467  1.00  0.00     0.367 C 
HETATM   28  F1  UNL     1      -5.648 -12.532   4.317  1.00  0.00    -0.213 F 
HETATM   29  F2  UNL     1      -4.693 -10.946   3.096  1.00  0.00    -0.213 F 
ENDBRANCH  13  27
ENDBRANCH   1   9
BRANCH   8  30
HETATM   30  C14 UNL     1     -11.053  -7.873   0.570  1.00  0.00     0.224 C 
HETATM   31  O4  UNL     1     -11.597  -7.011  -0.164  1.00  0.00    -0.273 OA
HETATM   32  N4  UNL     1     -11.685  -9.163   0.511  1.00  0.00    -0.355 N 
ATOM     33  H4  UNL     1     -11.295  -9.918   1.076  1.00  0.00     0.162 HD
BRANCH  32  34
HETATM   34  C15 UNL     1     -12.841  -9.449  -0.303  1.00  0.00     0.092 C 
HETATM   35  C16 UNL     1     -12.439 -10.656  -1.163  1.00  0.00     0.009 C 
HETATM   36  C17 UNL     1     -13.605 -10.913  -2.085  1.00  0.00     0.011 C 
HETATM   37  C21 UNL     1     -12.145 -11.877  -0.360  1.00  0.00     0.011 C 
HETATM   38  C18 UNL     1     -14.838 -11.271  -1.273  1.00  0.00    -0.013 C 
HETATM   39  C19 UNL     1     -14.539 -12.523  -0.468  1.00  0.00     0.009 C 
HETATM   40  C24 UNL     1     -15.171 -10.124  -0.375  1.00  0.00     0.011 C 
HETATM   41  C20 UNL     1     -13.376 -12.229   0.454  1.00  0.00    -0.013 C 
HETATM   42  C22 UNL     1     -13.752 -11.077   1.355  1.00  0.00     0.011 C 
HETATM   43  C23 UNL     1     -13.999  -9.825   0.537  1.00  0.00     0.009 C 
ENDBRANCH  32  34
ENDBRANCH   8  30
TORSDOF 9
ENDMDL
MODEL 5
REMARK VINA RESULT: -6.706869057      2.305      5.000
REMARK  9 active torsions:
REMARK  status: ('A' for Active; 'I' for Inactive)
REMARK    1  A    between atoms: C2_2  and  N1_3 
REMARK    2  A    between atoms: N1_3  and  C3_4 
REMARK    3  A    between atoms: N1_3  and  C5_6 
REMARK    4  A    between atoms: C5_6  and  O1_7 
REMARK    5  A    between atoms: C5_6  and  C6_9 
REMARK       I    between atoms: N2_10  and  C7_11 
REMARK    6  A    between atoms: C7_11  and  C8_13 
REMARK       I    between atoms: N3_15  and  C10_16 
REMARK    7  A    between atoms: C13_20  and  C14_21 
REMARK       I    between atoms: C14_21  and  N4_23 
REMARK    8  A    between atoms: N4_23  and  C15_25 
REMARK    9  A    between atoms: C29_39  and  C31_41 
ROOT
HETATM    1  C8  UNL     1      -8.734 -10.527   2.825  1.00  0.00     0.111 C 
HETATM    2  C9  UNL     1      -7.925 -10.449   1.598  1.00  0.00     0.141 C 
HETATM    3  N3  UNL     1      -7.300 -11.787   1.558  1.00  0.00    -0.351 N 
HETATM    4  C10 UNL     1      -6.342 -12.231   0.613  1.00  0.00     0.215 C 
HETATM    5  C11 UNL     1      -5.890 -11.316  -0.446  1.00  0.00     0.117 C 
HETATM    6  O3  UNL     1      -5.847 -13.382   0.630  1.00  0.00    -0.274 OA
HETATM    7  C12 UNL     1      -7.807 -12.608   2.642  1.00  0.00     0.140 C 
HETATM    8  C13 UNL     1      -9.195 -11.951   2.795  1.00  0.00     0.110 C 
ENDROOT
BRANCH   1   9
HETATM    9  C7  UNL     1      -9.749  -9.521   3.086  1.00  0.00     0.231 C 
HETATM   10  N2  UNL     1      -9.496  -8.131   2.939  1.00  0.00    -0.316 N 
HETATM   11  C6  UNL     1      -8.225  -7.603   2.616  1.00  0.00     0.079 C 
HETATM   12  C25 UNL     1     -10.700  -7.302   3.064  1.00  0.00     0.132 C 
HETATM   13  C29 UNL     1      -8.332  -6.403   1.668  1.00  0.00     0.065 C 
HETATM   14  C27 UNL     1      -9.704  -6.281   1.075  1.00  0.00     0.003 C 
HETATM   15  C30 UNL     1      -7.375  -6.551   0.504  1.00  0.00     0.028 C 
HETATM   16  C26 UNL     1     -10.824  -6.251   2.028  1.00  0.00     0.026 C 
HETATM   17  C28 UNL     1      -9.949  -7.377   0.051  1.00  0.00     0.011 C 
HETATM   18  O2  UNL     1     -10.934  -9.850   3.462  1.00  0.00    -0.273 OA
BRANCH  11  19
HETATM   19  C5  UNL     1      -7.174  -7.409   3.604  1.00  0.00     0.162 C 
BRANCH  19  20
HETATM   20  N1  UNL     1      -5.795  -7.347   3.622  1.00  0.00    -0.361 N 
BRANCH  20  21
HETATM   21  C2  UNL     1      -5.043  -8.436   2.930  1.00  0.00     0.120 C 
HETATM   22  C1  UNL     1      -5.092  -9.688   3.777  1.00  0.00     0.026 C 
ENDBRANCH  20  21
BRANCH  20  23
HETATM   23  C3  UNL     1      -4.957  -6.373   4.229  1.00  0.00     0.120 C 
HETATM   24  C4  UNL     1      -4.041  -5.618   3.305  1.00  0.00     0.026 C 
ENDBRANCH  20  23
ENDBRANCH  19  20
BRANCH  19  25
HETATM   25  O1  UNL     1      -7.660  -7.245   4.848  1.00  0.00    -0.345 OA
ATOM     26  H1  UNL     1      -8.526  -7.630   4.913  1.00  0.00     0.219 HD
ENDBRANCH  19  25
ENDBRANCH  11  19
BRANCH  13  27
HETATM   27  C31 UNL     1      -7.970  -5.097   2.329  1.00  0.00     0.367 C 
HETATM   28  F1  UNL     1      -8.919  -4.113   2.179  1.00  0.00    -0.213 F 
HETATM   29  F2  UNL     1      -6.796  -4.585   1.748  1.00  0.00    -0.213 F 
ENDBRANCH  13  27
ENDBRANCH   1   9
BRANCH   8  30
HETATM   30  C14 UNL     1      -9.957 -12.362   1.616  1.00  0.00     0.224 C 
HETATM   31  O4  UNL     1      -9.729 -13.338   0.859  1.00  0.00    -0.273 OA
HETATM   32  N4  UNL     1     -11.110 -11.592   1.234  1.00  0.00    -0.355 N 
ATOM     33  H4  UNL     1     -11.363 -10.786   1.806  1.00  0.00     0.162 HD
BRANCH  32  34
HETATM   34  C15 UNL     1     -11.928 -11.897   0.086  1.00  0.00     0.092 C 
HETATM   35  C16 UNL     1     -13.323 -12.199   0.654  1.00  0.00     0.009 C 
HETATM   36  C17 UNL     1     -14.170 -12.607  -0.526  1.00  0.00     0.011 C 
HETATM   37  C21 UNL     1     -13.939 -11.031   1.345  1.00  0.00     0.011 C 
HETATM   38  C18 UNL     1     -14.274 -11.456  -1.512  1.00  0.00    -0.013 C 
HETATM   39  C19 UNL     1     -14.916 -10.274  -0.808  1.00  0.00     0.009 C 
HETATM   40  C24 UNL     1     -12.902 -11.112  -1.994  1.00  0.00     0.011 C 
HETATM   41  C20 UNL     1     -14.037  -9.881   0.360  1.00  0.00    -0.013 C 
HETATM   42  C22 UNL     1     -12.666  -9.527  -0.165  1.00  0.00     0.011 C 
HETATM   43  C23 UNL     1     -12.023 -10.732  -0.820  1.00  0.00     0.009 C 
ENDBRANCH  32  34
ENDBRANCH   8  30
TORSDOF 9
ENDMDL
