MODEL 1
REMARK VINA RESULT: -5.746244963      0.000      0.000
REMARK  12 active torsions:
REMARK  status: ('A' for Active; 'I' for Inactive)
REMARK    1  A    between atoms: C2_2  and  C5_5 
REMARK    2  A    between atoms: C5_5  and  N1_7 
REMARK    3  A    between atoms: C5_5  and  C13_17 
REMARK       I    between atoms: N1_7  and  C7_9 
REMARK    4  A    between atoms: C7_9  and  O2_11 
REMARK    5  A    between atoms: O2_11  and  C8_12 
REMARK    6  A    between atoms: C13_17  and  O3_18 
REMARK    7  A    between atoms: C13_17  and  N2_20 
REMARK    8  A    between atoms: C15_22  and  C16_23 
REMARK    9  A    between atoms: C18_26  and  C19_27 
REMARK   10  A    between atoms: C19_27  and  O4_28 
REMARK   11  A    between atoms: C19_27  and  N3_30 
REMARK   12  A    between atoms: C21_34  and  C22_35 
ROOT
HETATM    1  C13 UNL     1     -11.069 -10.933   0.531  1.00  0.00     0.143 C 
ENDROOT
BRANCH   1   2
HETATM    2  C5  UNL     1     -12.324 -11.617   0.396  1.00  0.00     0.102 C 
HETATM    3  C6  UNL     1     -12.119 -13.072  -0.073  1.00  0.00     0.048 C 
BRANCH   2   4
HETATM    4  C2  UNL     1     -13.416 -11.026  -0.428  1.00  0.00    -0.018 C 
HETATM    5  C1  UNL     1     -14.183  -9.887   0.143  1.00  0.00     0.017 C 
HETATM    6  C3  UNL     1     -14.542 -12.162  -0.484  1.00  0.00     0.017 C 
HETATM    7  C4  UNL     1     -13.143 -10.807  -1.879  1.00  0.00     0.017 C 
ENDBRANCH   2   4
BRANCH   2   8
HETATM    8  N1  UNL     1     -12.911 -11.865   1.740  1.00  0.00    -0.320 N 
HETATM    9  C7  UNL     1     -12.298 -12.305   2.893  1.00  0.00     0.361 C 
HETATM   10  O1  UNL     1     -11.126 -12.615   3.110  1.00  0.00    -0.238 OA
ATOM     11  H1  UNL     1     -13.911 -11.683   1.820  1.00  0.00     0.166 HD
BRANCH   9  12
HETATM   12  O2  UNL     1     -13.118 -12.440   4.059  1.00  0.00    -0.299 OA
BRANCH  12  13
HETATM   13  C8  UNL     1     -12.569 -12.326   5.357  1.00  0.00     0.133 C 
HETATM   14  C9  UNL     1     -13.485 -11.397   6.137  1.00  0.00     0.032 C 
HETATM   15  C10 UNL     1     -13.852 -12.129   7.401  1.00  0.00     0.002 C 
HETATM   16  C11 UNL     1     -13.905 -13.562   6.933  1.00  0.00     0.002 C 
HETATM   17  C12 UNL     1     -12.673 -13.662   6.054  1.00  0.00     0.032 C 
ENDBRANCH  12  13
ENDBRANCH   9  12
ENDBRANCH   2   8
ENDBRANCH   1   2
BRANCH   1  18
HETATM   18  O3  UNL     1     -10.034 -11.665   0.092  1.00  0.00    -0.347 OA
ATOM     19  H3  UNL     1      -9.272 -11.135  -0.110  1.00  0.00     0.219 HD
ENDBRANCH   1  18
BRANCH   1  20
HETATM   20  N2  UNL     1     -10.604  -9.700   0.996  1.00  0.00    -0.351 N 
HETATM   21  C14 UNL     1     -10.134  -8.678   0.016  1.00  0.00     0.131 C 
HETATM   22  C15 UNL     1      -9.627  -7.517   0.763  1.00  0.00     0.016 C 
HETATM   23  C17 UNL     1      -9.471  -7.964   2.173  1.00  0.00     0.040 C 
HETATM   24  C18 UNL     1     -10.426  -9.170   2.299  1.00  0.00     0.161 C 
BRANCH  22  25
HETATM   25  C16 UNL     1      -8.228  -7.083   0.293  1.00  0.00     0.091 C 
HETATM   26 BR1  UNL     1      -7.279  -8.677  -0.257  1.00  0.00    -0.096 Br
ENDBRANCH  22  25
BRANCH  24  27
HETATM   27  C19 UNL     1     -11.521  -8.752   3.127  1.00  0.00     0.144 C 
BRANCH  27  28
HETATM   28  O4  UNL     1     -11.376  -9.104   4.385  1.00  0.00    -0.348 OA
ATOM     29  H4  UNL     1     -11.903  -9.857   4.622  1.00  0.00     0.219 HD
ENDBRANCH  27  28
BRANCH  27  30
HETATM   30  N3  UNL     1     -12.732  -8.053   2.936  1.00  0.00    -0.302 N 
HETATM   31  C20 UNL     1     -14.058  -8.214   3.585  1.00  0.00     0.256 A 
HETATM   32  N4  UNL     1     -14.444  -7.176   2.794  1.00  0.00    -0.362 N 
HETATM   33  C21 UNL     1     -13.325  -7.018   2.236  1.00  0.00     0.093 A 
ATOM     34  H4  UNL     1     -15.335  -6.691   2.689  1.00  0.00     0.162 HD
BRANCH  33  35
HETATM   35  C22 UNL     1     -12.941  -5.967   1.227  1.00  0.00     0.161 C 
HETATM   36 BR2  UNL     1     -11.816  -4.603   2.011  1.00  0.00    -0.088 Br
ENDBRANCH  33  35
ENDBRANCH  27  30
ENDBRANCH  24  27
ENDBRANCH   1  20
TORSDOF 12
ENDMDL
MODEL 2
REMARK VINA RESULT: -5.739079114      2.914      5.539
REMARK  12 active torsions:
REMARK  status: ('A' for Active; 'I' for Inactive)
REMARK    1  A    between atoms: C2_2  and  C5_5 
REMARK    2  A    between atoms: C5_5  and  N1_7 
REMARK    3  A    between atoms: C5_5  and  C13_17 
REMARK       I    between atoms: N1_7  and  C7_9 
REMARK    4  A    between atoms: C7_9  and  O2_11 
REMARK    5  A    between atoms: O2_11  and  C8_12 
REMARK    6  A    between atoms: C13_17  and  O3_18 
REMARK    7  A    between atoms: C13_17  and  N2_20 
REMARK    8  A    between atoms: C15_22  and  C16_23 
REMARK    9  A    between atoms: C18_26  and  C19_27 
REMARK   10  A    between atoms: C19_27  and  O4_28 
REMARK   11  A    between atoms: C19_27  and  N3_30 
REMARK   12  A    between atoms: C21_34  and  C22_35 
ROOT
HETATM    1  C13 UNL     1     -11.255  -7.229   0.799  1.00  0.00     0.143 C 
ENDROOT
BRANCH   1   2
HETATM    2  C5  UNL     1     -11.918  -6.344   1.715  1.00  0.00     0.102 C 
HETATM    3  C6  UNL     1     -12.901  -5.411   0.979  1.00  0.00     0.048 C 
BRANCH   2   4
HETATM    4  C2  UNL     1     -11.123  -5.508   2.659  1.00  0.00    -0.018 C 
HETATM    5  C1  UNL     1     -11.025  -5.957   4.074  1.00  0.00     0.017 C 
HETATM    6  C3  UNL     1     -11.970  -4.160   2.819  1.00  0.00     0.017 C 
HETATM    7  C4  UNL     1      -9.813  -4.981   2.177  1.00  0.00     0.017 C 
ENDBRANCH   2   4
BRANCH   2   8
HETATM    8  N1  UNL     1     -12.879  -7.111   2.553  1.00  0.00    -0.320 N 
HETATM    9  C7  UNL     1     -13.856  -8.001   2.167  1.00  0.00     0.361 C 
HETATM   10  O1  UNL     1     -14.197  -8.383   1.047  1.00  0.00    -0.238 OA
ATOM     11  H1  UNL     1     -12.802  -6.956   3.558  1.00  0.00     0.166 HD
BRANCH   9  12
HETATM   12  O2  UNL     1     -14.633  -8.610   3.205  1.00  0.00    -0.299 OA
BRANCH  12  13
HETATM   13  C8  UNL     1     -14.715  -8.032   4.493  1.00  0.00     0.133 C 
HETATM   14  C9  UNL     1     -15.712  -6.890   4.395  1.00  0.00     0.032 C 
HETATM   15  C10 UNL     1     -16.726  -7.119   5.486  1.00  0.00     0.002 C 
HETATM   16  C11 UNL     1     -16.804  -8.625   5.534  1.00  0.00     0.002 C 
HETATM   17  C12 UNL     1     -15.345  -9.028   5.439  1.00  0.00     0.032 C 
ENDBRANCH  12  13
ENDBRANCH   9  12
ENDBRANCH   2   8
ENDBRANCH   1   2
BRANCH   1  18
HETATM   18  O3  UNL     1     -11.264  -6.766  -0.461  1.00  0.00    -0.347 OA
ATOM     19  H3  UNL     1     -11.554  -7.418  -1.087  1.00  0.00     0.219 HD
ENDBRANCH   1  18
BRANCH   1  20
HETATM   20  N2  UNL     1     -10.591  -8.457   0.839  1.00  0.00    -0.351 N 
HETATM   21  C14 UNL     1      -9.608  -8.721   1.929  1.00  0.00     0.131 C 
HETATM   22  C15 UNL     1      -8.998 -10.039   1.695  1.00  0.00     0.016 C 
HETATM   23  C17 UNL     1      -9.352 -10.422   0.302  1.00  0.00     0.040 C 
HETATM   24  C18 UNL     1     -10.614  -9.590  -0.013  1.00  0.00     0.161 C 
BRANCH  22  25
HETATM   25  C16 UNL     1      -7.462  -9.994   1.751  1.00  0.00     0.091 C 
HETATM   26 BR1  UNL     1      -6.803 -10.461  -0.007  1.00  0.00    -0.096 Br
ENDBRANCH  22  25
BRANCH  24  27
HETATM   27  C19 UNL     1     -11.717 -10.506  -0.063  1.00  0.00     0.144 C 
BRANCH  27  28
HETATM   28  O4  UNL     1     -12.585 -10.212  -1.006  1.00  0.00    -0.348 OA
ATOM     29  H4  UNL     1     -13.126 -10.952  -1.256  1.00  0.00     0.219 HD
ENDBRANCH  27  28
BRANCH  27  30
HETATM   30  N3  UNL     1     -12.118 -11.657   0.649  1.00  0.00    -0.302 N 
HETATM   31  C20 UNL     1     -12.991 -11.804   1.841  1.00  0.00     0.256 A 
HETATM   32  N4  UNL     1     -12.758 -13.138   1.705  1.00  0.00    -0.362 N 
HETATM   33  C21 UNL     1     -12.020 -13.036   0.689  1.00  0.00     0.093 A 
ATOM     34  H4  UNL     1     -13.074 -13.946   2.242  1.00  0.00     0.162 HD
BRANCH  33  35
HETATM   35  C22 UNL     1     -11.392 -14.149  -0.108  1.00  0.00     0.161 C 
HETATM   36 BR2  UNL     1      -9.474 -14.207   0.135  1.00  0.00    -0.088 Br
ENDBRANCH  33  35
ENDBRANCH  27  30
ENDBRANCH  24  27
ENDBRANCH   1  20
TORSDOF 12
ENDMDL
MODEL 3
REMARK VINA RESULT: -5.723766833      3.117      4.678
REMARK  12 active torsions:
REMARK  status: ('A' for Active; 'I' for Inactive)
REMARK    1  A    between atoms: C2_2  and  C5_5 
REMARK    2  A    between atoms: C5_5  and  N1_7 
REMARK    3  A    between atoms: C5_5  and  C13_17 
REMARK       I    between atoms: N1_7  and  C7_9 
REMARK    4  A    between atoms: C7_9  and  O2_11 
REMARK    5  A    between atoms: O2_11  and  C8_12 
REMARK    6  A    between atoms: C13_17  and  O3_18 
REMARK    7  A    between atoms: C13_17  and  N2_20 
REMARK    8  A    between atoms: C15_22  and  C16_23 
REMARK    9  A    between atoms: C18_26  and  C19_27 
REMARK   10  A    between atoms: C19_27  and  O4_28 
REMARK   11  A    between atoms: C19_27  and  N3_30 
REMARK   12  A    between atoms: C21_34  and  C22_35 
ROOT
HETATM    1  C13 UNL     1     -12.271 -10.260   0.615  1.00  0.00     0.143 C 
ENDROOT
BRANCH   1   2
HETATM    2  C5  UNL     1     -13.619 -10.748   0.534  1.00  0.00     0.102 C 
HETATM    3  C6  UNL     1     -13.720 -12.197   1.052  1.00  0.00     0.048 C 
BRANCH   2   4
HETATM    4  C2  UNL     1     -14.367 -10.675  -0.754  1.00  0.00    -0.018 C 
HETATM    5  C1  UNL     1     -15.501  -9.717  -0.848  1.00  0.00     0.017 C 
HETATM    6  C3  UNL     1     -15.134 -12.076  -0.857  1.00  0.00     0.017 C 
HETATM    7  C4  UNL     1     -13.569 -10.679  -2.015  1.00  0.00     0.017 C 
ENDBRANCH   2   4
BRANCH   2   8
HETATM    8  N1  UNL     1     -14.467 -10.059   1.543  1.00  0.00    -0.320 N 
HETATM    9  C7  UNL     1     -14.322  -9.999   2.911  1.00  0.00     0.361 C 
HETATM   10  O1  UNL     1     -13.474 -10.500   3.650  1.00  0.00    -0.238 OA
ATOM     11  H1  UNL     1     -15.273  -9.559   1.167  1.00  0.00     0.166 HD
BRANCH   9  12
HETATM   12  O2  UNL     1     -15.294  -9.241   3.639  1.00  0.00    -0.299 OA
BRANCH  12  13
HETATM   13  C8  UNL     1     -15.355  -9.294   5.052  1.00  0.00     0.133 C 
HETATM   14  C9  UNL     1     -15.092  -7.883   5.552  1.00  0.00     0.032 C 
HETATM   15  C10 UNL     1     -16.232  -7.543   6.476  1.00  0.00     0.002 C 
HETATM   16  C11 UNL     1     -17.389  -8.267   5.831  1.00  0.00     0.002 C 
HETATM   17  C12 UNL     1     -16.773  -9.605   5.471  1.00  0.00     0.032 C 
ENDBRANCH  12  13
ENDBRANCH   9  12
ENDBRANCH   2   8
ENDBRANCH   1   2
BRANCH   1  18
HETATM   18  O3  UNL     1     -12.199  -8.925   0.499  1.00  0.00    -0.347 OA
ATOM     19  H3  UNL     1     -12.249  -8.634  -0.404  1.00  0.00     0.219 HD
ENDBRANCH   1  18
BRANCH   1  20
HETATM   20  N2  UNL     1     -10.986 -10.782   0.782  1.00  0.00    -0.351 N 
HETATM   21  C14 UNL     1     -10.535 -11.907  -0.088  1.00  0.00     0.131 C 
HETATM   22  C15 UNL     1      -9.190 -12.317   0.344  1.00  0.00     0.016 C 
HETATM   23  C17 UNL     1      -8.966 -11.685   1.672  1.00  0.00     0.040 C 
HETATM   24  C18 UNL     1      -9.939 -10.487   1.691  1.00  0.00     0.161 C 
BRANCH  22  25
HETATM   25  C16 UNL     1      -9.083 -13.835   0.568  1.00  0.00     0.091 C 
HETATM   26 BR1  UNL     1     -10.711 -14.637  -0.103  1.00  0.00    -0.096 Br
ENDBRANCH  22  25
BRANCH  24  27
HETATM   27  C19 UNL     1      -9.140  -9.298   1.601  1.00  0.00     0.144 C 
BRANCH  27  28
HETATM   28  O4  UNL     1      -9.276  -8.508   2.644  1.00  0.00    -0.348 OA
ATOM     29  H4  UNL     1      -9.922  -8.823   3.265  1.00  0.00     0.219 HD
ENDBRANCH  27  28
BRANCH  27  30
HETATM   30  N3  UNL     1      -8.235  -8.748   0.668  1.00  0.00    -0.302 N 
HETATM   31  C20 UNL     1      -8.031  -7.346   0.226  1.00  0.00     0.256 A 
HETATM   32  N4  UNL     1      -7.047  -7.859  -0.564  1.00  0.00    -0.362 N 
HETATM   33  C21 UNL     1      -7.200  -9.055  -0.196  1.00  0.00     0.093 A 
ATOM     34  H4  UNL     1      -6.405  -7.424  -1.226  1.00  0.00     0.162 HD
BRANCH  33  35
HETATM   35  C22 UNL     1      -6.394 -10.257  -0.616  1.00  0.00     0.161 C 
HETATM   36 BR2  UNL     1      -5.229 -10.865   0.803  1.00  0.00    -0.088 Br
ENDBRANCH  33  35
ENDBRANCH  27  30
ENDBRANCH  24  27
ENDBRANCH   1  20
TORSDOF 12
ENDMDL
MODEL 4
REMARK VINA RESULT: -5.678071513      1.973      3.859
REMARK  12 active torsions:
REMARK  status: ('A' for Active; 'I' for Inactive)
REMARK    1  A    between atoms: C2_2  and  C5_5 
REMARK    2  A    between atoms: C5_5  and  N1_7 
REMARK    3  A    between atoms: C5_5  and  C13_17 
REMARK       I    between atoms: N1_7  and  C7_9 
REMARK    4  A    between atoms: C7_9  and  O2_11 
REMARK    5  A    between atoms: O2_11  and  C8_12 
REMARK    6  A    between atoms: C13_17  and  O3_18 
REMARK    7  A    between atoms: C13_17  and  N2_20 
REMARK    8  A    between atoms: C15_22  and  C16_23 
REMARK    9  A    between atoms: C18_26  and  C19_27 
REMARK   10  A    between atoms: C19_27  and  O4_28 
REMARK   11  A    between atoms: C19_27  and  N3_30 
REMARK   12  A    between atoms: C21_34  and  C22_35 
ROOT
HETATM    1  C13 UNL     1     -11.113 -10.929   0.334  1.00  0.00     0.143 C 
ENDROOT
BRANCH   1   2
HETATM    2  C5  UNL     1     -12.398 -11.565   0.246  1.00  0.00     0.102 C 
HETATM    3  C6  UNL     1     -12.270 -13.016  -0.258  1.00  0.00     0.048 C 
BRANCH   2   4
HETATM    4  C2  UNL     1     -13.505 -10.918  -0.515  1.00  0.00    -0.018 C 
HETATM    5  C1  UNL     1     -14.232  -9.793   0.133  1.00  0.00     0.017 C 
HETATM    6  C3  UNL     1     -14.652 -12.031  -0.586  1.00  0.00     0.017 C 
HETATM    7  C4  UNL     1     -13.272 -10.636  -1.962  1.00  0.00     0.017 C 
ENDBRANCH   2   4
BRANCH   2   8
HETATM    8  N1  UNL     1     -12.931 -11.818   1.612  1.00  0.00    -0.320 N 
HETATM    9  C7  UNL     1     -12.288 -12.325   2.719  1.00  0.00     0.361 C 
HETATM   10  O1  UNL     1     -11.127 -12.707   2.868  1.00  0.00    -0.238 OA
ATOM     11  H1  UNL     1     -13.914 -11.582   1.747  1.00  0.00     0.166 HD
BRANCH   9  12
HETATM   12  O2  UNL     1     -13.055 -12.448   3.922  1.00  0.00    -0.299 OA
BRANCH  12  13
HETATM   13  C8  UNL     1     -12.463 -12.255   5.192  1.00  0.00     0.133 C 
HETATM   14  C9  UNL     1     -13.297 -11.205   5.906  1.00  0.00     0.032 C 
HETATM   15  C10 UNL     1     -13.671 -11.799   7.240  1.00  0.00     0.002 C 
HETATM   16  C11 UNL     1     -13.825 -13.261   6.903  1.00  0.00     0.002 C 
HETATM   17  C12 UNL     1     -12.627 -13.515   6.008  1.00  0.00     0.032 C 
ENDBRANCH  12  13
ENDBRANCH   9  12
ENDBRANCH   2   8
ENDBRANCH   1   2
BRANCH   1  18
HETATM   18  O3  UNL     1     -10.102 -11.776   0.088  1.00  0.00    -0.347 OA
ATOM     19  H3  UNL     1      -9.401 -11.372  -0.410  1.00  0.00     0.219 HD
ENDBRANCH   1  18
BRANCH   1  20
HETATM   20  N2  UNL     1     -10.600  -9.659   0.608  1.00  0.00    -0.351 N 
HETATM   21  C14 UNL     1     -11.086  -8.917   1.808  1.00  0.00     0.131 C 
HETATM   22  C15 UNL     1     -10.454  -7.589   1.819  1.00  0.00     0.016 C 
HETATM   23  C17 UNL     1      -9.861  -7.396   0.469  1.00  0.00     0.040 C 
HETATM   24  C18 UNL     1      -9.673  -8.830  -0.072  1.00  0.00     0.161 C 
BRANCH  22  25
HETATM   25  C16 UNL     1     -11.476  -6.455   2.005  1.00  0.00     0.091 C 
HETATM   26 BR1  UNL     1     -11.637  -5.534   0.311  1.00  0.00    -0.096 Br
ENDBRANCH  22  25
BRANCH  24  27
HETATM   27  C19 UNL     1      -8.262  -9.088  -0.090  1.00  0.00     0.144 C 
BRANCH  27  28
HETATM   28  O4  UNL     1      -7.612  -8.328  -0.943  1.00  0.00    -0.348 OA
ATOM     29  H4  UNL     1      -6.906  -7.837  -0.540  1.00  0.00     0.219 HD
ENDBRANCH  27  28
BRANCH  27  30
HETATM   30  N3  UNL     1      -7.379  -9.962   0.580  1.00  0.00    -0.302 N 
HETATM   31  C20 UNL     1      -6.064 -10.517   0.168  1.00  0.00     0.256 A 
HETATM   32  N4  UNL     1      -6.072 -11.133   1.382  1.00  0.00    -0.362 N 
HETATM   33  C21 UNL     1      -7.184 -10.668   1.753  1.00  0.00     0.093 A 
ATOM     34  H4  UNL     1      -5.406 -11.758   1.835  1.00  0.00     0.162 HD
BRANCH  33  35
HETATM   35  C22 UNL     1      -7.868 -10.871   3.080  1.00  0.00     0.161 C 
HETATM   36 BR2  UNL     1      -7.876  -9.249   4.133  1.00  0.00    -0.088 Br
ENDBRANCH  33  35
ENDBRANCH  27  30
ENDBRANCH  24  27
ENDBRANCH   1  20
TORSDOF 12
ENDMDL
MODEL 5
REMARK VINA RESULT: -5.674339613      1.279      1.526
REMARK  12 active torsions:
REMARK  status: ('A' for Active; 'I' for Inactive)
REMARK    1  A    between atoms: C2_2  and  C5_5 
REMARK    2  A    between atoms: C5_5  and  N1_7 
REMARK    3  A    between atoms: C5_5  and  C13_17 
REMARK       I    between atoms: N1_7  and  C7_9 
REMARK    4  A    between atoms: C7_9  and  O2_11 
REMARK    5  A    between atoms: O2_11  and  C8_12 
REMARK    6  A    between atoms: C13_17  and  O3_18 
REMARK    7  A    between atoms: C13_17  and  N2_20 
REMARK    8  A    between atoms: C15_22  and  C16_23 
REMARK    9  A    between atoms: C18_26  and  C19_27 
REMARK   10  A    between atoms: C19_27  and  O4_28 
REMARK   11  A    between atoms: C19_27  and  N3_30 
REMARK   12  A    between atoms: C21_34  and  C22_35 
ROOT
HETATM    1  C13 UNL     1     -11.203 -10.861   0.644  1.00  0.00     0.143 C 
ENDROOT
BRANCH   1   2
HETATM    2  C5  UNL     1     -12.456 -11.559   0.590  1.00  0.00     0.102 C 
HETATM    3  C6  UNL     1     -12.265 -13.014   0.114  1.00  0.00     0.048 C 
BRANCH   2   4
HETATM    4  C2  UNL     1     -13.604 -10.983  -0.167  1.00  0.00    -0.018 C 
HETATM    5  C1  UNL     1     -14.584 -10.150   0.580  1.00  0.00     0.017 C 
HETATM    6  C3  UNL     1     -14.504 -12.246  -0.561  1.00  0.00     0.017 C 
HETATM    7  C4  UNL     1     -13.317 -10.393  -1.508  1.00  0.00     0.017 C 
ENDBRANCH   2   4
BRANCH   2   8
HETATM    8  N1  UNL     1     -12.956 -11.809   1.969  1.00  0.00    -0.320 N 
HETATM    9  C7  UNL     1     -12.274 -12.260   3.076  1.00  0.00     0.361 C 
HETATM   10  O1  UNL     1     -11.093 -12.583   3.215  1.00  0.00    -0.238 OA
ATOM     11  H1  UNL     1     -13.947 -11.617   2.114  1.00  0.00     0.166 HD
BRANCH   9  12
HETATM   12  O2  UNL     1     -13.017 -12.394   4.293  1.00  0.00    -0.299 OA
BRANCH  12  13
HETATM   13  C8  UNL     1     -12.383 -12.774   5.499  1.00  0.00     0.133 C 
HETATM   14  C9  UNL     1     -12.415 -11.557   6.409  1.00  0.00     0.032 C 
HETATM   15  C10 UNL     1     -13.024 -12.017   7.709  1.00  0.00     0.002 C 
HETATM   16  C11 UNL     1     -14.021 -13.049   7.243  1.00  0.00     0.002 C 
HETATM   17  C12 UNL     1     -13.234 -13.811   6.195  1.00  0.00     0.032 C 
ENDBRANCH  12  13
ENDBRANCH   9  12
ENDBRANCH   2   8
ENDBRANCH   1   2
BRANCH   1  18
HETATM   18  O3  UNL     1     -10.185 -11.591   0.162  1.00  0.00    -0.347 OA
ATOM     19  H3  UNL     1      -9.515 -11.758   0.814  1.00  0.00     0.219 HD
ENDBRANCH   1  18
BRANCH   1  20
HETATM   20  N2  UNL     1     -10.726  -9.616   1.063  1.00  0.00    -0.351 N 
HETATM   21  C14 UNL     1     -10.168  -8.670   0.054  1.00  0.00     0.131 C 
HETATM   22  C15 UNL     1      -9.667  -7.481   0.761  1.00  0.00     0.016 C 
HETATM   23  C17 UNL     1      -9.608  -7.844   2.202  1.00  0.00     0.040 C 
HETATM   24  C18 UNL     1     -10.608  -9.013   2.341  1.00  0.00     0.161 C 
BRANCH  22  25
HETATM   25  C16 UNL     1      -8.230  -7.116   0.351  1.00  0.00     0.091 C 
HETATM   26 BR1  UNL     1      -7.389  -8.728  -0.312  1.00  0.00    -0.096 Br
ENDBRANCH  22  25
BRANCH  24  27
HETATM   27  C19 UNL     1     -11.735  -8.514   3.075  1.00  0.00     0.144 C 
BRANCH  27  28
HETATM   28  O4  UNL     1     -11.691  -8.822   4.353  1.00  0.00    -0.348 OA
ATOM     29  H4  UNL     1     -10.909  -8.500   4.785  1.00  0.00     0.219 HD
ENDBRANCH  27  28
BRANCH  27  30
HETATM   30  N3  UNL     1     -12.896  -7.769   2.776  1.00  0.00    -0.302 N 
HETATM   31  C20 UNL     1     -13.273  -7.007   1.559  1.00  0.00     0.256 A 
HETATM   32  N4  UNL     1     -14.429  -6.736   2.226  1.00  0.00    -0.362 N 
HETATM   33  C21 UNL     1     -14.130  -7.383   3.266  1.00  0.00     0.093 A 
ATOM     34  H4  UNL     1     -15.254  -6.194   1.970  1.00  0.00     0.162 HD
BRANCH  33  35
HETATM   35  C22 UNL     1     -14.982  -7.600   4.490  1.00  0.00     0.161 C 
HETATM   36 BR2  UNL     1     -15.280  -9.481   4.826  1.00  0.00    -0.088 Br
ENDBRANCH  33  35
ENDBRANCH  27  30
ENDBRANCH  24  27
ENDBRANCH   1  20
TORSDOF 12
ENDMDL
