MODEL 1
REMARK VINA RESULT: -7.623926153      0.000      0.000
REMARK  6 active torsions:
REMARK  status: ('A' for Active; 'I' for Inactive)
REMARK    1  A    between atoms: C4_5  and  C5_6 
REMARK       I    between atoms: C5_6  and  N1_8 
REMARK    2  A    between atoms: N1_8  and  C6_10 
REMARK    3  A    between atoms: N2_13  and  C9_14 
REMARK    4  A    between atoms: C12_17  and  N3_18 
REMARK    5  A    between atoms: C21_28  and  C22_29 
REMARK       I    between atoms: C22_29  and  N4_31 
REMARK    6  A    between atoms: C25_34  and  C26_35 
ROOT
HETATM    1  C5  UNL     1     -14.429  -9.976   4.899  1.00  0.00     0.223 C 
HETATM    2  O1  UNL     1     -15.412  -9.572   4.203  1.00  0.00    -0.273 OA
HETATM    3  N1  UNL     1     -14.544  -9.775   6.289  1.00  0.00    -0.356 N 
ATOM      4  H1  UNL     1     -13.779 -10.080   6.891  1.00  0.00     0.162 HD
ENDROOT
BRANCH   3   5
HETATM    5  C6  UNL     1     -15.704  -9.152   6.901  1.00  0.00     0.087 C 
HETATM    6  C7  UNL     1     -15.236  -8.171   7.958  1.00  0.00     0.044 C 
HETATM    7  C8  UNL     1     -16.404  -7.366   8.503  1.00  0.00     0.119 C 
HETATM    8  N2  UNL     1     -17.552  -8.169   8.755  1.00  0.00    -0.408 N 
HETATM    9  C19 UNL     1     -17.364  -9.570   8.736  1.00  0.00     0.119 C 
HETATM   10  C20 UNL     1     -16.669 -10.116   7.508  1.00  0.00     0.044 C 
BRANCH   8  11
HETATM   11  C9  UNL     1     -18.694  -7.638   8.092  1.00  0.00     0.079 C 
HETATM   12  C10 UNL     1     -18.417  -7.585   6.631  1.00  0.00     0.027 C 
HETATM   13  C11 UNL     1     -19.323  -6.696   5.827  1.00  0.00     0.027 C 
HETATM   14  C12 UNL     1     -19.486  -5.337   6.475  1.00  0.00     0.087 C 
HETATM   15  C17 UNL     1     -20.135  -5.615   7.817  1.00  0.00     0.027 C 
HETATM   16  C18 UNL     1     -19.188  -6.352   8.701  1.00  0.00     0.027 C 
BRANCH  14  17
HETATM   17  N3  UNL     1     -20.327  -4.496   5.684  1.00  0.00    -0.347 N 
HETATM   18  C13 UNL     1     -21.722  -4.154   5.889  1.00  0.00     0.127 C 
HETATM   19  C14 UNL     1     -22.239  -4.237   4.450  1.00  0.00     0.029 C 
HETATM   20  C15 UNL     1     -21.163  -3.432   3.726  1.00  0.00     0.104 C 
HETATM   21  C16 UNL     1     -19.945  -3.804   4.491  1.00  0.00     0.220 C 
HETATM   22  O2  UNL     1     -18.747  -3.569   4.180  1.00  0.00    -0.273 OA
ENDBRANCH  14  17
ENDBRANCH   8  11
ENDBRANCH   3   5
BRANCH   1  23
HETATM   23  C4  UNL     1     -13.273 -10.605   4.237  1.00  0.00     0.094 C 
HETATM   24  C3  UNL     1     -11.977  -9.971   4.756  1.00  0.00     0.036 C 
HETATM   25  C2  UNL     1     -11.907  -9.222   3.443  1.00  0.00     0.028 C 
HETATM   26  C1  UNL     1     -10.511  -9.237   2.929  1.00  0.00     0.028 C 
HETATM   27 BR1  UNL     1     -12.487  -7.376   3.694  1.00  0.00    -0.085 Br
HETATM   28  C21 UNL     1     -12.941 -10.100   2.856  1.00  0.00     0.110 C 
BRANCH  28  29
HETATM   29  C22 UNL     1     -12.540 -11.118   1.874  1.00  0.00     0.226 C 
HETATM   30  O3  UNL     1     -12.068 -12.220   2.314  1.00  0.00    -0.273 OA
HETATM   31  N4  UNL     1     -12.626 -11.001   0.474  1.00  0.00    -0.352 N 
HETATM   32  C23 UNL     1     -13.119  -9.857  -0.258  1.00  0.00     0.126 C 
HETATM   33  C28 UNL     1     -12.193 -12.103  -0.361  1.00  0.00     0.126 C 
HETATM   34  C24 UNL     1     -14.414 -10.288  -0.903  1.00  0.00     0.027 C 
HETATM   35  C25 UNL     1     -14.105 -11.452  -1.819  1.00  0.00     0.017 C 
HETATM   36  C27 UNL     1     -13.404 -12.570  -1.123  1.00  0.00     0.027 C 
BRANCH  35  37
HETATM   37  C26 UNL     1     -15.410 -12.005  -2.355  1.00  0.00     0.227 C 
HETATM   38  F1  UNL     1     -15.192 -13.198  -2.973  1.00  0.00    -0.255 F 
ENDBRANCH  35  37
ENDBRANCH  28  29
ENDBRANCH   1  23
TORSDOF 6
ENDMDL
MODEL 2
REMARK VINA RESULT: -7.450013295      1.604      1.925
REMARK  6 active torsions:
REMARK  status: ('A' for Active; 'I' for Inactive)
REMARK    1  A    between atoms: C4_5  and  C5_6 
REMARK       I    between atoms: C5_6  and  N1_8 
REMARK    2  A    between atoms: N1_8  and  C6_10 
REMARK    3  A    between atoms: N2_13  and  C9_14 
REMARK    4  A    between atoms: C12_17  and  N3_18 
REMARK    5  A    between atoms: C21_28  and  C22_29 
REMARK       I    between atoms: C22_29  and  N4_31 
REMARK    6  A    between atoms: C25_34  and  C26_35 
ROOT
HETATM    1  C5  UNL     1     -14.545  -9.816   4.599  1.00  0.00     0.223 C 
HETATM    2  O1  UNL     1     -15.341  -9.388   3.706  1.00  0.00    -0.273 OA
HETATM    3  N1  UNL     1     -14.824  -9.394   5.915  1.00  0.00    -0.356 N 
ATOM      4  H1  UNL     1     -14.213  -9.708   6.668  1.00  0.00     0.162 HD
ENDROOT
BRANCH   3   5
HETATM    5  C6  UNL     1     -15.946  -8.532   6.244  1.00  0.00     0.087 C 
HETATM    6  C7  UNL     1     -15.538  -7.603   7.370  1.00  0.00     0.044 C 
HETATM    7  C8  UNL     1     -16.616  -6.565   7.631  1.00  0.00     0.119 C 
HETATM    8  N2  UNL     1     -17.926  -7.122   7.625  1.00  0.00    -0.408 N 
HETATM    9  C19 UNL     1     -18.016  -8.533   7.661  1.00  0.00     0.119 C 
HETATM   10  C20 UNL     1     -17.189  -9.264   6.626  1.00  0.00     0.044 C 
BRANCH   8  11
HETATM   11  C9  UNL     1     -18.769  -6.421   6.717  1.00  0.00     0.079 C 
HETATM   12  C10 UNL     1     -18.599  -4.959   6.941  1.00  0.00     0.027 C 
HETATM   13  C11 UNL     1     -19.681  -4.083   6.374  1.00  0.00     0.027 C 
HETATM   14  C12 UNL     1     -21.058  -4.605   6.722  1.00  0.00     0.087 C 
HETATM   15  C17 UNL     1     -21.139  -5.971   6.067  1.00  0.00     0.027 C 
HETATM   16  C18 UNL     1     -20.192  -6.913   6.729  1.00  0.00     0.027 C 
BRANCH  14  17
HETATM   17  N3  UNL     1     -22.073  -3.746   6.200  1.00  0.00    -0.347 N 
HETATM   18  C13 UNL     1     -22.052  -2.946   4.990  1.00  0.00     0.127 C 
HETATM   19  C14 UNL     1     -22.708  -1.660   5.502  1.00  0.00     0.029 C 
HETATM   20  C15 UNL     1     -23.916  -2.240   6.232  1.00  0.00     0.104 C 
HETATM   21  C16 UNL     1     -23.352  -3.497   6.790  1.00  0.00     0.220 C 
HETATM   22  O2  UNL     1     -23.879  -4.255   7.647  1.00  0.00    -0.273 OA
ENDBRANCH  14  17
ENDBRANCH   8  11
ENDBRANCH   3   5
BRANCH   1  23
HETATM   23  C4  UNL     1     -13.422 -10.690   4.220  1.00  0.00     0.094 C 
HETATM   24  C3  UNL     1     -12.226 -10.416   5.140  1.00  0.00     0.036 C 
HETATM   25  C2  UNL     1     -11.604  -9.666   3.982  1.00  0.00     0.028 C 
HETATM   26  C1  UNL     1     -10.161 -10.011   3.874  1.00  0.00     0.028 C 
HETATM   27 BR1  UNL     1     -11.794  -7.742   4.252  1.00  0.00    -0.085 Br
HETATM   28  C21 UNL     1     -12.593 -10.239   3.045  1.00  0.00     0.110 C 
BRANCH  28  29
HETATM   29  C22 UNL     1     -12.167 -11.293   2.112  1.00  0.00     0.226 C 
HETATM   30  O3  UNL     1     -11.773 -12.403   2.604  1.00  0.00    -0.273 OA
HETATM   31  N4  UNL     1     -12.149 -11.200   0.708  1.00  0.00    -0.352 N 
HETATM   32  C23 UNL     1     -12.542 -10.052  -0.078  1.00  0.00     0.126 C 
HETATM   33  C28 UNL     1     -11.703 -12.336  -0.075  1.00  0.00     0.126 C 
HETATM   34  C24 UNL     1     -13.804 -10.445  -0.806  1.00  0.00     0.027 C 
HETATM   35  C25 UNL     1     -13.480 -11.639  -1.677  1.00  0.00     0.017 C 
HETATM   36  C27 UNL     1     -12.876 -12.769  -0.913  1.00  0.00     0.027 C 
BRANCH  35  37
HETATM   37  C26 UNL     1     -14.765 -12.150  -2.295  1.00  0.00     0.227 C 
HETATM   38  F1  UNL     1     -15.758 -12.162  -1.363  1.00  0.00    -0.255 F 
ENDBRANCH  35  37
ENDBRANCH  28  29
ENDBRANCH   1  23
TORSDOF 6
ENDMDL
MODEL 3
REMARK VINA RESULT: -7.382033103      2.882      3.962
REMARK  6 active torsions:
REMARK  status: ('A' for Active; 'I' for Inactive)
REMARK    1  A    between atoms: C4_5  and  C5_6 
REMARK       I    between atoms: C5_6  and  N1_8 
REMARK    2  A    between atoms: N1_8  and  C6_10 
REMARK    3  A    between atoms: N2_13  and  C9_14 
REMARK    4  A    between atoms: C12_17  and  N3_18 
REMARK    5  A    between atoms: C21_28  and  C22_29 
REMARK       I    between atoms: C22_29  and  N4_31 
REMARK    6  A    between atoms: C25_34  and  C26_35 
ROOT
HETATM    1  C5  UNL     1     -13.486  -8.918   2.216  1.00  0.00     0.223 C 
HETATM    2  O1  UNL     1     -14.184  -7.996   1.689  1.00  0.00    -0.273 OA
HETATM    3  N1  UNL     1     -13.838  -9.268   3.535  1.00  0.00    -0.356 N 
ATOM      4  H1  UNL     1     -13.306 -10.001   4.004  1.00  0.00     0.162 HD
ENDROOT
BRANCH   3   5
HETATM    5  C6  UNL     1     -14.926  -8.630   4.256  1.00  0.00     0.087 C 
HETATM    6  C7  UNL     1     -14.358  -7.531   5.132  1.00  0.00     0.044 C 
HETATM    7  C8  UNL     1     -15.472  -6.720   5.771  1.00  0.00     0.119 C 
HETATM    8  N2  UNL     1     -16.528  -7.536   6.269  1.00  0.00    -0.408 N 
HETATM    9  C19 UNL     1     -16.272  -8.923   6.353  1.00  0.00     0.119 C 
HETATM   10  C20 UNL     1     -15.738  -9.564   5.090  1.00  0.00     0.044 C 
BRANCH   8  11
HETATM   11  C9  UNL     1     -17.781  -7.117   5.741  1.00  0.00     0.079 C 
HETATM   12  C10 UNL     1     -17.690  -5.676   5.380  1.00  0.00     0.027 C 
HETATM   13  C11 UNL     1     -19.001  -4.966   5.192  1.00  0.00     0.027 C 
HETATM   14  C12 UNL     1     -19.958  -5.258   6.328  1.00  0.00     0.087 C 
HETATM   15  C17 UNL     1     -20.197  -6.755   6.267  1.00  0.00     0.027 C 
HETATM   16  C18 UNL     1     -18.948  -7.488   6.620  1.00  0.00     0.027 C 
BRANCH  14  17
HETATM   17  N3  UNL     1     -21.188  -4.554   6.148  1.00  0.00    -0.347 N 
HETATM   18  C13 UNL     1     -22.496  -5.081   5.809  1.00  0.00     0.127 C 
HETATM   19  C14 UNL     1     -22.966  -4.023   4.807  1.00  0.00     0.029 C 
HETATM   20  C15 UNL     1     -22.630  -2.748   5.577  1.00  0.00     0.104 C 
HETATM   21  C16 UNL     1     -21.376  -3.141   6.271  1.00  0.00     0.220 C 
HETATM   22  O2  UNL     1     -20.574  -2.386   6.883  1.00  0.00    -0.273 OA
ENDBRANCH  14  17
ENDBRANCH   8  11
ENDBRANCH   3   5
BRANCH   1  23
HETATM   23  C4  UNL     1     -12.394  -9.538   1.448  1.00  0.00     0.094 C 
HETATM   24  C3  UNL     1     -12.569  -9.220  -0.041  1.00  0.00     0.036 C 
HETATM   25  C2  UNL     1     -13.056 -10.642  -0.211  1.00  0.00     0.028 C 
HETATM   26  C1  UNL     1     -12.459 -11.237  -1.437  1.00  0.00     0.028 C 
HETATM   27 BR1  UNL     1     -15.002 -10.671  -0.356  1.00  0.00    -0.085 Br
HETATM   28  C21 UNL     1     -12.551 -11.003   1.130  1.00  0.00     0.110 C 
BRANCH  28  29
HETATM   29  C22 UNL     1     -11.334 -11.823   1.239  1.00  0.00     0.226 C 
HETATM   30  O3  UNL     1     -11.435 -13.075   1.012  1.00  0.00    -0.273 OA
HETATM   31  N4  UNL     1     -10.048 -11.360   1.574  1.00  0.00    -0.352 N 
HETATM   32  C23 UNL     1      -9.684  -9.994   1.878  1.00  0.00     0.126 C 
HETATM   33  C28 UNL     1      -8.947 -12.299   1.635  1.00  0.00     0.126 C 
HETATM   34  C24 UNL     1      -8.809  -9.523   0.742  1.00  0.00     0.027 C 
HETATM   35  C25 UNL     1      -7.599 -10.430   0.688  1.00  0.00     0.017 C 
HETATM   36  C27 UNL     1      -7.958 -11.874   0.583  1.00  0.00     0.027 C 
BRANCH  35  37
HETATM   37  C26 UNL     1      -6.785 -10.078  -0.541  1.00  0.00     0.227 C 
HETATM   38  F1  UNL     1      -5.909 -11.081  -0.822  1.00  0.00    -0.255 F 
ENDBRANCH  35  37
ENDBRANCH  28  29
ENDBRANCH   1  23
TORSDOF 6
ENDMDL
MODEL 4
REMARK VINA RESULT: -7.332838537      2.292      2.821
REMARK  6 active torsions:
REMARK  status: ('A' for Active; 'I' for Inactive)
REMARK    1  A    between atoms: C4_5  and  C5_6 
REMARK       I    between atoms: C5_6  and  N1_8 
REMARK    2  A    between atoms: N1_8  and  C6_10 
REMARK    3  A    between atoms: N2_13  and  C9_14 
REMARK    4  A    between atoms: C12_17  and  N3_18 
REMARK    5  A    between atoms: C21_28  and  C22_29 
REMARK       I    between atoms: C22_29  and  N4_31 
REMARK    6  A    between atoms: C25_34  and  C26_35 
ROOT
HETATM    1  C5  UNL     1     -14.309  -9.751   3.696  1.00  0.00     0.223 C 
HETATM    2  O1  UNL     1     -14.539  -8.677   3.057  1.00  0.00    -0.273 OA
HETATM    3  N1  UNL     1     -15.083  -9.946   4.858  1.00  0.00    -0.356 N 
ATOM      4  H1  UNL     1     -14.933 -10.792   5.407  1.00  0.00     0.162 HD
ENDROOT
BRANCH   3   5
HETATM    5  C6  UNL     1     -16.083  -8.994   5.306  1.00  0.00     0.087 C 
HETATM    6  C7  UNL     1     -15.416  -7.958   6.189  1.00  0.00     0.044 C 
HETATM    7  C8  UNL     1     -16.386  -6.842   6.539  1.00  0.00     0.119 C 
HETATM    8  N2  UNL     1     -17.679  -7.328   6.885  1.00  0.00    -0.408 N 
HETATM    9  C19 UNL     1     -17.793  -8.717   7.121  1.00  0.00     0.119 C 
HETATM   10  C20 UNL     1     -17.230  -9.609   6.036  1.00  0.00     0.044 C 
BRANCH   8  11
HETATM   11  C9  UNL     1     -18.683  -6.698   6.096  1.00  0.00     0.079 C 
HETATM   12  C10 UNL     1     -18.328  -5.263   5.930  1.00  0.00     0.027 C 
HETATM   13  C11 UNL     1     -19.446  -4.362   5.485  1.00  0.00     0.027 C 
HETATM   14  C12 UNL     1     -20.705  -4.599   6.292  1.00  0.00     0.087 C 
HETATM   15  C17 UNL     1     -21.091  -6.038   6.008  1.00  0.00     0.027 C 
HETATM   16  C18 UNL     1     -20.080  -6.964   6.593  1.00  0.00     0.027 C 
BRANCH  14  17
HETATM   17  N3  UNL     1     -21.748  -3.716   5.874  1.00  0.00    -0.347 N 
HETATM   18  C13 UNL     1     -21.811  -2.880   4.690  1.00  0.00     0.127 C 
HETATM   19  C14 UNL     1     -22.413  -1.605   5.288  1.00  0.00     0.029 C 
HETATM   20  C15 UNL     1     -23.568  -2.198   6.091  1.00  0.00     0.104 C 
HETATM   21  C16 UNL     1     -22.976  -3.475   6.567  1.00  0.00     0.220 C 
HETATM   22  O2  UNL     1     -23.444  -4.255   7.439  1.00  0.00    -0.273 OA
ENDBRANCH  14  17
ENDBRANCH   8  11
ENDBRANCH   3   5
BRANCH   1  23
HETATM   23  C4  UNL     1     -13.286 -10.690   3.204  1.00  0.00     0.094 C 
HETATM   24  C3  UNL     1     -13.027 -11.768   4.263  1.00  0.00     0.036 C 
HETATM   25  C2  UNL     1     -11.738 -11.041   4.579  1.00  0.00     0.028 C 
HETATM   26  C1  UNL     1     -10.635 -12.024   4.756  1.00  0.00     0.028 C 
HETATM   27 BR1  UNL     1     -11.943  -9.994   6.213  1.00  0.00    -0.085 Br
HETATM   28  C21 UNL     1     -11.852 -10.245   3.340  1.00  0.00     0.110 C 
BRANCH  28  29
HETATM   29  C22 UNL     1     -10.968 -10.555   2.206  1.00  0.00     0.226 C 
HETATM   30  O3  UNL     1      -9.756 -10.158   2.266  1.00  0.00    -0.273 OA
HETATM   31  N4  UNL     1     -11.327 -11.259   1.041  1.00  0.00    -0.352 N 
HETATM   32  C23 UNL     1     -12.633 -11.803   0.740  1.00  0.00     0.126 C 
HETATM   33  C28 UNL     1     -10.333 -11.489   0.013  1.00  0.00     0.126 C 
HETATM   34  C24 UNL     1     -12.488 -13.304   0.776  1.00  0.00     0.027 C 
HETATM   35  C25 UNL     1     -11.463 -13.692  -0.267  1.00  0.00     0.017 C 
HETATM   36  C27 UNL     1     -10.162 -12.980  -0.097  1.00  0.00     0.027 C 
BRANCH  35  37
HETATM   37  C26 UNL     1     -11.182 -15.176  -0.142  1.00  0.00     0.227 C 
HETATM   38  F1  UNL     1     -10.466 -15.607  -1.216  1.00  0.00    -0.255 F 
ENDBRANCH  35  37
ENDBRANCH  28  29
ENDBRANCH   1  23
TORSDOF 6
ENDMDL
MODEL 5
REMARK VINA RESULT: -7.319697203      4.911     11.111
REMARK  6 active torsions:
REMARK  status: ('A' for Active; 'I' for Inactive)
REMARK    1  A    between atoms: C4_5  and  C5_6 
REMARK       I    between atoms: C5_6  and  N1_8 
REMARK    2  A    between atoms: N1_8  and  C6_10 
REMARK    3  A    between atoms: N2_13  and  C9_14 
REMARK    4  A    between atoms: C12_17  and  N3_18 
REMARK    5  A    between atoms: C21_28  and  C22_29 
REMARK       I    between atoms: C22_29  and  N4_31 
REMARK    6  A    between atoms: C25_34  and  C26_35 
ROOT
HETATM    1  C5  UNL     1     -17.363 -11.022   8.096  1.00  0.00     0.223 C 
HETATM    2  O1  UNL     1     -16.828 -12.142   7.824  1.00  0.00    -0.273 OA
HETATM    3  N1  UNL     1     -16.913  -9.930   7.328  1.00  0.00    -0.356 N 
ATOM      4  H1  UNL     1     -17.309  -9.008   7.511  1.00  0.00     0.162 HD
ENDROOT
BRANCH   3   5
HETATM    5  C6  UNL     1     -15.909 -10.060   6.287  1.00  0.00     0.087 C 
HETATM    6  C7  UNL     1     -14.551  -9.718   6.867  1.00  0.00     0.044 C 
HETATM    7  C8  UNL     1     -13.446 -10.009   5.865  1.00  0.00     0.119 C 
HETATM    8  N2  UNL     1     -13.773  -9.576   4.549  1.00  0.00    -0.408 N 
HETATM    9  C19 UNL     1     -14.894  -8.725   4.420  1.00  0.00     0.119 C 
HETATM   10  C20 UNL     1     -16.163  -9.216   5.082  1.00  0.00     0.044 C 
BRANCH   8  11
HETATM   11  C9  UNL     1     -13.632 -10.643   3.617  1.00  0.00     0.079 C 
HETATM   12  C10 UNL     1     -12.577 -11.570   4.109  1.00  0.00     0.027 C 
HETATM   13  C11 UNL     1     -12.011 -12.515   3.086  1.00  0.00     0.027 C 
HETATM   14  C12 UNL     1     -11.652 -11.795   1.803  1.00  0.00     0.087 C 
HETATM   15  C17 UNL     1     -12.963 -11.237   1.284  1.00  0.00     0.027 C 
HETATM   16  C18 UNL     1     -13.463 -10.170   2.196  1.00  0.00     0.027 C 
BRANCH  14  17
HETATM   17  N3  UNL     1     -11.090 -12.702   0.854  1.00  0.00    -0.347 N 
HETATM   18  C13 UNL     1     -11.738 -13.371  -0.258  1.00  0.00     0.127 C 
HETATM   19  C14 UNL     1     -11.113 -14.764  -0.141  1.00  0.00     0.029 C 
HETATM   20  C15 UNL     1      -9.641 -14.392   0.011  1.00  0.00     0.104 C 
HETATM   21  C16 UNL     1      -9.730 -13.144   0.813  1.00  0.00     0.220 C 
HETATM   22  O2  UNL     1      -8.786 -12.535   1.385  1.00  0.00    -0.273 OA
ENDBRANCH  14  17
ENDBRANCH   8  11
ENDBRANCH   3   5
BRANCH   1  23
HETATM   23  C4  UNL     1     -18.379 -10.936   9.159  1.00  0.00     0.094 C 
HETATM   24  C3  UNL     1     -18.035  -9.779  10.105  1.00  0.00     0.036 C 
HETATM   25  C2  UNL     1     -17.565 -10.825  11.092  1.00  0.00     0.028 C 
HETATM   26  C1  UNL     1     -18.038 -10.478  12.459  1.00  0.00     0.028 C 
HETATM   27 BR1  UNL     1     -15.616 -10.923  11.084  1.00  0.00    -0.085 Br
HETATM   28  C21 UNL     1     -18.221 -11.895  10.311  1.00  0.00     0.110 C 
BRANCH  28  29
HETATM   29  C22 UNL     1     -19.460 -12.499  10.826  1.00  0.00     0.226 C 
HETATM   30  O3  UNL     1     -20.570 -12.057  10.377  1.00  0.00    -0.273 OA
HETATM   31  N4  UNL     1     -19.547 -13.531  11.777  1.00  0.00    -0.352 N 
HETATM   32  C23 UNL     1     -18.437 -14.188  12.430  1.00  0.00     0.126 C 
HETATM   33  C28 UNL     1     -20.850 -14.022  12.178  1.00  0.00     0.126 C 
HETATM   34  C24 UNL     1     -18.412 -15.603  11.909  1.00  0.00     0.027 C 
HETATM   35  C25 UNL     1     -19.734 -16.248  12.264  1.00  0.00     0.017 C 
HETATM   36  C27 UNL     1     -20.909 -15.470  11.774  1.00  0.00     0.027 C 
BRANCH  35  37
HETATM   37  C26 UNL     1     -19.796 -17.614  11.613  1.00  0.00     0.227 C 
HETATM   38  F1  UNL     1     -19.467 -17.519  10.295  1.00  0.00    -0.255 F 
ENDBRANCH  35  37
ENDBRANCH  28  29
ENDBRANCH   1  23
TORSDOF 6
ENDMDL
