MODEL 1
REMARK VINA RESULT: -8.909022527      0.000      0.000
REMARK  4 active torsions:
REMARK  status: ('A' for Active; 'I' for Inactive)
REMARK       I    between atoms: C1_4  and  N2_5 
REMARK       I    between atoms: C1_4  and  N6_27 
REMARK    1  A    between atoms: N2_5  and  C2_7 
REMARK    2  A    between atoms: C5_16  and  C6_17 
REMARK    3  A    between atoms: C7_18  and  C8_19 
REMARK       I    between atoms: N6_27  and  C15_29 
REMARK    4  A    between atoms: C15_29  and  C16_31 
ROOT
HETATM    1  C2  UNL     1      -0.622 -31.959  36.148  1.00  0.00     0.166 A 
HETATM    2  N3  UNL     1      -1.053 -32.428  37.319  1.00  0.00    -0.320 N 
ATOM      3  H3  UNL     1      -1.541 -31.822  37.979  1.00  0.00     0.169 HD
HETATM    4  C3  UNL     1      -0.831 -33.692  37.600  1.00  0.00     0.141 A 
HETATM    5  N4  UNL     1      -1.193 -34.357  38.746  1.00  0.00    -0.285 N 
ATOM      6  H4  UNL     1      -1.688 -33.850  39.480  1.00  0.00     0.188 HD
HETATM    7  N5  UNL     1      -0.922 -35.608  38.918  1.00  0.00    -0.309 N 
ATOM      8  H5  UNL     1      -1.229 -36.019  39.801  1.00  0.00     0.186 HD
HETATM    9  C4  UNL     1      -0.283 -36.432  38.071  1.00  0.00     0.129 A 
HETATM   10  C5  UNL     1       0.108 -35.809  36.889  1.00  0.00     0.056 A 
HETATM   11  C14 UNL     1      -0.175 -34.452  36.682  1.00  0.00     0.074 A 
HETATM   12  S1  UNL     1       0.108 -33.326  35.431  1.00  0.00    -0.048 SA
ENDROOT
BRANCH   1  13
HETATM   13  N2  UNL     1      -0.741 -30.737  35.680  1.00  0.00    -0.170 N 
HETATM   14  C1  UNL     1      -1.726 -30.486  34.712  1.00  0.00     0.680 C 
HETATM   15  N1  UNL     1      -2.761 -31.245  34.656  1.00  0.00    -0.234 N 
HETATM   16  N6  UNL     1      -1.621 -29.416  33.787  1.00  0.00    -0.156 N 
ATOM     17  H12 UNL     1      -2.837 -32.015  35.321  1.00  0.00     0.174 HD
ATOM     18  H11 UNL     1      -3.477 -31.062  33.952  1.00  0.00     0.174 HD
HETATM   19  C15 UNL     1      -0.505 -28.560  33.815  1.00  0.00     0.269 C 
ATOM     20  H6  UNL     1      -2.358 -29.267  33.097  1.00  0.00     0.187 HD
HETATM   21  O1  UNL     1       0.399 -28.773  34.691  1.00  0.00    -0.267 OA
ATOM     22  H2  UNL     1      -0.132 -29.989  36.011  1.00  0.00     0.186 HD
BRANCH  19  23
HETATM   23  C16 UNL     1      -0.311 -27.424  32.891  1.00  0.00     0.032 A 
HETATM   24  C17 UNL     1       0.429 -27.546  31.739  1.00  0.00     0.017 A 
HETATM   25  C18 UNL     1       0.571 -26.447  30.910  1.00  0.00     0.001 A 
HETATM   26  C19 UNL     1      -0.012 -25.238  31.211  1.00  0.00     0.000 A 
HETATM   27  C20 UNL     1      -0.753 -25.131  32.370  1.00  0.00     0.001 A 
HETATM   28  C21 UNL     1      -0.900 -26.205  33.198  1.00  0.00     0.017 A 
ENDBRANCH  19  23
ENDBRANCH   1  13
BRANCH  10  29
HETATM   29  C6  UNL     1       0.803 -36.478  35.836  1.00  0.00    -0.059 C 
HETATM   30  C7  UNL     1       1.388 -37.063  34.957  1.00  0.00    -0.061 C 
BRANCH  30  31
HETATM   31  C8  UNL     1       2.085 -37.777  33.929  1.00  0.00     0.018 A 
HETATM   32  C9  UNL     1       3.403 -38.140  34.105  1.00  0.00     0.020 A 
HETATM   33  C10 UNL     1       4.105 -38.825  33.138  1.00  0.00     0.001 A 
HETATM   34  C11 UNL     1       3.475 -39.166  31.944  1.00  0.00     0.000 A 
HETATM   35  C12 UNL     1       2.155 -38.814  31.746  1.00  0.00     0.001 A 
HETATM   36  C13 UNL     1       1.482 -38.125  32.740  1.00  0.00     0.020 A 
ENDBRANCH  30  31
ENDBRANCH  10  29
TORSDOF 4
ENDMDL
MODEL 2
REMARK VINA RESULT: -8.883640321      1.607      1.734
REMARK  4 active torsions:
REMARK  status: ('A' for Active; 'I' for Inactive)
REMARK       I    between atoms: C1_4  and  N2_5 
REMARK       I    between atoms: C1_4  and  N6_27 
REMARK    1  A    between atoms: N2_5  and  C2_7 
REMARK    2  A    between atoms: C5_16  and  C6_17 
REMARK    3  A    between atoms: C7_18  and  C8_19 
REMARK       I    between atoms: N6_27  and  C15_29 
REMARK    4  A    between atoms: C15_29  and  C16_31 
ROOT
HETATM    1  C2  UNL     1      -1.022 -31.424  36.637  1.00  0.00     0.166 A 
HETATM    2  N3  UNL     1      -1.698 -31.836  37.710  1.00  0.00    -0.320 N 
ATOM      3  H3  UNL     1      -2.435 -31.261  38.118  1.00  0.00     0.169 HD
HETATM    4  C3  UNL     1      -1.387 -33.003  38.227  1.00  0.00     0.141 A 
HETATM    5  N4  UNL     1      -1.963 -33.596  39.324  1.00  0.00    -0.285 N 
ATOM      6  H4  UNL     1      -2.713 -33.111  39.816  1.00  0.00     0.188 HD
HETATM    7  N5  UNL     1      -1.577 -34.754  39.749  1.00  0.00    -0.309 N 
ATOM      8  H5  UNL     1      -2.061 -35.117  40.571  1.00  0.00     0.186 HD
HETATM    9  C4  UNL     1      -0.613 -35.536  39.235  1.00  0.00     0.129 A 
HETATM   10  C5  UNL     1       0.007 -34.981  38.118  1.00  0.00     0.056 A 
HETATM   11  C14 UNL     1      -0.396 -33.726  37.641  1.00  0.00     0.074 A 
HETATM   12  S1  UNL     1       0.069 -32.706  36.354  1.00  0.00    -0.048 SA
ENDROOT
BRANCH   1  13
HETATM   13  N2  UNL     1      -1.175 -30.300  35.975  1.00  0.00    -0.170 N 
HETATM   14  C1  UNL     1      -1.855 -30.335  34.747  1.00  0.00     0.680 C 
HETATM   15  N1  UNL     1      -2.702 -31.274  34.524  1.00  0.00    -0.234 N 
HETATM   16  N6  UNL     1      -1.638 -29.365  33.735  1.00  0.00    -0.156 N 
ATOM     17  H12 UNL     1      -2.858 -31.972  35.252  1.00  0.00     0.174 HD
ATOM     18  H11 UNL     1      -3.196 -31.300  33.631  1.00  0.00     0.174 HD
HETATM   19  C15 UNL     1      -0.720 -28.319  33.939  1.00  0.00     0.269 C 
ATOM     20  H6  UNL     1      -2.151 -29.426  32.855  1.00  0.00     0.187 HD
HETATM   21  O1  UNL     1      -0.095 -28.271  35.052  1.00  0.00    -0.267 OA
ATOM     22  H2  UNL     1      -0.809 -29.422  36.344  1.00  0.00     0.186 HD
BRANCH  19  23
HETATM   23  C16 UNL     1      -0.430 -27.268  32.943  1.00  0.00     0.032 A 
HETATM   24  C17 UNL     1       0.331 -27.519  31.826  1.00  0.00     0.017 A 
HETATM   25  C18 UNL     1       0.564 -26.494  30.925  1.00  0.00     0.001 A 
HETATM   26  C19 UNL     1       0.051 -25.233  31.122  1.00  0.00     0.000 A 
HETATM   27  C20 UNL     1      -0.711 -24.996  32.247  1.00  0.00     0.001 A 
HETATM   28  C21 UNL     1      -0.948 -25.995  33.144  1.00  0.00     0.017 A 
ENDBRANCH  19  23
ENDBRANCH   1  13
BRANCH  10  29
HETATM   29  C6  UNL     1       1.061 -35.623  37.400  1.00  0.00    -0.059 C 
HETATM   30  C7  UNL     1       1.962 -36.145  36.791  1.00  0.00    -0.061 C 
BRANCH  30  31
HETATM   31  C8  UNL     1       3.040 -36.744  36.060  1.00  0.00     0.018 A 
HETATM   32  C9  UNL     1       3.910 -35.959  35.336  1.00  0.00     0.020 A 
HETATM   33  C10 UNL     1       4.956 -36.499  34.621  1.00  0.00     0.001 A 
HETATM   34  C11 UNL     1       5.149 -37.878  34.623  1.00  0.00     0.000 A 
HETATM   35  C12 UNL     1       4.290 -38.685  35.342  1.00  0.00     0.001 A 
HETATM   36  C13 UNL     1       3.249 -38.106  36.048  1.00  0.00     0.020 A 
ENDBRANCH  30  31
ENDBRANCH  10  29
TORSDOF 4
ENDMDL
MODEL 3
REMARK VINA RESULT: -8.879665741      1.009      1.714
REMARK  4 active torsions:
REMARK  status: ('A' for Active; 'I' for Inactive)
REMARK       I    between atoms: C1_4  and  N2_5 
REMARK       I    between atoms: C1_4  and  N6_27 
REMARK    1  A    between atoms: N2_5  and  C2_7 
REMARK    2  A    between atoms: C5_16  and  C6_17 
REMARK    3  A    between atoms: C7_18  and  C8_19 
REMARK       I    between atoms: N6_27  and  C15_29 
REMARK    4  A    between atoms: C15_29  and  C16_31 
ROOT
HETATM    1  C2  UNL     1      -0.896 -31.504  36.522  1.00  0.00     0.166 A 
HETATM    2  N3  UNL     1      -1.496 -31.940  37.629  1.00  0.00    -0.320 N 
ATOM      3  H3  UNL     1      -2.184 -31.363  38.114  1.00  0.00     0.169 HD
HETATM    4  C3  UNL     1      -1.177 -33.133  38.078  1.00  0.00     0.141 A 
HETATM    5  N4  UNL     1      -1.682 -33.753  39.195  1.00  0.00    -0.285 N 
ATOM      6  H4  UNL     1      -2.378 -33.269  39.761  1.00  0.00     0.188 HD
HETATM    7  N5  UNL     1      -1.295 -34.935  39.546  1.00  0.00    -0.309 N 
ATOM      8  H5  UNL     1      -1.723 -35.317  40.390  1.00  0.00     0.186 HD
HETATM    9  C4  UNL     1      -0.394 -35.719  38.930  1.00  0.00     0.129 A 
HETATM   10  C5  UNL     1       0.151 -35.137  37.788  1.00  0.00     0.056 A 
HETATM   11  C14 UNL     1      -0.254 -33.857  37.390  1.00  0.00     0.074 A 
HETATM   12  S1  UNL     1       0.136 -32.800  36.107  1.00  0.00    -0.048 SA
ENDROOT
BRANCH   1  13
HETATM   13  N2  UNL     1      -1.070 -30.352  35.914  1.00  0.00    -0.170 N 
HETATM   14  C1  UNL     1      -1.823 -30.328  34.730  1.00  0.00     0.680 C 
HETATM   15  N1  UNL     1      -2.699 -31.245  34.523  1.00  0.00    -0.234 N 
HETATM   16  N6  UNL     1      -1.653 -29.322  33.745  1.00  0.00    -0.156 N 
ATOM     17  H12 UNL     1      -2.822 -31.970  35.232  1.00  0.00     0.174 HD
ATOM     18  H11 UNL     1      -3.246 -31.228  33.663  1.00  0.00     0.174 HD
HETATM   19  C15 UNL     1      -0.706 -28.299  33.933  1.00  0.00     0.269 C 
ATOM     20  H6  UNL     1      -2.219 -29.340  32.897  1.00  0.00     0.187 HD
HETATM   21  O1  UNL     1      -0.014 -28.303  35.006  1.00  0.00    -0.267 OA
ATOM     22  H2  UNL     1      -0.667 -29.495  36.294  1.00  0.00     0.186 HD
BRANCH  19  23
HETATM   23  C16 UNL     1      -0.460 -27.212  32.963  1.00  0.00     0.032 A 
HETATM   24  C17 UNL     1      -0.948 -25.941  33.160  1.00  0.00     0.017 A 
HETATM   25  C18 UNL     1      -0.680 -24.964  32.218  1.00  0.00     0.001 A 
HETATM   26  C19 UNL     1       0.062 -25.233  31.092  1.00  0.00     0.000 A 
HETATM   27  C20 UNL     1       0.545 -26.512  30.908  1.00  0.00     0.001 A 
HETATM   28  C21 UNL     1       0.289 -27.487  31.827  1.00  0.00     0.017 A 
ENDBRANCH  19  23
ENDBRANCH   1  13
BRANCH  10  29
HETATM   29  C6  UNL     1       1.128 -35.776  36.967  1.00  0.00    -0.059 C 
HETATM   30  C7  UNL     1       1.961 -36.296  36.265  1.00  0.00    -0.061 C 
BRANCH  30  31
HETATM   31  C8  UNL     1       2.951 -36.893  35.418  1.00  0.00     0.018 A 
HETATM   32  C9  UNL     1       2.637 -37.990  34.646  1.00  0.00     0.020 A 
HETATM   33  C10 UNL     1       3.563 -38.590  33.821  1.00  0.00     0.001 A 
HETATM   34  C11 UNL     1       4.858 -38.081  33.758  1.00  0.00     0.000 A 
HETATM   35  C12 UNL     1       5.195 -36.982  34.522  1.00  0.00     0.001 A 
HETATM   36  C13 UNL     1       4.238 -36.406  35.340  1.00  0.00     0.020 A 
ENDBRANCH  30  31
ENDBRANCH  10  29
TORSDOF 4
ENDMDL
MODEL 4
REMARK VINA RESULT: -8.668896959      1.240      1.840
REMARK  4 active torsions:
REMARK  status: ('A' for Active; 'I' for Inactive)
REMARK       I    between atoms: C1_4  and  N2_5 
REMARK       I    between atoms: C1_4  and  N6_27 
REMARK    1  A    between atoms: N2_5  and  C2_7 
REMARK    2  A    between atoms: C5_16  and  C6_17 
REMARK    3  A    between atoms: C7_18  and  C8_19 
REMARK       I    between atoms: N6_27  and  C15_29 
REMARK    4  A    between atoms: C15_29  and  C16_31 
ROOT
HETATM    1  C2  UNL     1      -1.684 -32.249  35.511  1.00  0.00     0.166 A 
HETATM    2  N3  UNL     1      -2.547 -32.916  36.276  1.00  0.00    -0.320 N 
ATOM      3  H3  UNL     1      -3.396 -32.468  36.623  1.00  0.00     0.169 HD
HETATM    4  C3  UNL     1      -2.275 -34.167  36.573  1.00  0.00     0.141 A 
HETATM    5  N4  UNL     1      -3.035 -35.014  37.343  1.00  0.00    -0.285 N 
ATOM      6  H4  UNL     1      -3.908 -34.673  37.745  1.00  0.00     0.188 HD
HETATM    7  N5  UNL     1      -2.669 -36.233  37.571  1.00  0.00    -0.309 N 
ATOM      8  H5  UNL     1      -3.295 -36.789  38.154  1.00  0.00     0.186 HD
HETATM    9  C4  UNL     1      -1.562 -36.852  37.130  1.00  0.00     0.129 A 
HETATM   10  C5  UNL     1      -0.753 -36.037  36.343  1.00  0.00     0.056 A 
HETATM   11  C14 UNL     1      -1.130 -34.713  36.083  1.00  0.00     0.074 A 
HETATM   12  S1  UNL     1      -0.467 -33.407  35.204  1.00  0.00    -0.048 SA
ENDROOT
BRANCH   1  13
HETATM   13  N2  UNL     1      -1.767 -31.003  35.104  1.00  0.00    -0.170 N 
HETATM   14  C1  UNL     1      -2.355 -30.746  33.856  1.00  0.00     0.680 C 
HETATM   15  N1  UNL     1      -3.200 -31.584  33.374  1.00  0.00    -0.234 N 
HETATM   16  N6  UNL     1      -2.047 -29.586  33.100  1.00  0.00    -0.156 N 
ATOM     17  H12 UNL     1      -3.422 -32.419  33.918  1.00  0.00     0.174 HD
ATOM     18  H11 UNL     1      -3.627 -31.397  32.466  1.00  0.00     0.174 HD
HETATM   19  C15 UNL     1      -1.128 -28.641  33.592  1.00  0.00     0.269 C 
ATOM     20  H6  UNL     1      -2.494 -29.435  32.196  1.00  0.00     0.187 HD
HETATM   21  O1  UNL     1      -0.586 -28.858  34.728  1.00  0.00    -0.267 OA
ATOM     22  H2  UNL     1      -1.414 -30.240  35.682  1.00  0.00     0.186 HD
BRANCH  19  23
HETATM   23  C16 UNL     1      -0.747 -27.407  32.875  1.00  0.00     0.032 A 
HETATM   24  C17 UNL     1      -1.217 -26.173  33.259  1.00  0.00     0.017 A 
HETATM   25  C18 UNL     1      -0.821 -25.052  32.551  1.00  0.00     0.001 A 
HETATM   26  C19 UNL     1       0.031 -25.144  31.475  1.00  0.00     0.000 A 
HETATM   27  C20 UNL     1       0.495 -26.388  31.102  1.00  0.00     0.001 A 
HETATM   28  C21 UNL     1       0.113 -27.503  31.789  1.00  0.00     0.017 A 
ENDBRANCH  19  23
ENDBRANCH   1  13
BRANCH  10  29
HETATM   29  C6  UNL     1       0.477 -36.471  35.761  1.00  0.00    -0.059 C 
HETATM   30  C7  UNL     1       1.527 -36.832  35.289  1.00  0.00    -0.061 C 
BRANCH  30  31
HETATM   31  C8  UNL     1       2.786 -37.250  34.747  1.00  0.00     0.018 A 
HETATM   32  C9  UNL     1       2.855 -38.342  33.909  1.00  0.00     0.020 A 
HETATM   33  C10 UNL     1       4.046 -38.773  33.369  1.00  0.00     0.001 A 
HETATM   34  C11 UNL     1       5.223 -38.093  33.673  1.00  0.00     0.000 A 
HETATM   35  C12 UNL     1       5.179 -36.996  34.509  1.00  0.00     0.001 A 
HETATM   36  C13 UNL     1       3.963 -36.593  35.033  1.00  0.00     0.020 A 
ENDBRANCH  30  31
ENDBRANCH  10  29
TORSDOF 4
ENDMDL
MODEL 5
REMARK VINA RESULT: -8.507858475      4.090      9.765
REMARK  4 active torsions:
REMARK  status: ('A' for Active; 'I' for Inactive)
REMARK       I    between atoms: C1_4  and  N2_5 
REMARK       I    between atoms: C1_4  and  N6_27 
REMARK    1  A    between atoms: N2_5  and  C2_7 
REMARK    2  A    between atoms: C5_16  and  C6_17 
REMARK    3  A    between atoms: C7_18  and  C8_19 
REMARK       I    between atoms: N6_27  and  C15_29 
REMARK    4  A    between atoms: C15_29  and  C16_31 
ROOT
HETATM    1  C2  UNL     1      -1.596 -32.485  36.911  1.00  0.00     0.166 A 
HETATM    2  N3  UNL     1      -0.538 -33.275  36.724  1.00  0.00    -0.320 N 
ATOM      3  H3  UNL     1      -0.452 -34.162  37.221  1.00  0.00     0.169 HD
HETATM    4  C3  UNL     1       0.390 -32.880  35.882  1.00  0.00     0.141 A 
HETATM    5  N4  UNL     1       1.546 -33.548  35.559  1.00  0.00    -0.285 N 
ATOM      6  H4  UNL     1       1.739 -34.449  35.997  1.00  0.00     0.188 HD
HETATM    7  N5  UNL     1       2.394 -33.064  34.713  1.00  0.00    -0.309 N 
ATOM      8  H5  UNL     1       3.224 -33.629  34.534  1.00  0.00     0.186 HD
HETATM    9  C4  UNL     1       2.310 -31.903  34.041  1.00  0.00     0.129 A 
HETATM   10  C5  UNL     1       1.155 -31.183  34.333  1.00  0.00     0.056 A 
HETATM   11  C14 UNL     1       0.222 -31.689  35.248  1.00  0.00     0.074 A 
HETATM   12  S1  UNL     1      -1.274 -31.162  35.880  1.00  0.00    -0.048 SA
ENDROOT
BRANCH   1  13
HETATM   13  N2  UNL     1      -2.624 -32.693  37.701  1.00  0.00    -0.170 N 
HETATM   14  C1  UNL     1      -2.543 -32.254  39.032  1.00  0.00     0.680 C 
HETATM   15  N1  UNL     1      -1.755 -31.283  39.327  1.00  0.00    -0.234 N 
HETATM   16  N6  UNL     1      -3.304 -32.848  40.071  1.00  0.00    -0.156 N 
ATOM     17  H12 UNL     1      -1.208 -30.856  38.580  1.00  0.00     0.174 HD
ATOM     18  H11 UNL     1      -1.696 -30.965  40.295  1.00  0.00     0.174 HD
HETATM   19  C15 UNL     1      -4.180 -33.912  39.790  1.00  0.00     0.269 C 
ATOM     20  H6  UNL     1      -3.216 -32.501  41.026  1.00  0.00     0.187 HD
HETATM   21  O1  UNL     1      -4.268 -34.322  38.584  1.00  0.00    -0.267 OA
ATOM     22  H2  UNL     1      -3.461 -33.161  37.356  1.00  0.00     0.186 HD
BRANCH  19  23
HETATM   23  C16 UNL     1      -5.009 -34.590  40.807  1.00  0.00     0.032 A 
HETATM   24  C17 UNL     1      -5.652 -33.890  41.801  1.00  0.00     0.017 A 
HETATM   25  C18 UNL     1      -6.420 -34.580  42.723  1.00  0.00     0.001 A 
HETATM   26  C19 UNL     1      -6.554 -35.948  42.668  1.00  0.00     0.000 A 
HETATM   27  C20 UNL     1      -5.904 -36.637  41.665  1.00  0.00     0.001 A 
HETATM   28  C21 UNL     1      -5.143 -35.971  40.750  1.00  0.00     0.017 A 
ENDBRANCH  19  23
ENDBRANCH   1  13
BRANCH  10  29
HETATM   29  C6  UNL     1       0.843 -29.919  33.745  1.00  0.00    -0.059 C 
HETATM   30  C7  UNL     1       0.563 -28.849  33.263  1.00  0.00    -0.061 C 
BRANCH  30  31
HETATM   31  C8  UNL     1       0.208 -27.580  32.701  1.00  0.00     0.018 A 
HETATM   32  C9  UNL     1      -0.650 -26.736  33.372  1.00  0.00     0.020 A 
HETATM   33  C10 UNL     1      -1.013 -25.509  32.862  1.00  0.00     0.001 A 
HETATM   34  C11 UNL     1      -0.506 -25.100  31.632  1.00  0.00     0.000 A 
HETATM   35  C12 UNL     1       0.355 -25.928  30.941  1.00  0.00     0.001 A 
HETATM   36  C13 UNL     1       0.698 -27.153  31.485  1.00  0.00     0.020 A 
ENDBRANCH  30  31
ENDBRANCH  10  29
TORSDOF 4
ENDMDL
