MODEL 1
REMARK VINA RESULT: -9.169465242      0.000      0.000
REMARK  3 active torsions:
REMARK  status: ('A' for Active; 'I' for Inactive)
REMARK    1  A    between atoms: C8_12  and  N4_13 
REMARK       I    between atoms: N4_13  and  C9_15 
REMARK       I    between atoms: C9_15  and  N6_19 
REMARK    2  A    between atoms: N6_19  and  C10_21 
REMARK    3  A    between atoms: C12_25  and  C13_26 
ROOT
HETATM    1  C1  UNL     1      -0.111 -35.054  38.169  1.00  0.00     0.071 C 
HETATM    2  C2  UNL     1       1.037 -35.726  37.511  1.00  0.00     0.041 A 
HETATM    3  N1  UNL     1       1.502 -36.965  37.623  1.00  0.00    -0.302 N 
ATOM      4  H1  UNL     1       1.100 -37.682  38.227  1.00  0.00     0.187 HD
HETATM    5  N2  UNL     1       2.575 -37.148  36.832  1.00  0.00    -0.294 N 
HETATM    6  C3  UNL     1       3.329 -38.386  36.712  1.00  0.00     0.178 C 
HETATM    7  C4  UNL     1       2.854 -35.996  36.157  1.00  0.00     0.090 A 
HETATM    8  C5  UNL     1       3.827 -35.641  35.237  1.00  0.00     0.077 A 
HETATM    9  C6  UNL     1       4.801 -36.657  34.854  1.00  0.00     0.102 C 
HETATM   10  N3  UNL     1       5.606 -37.460  34.523  1.00  0.00    -0.191 NA
HETATM   11  C7  UNL     1       3.964 -34.415  34.647  1.00  0.00     0.063 A 
HETATM   12  C8  UNL     1       3.198 -33.307  34.828  1.00  0.00     0.092 A 
HETATM   13  S1  UNL     1       1.927 -33.526  35.934  1.00  0.00    -0.068 SA
HETATM   14  C19 UNL     1       1.876 -35.105  36.594  1.00  0.00     0.060 A 
ENDROOT
BRANCH  12  15
HETATM   15  N4  UNL     1       3.429 -32.211  34.214  1.00  0.00    -0.185 N 
HETATM   16  C9  UNL     1       2.632 -31.934  33.067  1.00  0.00     0.691 C 
HETATM   17  N5  UNL     1       3.110 -31.585  31.929  1.00  0.00    -0.234 N 
HETATM   18  N6  UNL     1       1.224 -32.061  33.230  1.00  0.00    -0.022 N 
ATOM     19  H52 UNL     1       4.119 -31.494  31.812  1.00  0.00     0.174 HD
ATOM     20  H51 UNL     1       2.540 -31.387  31.107  1.00  0.00     0.174 HD
ATOM     21  H6  UNL     1       0.815 -32.957  33.494  1.00  0.00     0.203 HD
ATOM     22  H4  UNL     1       4.150 -31.565  34.531  1.00  0.00     0.185 HD
BRANCH  18  23
HETATM   23  C10 UNL     1       0.463 -31.021  33.040  1.00  0.00     0.697 A 
HETATM   24  N7  UNL     1      -0.882 -31.045  33.062  1.00  0.00    -0.199 N 
HETATM   25  C11 UNL     1      -1.363 -29.801  32.828  1.00  0.00     0.137 A 
ATOM     26  H7  UNL     1      -1.452 -31.874  33.231  1.00  0.00     0.183 HD
HETATM   27  C12 UNL     1      -0.277 -28.968  32.653  1.00  0.00     0.075 A 
HETATM   28  N8  UNL     1       0.807 -29.752  32.791  1.00  0.00    -0.189 N 
ATOM     29  H8  UNL     1       1.769 -29.421  32.715  1.00  0.00     0.184 HD
BRANCH  27  30
HETATM   30  C13 UNL     1      -0.302 -27.535  32.378  1.00  0.00    -0.007 A 
HETATM   31  C14 UNL     1      -1.027 -26.645  33.139  1.00  0.00     0.014 A 
HETATM   32  C15 UNL     1      -1.038 -25.279  32.860  1.00  0.00     0.001 A 
HETATM   33  C16 UNL     1      -0.316 -24.793  31.807  1.00  0.00     0.000 A 
HETATM   34  C17 UNL     1       0.414 -25.658  31.035  1.00  0.00     0.001 A 
HETATM   35  C18 UNL     1       0.418 -27.015  31.322  1.00  0.00     0.014 A 
ENDBRANCH  27  30
ENDBRANCH  18  23
ENDBRANCH  12  15
TORSDOF 3
ENDMDL
MODEL 2
REMARK VINA RESULT: -9.161841451      3.600      4.800
REMARK  3 active torsions:
REMARK  status: ('A' for Active; 'I' for Inactive)
REMARK    1  A    between atoms: C8_12  and  N4_13 
REMARK       I    between atoms: N4_13  and  C9_15 
REMARK       I    between atoms: C9_15  and  N6_19 
REMARK    2  A    between atoms: N6_19  and  C10_21 
REMARK    3  A    between atoms: C12_25  and  C13_26 
ROOT
HETATM    1  C1  UNL     1      -5.265 -34.285  40.407  1.00  0.00     0.071 C 
HETATM    2  C2  UNL     1      -3.784 -34.188  40.396  1.00  0.00     0.041 A 
HETATM    3  N1  UNL     1      -2.899 -34.254  41.384  1.00  0.00    -0.302 N 
ATOM      4  H1  UNL     1      -3.138 -34.390  42.366  1.00  0.00     0.187 HD
HETATM    5  N2  UNL     1      -1.646 -34.115  40.916  1.00  0.00    -0.294 N 
HETATM    6  C3  UNL     1      -0.439 -34.138  41.727  1.00  0.00     0.178 C 
HETATM    7  C4  UNL     1      -1.673 -33.949  39.562  1.00  0.00     0.090 A 
HETATM    8  C5  UNL     1      -0.690 -33.767  38.604  1.00  0.00     0.077 A 
HETATM    9  C6  UNL     1       0.697 -33.732  39.053  1.00  0.00     0.102 C 
HETATM   10  N3  UNL     1       1.833 -33.700  39.386  1.00  0.00    -0.191 NA
HETATM   11  C7  UNL     1      -0.898 -33.614  37.261  1.00  0.00     0.063 A 
HETATM   12  C8  UNL     1      -2.081 -33.607  36.591  1.00  0.00     0.092 A 
HETATM   13  S1  UNL     1      -3.437 -33.818  37.592  1.00  0.00    -0.068 SA
HETATM   14  C19 UNL     1      -3.029 -33.997  39.246  1.00  0.00     0.060 A 
ENDROOT
BRANCH  12  15
HETATM   15  N4  UNL     1      -2.146 -33.454  35.325  1.00  0.00    -0.185 N 
HETATM   16  C9  UNL     1      -2.494 -32.158  34.847  1.00  0.00     0.691 C 
HETATM   17  N5  UNL     1      -3.413 -31.936  33.980  1.00  0.00    -0.234 N 
HETATM   18  N6  UNL     1      -1.756 -31.067  35.387  1.00  0.00    -0.022 N 
ATOM     19  H52 UNL     1      -3.941 -32.717  33.593  1.00  0.00     0.174 HD
ATOM     20  H51 UNL     1      -3.662 -31.008  33.639  1.00  0.00     0.174 HD
ATOM     21  H6  UNL     1      -1.776 -30.878  36.390  1.00  0.00     0.203 HD
ATOM     22  H4  UNL     1      -1.957 -34.224  34.684  1.00  0.00     0.185 HD
BRANCH  18  23
HETATM   23  C10 UNL     1      -1.055 -30.314  34.589  1.00  0.00     0.697 A 
HETATM   24  N7  UNL     1       0.122 -30.668  34.042  1.00  0.00    -0.199 N 
HETATM   25  C11 UNL     1       0.584 -29.659  33.265  1.00  0.00     0.137 A 
ATOM     26  H7  UNL     1       0.593 -31.560  34.190  1.00  0.00     0.183 HD
HETATM   27  C12 UNL     1      -0.340 -28.637  33.329  1.00  0.00     0.075 A 
HETATM   28  N8  UNL     1      -1.315 -29.079  34.142  1.00  0.00    -0.189 N 
ATOM     29  H8  UNL     1      -2.147 -28.542  34.387  1.00  0.00     0.184 HD
BRANCH  27  30
HETATM   30  C13 UNL     1      -0.271 -27.345  32.653  1.00  0.00    -0.007 A 
HETATM   31  C14 UNL     1      -0.882 -26.215  33.149  1.00  0.00     0.014 A 
HETATM   32  C15 UNL     1      -0.806 -24.988  32.489  1.00  0.00     0.001 A 
HETATM   33  C16 UNL     1      -0.109 -24.888  31.318  1.00  0.00     0.000 A 
HETATM   34  C17 UNL     1       0.508 -25.999  30.804  1.00  0.00     0.001 A 
HETATM   35  C18 UNL     1       0.425 -27.213  31.470  1.00  0.00     0.014 A 
ENDBRANCH  27  30
ENDBRANCH  18  23
ENDBRANCH  12  15
TORSDOF 3
ENDMDL
MODEL 3
REMARK VINA RESULT: -9.071668179      3.784      5.479
REMARK  3 active torsions:
REMARK  status: ('A' for Active; 'I' for Inactive)
REMARK    1  A    between atoms: C8_12  and  N4_13 
REMARK       I    between atoms: N4_13  and  C9_15 
REMARK       I    between atoms: C9_15  and  N6_19 
REMARK    2  A    between atoms: N6_19  and  C10_21 
REMARK    3  A    between atoms: C12_25  and  C13_26 
ROOT
HETATM    1  C1  UNL     1       1.833 -33.911  39.724  1.00  0.00     0.071 C 
HETATM    2  C2  UNL     1       0.383 -33.955  40.040  1.00  0.00     0.041 A 
HETATM    3  N1  UNL     1      -0.252 -34.067  41.201  1.00  0.00    -0.302 N 
ATOM      4  H1  UNL     1       0.209 -34.144  42.108  1.00  0.00     0.187 HD
HETATM    5  N2  UNL     1      -1.585 -34.064  41.021  1.00  0.00    -0.294 N 
HETATM    6  C3  UNL     1      -2.576 -34.170  42.079  1.00  0.00     0.178 C 
HETATM    7  C4  UNL     1      -1.872 -33.948  39.692  1.00  0.00     0.090 A 
HETATM    8  C5  UNL     1      -3.054 -33.896  38.973  1.00  0.00     0.077 A 
HETATM    9  C6  UNL     1      -4.306 -33.977  39.718  1.00  0.00     0.102 C 
HETATM   10  N3  UNL     1      -5.338 -34.040  40.294  1.00  0.00    -0.191 NA
HETATM   11  C7  UNL     1      -3.162 -33.774  37.615  1.00  0.00     0.063 A 
HETATM   12  C8  UNL     1      -2.161 -33.681  36.700  1.00  0.00     0.092 A 
HETATM   13  S1  UNL     1      -0.605 -33.726  37.378  1.00  0.00    -0.068 SA
HETATM   14  C19 UNL     1      -0.620 -33.880  39.084  1.00  0.00     0.060 A 
ENDROOT
BRANCH  12  15
HETATM   15  N4  UNL     1      -2.392 -33.571  35.448  1.00  0.00    -0.185 N 
HETATM   16  C9  UNL     1      -2.771 -32.284  34.972  1.00  0.00     0.691 C 
HETATM   17  N5  UNL     1      -3.792 -32.067  34.227  1.00  0.00    -0.234 N 
HETATM   18  N6  UNL     1      -1.943 -31.196  35.366  1.00  0.00    -0.022 N 
ATOM     19  H52 UNL     1      -4.385 -32.847  33.943  1.00  0.00     0.174 HD
ATOM     20  H51 UNL     1      -4.064 -31.145  33.886  1.00  0.00     0.174 HD
ATOM     21  H6  UNL     1      -1.824 -30.970  36.355  1.00  0.00     0.203 HD
ATOM     22  H4  UNL     1      -2.307 -34.369  34.818  1.00  0.00     0.185 HD
BRANCH  18  23
HETATM   23  C10 UNL     1      -1.339 -30.490  34.454  1.00  0.00     0.697 A 
HETATM   24  N7  UNL     1      -0.483 -30.990  33.545  1.00  0.00    -0.199 N 
HETATM   25  C11 UNL     1      -0.033 -29.992  32.746  1.00  0.00     0.137 A 
ATOM     26  H7  UNL     1      -0.214 -31.971  33.468  1.00  0.00     0.183 HD
HETATM   27  C12 UNL     1      -0.632 -28.825  33.173  1.00  0.00     0.075 A 
HETATM   28  N8  UNL     1      -1.414 -29.176  34.209  1.00  0.00    -0.189 N 
ATOM     29  H8  UNL     1      -1.991 -28.524  34.740  1.00  0.00     0.184 HD
BRANCH  27  30
HETATM   30  C13 UNL     1      -0.454 -27.489  32.614  1.00  0.00    -0.007 A 
HETATM   31  C14 UNL     1       0.302 -27.250  31.488  1.00  0.00     0.014 A 
HETATM   32  C15 UNL     1       0.461 -25.966  30.968  1.00  0.00     0.001 A 
HETATM   33  C16 UNL     1      -0.143 -24.904  31.581  1.00  0.00     0.000 A 
HETATM   34  C17 UNL     1      -0.900 -25.116  32.703  1.00  0.00     0.001 A 
HETATM   35  C18 UNL     1      -1.051 -26.398  33.210  1.00  0.00     0.014 A 
ENDBRANCH  27  30
ENDBRANCH  18  23
ENDBRANCH  12  15
TORSDOF 3
ENDMDL
MODEL 4
REMARK VINA RESULT: -8.848162556      1.105      2.581
REMARK  3 active torsions:
REMARK  status: ('A' for Active; 'I' for Inactive)
REMARK    1  A    between atoms: C8_12  and  N4_13 
REMARK       I    between atoms: N4_13  and  C9_15 
REMARK       I    between atoms: C9_15  and  N6_19 
REMARK    2  A    between atoms: N6_19  and  C10_21 
REMARK    3  A    between atoms: C12_25  and  C13_26 
ROOT
HETATM    1  C1  UNL     1       4.422 -38.001  34.974  1.00  0.00     0.071 C 
HETATM    2  C2  UNL     1       3.442 -37.275  35.819  1.00  0.00     0.041 A 
HETATM    3  N1  UNL     1       2.669 -37.697  36.813  1.00  0.00    -0.302 N 
ATOM      4  H1  UNL     1       2.641 -38.656  37.158  1.00  0.00     0.187 HD
HETATM    5  N2  UNL     1       1.926 -36.688  37.304  1.00  0.00    -0.294 N 
HETATM    6  C3  UNL     1       0.973 -36.801  38.396  1.00  0.00     0.178 C 
HETATM    7  C4  UNL     1       2.200 -35.538  36.623  1.00  0.00     0.090 A 
HETATM    8  C5  UNL     1       1.729 -34.239  36.717  1.00  0.00     0.077 A 
HETATM    9  C6  UNL     1       0.724 -33.953  37.735  1.00  0.00     0.102 C 
HETATM   10  N3  UNL     1      -0.093 -33.691  38.551  1.00  0.00    -0.191 NA
HETATM   11  C7  UNL     1       2.122 -33.185  35.938  1.00  0.00     0.063 A 
HETATM   12  C8  UNL     1       3.032 -33.182  34.929  1.00  0.00     0.092 A 
HETATM   13  S1  UNL     1       3.742 -34.698  34.641  1.00  0.00    -0.068 SA
HETATM   14  C19 UNL     1       3.159 -35.922  35.688  1.00  0.00     0.060 A 
ENDROOT
BRANCH  12  15
HETATM   15  N4  UNL     1       3.314 -32.125  34.270  1.00  0.00    -0.185 N 
HETATM   16  C9  UNL     1       2.611 -31.917  33.050  1.00  0.00     0.691 C 
HETATM   17  N5  UNL     1       3.177 -31.638  31.933  1.00  0.00    -0.234 N 
HETATM   18  N6  UNL     1       1.194 -32.035  33.110  1.00  0.00    -0.022 N 
ATOM     19  H52 UNL     1       4.193 -31.553  31.890  1.00  0.00     0.174 HD
ATOM     20  H51 UNL     1       2.673 -31.489  31.059  1.00  0.00     0.174 HD
ATOM     21  H6  UNL     1       0.761 -32.915  33.395  1.00  0.00     0.203 HD
ATOM     22  H4  UNL     1       4.012 -31.460  34.602  1.00  0.00     0.185 HD
BRANCH  18  23
HETATM   23  C10 UNL     1       0.454 -31.010  32.799  1.00  0.00     0.697 A 
HETATM   24  N7  UNL     1      -0.836 -31.084  32.424  1.00  0.00    -0.199 N 
HETATM   25  C11 UNL     1      -1.309 -29.840  32.171  1.00  0.00     0.137 A 
ATOM     26  H7  UNL     1      -1.375 -31.946  32.342  1.00  0.00     0.183 HD
HETATM   27  C12 UNL     1      -0.276 -28.955  32.399  1.00  0.00     0.075 A 
HETATM   28  N8  UNL     1       0.772 -29.709  32.777  1.00  0.00    -0.189 N 
ATOM     29  H8  UNL     1       1.691 -29.338  33.017  1.00  0.00     0.184 HD
BRANCH  27  30
HETATM   30  C13 UNL     1      -0.313 -27.503  32.258  1.00  0.00    -0.007 A 
HETATM   31  C14 UNL     1      -1.069 -26.697  33.080  1.00  0.00     0.014 A 
HETATM   32  C15 UNL     1      -1.092 -25.310  32.930  1.00  0.00     0.001 A 
HETATM   33  C16 UNL     1      -0.350 -24.720  31.946  1.00  0.00     0.000 A 
HETATM   34  C17 UNL     1       0.411 -25.500  31.116  1.00  0.00     0.001 A 
HETATM   35  C18 UNL     1       0.426 -26.878  31.275  1.00  0.00     0.014 A 
ENDBRANCH  27  30
ENDBRANCH  18  23
ENDBRANCH  12  15
TORSDOF 3
ENDMDL
MODEL 5
REMARK VINA RESULT: -8.793759216      1.779      2.083
REMARK  3 active torsions:
REMARK  status: ('A' for Active; 'I' for Inactive)
REMARK    1  A    between atoms: C8_12  and  N4_13 
REMARK       I    between atoms: N4_13  and  C9_15 
REMARK       I    between atoms: C9_15  and  N6_19 
REMARK    2  A    between atoms: N6_19  and  C10_21 
REMARK    3  A    between atoms: C12_25  and  C13_26 
ROOT
HETATM    1  C1  UNL     1      -1.382 -37.457  35.219  1.00  0.00     0.071 C 
HETATM    2  C2  UNL     1       0.033 -37.722  34.859  1.00  0.00     0.041 A 
HETATM    3  N1  UNL     1       0.631 -38.829  34.434  1.00  0.00    -0.302 N 
ATOM      4  H1  UNL     1       0.159 -39.721  34.286  1.00  0.00     0.187 HD
HETATM    5  N2  UNL     1       1.942 -38.616  34.225  1.00  0.00    -0.294 N 
HETATM    6  C3  UNL     1       2.892 -39.613  33.758  1.00  0.00     0.178 C 
HETATM    7  C4  UNL     1       2.253 -37.320  34.516  1.00  0.00     0.090 A 
HETATM    8  C5  UNL     1       3.429 -36.589  34.477  1.00  0.00     0.077 A 
HETATM    9  C6  UNL     1       4.640 -37.275  34.043  1.00  0.00     0.102 C 
HETATM   10  N3  UNL     1       5.640 -37.805  33.694  1.00  0.00    -0.191 NA
HETATM   11  C7  UNL     1       3.564 -35.269  34.810  1.00  0.00     0.063 A 
HETATM   12  C8  UNL     1       2.603 -34.411  35.242  1.00  0.00     0.092 A 
HETATM   13  S1  UNL     1       1.061 -35.113  35.364  1.00  0.00    -0.068 SA
HETATM   14  C19 UNL     1       1.038 -36.766  34.916  1.00  0.00     0.060 A 
ENDROOT
BRANCH  12  15
HETATM   15  N4  UNL     1       2.856 -33.191  35.524  1.00  0.00    -0.185 N 
HETATM   16  C9  UNL     1       2.769 -32.250  34.460  1.00  0.00     0.691 C 
HETATM   17  N5  UNL     1       3.686 -31.398  34.178  1.00  0.00    -0.234 N 
HETATM   18  N6  UNL     1       1.578 -32.285  33.681  1.00  0.00    -0.022 N 
ATOM     19  H52 UNL     1       4.540 -31.373  34.736  1.00  0.00     0.174 HD
ATOM     20  H51 UNL     1       3.624 -30.724  33.415  1.00  0.00     0.174 HD
ATOM     21  H6  UNL     1       1.323 -33.129  33.167  1.00  0.00     0.203 HD
ATOM     22  H4  UNL     1       3.108 -32.904  36.469  1.00  0.00     0.185 HD
BRANCH  18  23
HETATM   23  C10 UNL     1       0.817 -31.230  33.630  1.00  0.00     0.697 A 
HETATM   24  N7  UNL     1      -0.398 -31.136  34.200  1.00  0.00    -0.199 N 
HETATM   25  C11 UNL     1      -0.920 -29.909  33.959  1.00  0.00     0.137 A 
ATOM     26  H7  UNL     1      -0.855 -31.876  34.732  1.00  0.00     0.183 HD
HETATM   27  C12 UNL     1       0.005 -29.210  33.212  1.00  0.00     0.075 A 
HETATM   28  N8  UNL     1       1.041 -30.050  33.037  1.00  0.00    -0.189 N 
ATOM     29  H8  UNL     1       1.888 -29.818  32.520  1.00  0.00     0.184 HD
BRANCH  27  30
HETATM   30  C13 UNL     1      -0.117 -27.843  32.715  1.00  0.00    -0.007 A 
HETATM   31  C14 UNL     1       0.559 -27.395  31.602  1.00  0.00     0.014 A 
HETATM   32  C15 UNL     1       0.430 -26.085  31.142  1.00  0.00     0.001 A 
HETATM   33  C16 UNL     1      -0.386 -25.210  31.802  1.00  0.00     0.000 A 
HETATM   34  C17 UNL     1      -1.070 -25.631  32.912  1.00  0.00     0.001 A 
HETATM   35  C18 UNL     1      -0.933 -26.937  33.359  1.00  0.00     0.014 A 
ENDBRANCH  27  30
ENDBRANCH  18  23
ENDBRANCH  12  15
TORSDOF 3
ENDMDL
