MODEL 1
REMARK VINA RESULT: -7.893618151      0.000      0.000
REMARK  5 active torsions:
REMARK  status: ('A' for Active; 'I' for Inactive)
REMARK    1  A    between atoms: C2_2  and  N1_5 
REMARK    2  A    between atoms: C5_6  and  N2_7 
REMARK    3  A    between atoms: N2_7  and  N3_9 
REMARK    4  A    between atoms: N3_9  and  C6_11 
REMARK    5  A    between atoms: C6_11  and  N4_13 
ROOT
HETATM    1  N1  UNL     1      -3.268 -32.898  34.691  1.00  0.00    -0.156 N 
HETATM    2  C5  UNL     1      -2.961 -31.665  34.215  1.00  0.00     0.702 A 
HETATM    3  N6  UNL     1      -2.499 -30.918  35.230  1.00  0.00    -0.186 N 
ATOM      4  H6  UNL     1      -2.191 -29.948  35.171  1.00  0.00     0.184 HD
HETATM    5  C12 UNL     1      -2.516 -31.690  36.356  1.00  0.00     0.095 A 
HETATM    6  C13 UNL     1      -2.137 -31.362  37.638  1.00  0.00     0.049 A 
HETATM    7  C14 UNL     1      -2.257 -32.345  38.615  1.00  0.00     0.010 A 
HETATM    8  C15 UNL     1      -1.886 -32.067  39.929  1.00  0.00     0.016 A 
HETATM    9  C16 UNL     1      -2.022 -33.068  40.858  1.00  0.00     0.018 A 
HETATM   10  C17 UNL     1      -2.511 -34.297  40.466  1.00  0.00     0.090 A 
HETATM   11  N7  UNL     1      -2.865 -34.558  39.201  1.00  0.00    -0.352 N 
ATOM     12  H7  UNL     1      -3.225 -35.478  38.945  1.00  0.00     0.166 HD
HETATM   13  C18 UNL     1      -2.741 -33.580  38.258  1.00  0.00     0.117 A 
HETATM   14  N8  UNL     1      -3.104 -33.856  36.971  1.00  0.00    -0.325 N 
ATOM     15  H8  UNL     1      -3.460 -34.783  36.739  1.00  0.00     0.169 HD
HETATM   16  C19 UNL     1      -3.001 -32.929  36.008  1.00  0.00     0.153 A 
ENDROOT
BRANCH   2  17
HETATM   17  N2  UNL     1      -3.083 -31.255  32.996  1.00  0.00    -0.129 N 
ATOM     18  H2  UNL     1      -3.921 -31.470  32.457  1.00  0.00     0.205 HD
BRANCH  17  19
HETATM   19  N3  UNL     1      -2.048 -30.513  32.431  1.00  0.00    -0.262 N 
ATOM     20  H3  UNL     1      -2.085 -29.494  32.430  1.00  0.00     0.190 HD
BRANCH  19  21
HETATM   21  C6  UNL     1      -0.952 -31.183  31.863  1.00  0.00     0.191 C 
HETATM   22  S1  UNL     1      -1.162 -32.261  30.653  1.00  0.00    -0.039 SA
BRANCH  21  23
HETATM   23  N4  UNL     1       0.364 -30.941  32.326  1.00  0.00    -0.332 N 
HETATM   24  C7  UNL     1       0.860 -31.705  33.214  1.00  0.00     0.036 A 
HETATM   25  C8  UNL     1       0.130 -32.748  33.714  1.00  0.00     0.046 A 
HETATM   26  C11 UNL     1       2.131 -31.484  33.674  1.00  0.00     0.046 A 
HETATM   27  C9  UNL     1       0.699 -33.559  34.678  1.00  0.00     0.090 A 
HETATM   28  N5  UNL     1       1.944 -33.332  35.118  1.00  0.00    -0.375 N 
HETATM   29  C10 UNL     1       2.684 -32.315  34.645  1.00  0.00     0.090 A 
ATOM     30  H5  UNL     1       2.339 -33.946  35.829  1.00  0.00     0.164 HD
ATOM     31  H4  UNL     1       0.907 -30.163  31.953  1.00  0.00     0.168 HD
ENDBRANCH  21  23
ENDBRANCH  19  21
ENDBRANCH  17  19
ENDBRANCH   2  17
BRANCH   1  32
HETATM   32  C2  UNL     1      -3.793 -34.003  33.943  1.00  0.00     0.045 C 
HETATM   33  C1  UNL     1      -3.175 -34.166  32.585  1.00  0.00     0.039 C 
HETATM   34  C3  UNL     1      -5.293 -33.881  33.807  1.00  0.00     0.039 C 
HETATM   35  C4  UNL     1      -3.521 -35.306  34.706  1.00  0.00     0.039 C 
ENDBRANCH   1  32
TORSDOF 5
ENDMDL
MODEL 2
REMARK VINA RESULT: -7.864316384      3.136      4.320
REMARK  5 active torsions:
REMARK  status: ('A' for Active; 'I' for Inactive)
REMARK    1  A    between atoms: C2_2  and  N1_5 
REMARK    2  A    between atoms: C5_6  and  N2_7 
REMARK    3  A    between atoms: N2_7  and  N3_9 
REMARK    4  A    between atoms: N3_9  and  C6_11 
REMARK    5  A    between atoms: C6_11  and  N4_13 
ROOT
HETATM    1  N1  UNL     1      -1.102 -32.194  35.449  1.00  0.00    -0.156 N 
HETATM    2  C5  UNL     1      -2.058 -31.257  35.229  1.00  0.00     0.702 A 
HETATM    3  N6  UNL     1      -2.656 -30.974  36.398  1.00  0.00    -0.186 N 
ATOM      4  H6  UNL     1      -3.413 -30.306  36.539  1.00  0.00     0.184 HD
HETATM    5  C12 UNL     1      -2.069 -31.742  37.362  1.00  0.00     0.095 A 
HETATM    6  C13 UNL     1      -2.343 -31.801  38.709  1.00  0.00     0.049 A 
HETATM    7  C14 UNL     1      -1.589 -32.680  39.480  1.00  0.00     0.010 A 
HETATM    8  C15 UNL     1      -1.825 -32.779  40.851  1.00  0.00     0.016 A 
HETATM    9  C16 UNL     1      -1.056 -33.659  41.570  1.00  0.00     0.018 A 
HETATM   10  C17 UNL     1      -0.090 -34.403  40.924  1.00  0.00     0.090 A 
HETATM   11  N7  UNL     1       0.131 -34.304  39.607  1.00  0.00    -0.352 N 
ATOM     12  H7  UNL     1       0.853 -34.870  39.160  1.00  0.00     0.166 HD
HETATM   13  C18 UNL     1      -0.620 -33.436  38.868  1.00  0.00     0.117 A 
HETATM   14  N8  UNL     1      -0.386 -33.340  37.527  1.00  0.00    -0.325 N 
ATOM     15  H8  UNL     1       0.341 -33.916  37.102  1.00  0.00     0.169 HD
HETATM   16  C19 UNL     1      -1.096 -32.503  36.757  1.00  0.00     0.153 A 
ENDROOT
BRANCH   2  17
HETATM   17  N2  UNL     1      -2.361 -30.712  34.097  1.00  0.00    -0.129 N 
ATOM     18  H2  UNL     1      -2.742 -31.274  33.336  1.00  0.00     0.205 HD
BRANCH  17  19
HETATM   19  N3  UNL     1      -2.158 -29.343  33.935  1.00  0.00    -0.262 N 
ATOM     20  H3  UNL     1      -2.951 -28.717  33.801  1.00  0.00     0.190 HD
BRANCH  19  21
HETATM   21  C6  UNL     1      -0.848 -28.835  33.957  1.00  0.00     0.191 C 
HETATM   22  S1  UNL     1      -0.047 -28.641  35.368  1.00  0.00    -0.039 SA
BRANCH  21  23
HETATM   23  N4  UNL     1      -0.190 -28.479  32.755  1.00  0.00    -0.332 N 
HETATM   24  C7  UNL     1      -0.217 -27.267  32.368  1.00  0.00     0.036 A 
HETATM   25  C8  UNL     1      -0.874 -26.321  33.105  1.00  0.00     0.046 A 
HETATM   26  C11 UNL     1       0.414 -26.906  31.208  1.00  0.00     0.046 A 
HETATM   27  C9  UNL     1      -0.885 -25.015  32.657  1.00  0.00     0.090 A 
HETATM   28  N5  UNL     1      -0.263 -24.674  31.520  1.00  0.00    -0.375 N 
HETATM   29  C10 UNL     1       0.391 -25.582  30.776  1.00  0.00     0.090 A 
ATOM     30  H5  UNL     1      -0.286 -23.703  31.212  1.00  0.00     0.164 HD
ATOM     31  H4  UNL     1       0.299 -29.186  32.206  1.00  0.00     0.168 HD
ENDBRANCH  21  23
ENDBRANCH  19  21
ENDBRANCH  17  19
ENDBRANCH   2  17
BRANCH   1  32
HETATM   32  C2  UNL     1      -0.228 -32.777  34.473  1.00  0.00     0.045 C 
HETATM   33  C1  UNL     1      -0.598 -32.453  33.055  1.00  0.00     0.039 C 
HETATM   34  C3  UNL     1      -0.166 -34.276  34.652  1.00  0.00     0.039 C 
HETATM   35  C4  UNL     1       1.196 -32.245  34.685  1.00  0.00     0.039 C 
ENDBRANCH   1  32
TORSDOF 5
ENDMDL
MODEL 3
REMARK VINA RESULT: -7.858374614      3.451      6.134
REMARK  5 active torsions:
REMARK  status: ('A' for Active; 'I' for Inactive)
REMARK    1  A    between atoms: C2_2  and  N1_5 
REMARK    2  A    between atoms: C5_6  and  N2_7 
REMARK    3  A    between atoms: N2_7  and  N3_9 
REMARK    4  A    between atoms: N3_9  and  C6_11 
REMARK    5  A    between atoms: C6_11  and  N4_13 
ROOT
HETATM    1  N1  UNL     1       0.945 -32.292  35.109  1.00  0.00    -0.156 N 
HETATM    2  C5  UNL     1       1.620 -31.365  34.384  1.00  0.00     0.702 A 
HETATM    3  N6  UNL     1       2.804 -31.885  34.022  1.00  0.00    -0.186 N 
ATOM      4  H6  UNL     1       3.523 -31.417  33.470  1.00  0.00     0.184 HD
HETATM    5  C12 UNL     1       2.873 -33.152  34.526  1.00  0.00     0.095 A 
HETATM    6  C13 UNL     1       3.889 -34.074  34.417  1.00  0.00     0.049 A 
HETATM    7  C14 UNL     1       3.705 -35.309  35.032  1.00  0.00     0.010 A 
HETATM    8  C15 UNL     1       4.703 -36.279  34.953  1.00  0.00     0.016 A 
HETATM    9  C16 UNL     1       4.476 -37.481  35.575  1.00  0.00     0.018 A 
HETATM   10  C17 UNL     1       3.288 -37.686  36.246  1.00  0.00     0.090 A 
HETATM   11  N7  UNL     1       2.334 -36.749  36.318  1.00  0.00    -0.352 N 
ATOM     12  H7  UNL     1       1.467 -36.933  36.824  1.00  0.00     0.166 HD
HETATM   13  C18 UNL     1       2.534 -35.545  35.709  1.00  0.00     0.117 A 
HETATM   14  N8  UNL     1       1.555 -34.597  35.787  1.00  0.00    -0.325 N 
ATOM     15  H8  UNL     1       0.697 -34.803  36.298  1.00  0.00     0.169 HD
HETATM   16  C19 UNL     1       1.703 -33.398  35.206  1.00  0.00     0.153 A 
ENDROOT
BRANCH   2  17
HETATM   17  N2  UNL     1       1.215 -30.177  34.078  1.00  0.00    -0.129 N 
ATOM     18  H2  UNL     1       1.222 -29.431  34.774  1.00  0.00     0.205 HD
BRANCH  17  19
HETATM   19  N3  UNL     1       0.768 -29.932  32.782  1.00  0.00    -0.262 N 
ATOM     20  H3  UNL     1       1.394 -30.061  31.988  1.00  0.00     0.190 HD
BRANCH  19  21
HETATM   21  C6  UNL     1      -0.556 -29.507  32.579  1.00  0.00     0.191 C 
HETATM   22  S1  UNL     1      -1.591 -30.387  31.671  1.00  0.00    -0.039 SA
BRANCH  21  23
HETATM   23  N4  UNL     1      -1.025 -28.304  33.159  1.00  0.00    -0.332 N 
HETATM   24  C7  UNL     1      -0.705 -27.192  32.628  1.00  0.00     0.036 A 
HETATM   25  C8  UNL     1       0.083 -27.162  31.510  1.00  0.00     0.046 A 
HETATM   26  C11 UNL     1      -1.150 -26.019  33.176  1.00  0.00     0.046 A 
HETATM   27  C9  UNL     1       0.413 -25.939  30.959  1.00  0.00     0.090 A 
HETATM   28  N5  UNL     1      -0.030 -24.799  31.505  1.00  0.00    -0.375 N 
HETATM   29  C10 UNL     1      -0.806 -24.798  32.602  1.00  0.00     0.090 A 
ATOM     30  H5  UNL     1       0.228 -23.910  31.078  1.00  0.00     0.164 HD
ATOM     31  H4  UNL     1      -1.613 -28.327  33.992  1.00  0.00     0.168 HD
ENDBRANCH  21  23
ENDBRANCH  19  21
ENDBRANCH  17  19
ENDBRANCH   2  17
BRANCH   1  32
HETATM   32  C2  UNL     1      -0.358 -32.148  35.689  1.00  0.00     0.045 C 
HETATM   33  C1  UNL     1      -0.751 -30.724  35.958  1.00  0.00     0.039 C 
HETATM   34  C3  UNL     1      -0.457 -32.951  36.965  1.00  0.00     0.039 C 
HETATM   35  C4  UNL     1      -1.408 -32.715  34.724  1.00  0.00     0.039 C 
ENDBRANCH   1  32
TORSDOF 5
ENDMDL
MODEL 4
REMARK VINA RESULT: -7.832968563      3.306      7.021
REMARK  5 active torsions:
REMARK  status: ('A' for Active; 'I' for Inactive)
REMARK    1  A    between atoms: C2_2  and  N1_5 
REMARK    2  A    between atoms: C5_6  and  N2_7 
REMARK    3  A    between atoms: N2_7  and  N3_9 
REMARK    4  A    between atoms: N3_9  and  C6_11 
REMARK    5  A    between atoms: C6_11  and  N4_13 
ROOT
HETATM    1  N1  UNL     1       0.073 -30.812  34.373  1.00  0.00    -0.156 N 
HETATM    2  C5  UNL     1      -0.573 -30.791  35.566  1.00  0.00     0.702 A 
HETATM    3  N6  UNL     1      -1.076 -29.560  35.758  1.00  0.00    -0.186 N 
ATOM      4  H6  UNL     1      -1.611 -29.250  36.569  1.00  0.00     0.184 HD
HETATM    5  C12 UNL     1      -0.741 -28.801  34.674  1.00  0.00     0.095 A 
HETATM    6  C13 UNL     1      -1.032 -27.481  34.418  1.00  0.00     0.049 A 
HETATM    7  C14 UNL     1      -0.567 -26.940  33.223  1.00  0.00     0.010 A 
HETATM    8  C15 UNL     1      -0.834 -25.607  32.914  1.00  0.00     0.016 A 
HETATM    9  C16 UNL     1      -0.354 -25.119  31.724  1.00  0.00     0.018 A 
HETATM   10  C17 UNL     1       0.363 -25.949  30.888  1.00  0.00     0.090 A 
HETATM   11  N7  UNL     1       0.616 -27.229  31.192  1.00  0.00    -0.352 N 
ATOM     12  H7  UNL     1       1.151 -27.815  30.551  1.00  0.00     0.166 HD
HETATM   13  C18 UNL     1       0.151 -27.740  32.368  1.00  0.00     0.117 A 
HETATM   14  N8  UNL     1       0.414 -29.045  32.669  1.00  0.00    -0.325 N 
ATOM     15  H8  UNL     1       0.950 -29.613  32.012  1.00  0.00     0.169 HD
HETATM   16  C19 UNL     1      -0.021 -29.594  33.812  1.00  0.00     0.153 A 
ENDROOT
BRANCH   2  17
HETATM   17  N2  UNL     1      -0.699 -31.774  36.395  1.00  0.00    -0.129 N 
ATOM     18  H2  UNL     1      -0.008 -32.524  36.420  1.00  0.00     0.205 HD
BRANCH  17  19
HETATM   19  N3  UNL     1      -1.795 -31.792  37.255  1.00  0.00    -0.262 N 
ATOM     20  H3  UNL     1      -2.228 -30.919  37.556  1.00  0.00     0.190 HD
BRANCH  19  21
HETATM   21  C6  UNL     1      -2.299 -33.025  37.701  1.00  0.00     0.191 C 
HETATM   22  S1  UNL     1      -2.995 -33.164  39.173  1.00  0.00    -0.039 SA
BRANCH  21  23
HETATM   23  N4  UNL     1      -2.215 -34.179  36.885  1.00  0.00    -0.332 N 
HETATM   24  C7  UNL     1      -2.999 -34.293  35.888  1.00  0.00     0.036 A 
HETATM   25  C8  UNL     1      -3.911 -33.312  35.611  1.00  0.00     0.046 A 
HETATM   26  C11 UNL     1      -2.931 -35.403  35.089  1.00  0.00     0.046 A 
HETATM   27  C9  UNL     1      -4.747 -33.467  34.523  1.00  0.00     0.090 A 
HETATM   28  N5  UNL     1      -4.670 -34.557  33.748  1.00  0.00    -0.375 N 
HETATM   29  C10 UNL     1      -3.784 -35.537  33.996  1.00  0.00     0.090 A 
ATOM     30  H5  UNL     1      -5.299 -34.646  32.951  1.00  0.00     0.164 HD
ATOM     31  H4  UNL     1      -1.535 -34.909  37.093  1.00  0.00     0.168 HD
ENDBRANCH  21  23
ENDBRANCH  19  21
ENDBRANCH  17  19
ENDBRANCH   2  17
BRANCH   1  32
HETATM   32  C2  UNL     1       0.752 -31.928  33.783  1.00  0.00     0.045 C 
HETATM   33  C1  UNL     1       0.473 -33.238  34.460  1.00  0.00     0.039 C 
HETATM   34  C3  UNL     1       2.243 -31.680  33.753  1.00  0.00     0.039 C 
HETATM   35  C4  UNL     1       0.298 -32.084  32.325  1.00  0.00     0.039 C 
ENDBRANCH   1  32
TORSDOF 5
ENDMDL
MODEL 5
REMARK VINA RESULT: -7.829514828      3.189      6.985
REMARK  5 active torsions:
REMARK  status: ('A' for Active; 'I' for Inactive)
REMARK    1  A    between atoms: C2_2  and  N1_5 
REMARK    2  A    between atoms: C5_6  and  N2_7 
REMARK    3  A    between atoms: N2_7  and  N3_9 
REMARK    4  A    between atoms: N3_9  and  C6_11 
REMARK    5  A    between atoms: C6_11  and  N4_13 
ROOT
HETATM    1  N1  UNL     1      -1.044 -30.885  33.525  1.00  0.00    -0.156 N 
HETATM    2  C5  UNL     1      -1.887 -30.974  34.585  1.00  0.00     0.702 A 
HETATM    3  N6  UNL     1      -2.273 -29.734  34.929  1.00  0.00    -0.186 N 
ATOM      4  H6  UNL     1      -2.906 -29.492  35.691  1.00  0.00     0.184 HD
HETATM    5  C12 UNL     1      -1.665 -28.858  34.077  1.00  0.00     0.095 A 
HETATM    6  C13 UNL     1      -1.753 -27.485  34.037  1.00  0.00     0.049 A 
HETATM    7  C14 UNL     1      -1.023 -26.822  33.056  1.00  0.00     0.010 A 
HETATM    8  C15 UNL     1      -1.077 -25.432  32.971  1.00  0.00     0.016 A 
HETATM    9  C16 UNL     1      -0.339 -24.823  31.987  1.00  0.00     0.018 A 
HETATM   10  C17 UNL     1       0.417 -25.593  31.129  1.00  0.00     0.090 A 
HETATM   11  N7  UNL     1       0.465 -26.929  31.217  1.00  0.00    -0.352 N 
ATOM     12  H7  UNL     1       1.036 -27.469  30.566  1.00  0.00     0.166 HD
HETATM   13  C18 UNL     1      -0.259 -27.560  32.186  1.00  0.00     0.117 A 
HETATM   14  N8  UNL     1      -0.205 -28.922  32.267  1.00  0.00    -0.325 N 
ATOM     15  H8  UNL     1       0.373 -29.440  31.605  1.00  0.00     0.169 HD
HETATM   16  C19 UNL     1      -0.897 -29.589  33.201  1.00  0.00     0.153 A 
ENDROOT
BRANCH   2  17
HETATM   17  N2  UNL     1      -2.270 -32.055  35.179  1.00  0.00    -0.129 N 
ATOM     18  H2  UNL     1      -2.479 -32.897  34.643  1.00  0.00     0.205 HD
BRANCH  17  19
HETATM   19  N3  UNL     1      -2.393 -32.051  36.567  1.00  0.00    -0.262 N 
ATOM     20  H3  UNL     1      -2.219 -31.197  37.097  1.00  0.00     0.190 HD
BRANCH  19  21
HETATM   21  C6  UNL     1      -2.758 -33.235  37.229  1.00  0.00     0.191 C 
HETATM   22  S1  UNL     1      -2.937 -34.635  36.407  1.00  0.00    -0.039 SA
BRANCH  21  23
HETATM   23  N4  UNL     1      -2.981 -33.243  38.627  1.00  0.00    -0.332 N 
HETATM   24  C7  UNL     1      -2.005 -33.469  39.411  1.00  0.00     0.036 A 
HETATM   25  C8  UNL     1      -0.754 -33.702  38.907  1.00  0.00     0.046 A 
HETATM   26  C11 UNL     1      -2.203 -33.480  40.766  1.00  0.00     0.046 A 
HETATM   27  C9  UNL     1       0.284 -33.945  39.785  1.00  0.00     0.090 A 
HETATM   28  N5  UNL     1       0.076 -33.953  41.108  1.00  0.00    -0.375 N 
HETATM   29  C10 UNL     1      -1.141 -33.726  41.632  1.00  0.00     0.090 A 
ATOM     30  H5  UNL     1       0.860 -34.135  41.734  1.00  0.00     0.164 HD
ATOM     31  H4  UNL     1      -3.914 -33.069  39.001  1.00  0.00     0.168 HD
ENDBRANCH  21  23
ENDBRANCH  19  21
ENDBRANCH  17  19
ENDBRANCH   2  17
BRANCH   1  32
HETATM   32  C2  UNL     1      -0.401 -31.970  32.844  1.00  0.00     0.045 C 
HETATM   33  C1  UNL     1      -0.672 -33.316  33.452  1.00  0.00     0.039 C 
HETATM   34  C3  UNL     1       1.090 -31.736  32.772  1.00  0.00     0.039 C 
HETATM   35  C4  UNL     1      -0.911 -32.034  31.398  1.00  0.00     0.039 C 
ENDBRANCH   1  32
TORSDOF 5
ENDMDL
