MODEL 1
REMARK VINA RESULT: -6.219963124      0.000      0.000
REMARK  3 active torsions:
REMARK  status: ('A' for Active; 'I' for Inactive)
REMARK    1  A    between atoms: C2_2  and  N1_4 
REMARK    2  A    between atoms: C6_7  and  C7_8 
REMARK    3  A    between atoms: C8_11  and  O3_12 
ROOT
HETATM    1  N1  UNL     1      -3.574   5.841   9.769  1.00  0.00     0.092 N 
HETATM    2  C4  UNL     1      -2.808   5.588   8.593  1.00  0.00     0.274 C 
HETATM    3  C5  UNL     1      -3.570   4.524   7.790  1.00  0.00     0.054 C 
HETATM    4  C6  UNL     1      -3.507   3.181   8.504  1.00  0.00     0.081 C 
HETATM    5  C8  UNL     1      -4.841   2.513   8.295  1.00  0.00     0.138 C 
HETATM    6  C9  UNL     1      -5.114   1.372   9.190  1.00  0.00     0.041 C 
HETATM    7  C10 UNL     1      -4.699   1.532  10.609  1.00  0.00    -0.045 C 
HETATM    8  C11 UNL     1      -4.496   0.109  11.157  1.00  0.00     0.015 C 
HETATM    9  C12 UNL     1      -5.803   2.141  11.477  1.00  0.00     0.015 C 
HETATM   10  C13 UNL     1      -3.391   2.241  10.806  1.00  0.00     0.016 C 
HETATM   11  C14 UNL     1      -3.195   3.436   9.940  1.00  0.00     0.036 C 
HETATM   12  C15 UNL     1      -3.975   4.641  10.461  1.00  0.00     0.279 C 
ENDROOT
BRANCH   1  13
HETATM   13  C2  UNL     1      -3.015   6.840  10.634  1.00  0.00     0.215 C 
HETATM   14  C1  UNL     1      -3.792   6.900  11.908  1.00  0.00     0.042 C 
HETATM   15  C3  UNL     1      -2.872   8.193  10.023  1.00  0.00     0.042 C 
ENDBRANCH   1  13
BRANCH   4  16
HETATM   16  C7  UNL     1      -2.447   2.385   7.834  1.00  0.00     0.185 C 
HETATM   17  O1  UNL     1      -1.789   2.893   6.890  1.00  0.00    -0.647 OA
HETATM   18  O2  UNL     1      -2.137   1.092   8.192  1.00  0.00    -0.647 OA
ENDBRANCH   4  16
BRANCH   5  19
HETATM   19  O3  UNL     1      -4.861   2.061   6.970  1.00  0.00    -0.394 OA
ATOM     20  H3  UNL     1      -5.298   2.733   6.459  1.00  0.00     0.210 HD
ENDBRANCH   5  19
TORSDOF 3
ENDMDL
MODEL 2
REMARK VINA RESULT: -5.944897351      2.285      3.706
REMARK  3 active torsions:
REMARK  status: ('A' for Active; 'I' for Inactive)
REMARK    1  A    between atoms: C2_2  and  N1_4 
REMARK    2  A    between atoms: C6_7  and  C7_8 
REMARK    3  A    between atoms: C8_11  and  O3_12 
ROOT
HETATM    1  N1  UNL     1      -3.955   4.837   9.368  1.00  0.00     0.092 N 
HETATM    2  C4  UNL     1      -2.719   4.998   8.677  1.00  0.00     0.274 C 
HETATM    3  C5  UNL     1      -3.066   5.449   7.251  1.00  0.00     0.054 C 
HETATM    4  C6  UNL     1      -3.713   4.307   6.480  1.00  0.00     0.081 C 
HETATM    5  C8  UNL     1      -4.773   4.918   5.603  1.00  0.00     0.138 C 
HETATM    6  C9  UNL     1      -5.748   3.960   5.044  1.00  0.00     0.041 C 
HETATM    7  C10 UNL     1      -6.221   2.888   5.960  1.00  0.00    -0.045 C 
HETATM    8  C11 UNL     1      -6.677   1.728   5.060  1.00  0.00     0.015 C 
HETATM    9  C12 UNL     1      -7.468   3.299   6.747  1.00  0.00     0.015 C 
HETATM   10  C13 UNL     1      -5.164   2.321   6.863  1.00  0.00     0.016 C 
HETATM   11  C14 UNL     1      -4.256   3.332   7.471  1.00  0.00     0.036 C 
HETATM   12  C15 UNL     1      -4.923   4.057   8.637  1.00  0.00     0.279 C 
ENDROOT
BRANCH   1  13
HETATM   13  C2  UNL     1      -3.818   4.437  10.739  1.00  0.00     0.215 C 
HETATM   14  C1  UNL     1      -2.499   4.893  11.272  1.00  0.00     0.042 C 
HETATM   15  C3  UNL     1      -4.030   2.982  10.993  1.00  0.00     0.042 C 
ENDBRANCH   1  13
BRANCH   4  16
HETATM   16  C7  UNL     1      -2.654   3.706   5.628  1.00  0.00     0.185 C 
HETATM   17  O1  UNL     1      -1.459   3.712   6.022  1.00  0.00    -0.647 OA
HETATM   18  O2  UNL     1      -2.910   3.132   4.403  1.00  0.00    -0.647 OA
ENDBRANCH   4  16
BRANCH   5  19
HETATM   19  O3  UNL     1      -4.106   5.550   4.547  1.00  0.00    -0.394 OA
ATOM     20  H3  UNL     1      -3.303   5.909   4.907  1.00  0.00     0.210 HD
ENDBRANCH   5  19
TORSDOF 3
ENDMDL
MODEL 3
REMARK VINA RESULT: -5.607812150      1.450      3.618
REMARK  3 active torsions:
REMARK  status: ('A' for Active; 'I' for Inactive)
REMARK    1  A    between atoms: C2_2  and  N1_4 
REMARK    2  A    between atoms: C6_7  and  C7_8 
REMARK    3  A    between atoms: C8_11  and  O3_12 
ROOT
HETATM    1  N1  UNL     1      -3.200   5.746  10.292  1.00  0.00     0.092 N 
HETATM    2  C4  UNL     1      -3.407   4.532  11.011  1.00  0.00     0.274 C 
HETATM    3  C5  UNL     1      -2.730   3.417  10.201  1.00  0.00     0.054 C 
HETATM    4  C6  UNL     1      -3.502   3.158   8.915  1.00  0.00     0.081 C 
HETATM    5  C8  UNL     1      -2.483   2.852   7.849  1.00  0.00     0.138 C 
HETATM    6  C9  UNL     1      -2.990   2.919   6.465  1.00  0.00     0.041 C 
HETATM    7  C10 UNL     1      -3.917   4.040   6.153  1.00  0.00    -0.045 C 
HETATM    8  C11 UNL     1      -4.758   3.577   4.952  1.00  0.00     0.015 C 
HETATM    9  C12 UNL     1      -3.181   5.291   5.669  1.00  0.00     0.015 C 
HETATM   10  C13 UNL     1      -4.896   4.366   7.243  1.00  0.00     0.016 C 
HETATM   11  C14 UNL     1      -4.321   4.369   8.616  1.00  0.00     0.036 C 
HETATM   12  C15 UNL     1      -3.527   5.644   8.890  1.00  0.00     0.279 C 
ENDROOT
BRANCH   1  13
HETATM   13  C2  UNL     1      -3.753   6.909  10.923  1.00  0.00     0.215 C 
HETATM   14  C1  UNL     1      -3.010   8.128  10.482  1.00  0.00     0.042 C 
HETATM   15  C3  UNL     1      -3.838   6.835  12.411  1.00  0.00     0.042 C 
ENDBRANCH   1  13
BRANCH   4  16
HETATM   16  C7  UNL     1      -4.344   1.957   9.150  1.00  0.00     0.185 C 
HETATM   17  O1  UNL     1      -4.268   1.349  10.249  1.00  0.00    -0.647 OA
HETATM   18  O2  UNL     1      -5.222   1.458   8.215  1.00  0.00    -0.647 OA
ENDBRANCH   4  16
BRANCH   5  19
HETATM   19  O3  UNL     1      -2.019   1.554   8.097  1.00  0.00    -0.394 OA
ATOM     20  H3  UNL     1      -1.076   1.575   7.982  1.00  0.00     0.210 HD
ENDBRANCH   5  19
TORSDOF 3
ENDMDL
MODEL 4
REMARK VINA RESULT: -5.599996260      2.400      4.000
REMARK  3 active torsions:
REMARK  status: ('A' for Active; 'I' for Inactive)
REMARK    1  A    between atoms: C2_2  and  N1_4 
REMARK    2  A    between atoms: C6_7  and  C7_8 
REMARK    3  A    between atoms: C8_11  and  O3_12 
ROOT
HETATM    1  N1  UNL     1      -4.309   4.534   9.329  1.00  0.00     0.092 N 
HETATM    2  C4  UNL     1      -3.005   4.685   8.773  1.00  0.00     0.274 C 
HETATM    3  C5  UNL     1      -3.190   5.269   7.365  1.00  0.00     0.054 C 
HETATM    4  C6  UNL     1      -3.809   4.229   6.441  1.00  0.00     0.081 C 
HETATM    5  C8  UNL     1      -4.750   4.966   5.525  1.00  0.00     0.138 C 
HETATM    6  C9  UNL     1      -5.707   4.110   4.796  1.00  0.00     0.041 C 
HETATM    7  C10 UNL     1      -6.316   2.993   5.568  1.00  0.00    -0.045 C 
HETATM    8  C11 UNL     1      -6.733   1.936   4.531  1.00  0.00     0.015 C 
HETATM    9  C12 UNL     1      -7.614   3.404   6.267  1.00  0.00     0.015 C 
HETATM   10  C13 UNL     1      -5.379   2.299   6.513  1.00  0.00     0.016 C 
HETATM   11  C14 UNL     1      -4.490   3.207   7.288  1.00  0.00     0.036 C 
HETATM   12  C15 UNL     1      -5.235   3.868   8.445  1.00  0.00     0.279 C 
ENDROOT
BRANCH   1  13
HETATM   13  C2  UNL     1      -4.324   4.015  10.667  1.00  0.00     0.215 C 
HETATM   14  C1  UNL     1      -3.254   2.986  10.825  1.00  0.00     0.042 C 
HETATM   15  C3  UNL     1      -5.646   3.497  11.124  1.00  0.00     0.042 C 
ENDBRANCH   1  13
BRANCH   4  16
HETATM   16  C7  UNL     1      -2.700   3.645   5.643  1.00  0.00     0.185 C 
HETATM   17  O1  UNL     1      -2.943   3.141   4.516  1.00  0.00    -0.647 OA
HETATM   18  O2  UNL     1      -1.393   3.621   6.075  1.00  0.00    -0.647 OA
ENDBRANCH   4  16
BRANCH   5  19
HETATM   19  O3  UNL     1      -3.956   5.646   4.594  1.00  0.00    -0.394 OA
ATOM     20  H3  UNL     1      -4.024   6.571   4.802  1.00  0.00     0.210 HD
ENDBRANCH   5  19
TORSDOF 3
ENDMDL
MODEL 5
REMARK VINA RESULT: -5.588443250      2.631      3.736
REMARK  3 active torsions:
REMARK  status: ('A' for Active; 'I' for Inactive)
REMARK    1  A    between atoms: C2_2  and  N1_4 
REMARK    2  A    between atoms: C6_7  and  C7_8 
REMARK    3  A    between atoms: C8_11  and  O3_12 
ROOT
HETATM    1  N1  UNL     1      -3.535   4.886   8.410  1.00  0.00     0.092 N 
HETATM    2  C4  UNL     1      -2.782   4.877   7.200  1.00  0.00     0.274 C 
HETATM    3  C5  UNL     1      -3.759   5.229   6.069  1.00  0.00     0.054 C 
HETATM    4  C6  UNL     1      -4.736   4.084   5.842  1.00  0.00     0.081 C 
HETATM    5  C8  UNL     1      -6.067   4.706   5.510  1.00  0.00     0.138 C 
HETATM    6  C9  UNL     1      -7.222   3.791   5.602  1.00  0.00     0.041 C 
HETATM    7  C10 UNL     1      -7.231   2.850   6.753  1.00  0.00    -0.045 C 
HETATM    8  C11 UNL     1      -8.104   1.659   6.324  1.00  0.00     0.015 C 
HETATM    9  C12 UNL     1      -7.928   3.436   7.983  1.00  0.00     0.015 C 
HETATM   10  C13 UNL     1      -5.890   2.274   7.104  1.00  0.00     0.016 C 
HETATM   11  C14 UNL     1      -4.767   3.252   7.080  1.00  0.00     0.036 C 
HETATM   12  C15 UNL     1      -4.763   4.132   8.327  1.00  0.00     0.279 C 
ENDROOT
BRANCH   1  13
HETATM   13  C2  UNL     1      -2.767   4.598   9.587  1.00  0.00     0.215 C 
HETATM   14  C1  UNL     1      -3.485   3.595  10.430  1.00  0.00     0.042 C 
HETATM   15  C3  UNL     1      -2.370   5.793  10.386  1.00  0.00     0.042 C 
ENDBRANCH   1  13
BRANCH   4  16
HETATM   16  C7  UNL     1      -4.243   3.320   4.667  1.00  0.00     0.185 C 
HETATM   17  O1  UNL     1      -3.231   3.729   4.039  1.00  0.00    -0.647 OA
HETATM   18  O2  UNL     1      -4.841   2.166   4.214  1.00  0.00    -0.647 OA
ENDBRANCH   4  16
BRANCH   5  19
HETATM   19  O3  UNL     1      -5.972   5.182   4.197  1.00  0.00    -0.394 OA
ATOM     20  H3  UNL     1      -5.820   4.425   3.642  1.00  0.00     0.210 HD
ENDBRANCH   5  19
TORSDOF 3
ENDMDL
