MODEL 1
REMARK VINA RESULT: -6.031826700      0.000      0.000
REMARK  2 active torsions:
REMARK  status: ('A' for Active; 'I' for Inactive)
REMARK       I    between atoms: N1_2  and  C2_4 
REMARK       I    between atoms: N3_6  and  C3_8 
REMARK    1  A    between atoms: C3_8  and  C4_10 
REMARK    2  A    between atoms: C5_11  and  C6_12 
ROOT
HETATM    1  C4  UNL     1      -4.431   0.435   8.459  1.00  0.00     0.074 C 
HETATM    2  C5  UNL     1      -5.111   1.434   8.036  1.00  0.00     0.008 C 
ENDROOT
BRANCH   2   3
HETATM    3  C6  UNL     1      -4.700   2.824   8.005  1.00  0.00     0.032 C 
HETATM    4  C7  UNL     1      -4.143   3.337   6.878  1.00  0.00     0.047 C 
HETATM    5  C8  UNL     1      -3.675   4.731   6.692  1.00  0.00     0.067 C 
HETATM    6  O2  UNL     1      -3.891   2.694   5.678  1.00  0.00    -0.344 OA
HETATM    7  C9  UNL     1      -3.878   4.940   5.187  1.00  0.00     0.045 C 
HETATM    8  C10 UNL     1      -4.016   3.590   4.587  1.00  0.00     0.068 C 
HETATM    9  C11 UNL     1      -3.021   3.311   3.501  1.00  0.00     0.038 C 
HETATM   10  C15 UNL     1      -5.452   3.447   4.087  1.00  0.00     0.038 C 
HETATM   11  C12 UNL     1      -3.284   2.076   2.738  1.00  0.00     0.003 C 
HETATM   12  C13 UNL     1      -4.731   1.782   2.474  1.00  0.00     0.000 C 
HETATM   13  C14 UNL     1      -5.594   1.988   3.703  1.00  0.00     0.003 C 
ENDBRANCH   2   3
BRANCH   1  14
HETATM   14  C3  UNL     1      -3.116   0.453   8.999  1.00  0.00     0.247 C 
HETATM   15  N3  UNL     1      -2.877   0.525  10.427  1.00  0.00    -0.298 N 
HETATM   16  C2  UNL     1      -3.359  -0.367  11.223  1.00  0.00     0.190 C 
ATOM     17  H3  UNL     1      -2.321   1.291  10.807  1.00  0.00     0.171 HD
HETATM   18  N1  UNL     1      -3.146  -0.331  12.628  1.00  0.00    -0.369 N 
HETATM   19  N2  UNL     1      -4.126  -1.418  10.655  1.00  0.00    -0.063 NA
HETATM   20  C1  UNL     1      -1.941  -0.936  13.136  1.00  0.00     0.148 C 
ATOM     21  H1  UNL     1      -3.822   0.107  13.254  1.00  0.00     0.161 HD
HETATM   22  O1  UNL     1      -2.077   0.410   8.313  1.00  0.00    -0.268 OA
ENDBRANCH   1  14
TORSDOF 2
ENDMDL
MODEL 2
REMARK VINA RESULT: -6.010036652      1.119      1.119
REMARK  2 active torsions:
REMARK  status: ('A' for Active; 'I' for Inactive)
REMARK       I    between atoms: N1_2  and  C2_4 
REMARK       I    between atoms: N3_6  and  C3_8 
REMARK    1  A    between atoms: C3_8  and  C4_10 
REMARK    2  A    between atoms: C5_11  and  C6_12 
ROOT
HETATM    1  C4  UNL     1      -4.362   0.209   8.472  1.00  0.00     0.074 C 
HETATM    2  C5  UNL     1      -5.005   1.288   8.228  1.00  0.00     0.008 C 
ENDROOT
BRANCH   2   3
HETATM    3  C6  UNL     1      -4.490   2.644   8.272  1.00  0.00     0.032 C 
HETATM    4  C7  UNL     1      -3.985   3.210   7.145  1.00  0.00     0.047 C 
HETATM    5  C8  UNL     1      -3.425   4.577   7.031  1.00  0.00     0.067 C 
HETATM    6  O2  UNL     1      -3.879   2.654   5.881  1.00  0.00    -0.344 OA
HETATM    7  C9  UNL     1      -3.729   4.927   5.569  1.00  0.00     0.045 C 
HETATM    8  C10 UNL     1      -4.018   3.646   4.879  1.00  0.00     0.068 C 
HETATM    9  C11 UNL     1      -3.136   3.390   3.694  1.00  0.00     0.038 C 
HETATM   10  C15 UNL     1      -5.496   3.648   4.492  1.00  0.00     0.038 C 
HETATM   11  C12 UNL     1      -3.554   2.246   2.861  1.00  0.00     0.003 C 
HETATM   12  C13 UNL     1      -5.036   2.080   2.699  1.00  0.00     0.000 C 
HETATM   13  C14 UNL     1      -5.781   2.241   4.008  1.00  0.00     0.003 C 
ENDBRANCH   2   3
BRANCH   1  14
HETATM   14  C3  UNL     1      -2.996   0.082   8.845  1.00  0.00     0.247 C 
HETATM   15  N3  UNL     1      -2.595  -0.606  10.057  1.00  0.00    -0.298 N 
HETATM   16  C2  UNL     1      -2.925  -1.836  10.257  1.00  0.00     0.190 C 
ATOM     17  H3  UNL     1      -2.046  -0.111  10.759  1.00  0.00     0.171 HD
HETATM   18  N1  UNL     1      -2.550  -2.544  11.431  1.00  0.00    -0.369 N 
HETATM   19  N2  UNL     1      -3.688  -2.489   9.255  1.00  0.00    -0.063 NA
HETATM   20  C1  UNL     1      -1.259  -3.184  11.441  1.00  0.00     0.148 C 
ATOM     21  H1  UNL     1      -3.173  -2.598  12.237  1.00  0.00     0.161 HD
HETATM   22  O1  UNL     1      -2.044   0.539   8.183  1.00  0.00    -0.268 OA
ENDBRANCH   1  14
TORSDOF 2
ENDMDL
MODEL 3
REMARK VINA RESULT: -5.952455323      3.690      8.067
REMARK  2 active torsions:
REMARK  status: ('A' for Active; 'I' for Inactive)
REMARK       I    between atoms: N1_2  and  C2_4 
REMARK       I    between atoms: N3_6  and  C3_8 
REMARK    1  A    between atoms: C3_8  and  C4_10 
REMARK    2  A    between atoms: C5_11  and  C6_12 
ROOT
HETATM    1  C4  UNL     1      -3.441   0.370   8.621  1.00  0.00     0.074 C 
HETATM    2  C5  UNL     1      -2.970  -0.304   9.602  1.00  0.00     0.008 C 
ENDROOT
BRANCH   2   3
HETATM    3  C6  UNL     1      -3.147  -0.033  11.016  1.00  0.00     0.032 C 
HETATM    4  C7  UNL     1      -2.679  -0.917  11.935  1.00  0.00     0.047 C 
HETATM    5  C8  UNL     1      -2.783  -0.782  13.407  1.00  0.00     0.067 C 
HETATM    6  O2  UNL     1      -2.020  -2.114  11.713  1.00  0.00    -0.344 OA
HETATM    7  C9  UNL     1      -1.538  -1.539  13.886  1.00  0.00     0.045 C 
HETATM    8  C10 UNL     1      -1.089  -2.379  12.749  1.00  0.00     0.068 C 
HETATM    9  C11 UNL     1      -1.000  -3.838  13.079  1.00  0.00     0.038 C 
HETATM   10  C15 UNL     1       0.249  -1.827  12.263  1.00  0.00     0.038 C 
HETATM   11  C12 UNL     1      -0.339  -4.656  12.043  1.00  0.00     0.003 C 
HETATM   12  C13 UNL     1       0.826  -4.004  11.360  1.00  0.00     0.000 C 
HETATM   13  C14 UNL     1       0.538  -2.568  10.973  1.00  0.00     0.003 C 
ENDBRANCH   2   3
BRANCH   1  14
HETATM   14  C3  UNL     1      -4.246   1.540   8.684  1.00  0.00     0.247 C 
HETATM   15  N3  UNL     1      -3.711   2.811   9.131  1.00  0.00    -0.298 N 
HETATM   16  C2  UNL     1      -2.703   3.349   8.534  1.00  0.00     0.190 C 
ATOM     17  H3  UNL     1      -4.138   3.286   9.926  1.00  0.00     0.171 HD
HETATM   18  N1  UNL     1      -2.151   4.595   8.941  1.00  0.00    -0.369 N 
HETATM   19  N2  UNL     1      -2.139   2.657   7.431  1.00  0.00    -0.063 NA
HETATM   20  C1  UNL     1      -2.745   5.794   8.409  1.00  0.00     0.148 C 
ATOM     21  H1  UNL     1      -1.363   4.637   9.587  1.00  0.00     0.161 HD
HETATM   22  O1  UNL     1      -5.452   1.579   8.372  1.00  0.00    -0.268 OA
ENDBRANCH   1  14
TORSDOF 2
ENDMDL
MODEL 4
REMARK VINA RESULT: -5.785079814      2.657      4.404
REMARK  2 active torsions:
REMARK  status: ('A' for Active; 'I' for Inactive)
REMARK       I    between atoms: N1_2  and  C2_4 
REMARK       I    between atoms: N3_6  and  C3_8 
REMARK    1  A    between atoms: C3_8  and  C4_10 
REMARK    2  A    between atoms: C5_11  and  C6_12 
ROOT
HETATM    1  C4  UNL     1      -3.044   5.099   6.706  1.00  0.00     0.074 C 
HETATM    2  C5  UNL     1      -3.604   5.174   5.558  1.00  0.00     0.008 C 
ENDROOT
BRANCH   2   3
HETATM    3  C6  UNL     1      -3.728   4.118   4.572  1.00  0.00     0.032 C 
HETATM    4  C7  UNL     1      -4.863   3.374   4.520  1.00  0.00     0.047 C 
HETATM    5  C8  UNL     1      -5.137   2.266   3.575  1.00  0.00     0.067 C 
HETATM    6  O2  UNL     1      -5.991   3.477   5.316  1.00  0.00    -0.344 OA
HETATM    7  C9  UNL     1      -6.663   2.331   3.440  1.00  0.00     0.045 C 
HETATM    8  C10 UNL     1      -7.157   3.129   4.590  1.00  0.00     0.068 C 
HETATM    9  C11 UNL     1      -8.163   2.406   5.434  1.00  0.00     0.038 C 
HETATM   10  C15 UNL     1      -7.717   4.438   4.041  1.00  0.00     0.038 C 
HETATM   11  C12 UNL     1      -8.835   3.254   6.438  1.00  0.00     0.003 C 
HETATM   12  C13 UNL     1      -9.148   4.651   5.989  1.00  0.00     0.000 C 
HETATM   13  C14 UNL     1      -7.987   5.296   5.260  1.00  0.00     0.003 C 
ENDBRANCH   2   3
BRANCH   1  14
HETATM   14  C3  UNL     1      -2.412   3.965   7.287  1.00  0.00     0.247 C 
HETATM   15  N3  UNL     1      -2.329   3.789   8.723  1.00  0.00    -0.298 N 
HETATM   16  C2  UNL     1      -3.395   3.759   9.447  1.00  0.00     0.190 C 
ATOM     17  H3  UNL     1      -1.417   3.688   9.167  1.00  0.00     0.171 HD
HETATM   18  N1  UNL     1      -3.356   3.587  10.858  1.00  0.00    -0.369 N 
HETATM   19  N2  UNL     1      -4.646   3.902   8.792  1.00  0.00    -0.063 NA
HETATM   20  C1  UNL     1      -3.314   2.239  11.364  1.00  0.00     0.148 C 
ATOM     21  H1  UNL     1      -3.356   4.389  11.488  1.00  0.00     0.161 HD
HETATM   22  O1  UNL     1      -1.885   3.046   6.632  1.00  0.00    -0.268 OA
ENDBRANCH   1  14
TORSDOF 2
ENDMDL
MODEL 5
REMARK VINA RESULT: -5.783272929      1.880      2.562
REMARK  2 active torsions:
REMARK  status: ('A' for Active; 'I' for Inactive)
REMARK       I    between atoms: N1_2  and  C2_4 
REMARK       I    between atoms: N3_6  and  C3_8 
REMARK    1  A    between atoms: C3_8  and  C4_10 
REMARK    2  A    between atoms: C5_11  and  C6_12 
ROOT
HETATM    1  C4  UNL     1      -4.291  -0.248   9.049  1.00  0.00     0.074 C 
HETATM    2  C5  UNL     1      -4.976   0.770   9.412  1.00  0.00     0.008 C 
ENDROOT
BRANCH   2   3
HETATM    3  C6  UNL     1      -4.482   1.981  10.040  1.00  0.00     0.032 C 
HETATM    4  C7  UNL     1      -3.853   2.921   9.289  1.00  0.00     0.047 C 
HETATM    5  C8  UNL     1      -3.296   4.203   9.782  1.00  0.00     0.067 C 
HETATM    6  O2  UNL     1      -3.595   2.899   7.928  1.00  0.00    -0.344 OA
HETATM    7  C9  UNL     1      -3.429   5.106   8.550  1.00  0.00     0.045 C 
HETATM    8  C10 UNL     1      -3.624   4.207   7.385  1.00  0.00     0.068 C 
HETATM    9  C11 UNL     1      -2.607   4.401   6.302  1.00  0.00     0.038 C 
HETATM   10  C15 UNL     1      -5.046   4.417   6.869  1.00  0.00     0.038 C 
HETATM   11  C12 UNL     1      -2.914   3.688   5.046  1.00  0.00     0.003 C 
HETATM   12  C13 UNL     1      -4.366   3.655   4.668  1.00  0.00     0.000 C 
HETATM   13  C14 UNL     1      -5.260   3.322   5.844  1.00  0.00     0.003 C 
ENDBRANCH   2   3
BRANCH   1  14
HETATM   14  C3  UNL     1      -2.887  -0.434   9.175  1.00  0.00     0.247 C 
HETATM   15  N3  UNL     1      -2.317  -1.255  10.225  1.00  0.00    -0.298 N 
HETATM   16  C2  UNL     1      -2.649  -2.495  10.347  1.00  0.00     0.190 C 
ATOM     17  H3  UNL     1      -1.646  -0.848  10.876  1.00  0.00     0.171 HD
HETATM   18  N1  UNL     1      -2.112  -3.332  11.363  1.00  0.00    -0.369 N 
HETATM   19  N2  UNL     1      -3.586  -3.025   9.422  1.00  0.00    -0.063 NA
HETATM   20  C1  UNL     1      -0.858  -3.988  11.093  1.00  0.00     0.148 C 
ATOM     21  H1  UNL     1      -2.596  -3.464  12.250  1.00  0.00     0.161 HD
HETATM   22  O1  UNL     1      -2.041   0.079   8.417  1.00  0.00    -0.268 OA
ENDBRANCH   1  14
TORSDOF 2
ENDMDL
