MODEL 1
REMARK VINA RESULT: -9.398300606      0.000      0.000
REMARK  9 active torsions:
REMARK  status: ('A' for Active; 'I' for Inactive)
REMARK    1  A    between atoms: O1_2  and  C2_3 
REMARK    2  A    between atoms: C2_3  and  C3_5 
REMARK    3  A    between atoms: C3_5  and  N1_6 
REMARK    4  A    between atoms: N1_6  and  N2_7 
REMARK       I    between atoms: N2_7  and  C4_9 
REMARK    5  A    between atoms: C4_9  and  C5_11 
REMARK    6  A    between atoms: C6_14  and  N4_15 
REMARK    7  A    between atoms: N4_15  and  N5_17 
REMARK    8  A    between atoms: C7_19  and  C8_20 
REMARK    9  A    between atoms: C11_23  and  N6_24 
ROOT
HETATM    1  C5  UNL     1       6.394  11.921  18.442  1.00  0.00     0.205 A 
HETATM    2  N3  UNL     1       6.198  10.645  18.872  1.00  0.00    -0.169 N 
ATOM      3  H3  UNL     1       6.971  10.112  19.270  1.00  0.00     0.186 HD
HETATM    4  C6  UNL     1       4.982  10.094  18.768  1.00  0.00     0.713 A 
HETATM    5  N7  UNL     1       3.957  10.794  18.241  1.00  0.00    -0.021 N 
ATOM      6  H7  UNL     1       3.038  10.357  18.169  1.00  0.00     0.203 HD
HETATM    7  C14 UNL     1       4.121  12.048  17.811  1.00  0.00     0.692 A 
HETATM    8  N8  UNL     1       3.152  12.716  17.312  1.00  0.00    -0.234 N 
ATOM      9  H81 UNL     1       3.278  13.673  16.984  1.00  0.00     0.174 HD
ATOM     10  H82 UNL     1       2.222  12.305  17.228  1.00  0.00     0.174 HD
HETATM   11  N9  UNL     1       5.366  12.598  17.924  1.00  0.00    -0.170 N 
ATOM     12  H9  UNL     1       5.515  13.554  17.601  1.00  0.00     0.186 HD
ENDROOT
BRANCH   4  13
HETATM   13  N4  UNL     1       4.766   8.883  19.170  1.00  0.00    -0.132 N 
ATOM     14  H4  UNL     1       3.836   8.483  19.047  1.00  0.00     0.205 HD
BRANCH  13  15
HETATM   15  N5  UNL     1       5.730   8.126  19.747  1.00  0.00    -0.297 N 
HETATM   16  C7  UNL     1       6.576   7.304  19.353  1.00  0.00     0.119 C 
ATOM     17  H5  UNL     1       5.773   8.265  20.757  1.00  0.00     0.186 HD
BRANCH  16  18
HETATM   18  C8  UNL     1       6.804   6.862  17.988  1.00  0.00    -0.019 A 
HETATM   19  C9  UNL     1       7.572   7.659  17.118  1.00  0.00     0.015 A 
HETATM   20  C10 UNL     1       7.831   7.310  15.816  1.00  0.00     0.037 A 
HETATM   21  C11 UNL     1       7.347   6.141  15.276  1.00  0.00     0.102 A 
HETATM   22  C12 UNL     1       6.593   5.346  16.109  1.00  0.00     0.037 A 
HETATM   23  C13 UNL     1       6.332   5.703  17.431  1.00  0.00     0.015 A 
BRANCH  21  24
HETATM   24  N6  UNL     1       7.612   5.776  13.923  1.00  0.00    -0.116 N 
HETATM   25  O4  UNL     1       8.656   5.129  13.667  1.00  0.00    -0.532 OA
HETATM   26  O5  UNL     1       6.707   6.150  12.967  1.00  0.00    -0.532 OA
ENDBRANCH  21  24
ENDBRANCH  16  18
ENDBRANCH  13  15
ENDBRANCH   4  13
BRANCH   1  27
HETATM   27  C4  UNL     1       7.714  12.510  18.565  1.00  0.00     0.302 C 
HETATM   28  N2  UNL     1       8.850  11.895  18.032  1.00  0.00    -0.267 N 
ATOM     29  H2  UNL     1       8.774  11.004  17.540  1.00  0.00     0.185 HD
HETATM   30  O3  UNL     1       7.819  13.611  19.175  1.00  0.00    -0.263 OA
BRANCH  28  31
HETATM   31  N1  UNL     1      10.080  12.513  18.182  1.00  0.00    -0.129 NA
BRANCH  31  32
HETATM   32  C3  UNL     1      11.203  11.720  17.781  1.00  0.00     0.246 C 
BRANCH  32  33
HETATM   33  C2  UNL     1      10.974  10.275  17.974  1.00  0.00     0.274 C 
HETATM   34  O2  UNL     1      10.772   9.527  16.983  1.00  0.00    -0.264 OA
BRANCH  33  35
HETATM   35  O1  UNL     1      10.972   9.693  19.231  1.00  0.00    -0.325 OA
HETATM   36  C1  UNL     1      10.117   8.580  19.487  1.00  0.00     0.213 C 
ENDBRANCH  33  35
ENDBRANCH  32  33
ENDBRANCH  31  32
ENDBRANCH  28  31
ENDBRANCH   1  27
TORSDOF 9
ENDMDL
MODEL 2
REMARK VINA RESULT: -8.943079705      4.108      6.660
REMARK  9 active torsions:
REMARK  status: ('A' for Active; 'I' for Inactive)
REMARK    1  A    between atoms: O1_2  and  C2_3 
REMARK    2  A    between atoms: C2_3  and  C3_5 
REMARK    3  A    between atoms: C3_5  and  N1_6 
REMARK    4  A    between atoms: N1_6  and  N2_7 
REMARK       I    between atoms: N2_7  and  C4_9 
REMARK    5  A    between atoms: C4_9  and  C5_11 
REMARK    6  A    between atoms: C6_14  and  N4_15 
REMARK    7  A    between atoms: N4_15  and  N5_17 
REMARK    8  A    between atoms: C7_19  and  C8_20 
REMARK    9  A    between atoms: C11_23  and  N6_24 
ROOT
HETATM    1  C5  UNL     1       2.819  12.196  18.161  1.00  0.00     0.205 A 
HETATM    2  N3  UNL     1       3.201  11.087  18.851  1.00  0.00    -0.169 N 
ATOM      3  H3  UNL     1       2.504  10.416  19.173  1.00  0.00     0.186 HD
HETATM    4  C6  UNL     1       4.500  10.883  19.104  1.00  0.00     0.713 A 
HETATM    5  N7  UNL     1       5.427  11.767  18.681  1.00  0.00    -0.021 N 
ATOM      6  H7  UNL     1       6.412  11.594  18.884  1.00  0.00     0.203 HD
HETATM    7  C14 UNL     1       5.080  12.863  18.002  1.00  0.00     0.692 A 
HETATM    8  N8  UNL     1       5.955  13.704  17.598  1.00  0.00    -0.234 N 
ATOM      9  H81 UNL     1       5.690  14.541  17.080  1.00  0.00     0.174 HD
ATOM     10  H82 UNL     1       6.946  13.557  17.785  1.00  0.00     0.174 HD
HETATM   11  N9  UNL     1       3.752  13.059  17.750  1.00  0.00    -0.170 N 
ATOM     12  H9  UNL     1       3.464  13.890  17.234  1.00  0.00     0.186 HD
ENDROOT
BRANCH   4  13
HETATM   13  N4  UNL     1       4.892   9.836  19.756  1.00  0.00    -0.132 N 
ATOM     14  H4  UNL     1       4.210   9.109  19.975  1.00  0.00     0.205 HD
BRANCH  13  15
HETATM   15  N5  UNL     1       6.174   9.669  20.160  1.00  0.00    -0.297 N 
HETATM   16  C7  UNL     1       7.149   8.995  19.782  1.00  0.00     0.119 C 
ATOM     17  H5  UNL     1       6.396  10.238  20.977  1.00  0.00     0.186 HD
BRANCH  16  18
HETATM   18  C8  UNL     1       7.202   8.078  18.657  1.00  0.00    -0.019 A 
HETATM   19  C9  UNL     1       7.907   8.441  17.494  1.00  0.00     0.015 A 
HETATM   20  C10 UNL     1       8.001   7.630  16.392  1.00  0.00     0.037 A 
HETATM   21  C11 UNL     1       7.402   6.392  16.358  1.00  0.00     0.102 A 
HETATM   22  C12 UNL     1       6.707   6.016  17.483  1.00  0.00     0.037 A 
HETATM   23  C13 UNL     1       6.613   6.842  18.603  1.00  0.00     0.015 A 
BRANCH  21  24
HETATM   24  N6  UNL     1       7.496   5.547  15.212  1.00  0.00    -0.116 N 
HETATM   25  O4  UNL     1       8.347   4.625  15.212  1.00  0.00    -0.532 OA
HETATM   26  O5  UNL     1       6.647   5.784  14.166  1.00  0.00    -0.532 OA
ENDBRANCH  21  24
ENDBRANCH  16  18
ENDBRANCH  13  15
ENDBRANCH   4  13
BRANCH   1  27
HETATM   27  C4  UNL     1       1.410  12.404  17.888  1.00  0.00     0.302 C 
HETATM   28  N2  UNL     1       0.972  13.111  16.765  1.00  0.00    -0.267 N 
ATOM     29  H2  UNL     1       1.645  13.505  16.106  1.00  0.00     0.185 HD
HETATM   30  O3  UNL     1       0.570  11.922  18.699  1.00  0.00    -0.263 OA
BRANCH  28  31
HETATM   31  N1  UNL     1      -0.388  13.270  16.561  1.00  0.00    -0.129 NA
BRANCH  31  32
HETATM   32  C3  UNL     1      -0.735  14.163  15.496  1.00  0.00     0.246 C 
BRANCH  32  33
HETATM   33  C2  UNL     1      -0.798  13.486  14.187  1.00  0.00     0.274 C 
HETATM   34  O2  UNL     1       0.242  12.996  13.676  1.00  0.00    -0.264 OA
BRANCH  33  35
HETATM   35  O1  UNL     1      -1.982  13.363  13.479  1.00  0.00    -0.325 OA
HETATM   36  C1  UNL     1      -2.639  14.535  13.001  1.00  0.00     0.213 C 
ENDBRANCH  33  35
ENDBRANCH  32  33
ENDBRANCH  31  32
ENDBRANCH  28  31
ENDBRANCH   1  27
TORSDOF 9
ENDMDL
MODEL 3
REMARK VINA RESULT: -8.915230607      3.192      5.783
REMARK  9 active torsions:
REMARK  status: ('A' for Active; 'I' for Inactive)
REMARK    1  A    between atoms: O1_2  and  C2_3 
REMARK    2  A    between atoms: C2_3  and  C3_5 
REMARK    3  A    between atoms: C3_5  and  N1_6 
REMARK    4  A    between atoms: N1_6  and  N2_7 
REMARK       I    between atoms: N2_7  and  C4_9 
REMARK    5  A    between atoms: C4_9  and  C5_11 
REMARK    6  A    between atoms: C6_14  and  N4_15 
REMARK    7  A    between atoms: N4_15  and  N5_17 
REMARK    8  A    between atoms: C7_19  and  C8_20 
REMARK    9  A    between atoms: C11_23  and  N6_24 
ROOT
HETATM    1  C5  UNL     1       4.412  11.743  18.331  1.00  0.00     0.205 A 
HETATM    2  N3  UNL     1       4.843  10.599  18.928  1.00  0.00    -0.169 N 
ATOM      3  H3  UNL     1       4.171   9.910  19.264  1.00  0.00     0.186 HD
HETATM    4  C6  UNL     1       6.157  10.383  19.070  1.00  0.00     0.713 A 
HETATM    5  N7  UNL     1       7.051  11.291  18.627  1.00  0.00    -0.021 N 
ATOM      6  H7  UNL     1       8.048  11.110  18.745  1.00  0.00     0.203 HD
HETATM    7  C14 UNL     1       6.656  12.423  18.038  1.00  0.00     0.692 A 
HETATM    8  N8  UNL     1       7.499  13.286  17.616  1.00  0.00    -0.234 N 
ATOM      9  H81 UNL     1       7.198  14.150  17.166  1.00  0.00     0.174 HD
ATOM     10  H82 UNL     1       8.502  13.132  17.719  1.00  0.00     0.174 HD
HETATM   11  N9  UNL     1       5.313  12.630  17.899  1.00  0.00    -0.170 N 
ATOM     12  H9  UNL     1       4.988  13.488  17.452  1.00  0.00     0.186 HD
ENDROOT
BRANCH   4  13
HETATM   13  N4  UNL     1       6.595   9.303  19.632  1.00  0.00    -0.132 N 
ATOM     14  H4  UNL     1       7.552   9.286  19.983  1.00  0.00     0.205 HD
BRANCH  13  15
HETATM   15  N5  UNL     1       5.829   8.194  19.771  1.00  0.00    -0.297 N 
HETATM   16  C7  UNL     1       5.507   7.235  19.048  1.00  0.00     0.119 C 
ATOM     17  H5  UNL     1       5.413   8.130  20.700  1.00  0.00     0.186 HD
BRANCH  16  18
HETATM   18  C8  UNL     1       5.909   6.995  17.673  1.00  0.00    -0.019 A 
HETATM   19  C9  UNL     1       6.711   5.879  17.367  1.00  0.00     0.015 A 
HETATM   20  C10 UNL     1       7.132   5.586  16.094  1.00  0.00     0.037 A 
HETATM   21  C11 UNL     1       6.789   6.380  15.024  1.00  0.00     0.102 A 
HETATM   22  C12 UNL     1       6.006   7.476  15.300  1.00  0.00     0.037 A 
HETATM   23  C13 UNL     1       5.580   7.772  16.594  1.00  0.00     0.015 A 
BRANCH  21  24
HETATM   24  N6  UNL     1       7.228   6.080  13.700  1.00  0.00    -0.116 N 
HETATM   25  O4  UNL     1       6.478   6.373  12.737  1.00  0.00    -0.532 OA
HETATM   26  O5  UNL     1       8.451   5.488  13.546  1.00  0.00    -0.532 OA
ENDBRANCH  21  24
ENDBRANCH  16  18
ENDBRANCH  13  15
ENDBRANCH   4  13
BRANCH   1  27
HETATM   27  C4  UNL     1       2.987  11.963  18.177  1.00  0.00     0.302 C 
HETATM   28  N2  UNL     1       2.474  12.832  17.210  1.00  0.00    -0.267 N 
ATOM     29  H2  UNL     1       3.101  13.340  16.586  1.00  0.00     0.185 HD
HETATM   30  O3  UNL     1       2.203  11.340  18.948  1.00  0.00    -0.263 OA
BRANCH  28  31
HETATM   31  N1  UNL     1       1.102  12.993  17.115  1.00  0.00    -0.129 NA
BRANCH  31  32
HETATM   32  C3  UNL     1       0.683  14.092  16.296  1.00  0.00     0.246 C 
BRANCH  32  33
HETATM   33  C2  UNL     1       1.117  13.951  14.894  1.00  0.00     0.274 C 
HETATM   34  O2  UNL     1       2.157  14.534  14.491  1.00  0.00    -0.264 OA
BRANCH  33  35
HETATM   35  O1  UNL     1       0.412  13.187  13.978  1.00  0.00    -0.325 OA
HETATM   36  C1  UNL     1      -1.003  13.333  13.884  1.00  0.00     0.213 C 
ENDBRANCH  33  35
ENDBRANCH  32  33
ENDBRANCH  31  32
ENDBRANCH  28  31
ENDBRANCH   1  27
TORSDOF 9
ENDMDL
MODEL 4
REMARK VINA RESULT: -8.902029599      1.127      1.392
REMARK  9 active torsions:
REMARK  status: ('A' for Active; 'I' for Inactive)
REMARK    1  A    between atoms: O1_2  and  C2_3 
REMARK    2  A    between atoms: C2_3  and  C3_5 
REMARK    3  A    between atoms: C3_5  and  N1_6 
REMARK    4  A    between atoms: N1_6  and  N2_7 
REMARK       I    between atoms: N2_7  and  C4_9 
REMARK    5  A    between atoms: C4_9  and  C5_11 
REMARK    6  A    between atoms: C6_14  and  N4_15 
REMARK    7  A    between atoms: N4_15  and  N5_17 
REMARK    8  A    between atoms: C7_19  and  C8_20 
REMARK    9  A    between atoms: C11_23  and  N6_24 
ROOT
HETATM    1  C5  UNL     1       7.317  12.312  18.320  1.00  0.00     0.205 A 
HETATM    2  N3  UNL     1       7.142  11.028  18.734  1.00  0.00    -0.169 N 
ATOM      3  H3  UNL     1       7.945  10.465  19.015  1.00  0.00     0.186 HD
HETATM    4  C6  UNL     1       5.909  10.509  18.769  1.00  0.00     0.713 A 
HETATM    5  N7  UNL     1       4.844  11.249  18.398  1.00  0.00    -0.021 N 
ATOM      6  H7  UNL     1       3.912  10.836  18.431  1.00  0.00     0.203 HD
HETATM    7  C14 UNL     1       4.987  12.512  17.988  1.00  0.00     0.692 A 
HETATM    8  N8  UNL     1       3.981  13.218  17.636  1.00  0.00    -0.234 N 
ATOM      9  H81 UNL     1       4.090  14.182  17.322  1.00  0.00     0.174 HD
ATOM     10  H82 UNL     1       3.037  12.832  17.659  1.00  0.00     0.174 HD
HETATM   11  N9  UNL     1       6.251  13.029  17.956  1.00  0.00    -0.170 N 
ATOM     12  H9  UNL     1       6.383  13.992  17.646  1.00  0.00     0.186 HD
ENDROOT
BRANCH   4  13
HETATM   13  N4  UNL     1       5.713   9.290  19.160  1.00  0.00    -0.132 N 
ATOM     14  H4  UNL     1       6.394   8.860  19.786  1.00  0.00     0.205 HD
BRANCH  13  15
HETATM   15  N5  UNL     1       4.637   8.567  18.770  1.00  0.00    -0.297 N 
HETATM   16  C7  UNL     1       4.408   7.704  17.903  1.00  0.00     0.119 C 
ATOM     17  H5  UNL     1       3.808   8.783  19.323  1.00  0.00     0.186 HD
BRANCH  16  18
HETATM   18  C8  UNL     1       5.345   7.153  16.940  1.00  0.00    -0.019 A 
HETATM   19  C9  UNL     1       6.167   6.071  17.308  1.00  0.00     0.015 A 
HETATM   20  C10 UNL     1       7.076   5.498  16.455  1.00  0.00     0.037 A 
HETATM   21  C11 UNL     1       7.241   5.955  15.168  1.00  0.00     0.102 A 
HETATM   22  C12 UNL     1       6.448   7.012  14.786  1.00  0.00     0.037 A 
HETATM   23  C13 UNL     1       5.524   7.593  15.655  1.00  0.00     0.015 A 
BRANCH  21  24
HETATM   24  N6  UNL     1       8.187   5.363  14.280  1.00  0.00    -0.116 N 
HETATM   25  O4  UNL     1       8.741   4.289  14.619  1.00  0.00    -0.532 OA
HETATM   26  O5  UNL     1       8.443   5.998  13.096  1.00  0.00    -0.532 OA
ENDBRANCH  21  24
ENDBRANCH  16  18
ENDBRANCH  13  15
ENDBRANCH   4  13
BRANCH   1  27
HETATM   27  C4  UNL     1       8.657  12.866  18.291  1.00  0.00     0.302 C 
HETATM   28  N2  UNL     1       9.768  12.095  17.936  1.00  0.00    -0.267 N 
ATOM     29  H2  UNL     1       9.657  11.111  17.688  1.00  0.00     0.185 HD
HETATM   30  O3  UNL     1       8.805  14.082  18.599  1.00  0.00    -0.263 OA
BRANCH  28  31
HETATM   31  N1  UNL     1      11.019  12.687  17.925  1.00  0.00    -0.129 NA
BRANCH  31  32
HETATM   32  C3  UNL     1      12.100  11.812  18.269  1.00  0.00     0.246 C 
BRANCH  32  33
HETATM   33  C2  UNL     1      11.726  10.388  18.178  1.00  0.00     0.274 C 
HETATM   34  O2  UNL     1      11.670   9.817  17.058  1.00  0.00    -0.264 OA
BRANCH  33  35
HETATM   35  O1  UNL     1      11.426   9.633  19.301  1.00  0.00    -0.325 OA
HETATM   36  C1  UNL     1      10.340   8.710  19.257  1.00  0.00     0.213 C 
ENDBRANCH  33  35
ENDBRANCH  32  33
ENDBRANCH  31  32
ENDBRANCH  28  31
ENDBRANCH   1  27
TORSDOF 9
ENDMDL
MODEL 5
REMARK VINA RESULT: -8.849145378      3.462      6.099
REMARK  9 active torsions:
REMARK  status: ('A' for Active; 'I' for Inactive)
REMARK    1  A    between atoms: O1_2  and  C2_3 
REMARK    2  A    between atoms: C2_3  and  C3_5 
REMARK    3  A    between atoms: C3_5  and  N1_6 
REMARK    4  A    between atoms: N1_6  and  N2_7 
REMARK       I    between atoms: N2_7  and  C4_9 
REMARK    5  A    between atoms: C4_9  and  C5_11 
REMARK    6  A    between atoms: C6_14  and  N4_15 
REMARK    7  A    between atoms: N4_15  and  N5_17 
REMARK    8  A    between atoms: C7_19  and  C8_20 
REMARK    9  A    between atoms: C11_23  and  N6_24 
ROOT
HETATM    1  C5  UNL     1       3.024  12.150  18.081  1.00  0.00     0.205 A 
HETATM    2  N3  UNL     1       3.132  10.847  18.459  1.00  0.00    -0.169 N 
ATOM      3  H3  UNL     1       2.295  10.288  18.619  1.00  0.00     0.186 HD
HETATM    4  C6  UNL     1       4.345  10.306  18.620  1.00  0.00     0.713 A 
HETATM    5  N7  UNL     1       5.456  11.042  18.411  1.00  0.00    -0.021 N 
ATOM      6  H7  UNL     1       6.373  10.611  18.539  1.00  0.00     0.203 HD
HETATM    7  C14 UNL     1       5.380  12.322  18.040  1.00  0.00     0.692 A 
HETATM    8  N8  UNL     1       6.430  13.024  17.839  1.00  0.00    -0.234 N 
ATOM      9  H81 UNL     1       6.372  14.002  17.556  1.00  0.00     0.174 HD
ATOM     10  H82 UNL     1       7.359  12.621  17.959  1.00  0.00     0.174 HD
HETATM   11  N9  UNL     1       4.136  12.862  17.879  1.00  0.00    -0.170 N 
ATOM     12  H9  UNL     1       4.053  13.839  17.596  1.00  0.00     0.186 HD
ENDROOT
BRANCH   4  13
HETATM   13  N4  UNL     1       4.478   9.068  18.978  1.00  0.00    -0.132 N 
ATOM     14  H4  UNL     1       3.758   8.399  18.706  1.00  0.00     0.205 HD
BRANCH  13  15
HETATM   15  N5  UNL     1       5.537   8.630  19.699  1.00  0.00    -0.297 N 
HETATM   16  C7  UNL     1       6.543   7.934  19.474  1.00  0.00     0.119 C 
ATOM     17  H5  UNL     1       5.501   8.950  20.666  1.00  0.00     0.186 HD
BRANCH  16  18
HETATM   18  C8  UNL     1       6.921   7.312  18.217  1.00  0.00    -0.019 A 
HETATM   19  C9  UNL     1       6.459   6.017  17.915  1.00  0.00     0.015 A 
HETATM   20  C10 UNL     1       6.773   5.363  16.750  1.00  0.00     0.037 A 
HETATM   21  C11 UNL     1       7.571   5.945  15.793  1.00  0.00     0.102 A 
HETATM   22  C12 UNL     1       8.035   7.211  16.067  1.00  0.00     0.037 A 
HETATM   23  C13 UNL     1       7.714   7.873  17.252  1.00  0.00     0.015 A 
BRANCH  21  24
HETATM   24  N6  UNL     1       7.902   5.267  14.582  1.00  0.00    -0.116 N 
HETATM   25  O4  UNL     1       8.658   4.266  14.640  1.00  0.00    -0.532 OA
HETATM   26  O5  UNL     1       7.374   5.743  13.414  1.00  0.00    -0.532 OA
ENDBRANCH  21  24
ENDBRANCH  16  18
ENDBRANCH  13  15
ENDBRANCH   4  13
BRANCH   1  27
HETATM   27  C4  UNL     1       1.704  12.724  17.904  1.00  0.00     0.302 C 
HETATM   28  N2  UNL     1       1.515  13.961  17.282  1.00  0.00    -0.267 N 
ATOM     29  H2  UNL     1       2.312  14.495  16.937  1.00  0.00     0.185 HD
HETATM   30  O3  UNL     1       0.709  12.072  18.331  1.00  0.00    -0.263 OA
BRANCH  28  31
HETATM   31  N1  UNL     1       0.227  14.450  17.142  1.00  0.00    -0.129 NA
BRANCH  31  32
HETATM   32  C3  UNL     1      -0.108  14.886  15.819  1.00  0.00     0.246 C 
BRANCH  32  33
HETATM   33  C2  UNL     1       0.664  14.183  14.778  1.00  0.00     0.274 C 
HETATM   34  O2  UNL     1       1.857  14.507  14.545  1.00  0.00    -0.264 OA
BRANCH  33  35
HETATM   35  O1  UNL     1       0.119  13.154  14.026  1.00  0.00    -0.325 OA
HETATM   36  C1  UNL     1      -1.268  13.185  13.696  1.00  0.00     0.213 C 
ENDBRANCH  33  35
ENDBRANCH  32  33
ENDBRANCH  31  32
ENDBRANCH  28  31
ENDBRANCH   1  27
TORSDOF 9
ENDMDL
