MODEL 1
REMARK VINA RESULT: -8.128864156      0.000      0.000
REMARK  11 active torsions:
REMARK  status: ('A' for Active; 'I' for Inactive)
REMARK    1  A    between atoms: C2_2  and  O1_3 
REMARK    2  A    between atoms: O1_3  and  N1_4 
REMARK    3  A    between atoms: N1_4  and  C3_5 
REMARK    4  A    between atoms: C3_5  and  O2_6 
REMARK    5  A    between atoms: C3_5  and  C4_8 
REMARK       I    between atoms: C4_8  and  N2_10 
REMARK    6  A    between atoms: C5_14  and  C6_15 
REMARK    7  A    between atoms: C6_15  and  N5_16 
REMARK    8  A    between atoms: C6_15  and  O4_21 
REMARK    9  A    between atoms: N5_16  and  N6_18 
REMARK   10  A    between atoms: O4_21  and  C7_22 
REMARK   11  A    between atoms: C10_25  and  N7_26 
ROOT
HETATM    1  C4  UNL     1      -2.528  14.211  16.597  1.00  0.00     0.329 C 
HETATM    2  O3  UNL     1      -3.450  14.011  17.273  1.00  0.00    -0.261 OA
HETATM    3  N2  UNL     1      -1.184  14.010  16.584  1.00  0.00    -0.242 N 
ATOM      4  H2  UNL     1      -0.807  14.467  15.753  1.00  0.00     0.192 HD
HETATM    5  N3  UNL     1      -0.215  13.472  17.209  1.00  0.00    -0.185 N 
HETATM    6  N4  UNL     1       1.178  13.444  16.739  1.00  0.00    -0.096 NA
HETATM    7  C5  UNL     1       1.564  13.291  18.138  1.00  0.00     0.245 C 
HETATM    8  C13 UNL     1       0.335  12.728  18.260  1.00  0.00     0.159 C 
HETATM    9  N8  UNL     1      -0.389  11.673  18.808  1.00  0.00    -0.082 NA
ENDROOT
BRANCH   7  10
HETATM   10  C6  UNL     1       2.545  12.157  18.249  1.00  0.00     0.166 C 
BRANCH  10  11
HETATM   11  N5  UNL     1       3.721  12.551  17.632  1.00  0.00    -0.288 N 
ATOM     12  H5  UNL     1       4.350  11.836  17.266  1.00  0.00     0.188 HD
BRANCH  11  13
HETATM   13  N6  UNL     1       4.056  13.820  17.501  1.00  0.00    -0.343 N 
ATOM     14  H62 UNL     1       3.414  14.522  17.870  1.00  0.00     0.176 HD
ATOM     15  H61 UNL     1       4.922  14.110  17.049  1.00  0.00     0.176 HD
ENDBRANCH  11  13
ENDBRANCH  10  11
BRANCH  10  16
HETATM   16  O4  UNL     1       2.805  11.022  18.607  1.00  0.00    -0.294 OA
BRANCH  16  17
HETATM   17  C7  UNL     1       3.868  10.204  18.734  1.00  0.00     0.077 A 
HETATM   18  C8  UNL     1       4.091   9.055  17.925  1.00  0.00     0.040 A 
HETATM   19  C9  UNL     1       5.257   8.303  18.097  1.00  0.00     0.039 A 
HETATM   20  C10 UNL     1       6.201   8.657  19.043  1.00  0.00     0.103 A 
HETATM   21  C11 UNL     1       5.965   9.836  19.838  1.00  0.00     0.039 A 
HETATM   22  C12 UNL     1       4.841  10.558  19.663  1.00  0.00     0.040 A 
BRANCH  20  23
HETATM   23  N7  UNL     1       7.139   7.742  19.470  1.00  0.00    -0.116 N 
HETATM   24  O5  UNL     1       6.827   6.467  19.471  1.00  0.00    -0.532 OA
HETATM   25  O6  UNL     1       8.391   7.984  19.836  1.00  0.00    -0.532 OA
ENDBRANCH  20  23
ENDBRANCH  16  17
ENDBRANCH  10  16
ENDBRANCH   7  10
BRANCH   1  26
HETATM   26  C3  UNL     1      -2.759  14.968  15.178  1.00  0.00     0.317 C 
BRANCH  26  27
HETATM   27  N1  UNL     1      -1.647  15.254  14.626  1.00  0.00    -0.249 NA
BRANCH  27  28
HETATM   28  O1  UNL     1      -0.537  15.523  14.117  1.00  0.00    -0.207 OA
BRANCH  28  29
HETATM   29  C2  UNL     1       0.056  16.595  14.900  1.00  0.00     0.213 C 
HETATM   30  C1  UNL     1      -0.133  17.800  13.921  1.00  0.00     0.037 C 
ENDBRANCH  28  29
ENDBRANCH  27  28
ENDBRANCH  26  27
BRANCH  26  31
HETATM   31  O2  UNL     1      -4.063  14.964  15.218  1.00  0.00    -0.329 OA
ATOM     32  H2  UNL     1      -4.918  14.977  14.805  1.00  0.00     0.220 HD
ENDBRANCH  26  31
ENDBRANCH   1  26
TORSDOF 11
ENDMDL
MODEL 2
REMARK VINA RESULT: -8.079811826      3.473      5.201
REMARK  11 active torsions:
REMARK  status: ('A' for Active; 'I' for Inactive)
REMARK    1  A    between atoms: C2_2  and  O1_3 
REMARK    2  A    between atoms: O1_3  and  N1_4 
REMARK    3  A    between atoms: N1_4  and  C3_5 
REMARK    4  A    between atoms: C3_5  and  O2_6 
REMARK    5  A    between atoms: C3_5  and  C4_8 
REMARK       I    between atoms: C4_8  and  N2_10 
REMARK    6  A    between atoms: C5_14  and  C6_15 
REMARK    7  A    between atoms: C6_15  and  N5_16 
REMARK    8  A    between atoms: C6_15  and  O4_21 
REMARK    9  A    between atoms: N5_16  and  N6_18 
REMARK   10  A    between atoms: O4_21  and  C7_22 
REMARK   11  A    between atoms: C10_25  and  N7_26 
ROOT
HETATM    1  C4  UNL     1       2.419  13.270  17.846  1.00  0.00     0.329 C 
HETATM    2  O3  UNL     1       1.402  12.926  18.285  1.00  0.00    -0.261 OA
HETATM    3  N2  UNL     1       3.719  12.874  17.796  1.00  0.00    -0.242 N 
ATOM      4  H2  UNL     1       4.252  13.607  17.326  1.00  0.00     0.192 HD
HETATM    5  N3  UNL     1       4.526  11.942  18.109  1.00  0.00    -0.185 N 
HETATM    6  N4  UNL     1       5.952  11.909  17.754  1.00  0.00    -0.096 NA
HETATM    7  C5  UNL     1       6.138  11.027  18.902  1.00  0.00     0.245 C 
HETATM    8  C13 UNL     1       4.842  10.696  18.666  1.00  0.00     0.159 C 
HETATM    9  N8  UNL     1       3.929   9.650  18.575  1.00  0.00    -0.082 NA
ENDROOT
BRANCH   7  10
HETATM   10  C6  UNL     1       6.947   9.835  18.471  1.00  0.00     0.166 C 
BRANCH  10  11
HETATM   11  N5  UNL     1       8.287  10.171  18.576  1.00  0.00    -0.288 N 
ATOM     12  H5  UNL     1       8.847   9.742  19.312  1.00  0.00     0.188 HD
BRANCH  11  13
HETATM   13  N6  UNL     1       8.863  11.028  17.755  1.00  0.00    -0.343 N 
ATOM     14  H62 UNL     1       8.455  11.960  17.677  1.00  0.00     0.176 HD
ATOM     15  H61 UNL     1       9.689  10.786  17.209  1.00  0.00     0.176 HD
ENDBRANCH  11  13
ENDBRANCH  10  11
BRANCH  10  16
HETATM   16  O4  UNL     1       6.996   8.695  18.042  1.00  0.00    -0.294 OA
BRANCH  16  17
HETATM   17  C7  UNL     1       7.069   8.045  16.866  1.00  0.00     0.077 A 
HETATM   18  C8  UNL     1       7.772   6.823  16.672  1.00  0.00     0.040 A 
HETATM   19  C9  UNL     1       7.738   6.195  15.423  1.00  0.00     0.039 A 
HETATM   20  C10 UNL     1       7.032   6.743  14.368  1.00  0.00     0.103 A 
HETATM   21  C11 UNL     1       6.311   7.971  14.591  1.00  0.00     0.039 A 
HETATM   22  C12 UNL     1       6.344   8.567  15.798  1.00  0.00     0.040 A 
BRANCH  20  23
HETATM   23  N7  UNL     1       7.293   6.349  13.073  1.00  0.00    -0.116 N 
HETATM   24  O5  UNL     1       6.343   6.455  12.173  1.00  0.00    -0.532 OA
HETATM   25  O6  UNL     1       8.448   5.919  12.581  1.00  0.00    -0.532 OA
ENDBRANCH  20  23
ENDBRANCH  16  17
ENDBRANCH  10  16
ENDBRANCH   7  10
BRANCH   1  26
HETATM   26  C3  UNL     1       2.466  14.652  16.993  1.00  0.00     0.317 C 
BRANCH  26  27
HETATM   27  N1  UNL     1       2.124  14.453  15.781  1.00  0.00    -0.249 NA
BRANCH  27  28
HETATM   28  O1  UNL     1       1.762  14.287  14.596  1.00  0.00    -0.207 OA
BRANCH  28  29
HETATM   29  C2  UNL     1       0.536  13.505  14.618  1.00  0.00     0.213 C 
HETATM   30  C1  UNL     1      -0.519  14.635  14.848  1.00  0.00     0.037 C 
ENDBRANCH  28  29
ENDBRANCH  27  28
ENDBRANCH  26  27
BRANCH  26  31
HETATM   31  O2  UNL     1       2.864  15.417  17.971  1.00  0.00    -0.329 OA
ATOM     32  H2  UNL     1       3.445  15.627  18.693  1.00  0.00     0.220 HD
ENDBRANCH  26  31
ENDBRANCH   1  26
TORSDOF 11
ENDMDL
MODEL 3
REMARK VINA RESULT: -8.070295694      3.375      4.950
REMARK  11 active torsions:
REMARK  status: ('A' for Active; 'I' for Inactive)
REMARK    1  A    between atoms: C2_2  and  O1_3 
REMARK    2  A    between atoms: O1_3  and  N1_4 
REMARK    3  A    between atoms: N1_4  and  C3_5 
REMARK    4  A    between atoms: C3_5  and  O2_6 
REMARK    5  A    between atoms: C3_5  and  C4_8 
REMARK       I    between atoms: C4_8  and  N2_10 
REMARK    6  A    between atoms: C5_14  and  C6_15 
REMARK    7  A    between atoms: C6_15  and  N5_16 
REMARK    8  A    between atoms: C6_15  and  O4_21 
REMARK    9  A    between atoms: N5_16  and  N6_18 
REMARK   10  A    between atoms: O4_21  and  C7_22 
REMARK   11  A    between atoms: C10_25  and  N7_26 
ROOT
HETATM    1  C4  UNL     1       1.680  12.537  17.906  1.00  0.00     0.329 C 
HETATM    2  O3  UNL     1       0.794  11.988  18.415  1.00  0.00    -0.261 OA
HETATM    3  N2  UNL     1       3.033  12.456  17.801  1.00  0.00    -0.242 N 
ATOM      4  H2  UNL     1       3.356  13.266  17.273  1.00  0.00     0.192 HD
HETATM    5  N3  UNL     1       4.051  11.756  18.108  1.00  0.00    -0.185 N 
HETATM    6  N4  UNL     1       5.428  12.040  17.676  1.00  0.00    -0.096 NA
HETATM    7  C5  UNL     1       5.867  11.288  18.847  1.00  0.00     0.245 C 
HETATM    8  C13 UNL     1       4.677  10.651  18.698  1.00  0.00     0.159 C 
HETATM    9  N8  UNL     1       4.034   9.417  18.700  1.00  0.00    -0.082 NA
ENDROOT
BRANCH   7  10
HETATM   10  C6  UNL     1       6.916  10.298  18.422  1.00  0.00     0.166 C 
BRANCH  10  11
HETATM   11  N5  UNL     1       8.138  10.950  18.419  1.00  0.00    -0.288 N 
ATOM     12  H5  UNL     1       8.802  10.756  19.168  1.00  0.00     0.188 HD
BRANCH  11  13
HETATM   13  N6  UNL     1       8.473  11.812  17.479  1.00  0.00    -0.343 N 
ATOM     14  H62 UNL     1       8.262  12.797  17.639  1.00  0.00     0.176 HD
ATOM     15  H61 UNL     1       8.927  11.523  16.613  1.00  0.00     0.176 HD
ENDBRANCH  11  13
ENDBRANCH  10  11
BRANCH  10  16
HETATM   16  O4  UNL     1       7.215   9.178  18.048  1.00  0.00    -0.294 OA
BRANCH  16  17
HETATM   17  C7  UNL     1       7.193   8.431  16.927  1.00  0.00     0.077 A 
HETATM   18  C8  UNL     1       7.910   7.212  16.768  1.00  0.00     0.040 A 
HETATM   19  C9  UNL     1       7.775   6.479  15.584  1.00  0.00     0.039 A 
HETATM   20  C10 UNL     1       6.954   6.920  14.562  1.00  0.00     0.103 A 
HETATM   21  C11 UNL     1       6.222   8.147  14.753  1.00  0.00     0.039 A 
HETATM   22  C12 UNL     1       6.354   8.844  15.897  1.00  0.00     0.040 A 
BRANCH  20  23
HETATM   23  N7  UNL     1       7.102   6.423  13.285  1.00  0.00    -0.116 N 
HETATM   24  O5  UNL     1       8.176   5.727  12.995  1.00  0.00    -0.532 OA
HETATM   25  O6  UNL     1       6.233   6.504  12.285  1.00  0.00    -0.532 OA
ENDBRANCH  20  23
ENDBRANCH  16  17
ENDBRANCH  10  16
ENDBRANCH   7  10
BRANCH   1  26
HETATM   26  C3  UNL     1       1.360  13.844  16.995  1.00  0.00     0.317 C 
BRANCH  26  27
HETATM   27  N1  UNL     1       0.800  13.512  15.900  1.00  0.00    -0.249 NA
BRANCH  27  28
HETATM   28  O1  UNL     1       0.227  13.161  14.845  1.00  0.00    -0.207 OA
BRANCH  28  29
HETATM   29  C2  UNL     1      -1.169  13.552  14.954  1.00  0.00     0.213 C 
HETATM   30  C1  UNL     1      -1.685  13.162  13.531  1.00  0.00     0.037 C 
ENDBRANCH  28  29
ENDBRANCH  27  28
ENDBRANCH  26  27
BRANCH  26  31
HETATM   31  O2  UNL     1       1.851  14.725  17.823  1.00  0.00    -0.329 OA
ATOM     32  H2  UNL     1       2.398  14.978  18.557  1.00  0.00     0.220 HD
ENDBRANCH  26  31
ENDBRANCH   1  26
TORSDOF 11
ENDMDL
MODEL 4
REMARK VINA RESULT: -7.939087209      3.241      4.559
REMARK  11 active torsions:
REMARK  status: ('A' for Active; 'I' for Inactive)
REMARK    1  A    between atoms: C2_2  and  O1_3 
REMARK    2  A    between atoms: O1_3  and  N1_4 
REMARK    3  A    between atoms: N1_4  and  C3_5 
REMARK    4  A    between atoms: C3_5  and  O2_6 
REMARK    5  A    between atoms: C3_5  and  C4_8 
REMARK       I    between atoms: C4_8  and  N2_10 
REMARK    6  A    between atoms: C5_14  and  C6_15 
REMARK    7  A    between atoms: C6_15  and  N5_16 
REMARK    8  A    between atoms: C6_15  and  O4_21 
REMARK    9  A    between atoms: N5_16  and  N6_18 
REMARK   10  A    between atoms: O4_21  and  C7_22 
REMARK   11  A    between atoms: C10_25  and  N7_26 
ROOT
HETATM    1  C4  UNL     1       1.077  12.188  18.241  1.00  0.00     0.329 C 
HETATM    2  O3  UNL     1       0.357  11.669  18.988  1.00  0.00    -0.261 OA
HETATM    3  N2  UNL     1       2.404  12.254  17.949  1.00  0.00    -0.242 N 
ATOM      4  H2  UNL     1       2.528  12.949  17.213  1.00  0.00     0.192 HD
HETATM    5  N3  UNL     1       3.548  11.781  18.240  1.00  0.00    -0.185 N 
HETATM    6  N4  UNL     1       4.801  12.123  17.550  1.00  0.00    -0.096 NA
HETATM    7  C5  UNL     1       5.491  11.734  18.775  1.00  0.00     0.245 C 
HETATM    8  C13 UNL     1       4.407  10.935  18.953  1.00  0.00     0.159 C 
HETATM    9  N8  UNL     1       3.972   9.666  19.324  1.00  0.00    -0.082 NA
ENDROOT
BRANCH   7  10
HETATM   10  C6  UNL     1       6.624  10.810  18.420  1.00  0.00     0.166 C 
BRANCH  10  11
HETATM   11  N5  UNL     1       7.771  11.576  18.288  1.00  0.00    -0.288 N 
ATOM     12  H5  UNL     1       8.635  11.123  17.991  1.00  0.00     0.188 HD
BRANCH  11  13
HETATM   13  N6  UNL     1       7.783  12.871  18.535  1.00  0.00    -0.343 N 
ATOM     14  H62 UNL     1       8.580  13.251  19.046  1.00  0.00     0.176 HD
ATOM     15  H61 UNL     1       7.030  13.489  18.233  1.00  0.00     0.176 HD
ENDBRANCH  11  13
ENDBRANCH  10  11
BRANCH  10  16
HETATM   16  O4  UNL     1       7.026   9.689  18.162  1.00  0.00    -0.294 OA
BRANCH  16  17
HETATM   17  C7  UNL     1       7.065   8.826  17.130  1.00  0.00     0.077 A 
HETATM   18  C8  UNL     1       7.895   7.671  17.087  1.00  0.00     0.040 A 
HETATM   19  C9  UNL     1       7.819   6.803  15.993  1.00  0.00     0.039 A 
HETATM   20  C10 UNL     1       6.947   7.048  14.948  1.00  0.00     0.103 A 
HETATM   21  C11 UNL     1       6.101   8.212  15.021  1.00  0.00     0.039 A 
HETATM   22  C12 UNL     1       6.177   9.041  16.080  1.00  0.00     0.040 A 
BRANCH  20  23
HETATM   23  N7  UNL     1       7.128   6.430  13.729  1.00  0.00    -0.116 N 
HETATM   24  O5  UNL     1       6.411   6.828  12.704  1.00  0.00    -0.532 OA
HETATM   25  O6  UNL     1       8.014   5.490  13.428  1.00  0.00    -0.532 OA
ENDBRANCH  20  23
ENDBRANCH  16  17
ENDBRANCH  10  16
ENDBRANCH   7  10
BRANCH   1  26
HETATM   26  C3  UNL     1       0.448  13.190  17.128  1.00  0.00     0.317 C 
BRANCH  26  27
HETATM   27  N1  UNL     1       1.359  13.676  16.382  1.00  0.00    -0.249 NA
BRANCH  27  28
HETATM   28  O1  UNL     1       2.281  14.130  15.669  1.00  0.00    -0.207 OA
BRANCH  28  29
HETATM   29  C2  UNL     1       2.325  15.569  15.874  1.00  0.00     0.213 C 
HETATM   30  C1  UNL     1       3.313  15.654  17.084  1.00  0.00     0.037 C 
ENDBRANCH  28  29
ENDBRANCH  27  28
ENDBRANCH  26  27
BRANCH  26  31
HETATM   31  O2  UNL     1      -0.796  13.064  17.502  1.00  0.00    -0.329 OA
ATOM     32  H2  UNL     1      -1.530  12.557  17.828  1.00  0.00     0.220 HD
ENDBRANCH  26  31
ENDBRANCH   1  26
TORSDOF 11
ENDMDL
MODEL 5
REMARK VINA RESULT: -7.922690748      3.222      5.021
REMARK  11 active torsions:
REMARK  status: ('A' for Active; 'I' for Inactive)
REMARK    1  A    between atoms: C2_2  and  O1_3 
REMARK    2  A    between atoms: O1_3  and  N1_4 
REMARK    3  A    between atoms: N1_4  and  C3_5 
REMARK    4  A    between atoms: C3_5  and  O2_6 
REMARK    5  A    between atoms: C3_5  and  C4_8 
REMARK       I    between atoms: C4_8  and  N2_10 
REMARK    6  A    between atoms: C5_14  and  C6_15 
REMARK    7  A    between atoms: C6_15  and  N5_16 
REMARK    8  A    between atoms: C6_15  and  O4_21 
REMARK    9  A    between atoms: N5_16  and  N6_18 
REMARK   10  A    between atoms: O4_21  and  C7_22 
REMARK   11  A    between atoms: C10_25  and  N7_26 
ROOT
HETATM    1  C4  UNL     1       2.112  13.342  17.496  1.00  0.00     0.329 C 
HETATM    2  O3  UNL     1       1.048  12.959  17.760  1.00  0.00    -0.261 OA
HETATM    3  N2  UNL     1       3.414  12.980  17.640  1.00  0.00    -0.242 N 
ATOM      4  H2  UNL     1       3.992  13.740  17.281  1.00  0.00     0.192 HD
HETATM    5  N3  UNL     1       4.189  12.057  18.049  1.00  0.00    -0.185 N 
HETATM    6  N4  UNL     1       5.654  12.070  17.922  1.00  0.00    -0.096 NA
HETATM    7  C5  UNL     1       5.683  11.156  19.059  1.00  0.00     0.245 C 
HETATM    8  C13 UNL     1       4.450  10.802  18.613  1.00  0.00     0.159 C 
HETATM    9  N8  UNL     1       3.593   9.738  18.349  1.00  0.00    -0.082 NA
ENDROOT
BRANCH   7  10
HETATM   10  C6  UNL     1       6.584   9.998  18.727  1.00  0.00     0.166 C 
BRANCH  10  11
HETATM   11  N5  UNL     1       6.637   9.169  19.835  1.00  0.00    -0.288 N 
ATOM     12  H5  UNL     1       7.259   9.415  20.605  1.00  0.00     0.188 HD
BRANCH  11  13
HETATM   13  N6  UNL     1       5.910   8.073  19.929  1.00  0.00    -0.343 N 
ATOM     14  H62 UNL     1       5.753   7.683  20.859  1.00  0.00     0.176 HD
ATOM     15  H61 UNL     1       5.508   7.616  19.111  1.00  0.00     0.176 HD
ENDBRANCH  11  13
ENDBRANCH  10  11
BRANCH  10  16
HETATM   16  O4  UNL     1       7.327   9.435  17.943  1.00  0.00    -0.294 OA
BRANCH  16  17
HETATM   17  C7  UNL     1       7.261   8.631  16.865  1.00  0.00     0.077 A 
HETATM   18  C8  UNL     1       7.952   7.392  16.751  1.00  0.00     0.040 A 
HETATM   19  C9  UNL     1       7.771   6.600  15.612  1.00  0.00     0.039 A 
HETATM   20  C10 UNL     1       6.929   7.001  14.591  1.00  0.00     0.103 A 
HETATM   21  C11 UNL     1       6.224   8.249  14.736  1.00  0.00     0.039 A 
HETATM   22  C12 UNL     1       6.400   9.004  15.838  1.00  0.00     0.040 A 
BRANCH  20  23
HETATM   23  N7  UNL     1       7.032   6.435  13.338  1.00  0.00    -0.116 N 
HETATM   24  O5  UNL     1       8.061   5.664  13.073  1.00  0.00    -0.532 OA
HETATM   25  O6  UNL     1       6.157   6.518  12.344  1.00  0.00    -0.532 OA
ENDBRANCH  20  23
ENDBRANCH  16  17
ENDBRANCH  10  16
ENDBRANCH   7  10
BRANCH   1  26
HETATM   26  C3  UNL     1       2.251  14.751  16.701  1.00  0.00     0.317 C 
BRANCH  26  27
HETATM   27  N1  UNL     1       1.541  14.752  15.643  1.00  0.00    -0.249 NA
BRANCH  27  28
HETATM   28  O1  UNL     1       0.873  14.771  14.585  1.00  0.00    -0.207 OA
BRANCH  28  29
HETATM   29  C2  UNL     1      -0.504  14.458  14.930  1.00  0.00     0.213 C 
HETATM   30  C1  UNL     1      -0.806  13.327  13.893  1.00  0.00     0.037 C 
ENDBRANCH  28  29
ENDBRANCH  27  28
ENDBRANCH  26  27
BRANCH  26  31
HETATM   31  O2  UNL     1       3.086  15.310  17.533  1.00  0.00    -0.329 OA
ATOM     32  H2  UNL     1       3.293  15.752  18.348  1.00  0.00     0.220 HD
ENDBRANCH  26  31
ENDBRANCH   1  26
TORSDOF 11
ENDMDL
