MODEL 1
REMARK VINA RESULT: -8.452687757      0.000      0.000
REMARK  8 active torsions:
REMARK  status: ('A' for Active; 'I' for Inactive)
REMARK    1  A    between atoms: O1_2  and  C2_3 
REMARK    2  A    between atoms: C2_3  and  C3_4 
REMARK    3  A    between atoms: C2_3  and  C10_24 
REMARK    4  A    between atoms: C3_4  and  N1_5 
REMARK    5  A    between atoms: N1_5  and  C4_7 
REMARK    6  A    between atoms: C8_18  and  N5_19 
REMARK    7  A    between atoms: C10_24  and  O3_25 
REMARK    8  A    between atoms: C10_24  and  C11_27 
REMARK       I    between atoms: C11_27  and  N7_29 
ROOT
HETATM    1  C4  UNL     1       5.491   8.029  17.015  1.00  0.00     0.136 A 
HETATM    2  N2  UNL     1       5.804   7.631  18.239  1.00  0.00    -0.293 N 
ATOM      3  H2  UNL     1       5.397   8.125  19.033  1.00  0.00     0.172 HD
HETATM    4  C5  UNL     1       6.636   6.604  18.477  1.00  0.00     0.327 A 
HETATM    5  O2  UNL     1       6.915   6.248  19.674  1.00  0.00    -0.247 OA
HETATM    6  N3  UNL     1       7.180   5.947  17.441  1.00  0.00    -0.292 N 
ATOM      7  H3  UNL     1       7.815   5.165  17.601  1.00  0.00     0.172 HD
HETATM    8  C6  UNL     1       6.877   6.332  16.190  1.00  0.00     0.158 A 
HETATM    9  C7  UNL     1       6.024   7.384  15.920  1.00  0.00     0.137 A 
HETATM   10  N4  UNL     1       5.901   7.550  14.580  1.00  0.00    -0.184 N 
ATOM     11  H4  UNL     1       5.335   8.251  14.101  1.00  0.00     0.184 HD
HETATM   12  C8  UNL     1       6.667   6.614  14.009  1.00  0.00     0.680 A 
HETATM   13  N6  UNL     1       7.258   5.876  14.961  1.00  0.00    -0.170 N 
HETATM   14  C9  UNL     1       8.176   4.750  14.755  1.00  0.00     0.177 C 
ENDROOT
BRANCH   1  15
HETATM   15  N1  UNL     1       4.596   9.134  16.767  1.00  0.00    -0.372 N 
ATOM     16  H1  UNL     1       3.620   8.949  16.536  1.00  0.00     0.161 HD
BRANCH  15  17
HETATM   17  C3  UNL     1       5.054  10.467  16.842  1.00  0.00     0.156 C 
BRANCH  17  18
HETATM   18  C2  UNL     1       4.651  11.263  18.068  1.00  0.00     0.176 C 
BRANCH  18  19
HETATM   19  O1  UNL     1       3.909  12.386  17.651  1.00  0.00    -0.386 OA
HETATM   20  C1  UNL     1       2.629  12.364  18.215  1.00  0.00     0.202 C 
ENDBRANCH  18  19
BRANCH  18  21
HETATM   21  C10 UNL     1       5.834  11.786  18.846  1.00  0.00     0.240 C 
BRANCH  21  22
HETATM   22  O3  UNL     1       6.313  12.970  18.324  1.00  0.00    -0.383 OA
ATOM     23  H3  UNL     1       6.809  13.467  18.966  1.00  0.00     0.210 HD
ENDBRANCH  21  22
BRANCH  21  24
HETATM   24  C11 UNL     1       6.836  10.767  19.103  1.00  0.00     0.251 C 
HETATM   25  O4  UNL     1       6.540   9.900  20.009  1.00  0.00    -0.270 OA
HETATM   26  N7  UNL     1       8.101  10.589  18.493  1.00  0.00    -0.346 N 
HETATM   27  C12 UNL     1       8.962   9.462  18.909  1.00  0.00     0.152 C 
HETATM   28  C15 UNL     1       8.661  11.432  17.467  1.00  0.00     0.152 C 
HETATM   29  C13 UNL     1       9.492   8.828  17.647  1.00  0.00     0.187 C 
HETATM   30  O5  UNL     1      10.189   9.715  16.858  1.00  0.00    -0.388 OA
HETATM   31  C14 UNL     1      10.125  11.013  17.296  1.00  0.00     0.187 C 
ENDBRANCH  21  24
ENDBRANCH  18  21
ENDBRANCH  17  18
ENDBRANCH  15  17
ENDBRANCH   1  15
BRANCH  12  32
HETATM   32  N5  UNL     1       6.834   6.422  12.735  1.00  0.00    -0.234 N 
ATOM     33  H52 UNL     1       6.665   7.135  12.026  1.00  0.00     0.174 HD
ATOM     34  H51 UNL     1       7.146   5.561  12.286  1.00  0.00     0.174 HD
ENDBRANCH  12  32
TORSDOF 8
ENDMDL
MODEL 2
REMARK VINA RESULT: -8.051237860      2.841      6.602
REMARK  8 active torsions:
REMARK  status: ('A' for Active; 'I' for Inactive)
REMARK    1  A    between atoms: O1_2  and  C2_3 
REMARK    2  A    between atoms: C2_3  and  C3_4 
REMARK    3  A    between atoms: C2_3  and  C10_24 
REMARK    4  A    between atoms: C3_4  and  N1_5 
REMARK    5  A    between atoms: N1_5  and  C4_7 
REMARK    6  A    between atoms: C8_18  and  N5_19 
REMARK    7  A    between atoms: C10_24  and  O3_25 
REMARK    8  A    between atoms: C10_24  and  C11_27 
REMARK       I    between atoms: C11_27  and  N7_29 
ROOT
HETATM    1  C4  UNL     1       4.313  11.314  18.674  1.00  0.00     0.136 A 
HETATM    2  N2  UNL     1       5.499  11.874  18.486  1.00  0.00    -0.293 N 
ATOM      3  H2  UNL     1       6.332  11.365  18.780  1.00  0.00     0.172 HD
HETATM    4  C5  UNL     1       5.648  13.085  17.924  1.00  0.00     0.327 A 
HETATM    5  O2  UNL     1       6.811  13.593  17.759  1.00  0.00    -0.247 OA
HETATM    6  N3  UNL     1       4.560  13.766  17.534  1.00  0.00    -0.292 N 
ATOM      7  H3  UNL     1       4.652  14.687  17.107  1.00  0.00     0.172 HD
HETATM    8  C6  UNL     1       3.346  13.218  17.715  1.00  0.00     0.158 A 
HETATM    9  C7  UNL     1       3.168  11.975  18.289  1.00  0.00     0.137 A 
HETATM   10  N4  UNL     1       1.846  11.675  18.346  1.00  0.00    -0.184 N 
ATOM     11  H4  UNL     1       1.429  10.824  18.721  1.00  0.00     0.184 HD
HETATM   12  C8  UNL     1       1.197  12.717  17.814  1.00  0.00     0.680 A 
HETATM   13  N6  UNL     1       2.082  13.650  17.431  1.00  0.00    -0.170 N 
HETATM   14  C9  UNL     1       1.781  14.941  16.803  1.00  0.00     0.177 C 
ENDROOT
BRANCH   1  15
HETATM   15  N1  UNL     1       4.161  10.012  19.278  1.00  0.00    -0.372 N 
ATOM     16  H1  UNL     1       3.289   9.774  19.749  1.00  0.00     0.161 HD
BRANCH  15  17
HETATM   17  C3  UNL     1       5.206   9.063  19.224  1.00  0.00     0.156 C 
BRANCH  17  18
HETATM   18  C2  UNL     1       5.278   8.192  17.985  1.00  0.00     0.176 C 
BRANCH  18  19
HETATM   19  O1  UNL     1       5.371   6.845  18.388  1.00  0.00    -0.386 OA
HETATM   20  C1  UNL     1       6.514   6.644  19.168  1.00  0.00     0.202 C 
ENDBRANCH  18  19
BRANCH  18  21
HETATM   21  C10 UNL     1       6.491   8.479  17.133  1.00  0.00     0.240 C 
BRANCH  21  22
HETATM   22  O3  UNL     1       6.922   9.783  17.272  1.00  0.00    -0.383 OA
ATOM     23  H3  UNL     1       6.615  10.336  16.562  1.00  0.00     0.210 HD
ENDBRANCH  21  22
BRANCH  21  24
HETATM   24  C11 UNL     1       6.343   8.012  15.767  1.00  0.00     0.251 C 
HETATM   25  O4  UNL     1       5.579   8.719  15.008  1.00  0.00    -0.270 OA
HETATM   26  N7  UNL     1       6.925   6.882  15.145  1.00  0.00    -0.346 N 
HETATM   27  C12 UNL     1       6.640   6.601  13.722  1.00  0.00     0.152 C 
HETATM   28  C15 UNL     1       7.801   5.934  15.785  1.00  0.00     0.152 C 
HETATM   29  C13 UNL     1       7.958   6.265  13.070  1.00  0.00     0.187 C 
HETATM   30  O5  UNL     1       8.589   5.195  13.666  1.00  0.00    -0.388 OA
HETATM   31  C14 UNL     1       7.976   4.761  14.813  1.00  0.00     0.187 C 
ENDBRANCH  21  24
ENDBRANCH  18  21
ENDBRANCH  17  18
ENDBRANCH  15  17
ENDBRANCH   1  15
BRANCH  12  32
HETATM   32  N5  UNL     1      -0.089  12.839  17.675  1.00  0.00    -0.234 N 
ATOM     33  H52 UNL     1      -0.691  13.313  18.348  1.00  0.00     0.174 HD
ATOM     34  H51 UNL     1      -0.653  12.488  16.900  1.00  0.00     0.174 HD
ENDBRANCH  12  32
TORSDOF 8
ENDMDL
MODEL 3
REMARK VINA RESULT: -8.032203226      3.618      7.258
REMARK  8 active torsions:
REMARK  status: ('A' for Active; 'I' for Inactive)
REMARK    1  A    between atoms: O1_2  and  C2_3 
REMARK    2  A    between atoms: C2_3  and  C3_4 
REMARK    3  A    between atoms: C2_3  and  C10_24 
REMARK    4  A    between atoms: C3_4  and  N1_5 
REMARK    5  A    between atoms: N1_5  and  C4_7 
REMARK    6  A    between atoms: C8_18  and  N5_19 
REMARK    7  A    between atoms: C10_24  and  O3_25 
REMARK    8  A    between atoms: C10_24  and  C11_27 
REMARK       I    between atoms: C11_27  and  N7_29 
ROOT
HETATM    1  C4  UNL     1       3.043  12.384  17.781  1.00  0.00     0.136 A 
HETATM    2  N2  UNL     1       1.944  11.755  18.171  1.00  0.00    -0.293 N 
ATOM      3  H2  UNL     1       1.973  10.742  18.281  1.00  0.00     0.172 HD
HETATM    4  C5  UNL     1       0.792  12.399  18.427  1.00  0.00     0.327 A 
HETATM    5  O2  UNL     1      -0.249  11.757  18.802  1.00  0.00    -0.247 OA
HETATM    6  N3  UNL     1       0.740  13.732  18.285  1.00  0.00    -0.292 N 
ATOM      7  H3  UNL     1      -0.124  14.238  18.473  1.00  0.00     0.172 HD
HETATM    8  C6  UNL     1       1.843  14.391  17.890  1.00  0.00     0.158 A 
HETATM    9  C7  UNL     1       3.037  13.752  17.622  1.00  0.00     0.137 A 
HETATM   10  N4  UNL     1       3.974  14.658  17.247  1.00  0.00    -0.184 N 
ATOM     11  H4  UNL     1       4.942  14.465  16.991  1.00  0.00     0.184 HD
HETATM   12  C8  UNL     1       3.379  15.856  17.277  1.00  0.00     0.680 A 
HETATM   13  N6  UNL     1       2.101  15.712  17.661  1.00  0.00    -0.170 N 
HETATM   14  C9  UNL     1       1.107  16.779  17.820  1.00  0.00     0.177 C 
ENDROOT
BRANCH   1  15
HETATM   15  N1  UNL     1       4.276  11.686  17.509  1.00  0.00    -0.372 N 
ATOM     16  H1  UNL     1       4.868  11.991  16.737  1.00  0.00     0.161 HD
BRANCH  15  17
HETATM   17  C3  UNL     1       4.675  10.586  18.301  1.00  0.00     0.156 C 
BRANCH  17  18
HETATM   18  C2  UNL     1       4.848   9.258  17.592  1.00  0.00     0.176 C 
BRANCH  18  19
HETATM   19  O1  UNL     1       4.669   8.221  18.529  1.00  0.00    -0.386 OA
HETATM   20  C1  UNL     1       5.832   8.034  19.282  1.00  0.00     0.202 C 
ENDBRANCH  18  19
BRANCH  18  21
HETATM   21  C10 UNL     1       6.226   9.080  17.000  1.00  0.00     0.240 C 
BRANCH  21  22
HETATM   22  O3  UNL     1       6.965  10.244  17.056  1.00  0.00    -0.383 OA
ATOM     23  H3  UNL     1       6.737  10.845  16.356  1.00  0.00     0.210 HD
ENDBRANCH  21  22
BRANCH  21  24
HETATM   24  C11 UNL     1       6.205   8.416  15.710  1.00  0.00     0.251 C 
HETATM   25  O4  UNL     1       5.633   9.060  14.752  1.00  0.00    -0.270 OA
HETATM   26  N7  UNL     1       6.728   7.150  15.352  1.00  0.00    -0.346 N 
HETATM   27  C12 UNL     1       6.601   6.672  13.960  1.00  0.00     0.152 C 
HETATM   28  C15 UNL     1       7.398   6.239  16.246  1.00  0.00     0.152 C 
HETATM   29  C13 UNL     1       7.945   6.113  13.565  1.00  0.00     0.187 C 
HETATM   30  O5  UNL     1       8.365   5.098  14.397  1.00  0.00    -0.388 OA
HETATM   31  C14 UNL     1       7.561   4.914  15.493  1.00  0.00     0.187 C 
ENDBRANCH  21  24
ENDBRANCH  18  21
ENDBRANCH  17  18
ENDBRANCH  15  17
ENDBRANCH   1  15
BRANCH  12  32
HETATM   32  N5  UNL     1       3.923  16.998  16.985  1.00  0.00    -0.234 N 
ATOM     33  H52 UNL     1       4.888  17.242  17.211  1.00  0.00     0.174 HD
ATOM     34  H51 UNL     1       3.476  17.781  16.509  1.00  0.00     0.174 HD
ENDBRANCH  12  32
TORSDOF 8
ENDMDL
MODEL 4
REMARK VINA RESULT: -8.002878874      2.254      5.641
REMARK  8 active torsions:
REMARK  status: ('A' for Active; 'I' for Inactive)
REMARK    1  A    between atoms: O1_2  and  C2_3 
REMARK    2  A    between atoms: C2_3  and  C3_4 
REMARK    3  A    between atoms: C2_3  and  C10_24 
REMARK    4  A    between atoms: C3_4  and  N1_5 
REMARK    5  A    between atoms: N1_5  and  C4_7 
REMARK    6  A    between atoms: C8_18  and  N5_19 
REMARK    7  A    between atoms: C10_24  and  O3_25 
REMARK    8  A    between atoms: C10_24  and  C11_27 
REMARK       I    between atoms: C11_27  and  N7_29 
ROOT
HETATM    1  C4  UNL     1       7.332  10.562  19.047  1.00  0.00     0.136 A 
HETATM    2  N2  UNL     1       8.068   9.643  18.438  1.00  0.00    -0.293 N 
ATOM      3  H2  UNL     1       7.938   8.665  18.695  1.00  0.00     0.172 HD
HETATM    4  C5  UNL     1       8.977   9.948  17.498  1.00  0.00     0.327 A 
HETATM    5  O2  UNL     1       9.668   9.032  16.932  1.00  0.00    -0.247 OA
HETATM    6  N3  UNL     1       9.158  11.232  17.152  1.00  0.00    -0.292 N 
ATOM      7  H3  UNL     1       9.844  11.484  16.441  1.00  0.00     0.172 HD
HETATM    8  C6  UNL     1       8.423  12.182  17.755  1.00  0.00     0.158 A 
HETATM    9  C7  UNL     1       7.483  11.893  18.724  1.00  0.00     0.137 A 
HETATM   10  N4  UNL     1       6.896  13.037  19.157  1.00  0.00    -0.184 N 
ATOM     11  H4  UNL     1       6.168  13.118  19.866  1.00  0.00     0.184 HD
HETATM   12  C8  UNL     1       7.459  14.037  18.469  1.00  0.00     0.680 A 
HETATM   13  N6  UNL     1       8.376  13.540  17.625  1.00  0.00    -0.170 N 
HETATM   14  C9  UNL     1       9.217  14.302  16.695  1.00  0.00     0.177 C 
ENDROOT
BRANCH   1  15
HETATM   15  N1  UNL     1       6.357  10.227  20.056  1.00  0.00    -0.372 N 
ATOM     16  H1  UNL     1       6.667   9.992  20.999  1.00  0.00     0.161 HD
BRANCH  15  17
HETATM   17  C3  UNL     1       4.977  10.219  19.754  1.00  0.00     0.156 C 
BRANCH  17  18
HETATM   18  C2  UNL     1       4.587   9.869  18.332  1.00  0.00     0.176 C 
BRANCH  18  19
HETATM   19  O1  UNL     1       3.226  10.183  18.149  1.00  0.00    -0.386 OA
HETATM   20  C1  UNL     1       2.958  11.482  18.592  1.00  0.00     0.202 C 
ENDBRANCH  18  19
BRANCH  18  21
HETATM   21  C10 UNL     1       4.744   8.400  18.022  1.00  0.00     0.240 C 
BRANCH  21  22
HETATM   22  O3  UNL     1       5.349   7.716  19.056  1.00  0.00    -0.383 OA
ATOM     23  H3  UNL     1       5.846   6.967  18.745  1.00  0.00     0.210 HD
ENDBRANCH  21  22
BRANCH  21  24
HETATM   24  C11 UNL     1       5.300   8.158  16.703  1.00  0.00     0.251 C 
HETATM   25  O4  UNL     1       5.132   9.097  15.838  1.00  0.00    -0.270 OA
HETATM   26  N7  UNL     1       6.008   7.027  16.230  1.00  0.00    -0.346 N 
HETATM   27  C12 UNL     1       6.497   7.000  14.836  1.00  0.00     0.152 C 
HETATM   28  C15 UNL     1       6.309   5.847  17.000  1.00  0.00     0.152 C 
HETATM   29  C13 UNL     1       7.918   6.498  14.881  1.00  0.00     0.187 C 
HETATM   30  O5  UNL     1       8.025   5.254  15.464  1.00  0.00    -0.388 OA
HETATM   31  C14 UNL     1       6.856   4.802  16.021  1.00  0.00     0.187 C 
ENDBRANCH  21  24
ENDBRANCH  18  21
ENDBRANCH  17  18
ENDBRANCH  15  17
ENDBRANCH   1  15
BRANCH  12  32
HETATM   32  N5  UNL     1       7.184  15.301  18.577  1.00  0.00    -0.234 N 
ATOM     33  H52 UNL     1       6.874  15.743  19.443  1.00  0.00     0.174 HD
ATOM     34  H51 UNL     1       7.237  16.001  17.837  1.00  0.00     0.174 HD
ENDBRANCH  12  32
TORSDOF 8
ENDMDL
MODEL 5
REMARK VINA RESULT: -7.933578394      4.151      7.690
REMARK  8 active torsions:
REMARK  status: ('A' for Active; 'I' for Inactive)
REMARK    1  A    between atoms: O1_2  and  C2_3 
REMARK    2  A    between atoms: C2_3  and  C3_4 
REMARK    3  A    between atoms: C2_3  and  C10_24 
REMARK    4  A    between atoms: C3_4  and  N1_5 
REMARK    5  A    between atoms: N1_5  and  C4_7 
REMARK    6  A    between atoms: C8_18  and  N5_19 
REMARK    7  A    between atoms: C10_24  and  O3_25 
REMARK    8  A    between atoms: C10_24  and  C11_27 
REMARK       I    between atoms: C11_27  and  N7_29 
ROOT
HETATM    1  C4  UNL     1       4.724  11.656  17.955  1.00  0.00     0.136 A 
HETATM    2  N2  UNL     1       5.593  12.584  18.328  1.00  0.00    -0.293 N 
ATOM      3  H2  UNL     1       5.337  13.565  18.219  1.00  0.00     0.172 HD
HETATM    4  C5  UNL     1       6.796  12.285  18.845  1.00  0.00     0.327 A 
HETATM    5  O2  UNL     1       7.608  13.210  19.194  1.00  0.00    -0.247 OA
HETATM    6  N3  UNL     1       7.145  10.998  18.993  1.00  0.00    -0.292 N 
ATOM      7  H3  UNL     1       8.055  10.751  19.382  1.00  0.00     0.172 HD
HETATM    8  C6  UNL     1       6.281  10.039  18.621  1.00  0.00     0.158 A 
HETATM    9  C7  UNL     1       5.039  10.321  18.089  1.00  0.00     0.137 A 
HETATM   10  N4  UNL     1       4.382   9.169  17.806  1.00  0.00    -0.184 N 
ATOM     11  H4  UNL     1       3.448   9.080  17.406  1.00  0.00     0.184 HD
HETATM   12  C8  UNL     1       5.200   8.169  18.156  1.00  0.00     0.680 A 
HETATM   13  N6  UNL     1       6.342   8.675  18.646  1.00  0.00    -0.170 N 
HETATM   14  C9  UNL     1       7.497   7.918  19.140  1.00  0.00     0.177 C 
ENDROOT
BRANCH   1  15
HETATM   15  N1  UNL     1       3.433  11.985  17.402  1.00  0.00    -0.372 N 
ATOM     16  H1  UNL     1       2.918  11.282  16.871  1.00  0.00     0.161 HD
BRANCH  15  17
HETATM   17  C3  UNL     1       2.872  13.268  17.587  1.00  0.00     0.156 C 
BRANCH  17  18
HETATM   18  C2  UNL     1       1.373  13.395  17.400  1.00  0.00     0.176 C 
BRANCH  18  19
HETATM   19  O1  UNL     1       0.755  12.242  17.924  1.00  0.00    -0.386 OA
HETATM   20  C1  UNL     1      -0.350  12.589  18.706  1.00  0.00     0.202 C 
ENDBRANCH  18  19
BRANCH  18  21
HETATM   21  C10 UNL     1       0.965  13.490  15.950  1.00  0.00     0.240 C 
BRANCH  21  22
HETATM   22  O3  UNL     1       2.053  13.425  15.103  1.00  0.00    -0.383 OA
ATOM     23  H3  UNL     1       2.710  12.812  15.414  1.00  0.00     0.210 HD
ENDBRANCH  21  22
BRANCH  21  24
HETATM   24  C11 UNL     1       0.039  14.578  15.694  1.00  0.00     0.251 C 
HETATM   25  O4  UNL     1       0.163  15.614  16.449  1.00  0.00    -0.270 OA
HETATM   26  N7  UNL     1      -0.989  14.662  14.725  1.00  0.00    -0.346 N 
HETATM   27  C12 UNL     1      -1.814  15.885  14.637  1.00  0.00     0.152 C 
HETATM   28  C15 UNL     1      -1.332  13.632  13.777  1.00  0.00     0.152 C 
HETATM   29  C13 UNL     1      -1.916  16.239  13.174  1.00  0.00     0.187 C 
HETATM   30  O5  UNL     1      -2.458  15.224  12.417  1.00  0.00    -0.388 OA
HETATM   31  C14 UNL     1      -2.646  14.056  13.112  1.00  0.00     0.187 C 
ENDBRANCH  21  24
ENDBRANCH  18  21
ENDBRANCH  17  18
ENDBRANCH  15  17
ENDBRANCH   1  15
BRANCH  12  32
HETATM   32  N5  UNL     1       4.958   6.898  18.051  1.00  0.00    -0.234 N 
ATOM     33  H52 UNL     1       5.684   6.184  17.989  1.00  0.00     0.174 HD
ATOM     34  H51 UNL     1       4.040   6.455  18.016  1.00  0.00     0.174 HD
ENDBRANCH  12  32
TORSDOF 8
ENDMDL
