MODEL 1
REMARK VINA RESULT: -8.307339537      0.000      0.000
REMARK  5 active torsions:
REMARK  status: ('A' for Active; 'I' for Inactive)
REMARK       I    between atoms: C2_2  and  N1_4 
REMARK    1  A    between atoms: N1_4  and  C3_6 
REMARK    2  A    between atoms: C4_7  and  C5_8 
REMARK       I    between atoms: C5_8  and  N2_10 
REMARK    3  A    between atoms: N2_10  and  N3_12 
REMARK    4  A    between atoms: C8_19  and  C9_20 
REMARK    5  A    between atoms: N7_24  and  O3_25 
ROOT
HETATM    1  C3  UNL     1      68.683   5.284   0.370  1.00  0.00     0.120 A 
HETATM    2  C4  UNL     1      67.348   4.965   0.690  1.00  0.00     0.083 A 
HETATM    3  C8  UNL     1      66.351   5.737   0.189  1.00  0.00     0.067 A 
HETATM    4  C12 UNL     1      66.708   6.857  -0.621  1.00  0.00     0.134 A 
HETATM    5  N9  UNL     1      65.671   7.667  -1.120  1.00  0.00    -0.082 NA
HETATM    6  N10 UNL     1      67.964   7.156  -0.911  1.00  0.00    -0.309 N 
ATOM      7  H10 UNL     1      68.191   7.962  -1.493  1.00  0.00     0.170 HD
HETATM    8  C13 UNL     1      68.917   6.378  -0.423  1.00  0.00     0.274 A 
HETATM    9  O5  UNL     1      70.123   6.682  -0.723  1.00  0.00    -0.266 OA
ENDROOT
BRANCH   2  10
HETATM   10  C5  UNL     1      67.137   3.921   1.652  1.00  0.00     0.274 C 
HETATM   11  O2  UNL     1      67.023   2.739   1.177  1.00  0.00    -0.266 OA
HETATM   12  N2  UNL     1      67.061   3.988   3.049  1.00  0.00    -0.257 N 
ATOM     13  H2  UNL     1      67.179   4.909   3.472  1.00  0.00     0.191 HD
BRANCH  12  14
HETATM   14  N3  UNL     1      66.843   2.930   3.911  1.00  0.00    -0.242 N 
HETATM   15  C6  UNL     1      65.732   2.438   4.444  1.00  0.00     0.224 A 
HETATM   16  N4  UNL     1      66.033   1.371   5.247  1.00  0.00    -0.293 N 
HETATM   17  N5  UNL     1      67.329   1.201   5.213  1.00  0.00    -0.293 N 
ATOM     18  H4  UNL     1      65.366   0.810   5.777  1.00  0.00     0.187 HD
HETATM   19  C7  UNL     1      67.847   2.137   4.406  1.00  0.00     0.224 A 
ATOM     20  H5  UNL     1      67.853   0.482   5.712  1.00  0.00     0.187 HD
ENDBRANCH  12  14
ENDBRANCH   2  10
BRANCH   1  21
HETATM   21  N1  UNL     1      69.797   4.527   0.788  1.00  0.00    -0.322 N 
HETATM   22  C2  UNL     1      70.372   4.678   2.074  1.00  0.00     0.218 C 
HETATM   23  C1  UNL     1      71.535   3.865   2.465  1.00  0.00     0.117 C 
HETATM   24  O1  UNL     1      69.877   5.506   2.863  1.00  0.00    -0.274 OA
ATOM     25  H1  UNL     1      70.202   3.849   0.143  1.00  0.00     0.169 HD
ENDBRANCH   1  21
BRANCH   3  26
HETATM   26  C9  UNL     1      64.948   5.318  -0.014  1.00  0.00     0.121 C 
HETATM   27  N6  UNL     1      64.571   4.842  -1.131  1.00  0.00    -0.357 N 
HETATM   28  C10 UNL     1      63.288   4.386  -1.530  1.00  0.00     0.284 C 
ATOM     29  H6  UNL     1      65.297   4.778  -1.844  1.00  0.00     0.162 HD
HETATM   30  N7  UNL     1      62.418   4.058  -0.418  1.00  0.00    -0.192 N 
HETATM   31  C11 UNL     1      62.757   4.550   0.856  1.00  0.00     0.349 C 
HETATM   32  O4  UNL     1      61.927   4.420   1.795  1.00  0.00    -0.244 OA
HETATM   33  N8  UNL     1      64.030   5.185   1.064  1.00  0.00    -0.292 N 
ATOM     34  H8  UNL     1      64.275   5.542   1.988  1.00  0.00     0.172 HD
BRANCH  30  35
HETATM   35  O3  UNL     1      61.334   3.302  -0.664  1.00  0.00    -0.282 OA
ATOM     36  H3  UNL     1      61.375   2.378  -0.447  1.00  0.00     0.245 HD
ENDBRANCH  30  35
ENDBRANCH   3  26
TORSDOF 5
ENDMDL
MODEL 2
REMARK VINA RESULT: -7.904571509      0.742      1.486
REMARK  5 active torsions:
REMARK  status: ('A' for Active; 'I' for Inactive)
REMARK       I    between atoms: C2_2  and  N1_4 
REMARK    1  A    between atoms: N1_4  and  C3_6 
REMARK    2  A    between atoms: C4_7  and  C5_8 
REMARK       I    between atoms: C5_8  and  N2_10 
REMARK    3  A    between atoms: N2_10  and  N3_12 
REMARK    4  A    between atoms: C8_19  and  C9_20 
REMARK    5  A    between atoms: N7_24  and  O3_25 
ROOT
HETATM    1  C3  UNL     1      68.472   4.952   0.623  1.00  0.00     0.120 A 
HETATM    2  C4  UNL     1      67.175   4.516   0.962  1.00  0.00     0.083 A 
HETATM    3  C8  UNL     1      66.106   5.178   0.450  1.00  0.00     0.067 A 
HETATM    4  C12 UNL     1      66.352   6.306  -0.390  1.00  0.00     0.134 A 
HETATM    5  N9  UNL     1      65.240   7.001  -0.900  1.00  0.00    -0.082 NA
HETATM    6  N10 UNL     1      67.572   6.715  -0.697  1.00  0.00    -0.309 N 
ATOM      7  H10 UNL     1      67.719   7.524  -1.300  1.00  0.00     0.170 HD
HETATM    8  C13 UNL     1      68.596   6.042  -0.197  1.00  0.00     0.274 A 
HETATM    9  O5  UNL     1      69.767   6.452  -0.514  1.00  0.00    -0.266 OA
ENDROOT
BRANCH   2  10
HETATM   10  C5  UNL     1      67.069   3.481   1.950  1.00  0.00     0.274 C 
HETATM   11  O2  UNL     1      67.086   2.282   1.506  1.00  0.00    -0.266 OA
HETATM   12  N2  UNL     1      66.976   3.576   3.344  1.00  0.00    -0.257 N 
ATOM     13  H2  UNL     1      66.991   4.515   3.743  1.00  0.00     0.191 HD
BRANCH  12  14
HETATM   14  N3  UNL     1      66.865   2.523   4.234  1.00  0.00    -0.242 N 
HETATM   15  C6  UNL     1      67.766   1.682   4.725  1.00  0.00     0.224 A 
HETATM   16  N4  UNL     1      67.163   0.801   5.580  1.00  0.00    -0.293 N 
HETATM   17  N5  UNL     1      65.889   1.093   5.620  1.00  0.00    -0.293 N 
ATOM     18  H4  UNL     1      67.624   0.050   6.095  1.00  0.00     0.187 HD
HETATM   19  C7  UNL     1      65.681   2.139   4.809  1.00  0.00     0.224 A 
ATOM     20  H5  UNL     1      65.180   0.611   6.172  1.00  0.00     0.187 HD
ENDBRANCH  12  14
ENDBRANCH   2  10
BRANCH   1  21
HETATM   21  N1  UNL     1      69.654   4.314   1.051  1.00  0.00    -0.322 N 
HETATM   22  C2  UNL     1      70.239   4.576   2.315  1.00  0.00     0.218 C 
HETATM   23  C1  UNL     1      71.475   3.886   2.717  1.00  0.00     0.117 C 
HETATM   24  O1  UNL     1      69.689   5.398   3.075  1.00  0.00    -0.274 OA
ATOM     25  H1  UNL     1      70.104   3.642   0.430  1.00  0.00     0.169 HD
ENDBRANCH   1  21
BRANCH   3  26
HETATM   26  C9  UNL     1      64.748   4.623   0.268  1.00  0.00     0.121 C 
HETATM   27  N6  UNL     1      63.846   4.823   1.141  1.00  0.00    -0.357 N 
HETATM   28  C10 UNL     1      62.497   4.386   1.160  1.00  0.00     0.284 C 
ATOM     29  H6  UNL     1      64.135   5.380   1.945  1.00  0.00     0.162 HD
HETATM   30  N7  UNL     1      61.991   4.012  -0.147  1.00  0.00    -0.192 N 
HETATM   31  C11 UNL     1      62.921   3.766  -1.173  1.00  0.00     0.349 C 
HETATM   32  O4  UNL     1      62.509   3.277  -2.259  1.00  0.00    -0.244 OA
HETATM   33  N8  UNL     1      64.311   4.071  -0.969  1.00  0.00    -0.292 N 
ATOM     34  H8  UNL     1      64.986   3.892  -1.713  1.00  0.00     0.172 HD
BRANCH  30  35
HETATM   35  O3  UNL     1      60.659   3.922  -0.307  1.00  0.00    -0.282 OA
ATOM     36  H3  UNL     1      60.109   3.998   0.464  1.00  0.00     0.245 HD
ENDBRANCH  30  35
ENDBRANCH   3  26
TORSDOF 5
ENDMDL
MODEL 3
REMARK VINA RESULT: -7.818361242      2.118      5.043
REMARK  5 active torsions:
REMARK  status: ('A' for Active; 'I' for Inactive)
REMARK       I    between atoms: C2_2  and  N1_4 
REMARK    1  A    between atoms: N1_4  and  C3_6 
REMARK    2  A    between atoms: C4_7  and  C5_8 
REMARK       I    between atoms: C5_8  and  N2_10 
REMARK    3  A    between atoms: N2_10  and  N3_12 
REMARK    4  A    between atoms: C8_19  and  C9_20 
REMARK    5  A    between atoms: N7_24  and  O3_25 
ROOT
HETATM    1  C3  UNL     1      69.067   2.866   3.557  1.00  0.00     0.120 A 
HETATM    2  C4  UNL     1      68.109   3.254   2.600  1.00  0.00     0.083 A 
HETATM    3  C8  UNL     1      67.095   2.402   2.302  1.00  0.00     0.067 A 
HETATM    4  C12 UNL     1      67.066   1.135   2.960  1.00  0.00     0.134 A 
HETATM    5  N9  UNL     1      66.025   0.247   2.631  1.00  0.00    -0.082 NA
HETATM    6  N10 UNL     1      67.973   0.773   3.852  1.00  0.00    -0.309 N 
ATOM      7  H10 UNL     1      67.928  -0.138   4.307  1.00  0.00     0.170 HD
HETATM    8  C13 UNL     1      68.942   1.629   4.135  1.00  0.00     0.274 A 
HETATM    9  O5  UNL     1      69.804   1.259   5.006  1.00  0.00    -0.266 OA
ENDROOT
BRANCH   2  10
HETATM   10  C5  UNL     1      68.352   4.478   1.890  1.00  0.00     0.274 C 
HETATM   11  O2  UNL     1      68.025   5.552   2.502  1.00  0.00    -0.266 OA
HETATM   12  N2  UNL     1      68.921   4.687   0.627  1.00  0.00    -0.257 N 
ATOM     13  H2  UNL     1      69.226   3.857   0.118  1.00  0.00     0.191 HD
BRANCH  12  14
HETATM   14  N3  UNL     1      69.112   5.906   0.004  1.00  0.00    -0.242 N 
HETATM   15  C6  UNL     1      68.321   6.636  -0.771  1.00  0.00     0.224 A 
HETATM   16  N4  UNL     1      68.968   7.781  -1.151  1.00  0.00    -0.293 N 
HETATM   17  N5  UNL     1      70.160   7.761  -0.613  1.00  0.00    -0.293 N 
ATOM     18  H4  UNL     1      68.589   8.517  -1.746  1.00  0.00     0.187 HD
HETATM   19  C7  UNL     1      70.273   6.630   0.096  1.00  0.00     0.224 A 
ATOM     20  H5  UNL     1      70.876   8.480  -0.715  1.00  0.00     0.187 HD
ENDBRANCH  12  14
ENDBRANCH   2  10
BRANCH   1  21
HETATM   21  N1  UNL     1      70.132   3.684   3.985  1.00  0.00    -0.322 N 
HETATM   22  C2  UNL     1      71.325   3.824   3.234  1.00  0.00     0.218 C 
HETATM   23  C1  UNL     1      72.410   4.691   3.721  1.00  0.00     0.117 C 
HETATM   24  O1  UNL     1      71.438   3.203   2.158  1.00  0.00    -0.274 OA
ATOM     25  H1  UNL     1      70.041   4.193   4.864  1.00  0.00     0.169 HD
ENDBRANCH   1  21
BRANCH   3  26
HETATM   26  C9  UNL     1      65.779   2.780   1.746  1.00  0.00     0.121 C 
HETATM   27  N6  UNL     1      65.566   2.723   0.494  1.00  0.00    -0.357 N 
HETATM   28  C10 UNL     1      64.392   3.036  -0.237  1.00  0.00     0.284 C 
ATOM     29  H6  UNL     1      66.356   2.403  -0.068  1.00  0.00     0.162 HD
HETATM   30  N7  UNL     1      63.189   3.039   0.573  1.00  0.00    -0.192 N 
HETATM   31  C11 UNL     1      63.331   3.106   1.971  1.00  0.00     0.349 C 
HETATM   32  O4  UNL     1      62.302   3.281   2.677  1.00  0.00    -0.244 OA
HETATM   33  N8  UNL     1      64.634   2.977   2.566  1.00  0.00    -0.292 N 
ATOM     34  H8  UNL     1      64.737   3.027   3.580  1.00  0.00     0.172 HD
BRANCH  30  35
HETATM   35  O3  UNL     1      62.002   2.975  -0.055  1.00  0.00    -0.282 OA
ATOM     36  H3  UNL     1      61.229   2.797   0.466  1.00  0.00     0.245 HD
ENDBRANCH  30  35
ENDBRANCH   3  26
TORSDOF 5
ENDMDL
MODEL 4
REMARK VINA RESULT: -7.659897415      1.078      1.267
REMARK  5 active torsions:
REMARK  status: ('A' for Active; 'I' for Inactive)
REMARK       I    between atoms: C2_2  and  N1_4 
REMARK    1  A    between atoms: N1_4  and  C3_6 
REMARK    2  A    between atoms: C4_7  and  C5_8 
REMARK       I    between atoms: C5_8  and  N2_10 
REMARK    3  A    between atoms: N2_10  and  N3_12 
REMARK    4  A    between atoms: C8_19  and  C9_20 
REMARK    5  A    between atoms: N7_24  and  O3_25 
ROOT
HETATM    1  C3  UNL     1      68.700   5.174   0.425  1.00  0.00     0.120 A 
HETATM    2  C4  UNL     1      67.360   4.853   0.722  1.00  0.00     0.083 A 
HETATM    3  C8  UNL     1      66.372   5.652   0.245  1.00  0.00     0.067 A 
HETATM    4  C12 UNL     1      66.744   6.801  -0.517  1.00  0.00     0.134 A 
HETATM    5  N9  UNL     1      65.717   7.638  -0.990  1.00  0.00    -0.082 NA
HETATM    6  N10 UNL     1      68.004   7.102  -0.785  1.00  0.00    -0.309 N 
ATOM      7  H10 UNL     1      68.242   7.929  -1.332  1.00  0.00     0.170 HD
HETATM    8  C13 UNL     1      68.947   6.297  -0.321  1.00  0.00     0.274 A 
HETATM    9  O5  UNL     1      70.158   6.605  -0.600  1.00  0.00    -0.266 OA
ENDROOT
BRANCH   2  10
HETATM   10  C5  UNL     1      67.134   3.772   1.639  1.00  0.00     0.274 C 
HETATM   11  O2  UNL     1      67.150   4.081   2.880  1.00  0.00    -0.266 OA
HETATM   12  N2  UNL     1      66.868   2.421   1.387  1.00  0.00    -0.257 N 
ATOM     13  H2  UNL     1      66.814   2.137   0.409  1.00  0.00     0.191 HD
BRANCH  12  14
HETATM   14  N3  UNL     1      66.670   1.432   2.333  1.00  0.00    -0.242 N 
HETATM   15  C6  UNL     1      67.523   0.687   3.025  1.00  0.00     0.224 A 
HETATM   16  N4  UNL     1      66.837  -0.164   3.848  1.00  0.00    -0.293 N 
HETATM   17  N5  UNL     1      65.560   0.053   3.669  1.00  0.00    -0.293 N 
ATOM     18  H4  UNL     1      67.248  -0.844   4.487  1.00  0.00     0.187 HD
HETATM   19  C7  UNL     1      65.431   1.020   2.751  1.00  0.00     0.224 A 
ATOM     20  H5  UNL     1      64.797  -0.430   4.144  1.00  0.00     0.187 HD
ENDBRANCH  12  14
ENDBRANCH   2  10
BRANCH   1  21
HETATM   21  N1  UNL     1      69.804   4.393   0.820  1.00  0.00    -0.322 N 
HETATM   22  C2  UNL     1      70.456   4.582   2.064  1.00  0.00     0.218 C 
HETATM   23  C1  UNL     1      71.606   3.741   2.433  1.00  0.00     0.117 C 
HETATM   24  O1  UNL     1      70.038   5.467   2.836  1.00  0.00    -0.274 OA
ATOM     25  H1  UNL     1      70.146   3.668   0.190  1.00  0.00     0.169 HD
ENDBRANCH   1  21
BRANCH   3  26
HETATM   26  C9  UNL     1      64.968   5.252   0.014  1.00  0.00     0.121 C 
HETATM   27  N6  UNL     1      64.596   4.826  -1.124  1.00  0.00    -0.357 N 
HETATM   28  C10 UNL     1      63.313   4.396  -1.551  1.00  0.00     0.284 C 
ATOM     29  H6  UNL     1      65.327   4.787  -1.834  1.00  0.00     0.162 HD
HETATM   30  N7  UNL     1      62.432   4.029  -0.459  1.00  0.00    -0.192 N 
HETATM   31  C11 UNL     1      62.765   4.464   0.836  1.00  0.00     0.349 C 
HETATM   32  O4  UNL     1      61.927   4.301   1.763  1.00  0.00    -0.244 OA
HETATM   33  N8  UNL     1      64.041   5.081   1.080  1.00  0.00    -0.292 N 
ATOM     34  H8  UNL     1      64.282   5.397   2.020  1.00  0.00     0.172 HD
BRANCH  30  35
HETATM   35  O3  UNL     1      61.345   3.292  -0.744  1.00  0.00    -0.282 OA
ATOM     36  H3  UNL     1      61.422   2.346  -0.704  1.00  0.00     0.245 HD
ENDBRANCH  30  35
ENDBRANCH   3  26
TORSDOF 5
ENDMDL
MODEL 5
REMARK VINA RESULT: -7.623171341      1.229      1.229
REMARK  5 active torsions:
REMARK  status: ('A' for Active; 'I' for Inactive)
REMARK       I    between atoms: C2_2  and  N1_4 
REMARK    1  A    between atoms: N1_4  and  C3_6 
REMARK    2  A    between atoms: C4_7  and  C5_8 
REMARK       I    between atoms: C5_8  and  N2_10 
REMARK    3  A    between atoms: N2_10  and  N3_12 
REMARK    4  A    between atoms: C8_19  and  C9_20 
REMARK    5  A    between atoms: N7_24  and  O3_25 
ROOT
HETATM    1  C3  UNL     1      68.701   4.969   0.600  1.00  0.00     0.120 A 
HETATM    2  C4  UNL     1      67.419   4.518   0.972  1.00  0.00     0.083 A 
HETATM    3  C8  UNL     1      66.329   5.137   0.452  1.00  0.00     0.067 A 
HETATM    4  C12 UNL     1      66.538   6.239  -0.432  1.00  0.00     0.134 A 
HETATM    5  N9  UNL     1      65.405   6.892  -0.951  1.00  0.00    -0.082 NA
HETATM    6  N10 UNL     1      67.745   6.663  -0.771  1.00  0.00    -0.309 N 
ATOM      7  H10 UNL     1      67.866   7.452  -1.405  1.00  0.00     0.170 HD
HETATM    8  C13 UNL     1      68.791   6.031  -0.262  1.00  0.00     0.274 A 
HETATM    9  O5  UNL     1      69.947   6.454  -0.610  1.00  0.00    -0.266 OA
ENDROOT
BRANCH   2  10
HETATM   10  C5  UNL     1      67.349   3.517   1.999  1.00  0.00     0.274 C 
HETATM   11  O2  UNL     1      66.984   3.928   3.154  1.00  0.00    -0.266 OA
HETATM   12  N2  UNL     1      67.594   2.140   1.930  1.00  0.00    -0.257 N 
ATOM     13  H2  UNL     1      67.856   1.765   1.018  1.00  0.00     0.191 HD
BRANCH  12  14
HETATM   14  N3  UNL     1      67.514   1.239   2.974  1.00  0.00    -0.242 N 
HETATM   15  C6  UNL     1      66.599   0.332   3.292  1.00  0.00     0.224 A 
HETATM   16  N4  UNL     1      66.971  -0.325   4.434  1.00  0.00    -0.293 N 
HETATM   17  N5  UNL     1      68.115   0.173   4.825  1.00  0.00    -0.293 N 
ATOM     18  H4  UNL     1      66.450  -1.069   4.897  1.00  0.00     0.187 HD
HETATM   19  C7  UNL     1      68.469   1.127   3.953  1.00  0.00     0.224 A 
ATOM     20  H5  UNL     1      68.645  -0.115   5.648  1.00  0.00     0.187 HD
ENDBRANCH  12  14
ENDBRANCH   2  10
BRANCH   1  21
HETATM   21  N1  UNL     1      69.903   4.373   1.033  1.00  0.00    -0.322 N 
HETATM   22  C2  UNL     1      70.487   4.677   2.288  1.00  0.00     0.218 C 
HETATM   23  C1  UNL     1      71.743   4.029   2.697  1.00  0.00     0.117 C 
HETATM   24  O1  UNL     1      69.919   5.498   3.035  1.00  0.00    -0.274 OA
ATOM     25  H1  UNL     1      70.368   3.701   0.423  1.00  0.00     0.169 HD
ENDBRANCH   1  21
BRANCH   3  26
HETATM   26  C9  UNL     1      64.981   4.547   0.309  1.00  0.00     0.121 C 
HETATM   27  N6  UNL     1      64.789   3.554  -0.460  1.00  0.00    -0.357 N 
HETATM   28  C10 UNL     1      63.591   2.847  -0.738  1.00  0.00     0.284 C 
ATOM     29  H6  UNL     1      65.618   3.216  -0.950  1.00  0.00     0.162 HD
HETATM   30  N7  UNL     1      62.565   3.028   0.271  1.00  0.00    -0.192 N 
HETATM   31  C11 UNL     1      62.695   4.108   1.163  1.00  0.00     0.349 C 
HETATM   32  O4  UNL     1      61.733   4.379   1.929  1.00  0.00    -0.244 OA
HETATM   33  N8  UNL     1      63.910   4.876   1.186  1.00  0.00    -0.292 N 
ATOM     34  H8  UNL     1      64.004   5.660   1.833  1.00  0.00     0.172 HD
BRANCH  30  35
HETATM   35  O3  UNL     1      61.544   2.153   0.299  1.00  0.00    -0.282 OA
ATOM     36  H3  UNL     1      61.750   1.226   0.332  1.00  0.00     0.245 HD
ENDBRANCH  30  35
ENDBRANCH   3  26
TORSDOF 5
ENDMDL
