MODEL 1
REMARK VINA RESULT: -8.673178617      0.000      0.000
REMARK  6 active torsions:
REMARK  status: ('A' for Active; 'I' for Inactive)
REMARK    1  A    between atoms: N1_1  and  N2_4 
REMARK    2  A    between atoms: N2_4  and  C1_6 
REMARK    3  A    between atoms: C2_11  and  N5_12 
REMARK    4  A    between atoms: N5_12  and  S1_14 
REMARK    5  A    between atoms: S1_14  and  C3_17 
REMARK    6  A    between atoms: C6_20  and  N6_21 
ROOT
HETATM    1  S1  UNL     1      70.275   4.128   4.110  1.00  0.00     0.276 S 
HETATM    2  O1  UNL     1      69.637   4.552   5.408  1.00  0.00    -0.200 OA
HETATM    3  O2  UNL     1      71.759   4.447   4.185  1.00  0.00    -0.200 OA
ENDROOT
BRANCH   1   4
HETATM    4  N5  UNL     1      70.115   2.459   3.810  1.00  0.00    -0.111 N 
ATOM      5  H5  UNL     1      70.774   2.000   3.181  1.00  0.00     0.197 HD
BRANCH   4   6
HETATM    6  C2  UNL     1      69.186   1.767   4.359  1.00  0.00     0.709 A 
HETATM    7  N4  UNL     1      69.518   0.590   4.960  1.00  0.00    -0.130 N 
HETATM    8  N3  UNL     1      68.621  -0.180   5.547  1.00  0.00    -0.266 N 
ATOM      9  H4  UNL     1      70.494   0.294   4.956  1.00  0.00     0.205 HD
HETATM   10  C1  UNL     1      67.324   0.157   5.581  1.00  0.00     0.204 A 
ATOM     11  H3  UNL     1      68.921  -1.052   5.984  1.00  0.00     0.189 HD
HETATM   12  C12 UNL     1      66.968   1.345   4.978  1.00  0.00     0.306 A 
HETATM   13  N11 UNL     1      67.896   2.135   4.376  1.00  0.00    -0.151 N 
HETATM   14  O3  UNL     1      65.751   1.661   5.011  1.00  0.00    -0.263 OA
ATOM     15  H11 UNL     1      67.611   3.010   3.935  1.00  0.00     0.188 HD
BRANCH  10  16
HETATM   16  N2  UNL     1      66.396  -0.702   6.224  1.00  0.00    -0.286 N 
ATOM     17  H2  UNL     1      66.203  -1.642   5.877  1.00  0.00     0.188 HD
BRANCH  16  18
HETATM   18  N1  UNL     1      65.755  -0.180   7.375  1.00  0.00    -0.343 N 
ATOM     19  H12 UNL     1      66.238   0.467   7.998  1.00  0.00     0.176 HD
ATOM     20  H11 UNL     1      64.796  -0.488   7.533  1.00  0.00     0.176 HD
ENDBRANCH  16  18
ENDBRANCH  10  16
ENDBRANCH   4   6
ENDBRANCH   1   4
BRANCH   1  21
HETATM   21  C3  UNL     1      69.514   5.070   2.842  1.00  0.00     0.080 A 
HETATM   22  C4  UNL     1      70.265   5.396   1.738  1.00  0.00     0.027 A 
HETATM   23  C5  UNL     1      69.677   6.133   0.741  1.00  0.00     0.031 A 
HETATM   24  C6  UNL     1      68.365   6.562   0.796  1.00  0.00     0.038 A 
HETATM   25  C10 UNL     1      67.630   6.229   1.900  1.00  0.00     0.031 A 
HETATM   26  C11 UNL     1      68.208   5.478   2.930  1.00  0.00     0.027 A 
BRANCH  24  27
HETATM   27  N6  UNL     1      67.866   7.297  -0.315  1.00  0.00    -0.304 N 
HETATM   28  C7  UNL     1      68.647   7.334  -1.566  1.00  0.00     0.257 A 
HETATM   29  N7  UNL     1      67.959   8.069  -2.571  1.00  0.00    -0.348 N 
HETATM   30  C8  UNL     1      66.843   8.687  -2.447  1.00  0.00     0.191 A 
ATOM     31  H7  UNL     1      68.401   8.109  -3.489  1.00  0.00     0.163 HD
HETATM   32  N8  UNL     1      66.270   9.396  -3.571  1.00  0.00    -0.063 NA
HETATM   33  N9  UNL     1      66.173   8.641  -1.208  1.00  0.00    -0.304 N 
HETATM   34  C9  UNL     1      66.641   7.998  -0.201  1.00  0.00     0.198 A 
ATOM     35  H9  UNL     1      65.286   9.135  -1.108  1.00  0.00     0.171 HD
HETATM   36  N10 UNL     1      65.921   8.015   1.055  1.00  0.00    -0.063 NA
ENDBRANCH  24  27
ENDBRANCH   1  21
TORSDOF 6
ENDMDL
MODEL 2
REMARK VINA RESULT: -8.615351426      0.859      1.384
REMARK  6 active torsions:
REMARK  status: ('A' for Active; 'I' for Inactive)
REMARK    1  A    between atoms: N1_1  and  N2_4 
REMARK    2  A    between atoms: N2_4  and  C1_6 
REMARK    3  A    between atoms: C2_11  and  N5_12 
REMARK    4  A    between atoms: N5_12  and  S1_14 
REMARK    5  A    between atoms: S1_14  and  C3_17 
REMARK    6  A    between atoms: C6_20  and  N6_21 
ROOT
HETATM    1  S1  UNL     1      70.105   3.754   4.247  1.00  0.00     0.276 S 
HETATM    2  O1  UNL     1      69.422   4.240   5.501  1.00  0.00    -0.200 OA
HETATM    3  O2  UNL     1      71.587   4.072   4.362  1.00  0.00    -0.200 OA
ENDROOT
BRANCH   1   4
HETATM    4  N5  UNL     1      69.949   2.073   4.021  1.00  0.00    -0.111 N 
ATOM      5  H5  UNL     1      70.627   1.584   3.438  1.00  0.00     0.197 HD
BRANCH   4   6
HETATM    6  C2  UNL     1      68.997   1.410   4.566  1.00  0.00     0.709 A 
HETATM    7  N4  UNL     1      69.281   0.199   5.122  1.00  0.00    -0.130 N 
HETATM    8  N3  UNL     1      68.359  -0.545   5.703  1.00  0.00    -0.266 N 
ATOM      9  H4  UNL     1      70.241  -0.145   5.088  1.00  0.00     0.205 HD
HETATM   10  C1  UNL     1      67.081  -0.145   5.776  1.00  0.00     0.204 A 
ATOM     11  H3  UNL     1      68.624  -1.444   6.105  1.00  0.00     0.189 HD
HETATM   12  C12 UNL     1      66.773   1.078   5.220  1.00  0.00     0.306 A 
HETATM   13  N11 UNL     1      67.728   1.841   4.623  1.00  0.00    -0.151 N 
HETATM   14  O3  UNL     1      65.574   1.452   5.289  1.00  0.00    -0.263 OA
ATOM     15  H11 UNL     1      67.479   2.743   4.217  1.00  0.00     0.188 HD
BRANCH  10  16
HETATM   16  N2  UNL     1      66.125  -0.979   6.411  1.00  0.00    -0.286 N 
ATOM     17  H2  UNL     1      65.933  -1.926   6.083  1.00  0.00     0.188 HD
BRANCH  16  18
HETATM   18  N1  UNL     1      65.451  -0.419   7.526  1.00  0.00    -0.343 N 
ATOM     19  H12 UNL     1      64.786   0.345   7.409  1.00  0.00     0.176 HD
ATOM     20  H11 UNL     1      65.674  -0.825   8.435  1.00  0.00     0.176 HD
ENDBRANCH  16  18
ENDBRANCH  10  16
ENDBRANCH   4   6
ENDBRANCH   1   4
BRANCH   1  21
HETATM   21  C3  UNL     1      69.395   4.637   2.911  1.00  0.00     0.080 A 
HETATM   22  C4  UNL     1      69.932   4.458   1.658  1.00  0.00     0.027 A 
HETATM   23  C5  UNL     1      69.382   5.147   0.606  1.00  0.00     0.031 A 
HETATM   24  C6  UNL     1      68.314   6.011   0.748  1.00  0.00     0.038 A 
HETATM   25  C10 UNL     1      67.790   6.178   1.999  1.00  0.00     0.031 A 
HETATM   26  C11 UNL     1      68.334   5.488   3.088  1.00  0.00     0.027 A 
BRANCH  24  27
HETATM   27  N6  UNL     1      67.819   6.644  -0.427  1.00  0.00    -0.304 N 
HETATM   28  C7  UNL     1      66.389   6.514  -0.767  1.00  0.00     0.257 A 
HETATM   29  N7  UNL     1      66.079   7.258  -1.940  1.00  0.00    -0.348 N 
HETATM   30  C8  UNL     1      66.897   7.918  -2.675  1.00  0.00     0.191 A 
ATOM     31  H7  UNL     1      65.101   7.268  -2.227  1.00  0.00     0.163 HD
HETATM   32  N8  UNL     1      66.424   8.626  -3.844  1.00  0.00    -0.063 NA
HETATM   33  N9  UNL     1      68.257   7.963  -2.307  1.00  0.00    -0.304 N 
HETATM   34  C9  UNL     1      68.703   7.369  -1.261  1.00  0.00     0.198 A 
ATOM     35  H9  UNL     1      68.909   8.485  -2.893  1.00  0.00     0.171 HD
HETATM   36  N10 UNL     1      70.117   7.426  -0.955  1.00  0.00    -0.063 NA
ENDBRANCH  24  27
ENDBRANCH   1  21
TORSDOF 6
ENDMDL
MODEL 3
REMARK VINA RESULT: -8.542610184      2.079      2.948
REMARK  6 active torsions:
REMARK  status: ('A' for Active; 'I' for Inactive)
REMARK    1  A    between atoms: N1_1  and  N2_4 
REMARK    2  A    between atoms: N2_4  and  C1_6 
REMARK    3  A    between atoms: C2_11  and  N5_12 
REMARK    4  A    between atoms: N5_12  and  S1_14 
REMARK    5  A    between atoms: S1_14  and  C3_17 
REMARK    6  A    between atoms: C6_20  and  N6_21 
ROOT
HETATM    1  S1  UNL     1      69.302   3.746   4.717  1.00  0.00     0.276 S 
HETATM    2  O1  UNL     1      69.171   4.801   5.786  1.00  0.00    -0.200 OA
HETATM    3  O2  UNL     1      70.741   3.256   4.710  1.00  0.00    -0.200 OA
ENDROOT
BRANCH   1   4
HETATM    4  N5  UNL     1      68.294   2.401   4.991  1.00  0.00    -0.111 N 
ATOM      5  H5  UNL     1      67.416   2.530   5.492  1.00  0.00     0.197 HD
BRANCH   4   6
HETATM    6  C2  UNL     1      68.615   1.229   4.581  1.00  0.00     0.709 A 
HETATM    7  N4  UNL     1      67.985   0.727   3.483  1.00  0.00    -0.130 N 
HETATM    8  N3  UNL     1      68.258  -0.470   2.998  1.00  0.00    -0.266 N 
ATOM      9  H4  UNL     1      67.276   1.296   3.020  1.00  0.00     0.205 HD
HETATM   10  C1  UNL     1      69.179  -1.262   3.566  1.00  0.00     0.204 A 
ATOM     11  H3  UNL     1      67.757  -0.800   2.172  1.00  0.00     0.189 HD
HETATM   12  C12 UNL     1      69.828  -0.771   4.678  1.00  0.00     0.306 A 
HETATM   13  N11 UNL     1      69.543   0.463   5.173  1.00  0.00    -0.151 N 
HETATM   14  O3  UNL     1      70.692  -1.515   5.210  1.00  0.00    -0.263 OA
ATOM     15  H11 UNL     1      70.036   0.807   5.998  1.00  0.00     0.188 HD
BRANCH  10  16
HETATM   16  N2  UNL     1      69.438  -2.540   3.009  1.00  0.00    -0.286 N 
ATOM     17  H2  UNL     1      68.805  -3.328   3.148  1.00  0.00     0.188 HD
BRANCH  16  18
HETATM   18  N1  UNL     1      70.628  -2.659   2.247  1.00  0.00    -0.343 N 
ATOM     19  H12 UNL     1      71.541  -2.707   2.701  1.00  0.00     0.176 HD
ATOM     20  H11 UNL     1      70.512  -2.692   1.235  1.00  0.00     0.176 HD
ENDBRANCH  16  18
ENDBRANCH  10  16
ENDBRANCH   4   6
ENDBRANCH   1   4
BRANCH   1  21
HETATM   21  C3  UNL     1      68.916   4.521   3.193  1.00  0.00     0.080 A 
HETATM   22  C4  UNL     1      68.004   5.550   3.202  1.00  0.00     0.027 A 
HETATM   23  C5  UNL     1      67.697   6.162   2.013  1.00  0.00     0.031 A 
HETATM   24  C6  UNL     1      68.260   5.792   0.808  1.00  0.00     0.038 A 
HETATM   25  C10 UNL     1      69.167   4.768   0.814  1.00  0.00     0.031 A 
HETATM   26  C11 UNL     1      69.497   4.128   2.014  1.00  0.00     0.027 A 
BRANCH  24  27
HETATM   27  N6  UNL     1      67.877   6.524  -0.350  1.00  0.00    -0.304 N 
HETATM   28  C7  UNL     1      66.468   6.500  -0.785  1.00  0.00     0.257 A 
HETATM   29  N7  UNL     1      66.276   7.332  -1.924  1.00  0.00    -0.348 N 
HETATM   30  C8  UNL     1      67.175   7.986  -2.562  1.00  0.00     0.191 A 
ATOM     31  H7  UNL     1      65.320   7.418  -2.269  1.00  0.00     0.163 HD
HETATM   32  N8  UNL     1      66.818   8.792  -3.710  1.00  0.00    -0.063 NA
HETATM   33  N9  UNL     1      68.509   7.928  -2.111  1.00  0.00    -0.304 N 
HETATM   34  C9  UNL     1      68.853   7.245  -1.080  1.00  0.00     0.198 A 
ATOM     35  H9  UNL     1      69.225   8.446  -2.620  1.00  0.00     0.171 HD
HETATM   36  N10 UNL     1      70.245   7.199  -0.686  1.00  0.00    -0.063 NA
ENDBRANCH  24  27
ENDBRANCH   1  21
TORSDOF 6
ENDMDL
MODEL 4
REMARK VINA RESULT: -8.455039119      0.870      1.206
REMARK  6 active torsions:
REMARK  status: ('A' for Active; 'I' for Inactive)
REMARK    1  A    between atoms: N1_1  and  N2_4 
REMARK    2  A    between atoms: N2_4  and  C1_6 
REMARK    3  A    between atoms: C2_11  and  N5_12 
REMARK    4  A    between atoms: N5_12  and  S1_14 
REMARK    5  A    between atoms: S1_14  and  C3_17 
REMARK    6  A    between atoms: C6_20  and  N6_21 
ROOT
HETATM    1  S1  UNL     1      70.251   4.164   4.083  1.00  0.00     0.276 S 
HETATM    2  O1  UNL     1      69.593   4.573   5.376  1.00  0.00    -0.200 OA
HETATM    3  O2  UNL     1      71.731   4.498   4.178  1.00  0.00    -0.200 OA
ENDROOT
BRANCH   1   4
HETATM    4  N5  UNL     1      70.112   2.496   3.770  1.00  0.00    -0.111 N 
ATOM      5  H5  UNL     1      70.779   2.049   3.142  1.00  0.00     0.197 HD
BRANCH   4   6
HETATM    6  C2  UNL     1      69.187   1.789   4.308  1.00  0.00     0.709 A 
HETATM    7  N4  UNL     1      67.904   2.243   4.253  1.00  0.00    -0.130 N 
HETATM    8  N3  UNL     1      66.896   1.574   4.782  1.00  0.00    -0.266 N 
ATOM      9  H4  UNL     1      67.716   3.131   3.788  1.00  0.00     0.205 HD
HETATM   10  C1  UNL     1      67.084   0.403   5.406  1.00  0.00     0.204 A 
ATOM     11  H3  UNL     1      65.953   1.958   4.713  1.00  0.00     0.189 HD
HETATM   12  C12 UNL     1      68.375  -0.073   5.472  1.00  0.00     0.306 A 
HETATM   13  N11 UNL     1      69.410   0.619   4.926  1.00  0.00    -0.151 N 
HETATM   14  O3  UNL     1      68.551  -1.172   6.059  1.00  0.00    -0.263 OA
ATOM     15  H11 UNL     1      70.359   0.249   4.986  1.00  0.00     0.188 HD
BRANCH  10  16
HETATM   16  N2  UNL     1      65.969  -0.279   5.959  1.00  0.00    -0.286 N 
ATOM     17  H2  UNL     1      65.228  -0.664   5.372  1.00  0.00     0.188 HD
BRANCH  16  18
HETATM   18  N1  UNL     1      65.946  -0.395   7.371  1.00  0.00    -0.343 N 
ATOM     19  H12 UNL     1      66.557   0.176   7.956  1.00  0.00     0.176 HD
ATOM     20  H11 UNL     1      65.289  -1.074   7.755  1.00  0.00     0.176 HD
ENDBRANCH  16  18
ENDBRANCH  10  16
ENDBRANCH   4   6
ENDBRANCH   1   4
BRANCH   1  21
HETATM   21  C3  UNL     1      69.496   5.107   2.812  1.00  0.00     0.080 A 
HETATM   22  C4  UNL     1      70.249   5.427   1.708  1.00  0.00     0.027 A 
HETATM   23  C5  UNL     1      69.665   6.165   0.709  1.00  0.00     0.031 A 
HETATM   24  C6  UNL     1      68.355   6.600   0.762  1.00  0.00     0.038 A 
HETATM   25  C10 UNL     1      67.618   6.273   1.866  1.00  0.00     0.031 A 
HETATM   26  C11 UNL     1      68.191   5.522   2.898  1.00  0.00     0.027 A 
BRANCH  24  27
HETATM   27  N6  UNL     1      67.860   7.335  -0.351  1.00  0.00    -0.304 N 
HETATM   28  C7  UNL     1      68.647   7.372  -1.598  1.00  0.00     0.257 A 
HETATM   29  N7  UNL     1      67.962   8.107  -2.606  1.00  0.00    -0.348 N 
HETATM   30  C8  UNL     1      66.845   8.725  -2.487  1.00  0.00     0.191 A 
ATOM     31  H7  UNL     1      68.408   8.147  -3.523  1.00  0.00     0.163 HD
HETATM   32  N8  UNL     1      66.277   9.433  -3.613  1.00  0.00    -0.063 NA
HETATM   33  N9  UNL     1      66.171   8.678  -1.251  1.00  0.00    -0.304 N 
HETATM   34  C9  UNL     1      66.634   8.035  -0.242  1.00  0.00     0.198 A 
ATOM     35  H9  UNL     1      65.283   9.172  -1.155  1.00  0.00     0.171 HD
HETATM   36  N10 UNL     1      65.910   8.052   1.011  1.00  0.00    -0.063 NA
ENDBRANCH  24  27
ENDBRANCH   1  21
TORSDOF 6
ENDMDL
MODEL 5
REMARK VINA RESULT: -8.350955409      1.811      2.582
REMARK  6 active torsions:
REMARK  status: ('A' for Active; 'I' for Inactive)
REMARK    1  A    between atoms: N1_1  and  N2_4 
REMARK    2  A    between atoms: N2_4  and  C1_6 
REMARK    3  A    between atoms: C2_11  and  N5_12 
REMARK    4  A    between atoms: N5_12  and  S1_14 
REMARK    5  A    between atoms: S1_14  and  C3_17 
REMARK    6  A    between atoms: C6_20  and  N6_21 
ROOT
HETATM    1  S1  UNL     1      69.768   3.892   4.500  1.00  0.00     0.276 S 
HETATM    2  O1  UNL     1      69.410   4.843   5.615  1.00  0.00    -0.200 OA
HETATM    3  O2  UNL     1      71.276   3.707   4.502  1.00  0.00    -0.200 OA
ENDROOT
BRANCH   1   4
HETATM    4  N5  UNL     1      69.055   2.357   4.689  1.00  0.00    -0.111 N 
ATOM      5  H5  UNL     1      69.641   1.564   4.950  1.00  0.00     0.197 HD
BRANCH   4   6
HETATM    6  C2  UNL     1      67.798   2.176   4.511  1.00  0.00     0.709 A 
HETATM    7  N4  UNL     1      66.922   2.974   5.183  1.00  0.00    -0.130 N 
HETATM    8  N3  UNL     1      65.614   2.852   5.053  1.00  0.00    -0.266 N 
ATOM      9  H4  UNL     1      67.290   3.692   5.807  1.00  0.00     0.205 HD
HETATM   10  C1  UNL     1      65.074   1.927   4.248  1.00  0.00     0.204 A 
ATOM     11  H3  UNL     1      65.001   3.476   5.578  1.00  0.00     0.189 HD
HETATM   12  C12 UNL     1      65.944   1.109   3.559  1.00  0.00     0.306 A 
HETATM   13  N11 UNL     1      67.291   1.239   3.696  1.00  0.00    -0.151 N 
HETATM   14  O3  UNL     1      65.436   0.241   2.804  1.00  0.00    -0.263 OA
ATOM     15  H11 UNL     1      67.917   0.623   3.177  1.00  0.00     0.188 HD
BRANCH  10  16
HETATM   16  N2  UNL     1      63.663   1.833   4.141  1.00  0.00    -0.286 N 
ATOM     17  H2  UNL     1      63.097   1.378   4.858  1.00  0.00     0.188 HD
BRANCH  16  18
HETATM   18  N1  UNL     1      63.085   2.410   2.982  1.00  0.00    -0.343 N 
ATOM     19  H12 UNL     1      62.931   1.855   2.140  1.00  0.00     0.176 HD
ATOM     20  H11 UNL     1      62.838   3.397   3.047  1.00  0.00     0.176 HD
ENDBRANCH  16  18
ENDBRANCH  10  16
ENDBRANCH   4   6
ENDBRANCH   1   4
BRANCH   1  21
HETATM   21  C3  UNL     1      69.249   4.647   3.006  1.00  0.00     0.080 A 
HETATM   22  C4  UNL     1      68.219   5.556   3.063  1.00  0.00     0.027 A 
HETATM   23  C5  UNL     1      67.807   6.151   1.897  1.00  0.00     0.031 A 
HETATM   24  C6  UNL     1      68.378   5.879   0.670  1.00  0.00     0.038 A 
HETATM   25  C10 UNL     1      69.402   4.974   0.629  1.00  0.00     0.031 A 
HETATM   26  C11 UNL     1      69.840   4.353   1.804  1.00  0.00     0.027 A 
BRANCH  24  27
HETATM   27  N6  UNL     1      67.878   6.583  -0.460  1.00  0.00    -0.304 N 
HETATM   28  C7  UNL     1      66.438   6.513  -0.774  1.00  0.00     0.257 A 
HETATM   29  N7  UNL     1      66.126   7.324  -1.902  1.00  0.00    -0.348 N 
HETATM   30  C8  UNL     1      66.948   7.994  -2.622  1.00  0.00     0.191 A 
ATOM     31  H7  UNL     1      65.142   7.377  -2.166  1.00  0.00     0.163 HD
HETATM   32  N8  UNL     1      66.472   8.773  -3.743  1.00  0.00    -0.063 NA
HETATM   33  N9  UNL     1      68.317   7.980  -2.283  1.00  0.00    -0.304 N 
HETATM   34  C9  UNL     1      68.766   7.322  -1.278  1.00  0.00     0.198 A 
ATOM     35  H9  UNL     1      68.971   8.511  -2.858  1.00  0.00     0.171 HD
HETATM   36  N10 UNL     1      70.187   7.322  -1.002  1.00  0.00    -0.063 NA
ENDBRANCH  24  27
ENDBRANCH   1  21
TORSDOF 6
ENDMDL
