MODEL 1
REMARK VINA RESULT: -8.415139870      0.000      0.000
REMARK  3 active torsions:
REMARK  status: ('A' for Active; 'I' for Inactive)
REMARK    1  A    between atoms: N5_15  and  N6_16 
REMARK    2  A    between atoms: N6_16  and  C6_18 
REMARK    3  A    between atoms: C6_18  and  C7_19 
ROOT
HETATM    1  N6  UNL     1      70.378   3.849   2.504  1.00  0.00    -0.320 N 
ATOM      2  H6  UNL     1      70.811   3.029   2.077  1.00  0.00     0.181 HD
ENDROOT
BRANCH   1   3
HETATM    3  N5  UNL     1      69.370   3.712   3.470  1.00  0.00    -0.237 N 
HETATM    4  C3  UNL     1      68.314   2.889   3.441  1.00  0.00     0.159 A 
HETATM    5  N3  UNL     1      67.899   1.990   2.544  1.00  0.00    -0.335 N 
HETATM    6  C4  UNL     1      67.571   3.076   4.594  1.00  0.00     0.123 A 
HETATM    7  C2  UNL     1      66.781   1.284   2.764  1.00  0.00     0.183 A 
ATOM      8  H3  UNL     1      68.435   1.841   1.689  1.00  0.00     0.168 HD
HETATM    9  N2  UNL     1      66.038   1.438   3.869  1.00  0.00    -0.337 N 
HETATM   10  C1  UNL     1      66.434   2.331   4.779  1.00  0.00     0.131 A 
ATOM     11  H2  UNL     1      65.192   0.888   4.010  1.00  0.00     0.168 HD
HETATM   12  N1  UNL     1      65.753   2.516   5.861  1.00  0.00    -0.383 N 
ATOM     13  H12 UNL     1      64.907   1.963   5.998  1.00  0.00     0.157 HD
ATOM     14  H11 UNL     1      66.054   3.199   6.557  1.00  0.00     0.157 HD
HETATM   15  N4  UNL     1      68.216   4.028   5.304  1.00  0.00    -0.345 N 
HETATM   16  C5  UNL     1      69.301   4.419   4.638  1.00  0.00     0.209 A 
ATOM     17  H4  UNL     1      67.917   4.391   6.209  1.00  0.00     0.167 HD
ENDBRANCH   1   3
BRANCH   1  18
HETATM   18  C6  UNL     1      70.784   5.183   2.129  1.00  0.00     0.216 C 
BRANCH  18  19
HETATM   19  C7  UNL     1      69.748   5.840   1.293  1.00  0.00     0.105 A 
HETATM   20  N7  UNL     1      70.071   6.221   0.022  1.00  0.00    -0.310 N 
HETATM   21  C8  UNL     1      69.174   6.821  -0.771  1.00  0.00     0.274 A 
ATOM     22  H7  UNL     1      71.013   6.046  -0.330  1.00  0.00     0.170 HD
HETATM   23  O1  UNL     1      69.428   7.188  -1.947  1.00  0.00    -0.266 OA
HETATM   24  C9  UNL     1      67.907   7.058  -0.303  1.00  0.00     0.198 A 
HETATM   25  C10 UNL     1      67.560   6.683   0.974  1.00  0.00     0.174 A 
HETATM   26  S1  UNL     1      66.685   7.846  -1.304  1.00  0.00     0.270 S 
HETATM   27  N8  UNL     1      68.506   6.074   1.748  1.00  0.00    -0.324 N 
HETATM   28  O2  UNL     1      66.282   6.936   1.410  1.00  0.00    -0.314 OA
ATOM     29  H8  UNL     1      68.264   5.791   2.697  1.00  0.00     0.169 HD
HETATM   30  C11 UNL     1      65.132   6.833   0.559  1.00  0.00     0.311 C 
HETATM   31  N9  UNL     1      65.242   7.917  -0.396  1.00  0.00    -0.293 N 
ATOM     32  H9  UNL     1      64.535   8.643  -0.512  1.00  0.00     0.174 HD
HETATM   33  O3  UNL     1      66.516   7.113  -2.603  1.00  0.00    -0.200 OA
HETATM   34  O4  UNL     1      67.152   9.247  -1.588  1.00  0.00    -0.200 OA
ENDBRANCH  18  19
ENDBRANCH   1  18
TORSDOF 3
ENDMDL
MODEL 2
REMARK VINA RESULT: -8.268218574      3.015      4.859
REMARK  3 active torsions:
REMARK  status: ('A' for Active; 'I' for Inactive)
REMARK    1  A    between atoms: N5_15  and  N6_16 
REMARK    2  A    between atoms: N6_16  and  C6_18 
REMARK    3  A    between atoms: C6_18  and  C7_19 
ROOT
HETATM    1  N6  UNL     1      67.473   5.940   2.174  1.00  0.00    -0.320 N 
ATOM      2  H6  UNL     1      67.035   5.369   2.897  1.00  0.00     0.181 HD
ENDROOT
BRANCH   1   3
HETATM    3  N5  UNL     1      68.833   5.793   1.863  1.00  0.00    -0.237 N 
HETATM    4  C3  UNL     1      69.782   5.202   2.601  1.00  0.00     0.159 A 
HETATM    5  N3  UNL     1      69.750   4.601   3.794  1.00  0.00    -0.335 N 
HETATM    6  C4  UNL     1      70.986   5.277   1.922  1.00  0.00     0.123 A 
HETATM    7  C2  UNL     1      70.868   4.082   4.319  1.00  0.00     0.183 A 
ATOM      8  H3  UNL     1      68.871   4.538   4.307  1.00  0.00     0.168 HD
HETATM    9  N2  UNL     1      72.051   4.137   3.690  1.00  0.00    -0.337 N 
HETATM   10  C1  UNL     1      72.107   4.733   2.496  1.00  0.00     0.131 A 
ATOM     11  H2  UNL     1      72.887   3.734   4.112  1.00  0.00     0.168 HD
HETATM   12  N1  UNL     1      73.223   4.810   1.849  1.00  0.00    -0.383 N 
ATOM     13  H12 UNL     1      74.056   4.405   2.276  1.00  0.00     0.157 HD
ATOM     14  H11 UNL     1      73.266   5.266   0.937  1.00  0.00     0.157 HD
HETATM   15  N4  UNL     1      70.724   5.926   0.766  1.00  0.00    -0.345 N 
HETATM   16  C5  UNL     1      69.431   6.241   0.718  1.00  0.00     0.209 A 
ATOM     17  H4  UNL     1      71.410   6.141   0.043  1.00  0.00     0.167 HD
ENDBRANCH   1   3
BRANCH   1  18
HETATM   18  C6  UNL     1      66.711   6.924   1.441  1.00  0.00     0.216 C 
BRANCH  18  19
HETATM   19  C7  UNL     1      65.934   6.288   0.346  1.00  0.00     0.105 A 
HETATM   20  N7  UNL     1      66.157   6.692  -0.940  1.00  0.00    -0.310 N 
HETATM   21  C8  UNL     1      65.480   6.154  -1.962  1.00  0.00     0.274 A 
ATOM     22  H7  UNL     1      66.850   7.418  -1.124  1.00  0.00     0.170 HD
HETATM   23  O1  UNL     1      65.652   6.495  -3.160  1.00  0.00    -0.266 OA
HETATM   24  C9  UNL     1      64.548   5.179  -1.718  1.00  0.00     0.198 A 
HETATM   25  C10 UNL     1      64.307   4.756  -0.432  1.00  0.00     0.174 A 
HETATM   26  S1  UNL     1      63.626   4.435  -3.028  1.00  0.00     0.270 S 
HETATM   27  N8  UNL     1      65.020   5.333   0.580  1.00  0.00    -0.324 N 
HETATM   28  O2  UNL     1      63.365   3.777  -0.224  1.00  0.00    -0.314 OA
ATOM     29  H8  UNL     1      64.853   5.031   1.540  1.00  0.00     0.169 HD
HETATM   30  C11 UNL     1      63.171   2.679  -1.126  1.00  0.00     0.311 C 
HETATM   31  N9  UNL     1      62.614   3.248  -2.336  1.00  0.00    -0.293 N 
ATOM     32  H9  UNL     1      61.716   2.969  -2.732  1.00  0.00     0.174 HD
HETATM   33  O3  UNL     1      64.549   3.874  -4.069  1.00  0.00    -0.200 OA
HETATM   34  O4  UNL     1      62.769   5.500  -3.654  1.00  0.00    -0.200 OA
ENDBRANCH  18  19
ENDBRANCH   1  18
TORSDOF 3
ENDMDL
MODEL 3
REMARK VINA RESULT: -8.217314750      1.151      1.298
REMARK  3 active torsions:
REMARK  status: ('A' for Active; 'I' for Inactive)
REMARK    1  A    between atoms: N5_15  and  N6_16 
REMARK    2  A    between atoms: N6_16  and  C6_18 
REMARK    3  A    between atoms: C6_18  and  C7_19 
ROOT
HETATM    1  N6  UNL     1      69.855   5.004   3.630  1.00  0.00    -0.320 N 
ATOM      2  H6  UNL     1      69.698   5.854   4.172  1.00  0.00     0.181 HD
ENDROOT
BRANCH   1   3
HETATM    3  N5  UNL     1      69.589   3.740   4.179  1.00  0.00    -0.237 N 
HETATM    4  C3  UNL     1      68.406   3.118   4.268  1.00  0.00     0.159 A 
HETATM    5  N3  UNL     1      67.174   3.472   3.892  1.00  0.00    -0.335 N 
HETATM    6  C4  UNL     1      68.593   1.889   4.878  1.00  0.00     0.123 A 
HETATM    7  C2  UNL     1      66.140   2.645   4.104  1.00  0.00     0.183 A 
ATOM      8  H3  UNL     1      67.020   4.374   3.442  1.00  0.00     0.168 HD
HETATM    9  N2  UNL     1      66.284   1.449   4.691  1.00  0.00    -0.337 N 
HETATM   10  C1  UNL     1      67.507   1.075   5.075  1.00  0.00     0.131 A 
ATOM     11  H2  UNL     1      65.480   0.840   4.840  1.00  0.00     0.168 HD
HETATM   12  N1  UNL     1      67.698  -0.070   5.645  1.00  0.00    -0.383 N 
ATOM     13  H12 UNL     1      66.891  -0.675   5.791  1.00  0.00     0.157 HD
ATOM     14  H11 UNL     1      68.632  -0.356   5.939  1.00  0.00     0.157 HD
HETATM   15  N4  UNL     1      69.915   1.802   5.145  1.00  0.00    -0.345 N 
HETATM   16  C5  UNL     1      70.526   2.909   4.729  1.00  0.00     0.209 A 
ATOM     17  H4  UNL     1      70.373   1.010   5.596  1.00  0.00     0.167 HD
ENDBRANCH   1   3
BRANCH   1  18
HETATM   18  C6  UNL     1      70.357   5.066   2.278  1.00  0.00     0.216 C 
BRANCH  18  19
HETATM   19  C7  UNL     1      69.407   5.782   1.390  1.00  0.00     0.105 A 
HETATM   20  N7  UNL     1      69.816   6.135   0.135  1.00  0.00    -0.310 N 
HETATM   21  C8  UNL     1      68.999   6.785  -0.703  1.00  0.00     0.274 A 
ATOM     22  H7  UNL     1      70.761   5.898  -0.169  1.00  0.00     0.170 HD
HETATM   23  O1  UNL     1      69.333   7.129  -1.865  1.00  0.00    -0.266 OA
HETATM   24  C9  UNL     1      67.729   7.105  -0.298  1.00  0.00     0.198 A 
HETATM   25  C10 UNL     1      67.295   6.760   0.961  1.00  0.00     0.174 A 
HETATM   26  S1  UNL     1      66.610   7.963  -1.361  1.00  0.00     0.270 S 
HETATM   27  N8  UNL     1      68.162   6.098   1.782  1.00  0.00    -0.324 N 
HETATM   28  O2  UNL     1      66.016   7.097   1.332  1.00  0.00    -0.314 OA
ATOM     29  H8  UNL     1      67.855   5.836   2.719  1.00  0.00     0.169 HD
HETATM   30  C11 UNL     1      64.906   7.062   0.425  1.00  0.00     0.311 C 
HETATM   31  N9  UNL     1      65.132   8.131  -0.526  1.00  0.00    -0.293 N 
ATOM     32  H9  UNL     1      64.479   8.900  -0.679  1.00  0.00     0.174 HD
HETATM   33  O3  UNL     1      66.458   7.235  -2.665  1.00  0.00    -0.200 OA
HETATM   34  O4  UNL     1      67.178   9.330  -1.625  1.00  0.00    -0.200 OA
ENDBRANCH  18  19
ENDBRANCH   1  18
TORSDOF 3
ENDMDL
MODEL 4
REMARK VINA RESULT: -8.184197558      3.825      7.194
REMARK  3 active torsions:
REMARK  status: ('A' for Active; 'I' for Inactive)
REMARK    1  A    between atoms: N5_15  and  N6_16 
REMARK    2  A    between atoms: N6_16  and  C6_18 
REMARK    3  A    between atoms: C6_18  and  C7_19 
ROOT
HETATM    1  N6  UNL     1      69.789   4.641   0.705  1.00  0.00    -0.320 N 
ATOM      2  H6  UNL     1      69.894   3.772   0.181  1.00  0.00     0.181 HD
ENDROOT
BRANCH   1   3
HETATM    3  N5  UNL     1      69.391   5.826   0.066  1.00  0.00    -0.237 N 
HETATM    4  C3  UNL     1      68.144   6.223  -0.220  1.00  0.00     0.159 A 
HETATM    5  N3  UNL     1      66.951   5.661  -0.008  1.00  0.00    -0.335 N 
HETATM    6  C4  UNL     1      68.202   7.452  -0.854  1.00  0.00     0.123 A 
HETATM    7  C2  UNL     1      65.832   6.284  -0.404  1.00  0.00     0.183 A 
ATOM      8  H3  UNL     1      66.891   4.755   0.457  1.00  0.00     0.168 HD
HETATM    9  N2  UNL     1      65.851   7.475  -1.019  1.00  0.00    -0.337 N 
HETATM   10  C1  UNL     1      67.033   8.054  -1.242  1.00  0.00     0.131 A 
ATOM     11  H2  UNL     1      64.984   7.926  -1.310  1.00  0.00     0.168 HD
HETATM   12  N1  UNL     1      67.104   9.203  -1.830  1.00  0.00    -0.383 N 
ATOM     13  H12 UNL     1      66.234   9.651  -2.119  1.00  0.00     0.157 HD
ATOM     14  H11 UNL     1      68.007   9.646  -2.001  1.00  0.00     0.157 HD
HETATM   15  N4  UNL     1      69.513   7.771  -0.933  1.00  0.00    -0.345 N 
HETATM   16  C5  UNL     1      70.240   6.799  -0.383  1.00  0.00     0.209 A 
ATOM     17  H4  UNL     1      69.888   8.623  -1.350  1.00  0.00     0.167 HD
ENDBRANCH   1   3
BRANCH   1  18
HETATM   18  C6  UNL     1      70.045   4.688   2.125  1.00  0.00     0.216 C 
BRANCH  18  19
HETATM   19  C7  UNL     1      69.292   3.625   2.838  1.00  0.00     0.105 A 
HETATM   20  N7  UNL     1      67.929   3.616   2.756  1.00  0.00    -0.310 N 
HETATM   21  C8  UNL     1      67.204   2.681   3.383  1.00  0.00     0.274 A 
ATOM     22  H7  UNL     1      67.455   4.334   2.208  1.00  0.00     0.170 HD
HETATM   23  O1  UNL     1      65.948   2.634   3.336  1.00  0.00    -0.266 OA
HETATM   24  C9  UNL     1      67.837   1.714   4.121  1.00  0.00     0.198 A 
HETATM   25  C10 UNL     1      69.209   1.704   4.217  1.00  0.00     0.174 A 
HETATM   26  S1  UNL     1      66.931   0.458   4.969  1.00  0.00     0.270 S 
HETATM   27  N8  UNL     1      69.909   2.677   3.561  1.00  0.00    -0.324 N 
HETATM   28  O2  UNL     1      69.810   0.720   4.964  1.00  0.00    -0.314 OA
ATOM     29  H8  UNL     1      70.927   2.682   3.623  1.00  0.00     0.169 HD
HETATM   30  C11 UNL     1      69.323  -0.628   5.015  1.00  0.00     0.311 C 
HETATM   31  N9  UNL     1      68.062  -0.573   5.724  1.00  0.00    -0.293 N 
ATOM     32  H9  UNL     1      67.870  -1.092   6.581  1.00  0.00     0.174 HD
HETATM   33  O3  UNL     1      66.026  -0.272   4.019  1.00  0.00    -0.200 OA
HETATM   34  O4  UNL     1      66.096   1.125   6.028  1.00  0.00    -0.200 OA
ENDBRANCH  18  19
ENDBRANCH   1  18
TORSDOF 3
ENDMDL
MODEL 5
REMARK VINA RESULT: -8.060105842      1.141      1.141
REMARK  3 active torsions:
REMARK  status: ('A' for Active; 'I' for Inactive)
REMARK    1  A    between atoms: N5_15  and  N6_16 
REMARK    2  A    between atoms: N6_16  and  C6_18 
REMARK    3  A    between atoms: C6_18  and  C7_19 
ROOT
HETATM    1  N6  UNL     1      70.367   4.348   3.350  1.00  0.00    -0.320 N 
ATOM      2  H6  UNL     1      71.170   4.734   3.847  1.00  0.00     0.181 HD
ENDROOT
BRANCH   1   3
HETATM    3  N5  UNL     1      69.155   4.108   4.014  1.00  0.00    -0.237 N 
HETATM    4  C3  UNL     1      68.515   2.940   4.156  1.00  0.00     0.159 A 
HETATM    5  N3  UNL     1      68.800   1.703   3.739  1.00  0.00    -0.335 N 
HETATM    6  C4  UNL     1      67.355   3.151   4.880  1.00  0.00     0.123 A 
HETATM    7  C2  UNL     1      67.972   0.688   4.021  1.00  0.00     0.183 A 
ATOM      8  H3  UNL     1      69.651   1.530   3.204  1.00  0.00     0.168 HD
HETATM    9  N2  UNL     1      66.841   0.856   4.720  1.00  0.00    -0.337 N 
HETATM   10  C1  UNL     1      66.536   2.084   5.147  1.00  0.00     0.131 A 
ATOM     11  H2  UNL     1      66.228   0.066   4.921  1.00  0.00     0.168 HD
HETATM   12  N1  UNL     1      65.456   2.297   5.825  1.00  0.00    -0.383 N 
ATOM     13  H12 UNL     1      64.847   1.503   6.024  1.00  0.00     0.157 HD
ATOM     14  H11 UNL     1      65.223   3.236   6.151  1.00  0.00     0.157 HD
HETATM   15  N4  UNL     1      67.326   4.472   5.163  1.00  0.00    -0.345 N 
HETATM   16  C5  UNL     1      68.404   5.060   4.647  1.00  0.00     0.209 A 
ATOM     17  H4  UNL     1      66.592   4.946   5.689  1.00  0.00     0.167 HD
ENDBRANCH   1   3
BRANCH   1  18
HETATM   18  C6  UNL     1      70.445   4.031   1.943  1.00  0.00     0.216 C 
BRANCH  18  19
HETATM   19  C7  UNL     1      69.447   4.809   1.166  1.00  0.00     0.105 A 
HETATM   20  N7  UNL     1      69.889   5.773   0.305  1.00  0.00    -0.310 N 
HETATM   21  C8  UNL     1      69.030   6.504  -0.416  1.00  0.00     0.274 A 
ATOM     22  H7  UNL     1      70.891   5.937   0.209  1.00  0.00     0.170 HD
HETATM   23  O1  UNL     1      69.392   7.400  -1.220  1.00  0.00    -0.266 OA
HETATM   24  C9  UNL     1      67.682   6.285  -0.290  1.00  0.00     0.198 A 
HETATM   25  C10 UNL     1      67.215   5.321   0.572  1.00  0.00     0.174 A 
HETATM   26  S1  UNL     1      66.505   7.222  -1.215  1.00  0.00     0.270 S 
HETATM   27  N8  UNL     1      68.127   4.598   1.287  1.00  0.00    -0.324 N 
HETATM   28  O2  UNL     1      65.858   5.129   0.673  1.00  0.00    -0.314 OA
ATOM     29  H8  UNL     1      67.795   3.879   1.930  1.00  0.00     0.169 HD
HETATM   30  C11 UNL     1      64.971   5.229  -0.450  1.00  0.00     0.311 C 
HETATM   31  N9  UNL     1      64.953   6.629  -0.823  1.00  0.00    -0.293 N 
ATOM     32  H9  UNL     1      64.107   7.198  -0.848  1.00  0.00     0.174 HD
HETATM   33  O3  UNL     1      66.802   7.139  -2.683  1.00  0.00    -0.200 OA
HETATM   34  O4  UNL     1      66.604   8.656  -0.773  1.00  0.00    -0.200 OA
ENDBRANCH  18  19
ENDBRANCH   1  18
TORSDOF 3
ENDMDL
