MODEL 1
REMARK VINA RESULT: -8.007013886      0.000      0.000
REMARK  9 active torsions:
REMARK  status: ('A' for Active; 'I' for Inactive)
REMARK    1  A    between atoms: N1_1  and  S1_4 
REMARK    2  A    between atoms: S1_4  and  N2_5 
REMARK    3  A    between atoms: S1_4  and  C1_9 
REMARK    4  A    between atoms: C4_12  and  N3_13 
REMARK    5  A    between atoms: C5_18  and  C6_19 
REMARK    6  A    between atoms: N7_21  and  O2_23 
REMARK    7  A    between atoms: C7_25  and  O3_26 
REMARK    8  A    between atoms: C8_30  and  S2_31 
REMARK    9  A    between atoms: S2_31  and  N9_32 
ROOT
HETATM    1  C1  UNL     1      68.349   4.814   2.753  1.00  0.00     0.098 A 
HETATM    2  C2  UNL     1      67.128   5.214   2.255  1.00  0.00     0.030 A 
HETATM    3  C3  UNL     1      67.014   5.930   1.091  1.00  0.00     0.052 A 
HETATM    4  C4  UNL     1      68.178   6.241   0.423  1.00  0.00     0.132 A 
HETATM    5  N8  UNL     1      69.349   5.854   0.908  1.00  0.00    -0.329 N 
ATOM      6  H8  UNL     1      70.190   6.103   0.387  1.00  0.00     0.168 HD
HETATM    7  C8  UNL     1      69.498   5.143   2.059  1.00  0.00     0.172 A 
ENDROOT
BRANCH   4   8
HETATM    8  N3  UNL     1      68.041   6.990  -0.793  1.00  0.00    -0.201 N 
HETATM    9  N4  UNL     1      68.991   7.762  -1.248  1.00  0.00    -0.232 N 
HETATM   10  N5  UNL     1      68.607   8.318  -2.358  1.00  0.00    -0.279 N 
ATOM     11  H4  UNL     1      69.896   7.907  -0.800  1.00  0.00     0.209 HD
HETATM   12  C5  UNL     1      67.337   7.895  -2.658  1.00  0.00     0.145 A 
ATOM     13  H5  UNL     1      69.162   8.966  -2.917  1.00  0.00     0.189 HD
HETATM   14  C7  UNL     1      67.011   7.047  -1.633  1.00  0.00     0.197 A 
BRANCH  12  15
HETATM   15  C6  UNL     1      66.576   8.300  -3.819  1.00  0.00     0.168 C 
HETATM   16  N6  UNL     1      66.687   9.719  -4.160  1.00  0.00    -0.078 NA
HETATM   17  N7  UNL     1      65.849   7.602  -4.556  1.00  0.00    -0.253 N 
ATOM     18  H7  UNL     1      65.436   8.159  -5.305  1.00  0.00     0.195 HD
BRANCH  17  19
HETATM   19  O2  UNL     1      65.469   6.339  -4.632  1.00  0.00    -0.288 OA
ATOM     20  H2  UNL     1      65.439   5.656  -5.291  1.00  0.00     0.244 HD
ENDBRANCH  17  19
ENDBRANCH  12  15
BRANCH  14  21
HETATM   21  O3  UNL     1      65.819   6.337  -1.450  1.00  0.00    -0.343 OA
ATOM     22  H3  UNL     1      64.955   6.728  -1.519  1.00  0.00     0.219 HD
ENDBRANCH  14  21
ENDBRANCH   4   8
BRANCH   7  23
HETATM   23  S2  UNL     1      71.093   4.735   2.562  1.00  0.00     0.274 S 
HETATM   24  O4  UNL     1      71.401   4.833   3.990  1.00  0.00    -0.199 OA
HETATM   25  O5  UNL     1      71.338   3.268   2.192  1.00  0.00    -0.199 OA
BRANCH  23  26
HETATM   26  N9  UNL     1      72.259   5.583   1.572  1.00  0.00    -0.323 N 
ATOM     27  H92 UNL     1      73.129   5.983   1.923  1.00  0.00     0.169 HD
ATOM     28  H91 UNL     1      71.935   5.611   0.605  1.00  0.00     0.169 HD
ENDBRANCH  23  26
ENDBRANCH   7  23
BRANCH   1  29
HETATM   29  S1  UNL     1      68.453   3.891   4.226  1.00  0.00     0.133 S 
HETATM   30  O1  UNL     1      69.100   2.527   4.001  1.00  0.00    -0.224 OA
BRANCH  29  31
HETATM   31  N1  UNL     1      69.027   4.646   5.421  1.00  0.00    -0.341 N 
ATOM     32  H12 UNL     1      68.495   5.179   6.108  1.00  0.00     0.167 HD
ATOM     33  H11 UNL     1      70.037   4.507   5.383  1.00  0.00     0.167 HD
ENDBRANCH  29  31
BRANCH  29  34
HETATM   34  N2  UNL     1      66.814   3.447   4.673  1.00  0.00    -0.341 N 
ATOM     35  H22 UNL     1      66.172   4.003   5.238  1.00  0.00     0.167 HD
ATOM     36  H21 UNL     1      66.645   2.532   4.256  1.00  0.00     0.167 HD
ENDBRANCH  29  34
ENDBRANCH   1  29
TORSDOF 9
ENDMDL
MODEL 2
REMARK VINA RESULT: -7.985621382      3.310      7.937
REMARK  9 active torsions:
REMARK  status: ('A' for Active; 'I' for Inactive)
REMARK    1  A    between atoms: N1_1  and  S1_4 
REMARK    2  A    between atoms: S1_4  and  N2_5 
REMARK    3  A    between atoms: S1_4  and  C1_9 
REMARK    4  A    between atoms: C4_12  and  N3_13 
REMARK    5  A    between atoms: C5_18  and  C6_19 
REMARK    6  A    between atoms: N7_21  and  O2_23 
REMARK    7  A    between atoms: C7_25  and  O3_26 
REMARK    8  A    between atoms: C8_30  and  S2_31 
REMARK    9  A    between atoms: S2_31  and  N9_32 
ROOT
HETATM    1  C1  UNL     1      67.365   6.338  -0.390  1.00  0.00     0.098 A 
HETATM    2  C2  UNL     1      68.651   5.954  -0.076  1.00  0.00     0.030 A 
HETATM    3  C3  UNL     1      68.915   4.980   0.851  1.00  0.00     0.052 A 
HETATM    4  C4  UNL     1      67.837   4.386   1.470  1.00  0.00     0.132 A 
HETATM    5  N8  UNL     1      66.603   4.761   1.165  1.00  0.00    -0.329 N 
ATOM      6  H8  UNL     1      65.830   4.300   1.644  1.00  0.00     0.168 HD
HETATM    7  C8  UNL     1      66.305   5.724   0.250  1.00  0.00     0.172 A 
ENDROOT
BRANCH   4   8
HETATM    8  N3  UNL     1      68.131   3.368   2.438  1.00  0.00    -0.201 N 
HETATM    9  N4  UNL     1      69.339   2.908   2.622  1.00  0.00    -0.232 N 
HETATM   10  N5  UNL     1      69.324   2.000   3.550  1.00  0.00    -0.279 N 
ATOM     11  H4  UNL     1      70.169   3.216   2.114  1.00  0.00     0.209 HD
HETATM   12  C5  UNL     1      68.039   1.846   4.008  1.00  0.00     0.145 A 
ATOM     13  H5  UNL     1      70.137   1.483   3.886  1.00  0.00     0.189 HD
HETATM   14  C7  UNL     1      67.307   2.738   3.271  1.00  0.00     0.197 A 
BRANCH  12  15
HETATM   15  C6  UNL     1      67.629   0.923   5.044  1.00  0.00     0.168 C 
HETATM   16  N6  UNL     1      66.260   1.110   5.524  1.00  0.00    -0.078 NA
HETATM   17  N7  UNL     1      68.287   0.001   5.570  1.00  0.00    -0.253 N 
ATOM     18  H7  UNL     1      67.738  -0.490   6.277  1.00  0.00     0.195 HD
BRANCH  17  19
HETATM   19  O2  UNL     1      69.499  -0.513   5.461  1.00  0.00    -0.288 OA
ATOM     20  H2  UNL     1      69.976  -1.056   4.844  1.00  0.00     0.244 HD
ENDBRANCH  17  19
ENDBRANCH  12  15
BRANCH  14  21
HETATM   21  O3  UNL     1      65.932   2.987   3.341  1.00  0.00    -0.343 OA
ATOM     22  H3  UNL     1      65.461   3.128   4.154  1.00  0.00     0.219 HD
ENDBRANCH  14  21
ENDBRANCH   4   8
BRANCH   7  23
HETATM   23  S2  UNL     1      64.648   6.107  -0.016  1.00  0.00     0.274 S 
HETATM   24  O4  UNL     1      64.278   7.523  -0.066  1.00  0.00    -0.199 OA
HETATM   25  O5  UNL     1      64.251   5.535  -1.381  1.00  0.00    -0.199 OA
BRANCH  23  26
HETATM   26  N9  UNL     1      63.646   5.197   1.091  1.00  0.00    -0.323 N 
ATOM     27  H92 UNL     1      63.815   5.127   2.094  1.00  0.00     0.169 HD
ATOM     28  H91 UNL     1      62.880   4.757   0.581  1.00  0.00     0.169 HD
ENDBRANCH  23  26
ENDBRANCH   7  23
BRANCH   1  29
HETATM   29  S1  UNL     1      67.067   7.568  -1.586  1.00  0.00     0.133 S 
HETATM   30  O1  UNL     1      66.284   7.028  -2.779  1.00  0.00    -0.224 OA
BRANCH  29  31
HETATM   31  N1  UNL     1      66.512   8.880  -1.037  1.00  0.00    -0.341 N 
ATOM     32  H12 UNL     1      66.655   9.808  -1.436  1.00  0.00     0.167 HD
ATOM     33  H11 UNL     1      65.978   8.633  -0.204  1.00  0.00     0.167 HD
ENDBRANCH  29  31
BRANCH  29  34
HETATM   34  N2  UNL     1      68.615   7.963  -2.315  1.00  0.00    -0.341 N 
ATOM     35  H22 UNL     1      68.758   8.417  -3.218  1.00  0.00     0.167 HD
ATOM     36  H21 UNL     1      69.327   7.648  -1.656  1.00  0.00     0.167 HD
ENDBRANCH  29  34
ENDBRANCH   1  29
TORSDOF 9
ENDMDL
MODEL 3
REMARK VINA RESULT: -7.953791891      2.944      7.570
REMARK  9 active torsions:
REMARK  status: ('A' for Active; 'I' for Inactive)
REMARK    1  A    between atoms: N1_1  and  S1_4 
REMARK    2  A    between atoms: S1_4  and  N2_5 
REMARK    3  A    between atoms: S1_4  and  C1_9 
REMARK    4  A    between atoms: C4_12  and  N3_13 
REMARK    5  A    between atoms: C5_18  and  C6_19 
REMARK    6  A    between atoms: N7_21  and  O2_23 
REMARK    7  A    between atoms: C7_25  and  O3_26 
REMARK    8  A    between atoms: C8_30  and  S2_31 
REMARK    9  A    between atoms: S2_31  and  N9_32 
ROOT
HETATM    1  C1  UNL     1      67.688   7.065  -1.209  1.00  0.00     0.098 A 
HETATM    2  C2  UNL     1      69.043   6.865  -1.053  1.00  0.00     0.030 A 
HETATM    3  C3  UNL     1      69.556   6.113  -0.028  1.00  0.00     0.052 A 
HETATM    4  C4  UNL     1      68.660   5.554   0.857  1.00  0.00     0.132 A 
HETATM    5  N8  UNL     1      67.358   5.751   0.702  1.00  0.00    -0.329 N 
ATOM      6  H8  UNL     1      66.725   5.323   1.377  1.00  0.00     0.168 HD
HETATM    7  C8  UNL     1      66.816   6.491  -0.304  1.00  0.00     0.172 A 
ENDROOT
BRANCH   4   8
HETATM    8  N3  UNL     1      69.213   4.770   1.924  1.00  0.00    -0.201 N 
HETATM    9  N4  UNL     1      70.273   5.145   2.588  1.00  0.00    -0.232 N 
HETATM   10  N5  UNL     1      70.557   4.257   3.493  1.00  0.00    -0.279 N 
ATOM     11  H4  UNL     1      70.797   6.004   2.422  1.00  0.00     0.209 HD
HETATM   12  C5  UNL     1      69.640   3.239   3.428  1.00  0.00     0.145 A 
ATOM     13  H5  UNL     1      71.338   4.309   4.147  1.00  0.00     0.189 HD
HETATM   14  C7  UNL     1      68.798   3.605   2.412  1.00  0.00     0.197 A 
BRANCH  12  15
HETATM   15  C6  UNL     1      69.632   2.070   4.280  1.00  0.00     0.168 C 
HETATM   16  N6  UNL     1      70.353   2.227   5.544  1.00  0.00    -0.078 NA
HETATM   17  N7  UNL     1      69.094   0.961   4.076  1.00  0.00    -0.253 N 
ATOM     18  H7  UNL     1      69.253   0.322   4.856  1.00  0.00     0.195 HD
BRANCH  17  19
HETATM   19  O2  UNL     1      68.376   0.389   3.127  1.00  0.00    -0.288 OA
ATOM     20  H2  UNL     1      68.291  -0.473   2.737  1.00  0.00     0.244 HD
ENDBRANCH  17  19
ENDBRANCH  12  15
BRANCH  14  21
HETATM   21  O3  UNL     1      67.680   2.913   1.931  1.00  0.00    -0.343 OA
ATOM     22  H3  UNL     1      67.193   2.276   2.440  1.00  0.00     0.219 HD
ENDBRANCH  14  21
ENDBRANCH   4   8
BRANCH   7  23
HETATM   23  S2  UNL     1      65.104   6.666  -0.351  1.00  0.00     0.274 S 
HETATM   24  O4  UNL     1      64.563   8.021  -0.476  1.00  0.00    -0.199 OA
HETATM   25  O5  UNL     1      64.591   5.908  -1.580  1.00  0.00    -0.199 OA
BRANCH  23  26
HETATM   26  N9  UNL     1      64.383   5.784   0.975  1.00  0.00    -0.323 N 
ATOM     27  H92 UNL     1      64.201   6.179   1.898  1.00  0.00     0.169 HD
ATOM     28  H91 UNL     1      64.178   4.828   0.683  1.00  0.00     0.169 HD
ENDBRANCH  23  26
ENDBRANCH   7  23
BRANCH   1  29
HETATM   29  S1  UNL     1      67.072   8.012  -2.534  1.00  0.00     0.133 S 
HETATM   30  O1  UNL     1      66.111   7.213  -3.410  1.00  0.00    -0.224 OA
BRANCH  29  31
HETATM   31  N1  UNL     1      66.542   9.390  -2.150  1.00  0.00    -0.341 N 
ATOM     32  H12 UNL     1      66.626  10.243  -2.702  1.00  0.00     0.167 HD
ATOM     33  H11 UNL     1      66.094   9.276  -1.240  1.00  0.00     0.167 HD
ENDBRANCH  29  31
BRANCH  29  34
HETATM   34  N2  UNL     1      68.413   8.296  -3.632  1.00  0.00    -0.341 N 
ATOM     35  H22 UNL     1      68.445   8.992  -4.377  1.00  0.00     0.167 HD
ATOM     36  H21 UNL     1      69.139   7.629  -3.370  1.00  0.00     0.167 HD
ENDBRANCH  29  34
ENDBRANCH   1  29
TORSDOF 9
ENDMDL
MODEL 4
REMARK VINA RESULT: -7.950585707      2.160      3.171
REMARK  9 active torsions:
REMARK  status: ('A' for Active; 'I' for Inactive)
REMARK    1  A    between atoms: N1_1  and  S1_4 
REMARK    2  A    between atoms: S1_4  and  N2_5 
REMARK    3  A    between atoms: S1_4  and  C1_9 
REMARK    4  A    between atoms: C4_12  and  N3_13 
REMARK    5  A    between atoms: C5_18  and  C6_19 
REMARK    6  A    between atoms: N7_21  and  O2_23 
REMARK    7  A    between atoms: C7_25  and  O3_26 
REMARK    8  A    between atoms: C8_30  and  S2_31 
REMARK    9  A    between atoms: S2_31  and  N9_32 
ROOT
HETATM    1  C1  UNL     1      67.520   4.302   2.607  1.00  0.00     0.098 A 
HETATM    2  C2  UNL     1      68.329   5.417   2.572  1.00  0.00     0.030 A 
HETATM    3  C3  UNL     1      68.332   6.283   1.509  1.00  0.00     0.052 A 
HETATM    4  C4  UNL     1      67.487   5.998   0.458  1.00  0.00     0.132 A 
HETATM    5  N8  UNL     1      66.713   4.923   0.499  1.00  0.00    -0.329 N 
ATOM      6  H8  UNL     1      66.101   4.744  -0.297  1.00  0.00     0.168 HD
HETATM    7  C8  UNL     1      66.684   4.044   1.538  1.00  0.00     0.172 A 
ENDROOT
BRANCH   4   8
HETATM    8  N3  UNL     1      67.503   6.913  -0.646  1.00  0.00    -0.201 N 
HETATM    9  N4  UNL     1      68.414   7.840  -0.772  1.00  0.00    -0.232 N 
HETATM   10  N5  UNL     1      68.195   8.524  -1.854  1.00  0.00    -0.279 N 
ATOM     11  H4  UNL     1      69.182   8.001  -0.120  1.00  0.00     0.209 HD
HETATM   12  C5  UNL     1      67.079   8.028  -2.481  1.00  0.00     0.145 A 
ATOM     13  H5  UNL     1      68.761   9.306  -2.184  1.00  0.00     0.189 HD
HETATM   14  C7  UNL     1      66.667   6.999  -1.677  1.00  0.00     0.197 A 
BRANCH  12  15
HETATM   15  C6  UNL     1      66.524   8.535  -3.717  1.00  0.00     0.168 C 
HETATM   16  N6  UNL     1      66.661   9.980  -3.903  1.00  0.00    -0.078 NA
HETATM   17  N7  UNL     1      65.953   7.904  -4.631  1.00  0.00    -0.253 N 
ATOM     18  H7  UNL     1      65.664   8.526  -5.387  1.00  0.00     0.195 HD
BRANCH  17  19
HETATM   19  O2  UNL     1      65.621   6.652  -4.886  1.00  0.00    -0.288 OA
ATOM     20  H2  UNL     1      65.622   6.066  -5.635  1.00  0.00     0.244 HD
ENDBRANCH  17  19
ENDBRANCH  12  15
BRANCH  14  21
HETATM   21  O3  UNL     1      65.567   6.154  -1.860  1.00  0.00    -0.343 OA
ATOM     22  H3  UNL     1      65.630   5.271  -2.206  1.00  0.00     0.219 HD
ENDBRANCH  14  21
ENDBRANCH   4   8
BRANCH   7  23
HETATM   23  S2  UNL     1      65.634   2.684   1.424  1.00  0.00     0.274 S 
HETATM   24  O4  UNL     1      66.145   1.391   1.882  1.00  0.00    -0.199 OA
HETATM   25  O5  UNL     1      64.407   2.969   2.296  1.00  0.00    -0.199 OA
BRANCH  23  26
HETATM   26  N9  UNL     1      64.954   2.597  -0.185  1.00  0.00    -0.323 N 
ATOM     27  H92 UNL     1      64.983   1.768  -0.777  1.00  0.00     0.169 HD
ATOM     28  H91 UNL     1      64.530   3.493  -0.429  1.00  0.00     0.169 HD
ENDBRANCH  23  26
ENDBRANCH   7  23
BRANCH   1  29
HETATM   29  S1  UNL     1      67.530   3.235   3.983  1.00  0.00     0.133 S 
HETATM   30  O1  UNL     1      68.434   3.750   5.100  1.00  0.00    -0.224 OA
BRANCH  29  31
HETATM   31  N1  UNL     1      66.152   2.796   4.470  1.00  0.00    -0.341 N 
ATOM     32  H12 UNL     1      65.679   1.925   4.232  1.00  0.00     0.167 HD
ATOM     33  H11 UNL     1      65.814   3.548   5.071  1.00  0.00     0.167 HD
ENDBRANCH  29  31
BRANCH  29  34
HETATM   34  N2  UNL     1      68.362   1.768   3.492  1.00  0.00    -0.341 N 
ATOM     35  H22 UNL     1      67.966   1.008   2.939  1.00  0.00     0.167 HD
ATOM     36  H21 UNL     1      69.306   1.837   3.871  1.00  0.00     0.167 HD
ENDBRANCH  29  34
ENDBRANCH   1  29
TORSDOF 9
ENDMDL
MODEL 5
REMARK VINA RESULT: -7.863692358      1.859      3.016
REMARK  9 active torsions:
REMARK  status: ('A' for Active; 'I' for Inactive)
REMARK    1  A    between atoms: N1_1  and  S1_4 
REMARK    2  A    between atoms: S1_4  and  N2_5 
REMARK    3  A    between atoms: S1_4  and  C1_9 
REMARK    4  A    between atoms: C4_12  and  N3_13 
REMARK    5  A    between atoms: C5_18  and  C6_19 
REMARK    6  A    between atoms: N7_21  and  O2_23 
REMARK    7  A    between atoms: C7_25  and  O3_26 
REMARK    8  A    between atoms: C8_30  and  S2_31 
REMARK    9  A    between atoms: S2_31  and  N9_32 
ROOT
HETATM    1  C1  UNL     1      69.633   4.540   2.471  1.00  0.00     0.098 A 
HETATM    2  C2  UNL     1      70.506   5.430   1.883  1.00  0.00     0.030 A 
HETATM    3  C3  UNL     1      70.154   6.184   0.792  1.00  0.00     0.052 A 
HETATM    4  C4  UNL     1      68.880   6.020   0.294  1.00  0.00     0.132 A 
HETATM    5  N8  UNL     1      68.046   5.162   0.865  1.00  0.00    -0.329 N 
ATOM      6  H8  UNL     1      67.111   5.067   0.468  1.00  0.00     0.168 HD
HETATM    7  C8  UNL     1      68.362   4.399   1.947  1.00  0.00     0.172 A 
ENDROOT
BRANCH   4   8
HETATM    8  N3  UNL     1      68.528   6.816  -0.846  1.00  0.00    -0.201 N 
HETATM    9  N4  UNL     1      69.369   7.642  -1.407  1.00  0.00    -0.232 N 
HETATM   10  N5  UNL     1      68.797   8.231  -2.414  1.00  0.00    -0.279 N 
ATOM     11  H4  UNL     1      70.330   7.800  -1.102  1.00  0.00     0.209 HD
HETATM   12  C5  UNL     1      67.508   7.775  -2.529  1.00  0.00     0.145 A 
ATOM     13  H5  UNL     1      69.237   8.923  -3.021  1.00  0.00     0.189 HD
HETATM   14  C7  UNL     1      67.376   6.872  -1.508  1.00  0.00     0.197 A 
BRANCH  12  15
HETATM   15  C6  UNL     1      66.560   8.203  -3.534  1.00  0.00     0.168 C 
HETATM   16  N6  UNL     1      65.782   7.123  -4.142  1.00  0.00    -0.078 NA
HETATM   17  N7  UNL     1      66.325   9.360  -3.940  1.00  0.00    -0.253 N 
ATOM     18  H7  UNL     1      65.601   9.361  -4.659  1.00  0.00     0.195 HD
BRANCH  17  19
HETATM   19  O2  UNL     1      66.759  10.583  -3.695  1.00  0.00    -0.288 OA
ATOM     20  H2  UNL     1      66.844  11.157  -2.943  1.00  0.00     0.244 HD
ENDBRANCH  17  19
ENDBRANCH  12  15
BRANCH  14  21
HETATM   21  O3  UNL     1      66.249   6.112  -1.174  1.00  0.00    -0.343 OA
ATOM     22  H3  UNL     1      65.582   6.397  -0.560  1.00  0.00     0.219 HD
ENDBRANCH  14  21
ENDBRANCH   4   8
BRANCH   7  23
HETATM   23  S2  UNL     1      67.170   3.316   2.554  1.00  0.00     0.274 S 
HETATM   24  O4  UNL     1      67.434   1.881   2.440  1.00  0.00    -0.199 OA
HETATM   25  O5  UNL     1      67.018   3.584   4.056  1.00  0.00    -0.199 OA
BRANCH  23  26
HETATM   26  N9  UNL     1      65.598   3.754   1.924  1.00  0.00    -0.323 N 
ATOM     27  H92 UNL     1      65.412   3.971   0.945  1.00  0.00     0.169 HD
ATOM     28  H91 UNL     1      64.913   3.758   2.679  1.00  0.00     0.169 HD
ENDBRANCH  23  26
ENDBRANCH   7  23
BRANCH   1  29
HETATM   29  S1  UNL     1      70.109   3.613   3.866  1.00  0.00     0.133 S 
HETATM   30  O1  UNL     1      69.542   4.192   5.159  1.00  0.00    -0.224 OA
BRANCH  29  31
HETATM   31  N1  UNL     1      69.911   2.106   3.736  1.00  0.00    -0.341 N 
ATOM     32  H12 UNL     1      70.351   1.388   4.313  1.00  0.00     0.167 HD
ATOM     33  H11 UNL     1      69.258   1.973   2.965  1.00  0.00     0.167 HD
ENDBRANCH  29  31
BRANCH  29  34
HETATM   34  N2  UNL     1      71.835   3.859   4.084  1.00  0.00    -0.341 N 
ATOM     35  H22 UNL     1      72.578   3.447   3.521  1.00  0.00     0.167 HD
ATOM     36  H21 UNL     1      71.931   4.490   4.880  1.00  0.00     0.167 HD
ENDBRANCH  29  34
ENDBRANCH   1  29
TORSDOF 9
ENDMDL
