MODEL 1
REMARK VINA RESULT: -7.020086489      0.000      0.000
REMARK  12 active torsions:
REMARK  status: ('A' for Active; 'I' for Inactive)
REMARK    1  A    between atoms: C2_2  and  C3_3 
REMARK    2  A    between atoms: C3_3  and  N1_4 
REMARK    3  A    between atoms: C6_9  and  N3_10 
REMARK    4  A    between atoms: N3_10  and  C7_12 
REMARK    5  A    between atoms: C7_12  and  C8_13 
REMARK    6  A    between atoms: C8_13  and  C9_14 
REMARK    7  A    between atoms: C9_14  and  N4_15 
REMARK    8  A    between atoms: C12_23  and  C13_24 
REMARK    9  A    between atoms: C13_24  and  O1_25 
REMARK   10  A    between atoms: O1_25  and  C14_26 
REMARK   11  A    between atoms: C14_26  and  C15_27 
REMARK   12  A    between atoms: C18_30  and  C19_31 
ROOT
HETATM    1  N1  UNL     1       8.116  -1.563 -18.897  1.00  0.00    -0.284 N 
HETATM    2  N2  UNL     1       8.993  -2.084 -18.027  1.00  0.00    -0.295 N 
ATOM      3  H2  UNL     1       9.299  -1.621 -17.171  1.00  0.00     0.187 HD
HETATM    4  C4  UNL     1       9.409  -3.273 -18.420  1.00  0.00     0.079 A 
HETATM    5  C5  UNL     1      10.290  -4.237 -17.916  1.00  0.00     0.064 A 
HETATM    6  C6  UNL     1      10.524  -5.421 -18.575  1.00  0.00     0.045 A 
HETATM    7  C10 UNL     1       9.850  -5.621 -19.759  1.00  0.00     0.117 A 
HETATM    8  N5  UNL     1       8.997  -4.704 -20.259  1.00  0.00    -0.360 N 
ATOM      9  H5  UNL     1       8.512  -4.883 -21.138  1.00  0.00     0.165 HD
HETATM   10  C11 UNL     1       8.784  -3.549 -19.596  1.00  0.00     0.091 A 
HETATM   11  C12 UNL     1       7.953  -2.424 -19.881  1.00  0.00     0.102 A 
ENDROOT
BRANCH  11  12
HETATM   12  C13 UNL     1       7.235  -2.414 -21.144  1.00  0.00     0.168 C 
BRANCH  12  13
HETATM   13  O1  UNL     1       6.761  -3.427 -21.809  1.00  0.00    -0.356 OA
BRANCH  13  14
HETATM   14  C14 UNL     1       5.591  -4.050 -21.603  1.00  0.00     0.213 C 
BRANCH  14  15
HETATM   15  C15 UNL     1       5.753  -5.284 -20.726  1.00  0.00    -0.034 A 
HETATM   16  C16 UNL     1       5.531  -5.226 -19.368  1.00  0.00     0.010 A 
HETATM   17  C17 UNL     1       5.680  -6.338 -18.566  1.00  0.00     0.017 A 
HETATM   18  C18 UNL     1       6.056  -7.559 -19.093  1.00  0.00     0.029 A 
HETATM   19  C20 UNL     1       6.277  -7.612 -20.455  1.00  0.00     0.017 A 
HETATM   20  C21 UNL     1       6.128  -6.496 -21.257  1.00  0.00     0.010 A 
BRANCH  18  21
HETATM   21  C19 UNL     1       6.217  -8.743 -18.258  1.00  0.00     0.264 C 
HETATM   22  N6  UNL     1       6.930  -9.865 -18.728  1.00  0.00    -0.057 NA
HETATM   23  O2  UNL     1       5.713  -8.760 -17.105  1.00  0.00    -0.271 OA
ENDBRANCH  18  21
ENDBRANCH  14  15
ENDBRANCH  13  14
ENDBRANCH  12  13
ENDBRANCH  11  12
BRANCH   1  24
HETATM   24  C3  UNL     1       7.520  -0.258 -18.625  1.00  0.00     0.176 C 
BRANCH  24  25
HETATM   25  C2  UNL     1       7.278  -0.030 -17.174  1.00  0.00    -0.015 C 
HETATM   26  C1  UNL     1       8.080   0.720 -16.427  1.00  0.00     0.008 C 
ENDBRANCH  24  25
ENDBRANCH   1  24
BRANCH   6  27
HETATM   27  N3  UNL     1      11.416  -6.411 -18.078  1.00  0.00    -0.389 N 
ATOM     28  H3  UNL     1      12.235  -6.693 -18.619  1.00  0.00     0.159 HD
BRANCH  27  29
HETATM   29  C7  UNL     1      11.139  -7.009 -16.794  1.00  0.00     0.121 C 
BRANCH  29  30
HETATM   30  C8  UNL     1       9.820  -7.735 -16.758  1.00  0.00     0.047 C 
BRANCH  30  31
HETATM   31  C9  UNL     1       9.009  -7.215 -15.600  1.00  0.00     0.231 C 
BRANCH  31  32
HETATM   32  N4  UNL     1       8.106  -8.267 -15.140  1.00  0.00    -0.079 N 
ATOM     33  H43 UNL     1       8.585  -9.156 -15.000  1.00  0.00     0.274 HD
ATOM     34  H42 UNL     1       7.795  -8.120 -14.180  1.00  0.00     0.274 HD
ATOM     35  H41 UNL     1       7.326  -8.344 -15.793  1.00  0.00     0.274 HD
ENDBRANCH  31  32
ENDBRANCH  30  31
ENDBRANCH  29  30
ENDBRANCH  27  29
ENDBRANCH   6  27
TORSDOF 12
ENDMDL
MODEL 2
REMARK VINA RESULT: -7.005113777      2.395      5.315
REMARK  12 active torsions:
REMARK  status: ('A' for Active; 'I' for Inactive)
REMARK    1  A    between atoms: C2_2  and  C3_3 
REMARK    2  A    between atoms: C3_3  and  N1_4 
REMARK    3  A    between atoms: C6_9  and  N3_10 
REMARK    4  A    between atoms: N3_10  and  C7_12 
REMARK    5  A    between atoms: C7_12  and  C8_13 
REMARK    6  A    between atoms: C8_13  and  C9_14 
REMARK    7  A    between atoms: C9_14  and  N4_15 
REMARK    8  A    between atoms: C12_23  and  C13_24 
REMARK    9  A    between atoms: C13_24  and  O1_25 
REMARK   10  A    between atoms: O1_25  and  C14_26 
REMARK   11  A    between atoms: C14_26  and  C15_27 
REMARK   12  A    between atoms: C18_30  and  C19_31 
ROOT
HETATM    1  N1  UNL     1       6.674  -4.792 -22.806  1.00  0.00    -0.284 N 
HETATM    2  N2  UNL     1       6.615  -6.124 -22.671  1.00  0.00    -0.295 N 
ATOM      3  H2  UNL     1       6.845  -6.789 -23.409  1.00  0.00     0.187 HD
HETATM    4  C4  UNL     1       6.222  -6.465 -21.458  1.00  0.00     0.079 A 
HETATM    5  C5  UNL     1       5.995  -7.671 -20.786  1.00  0.00     0.064 A 
HETATM    6  C6  UNL     1       5.576  -7.705 -19.477  1.00  0.00     0.045 A 
HETATM    7  C10 UNL     1       5.387  -6.494 -18.850  1.00  0.00     0.117 A 
HETATM    8  N5  UNL     1       5.601  -5.322 -19.481  1.00  0.00    -0.360 N 
ATOM      9  H5  UNL     1       5.453  -4.442 -18.987  1.00  0.00     0.165 HD
HETATM   10  C11 UNL     1       6.011  -5.313 -20.765  1.00  0.00     0.091 A 
HETATM   11  C12 UNL     1       6.312  -4.245 -21.664  1.00  0.00     0.102 A 
ENDROOT
BRANCH  11  12
HETATM   12  C13 UNL     1       6.077  -2.886 -21.205  1.00  0.00     0.168 C 
BRANCH  12  13
HETATM   13  O1  UNL     1       6.314  -2.382 -20.029  1.00  0.00    -0.356 OA
BRANCH  13  14
HETATM   14  C14 UNL     1       7.496  -1.959 -19.557  1.00  0.00     0.213 C 
BRANCH  14  15
HETATM   15  C15 UNL     1       8.335  -3.110 -19.020  1.00  0.00    -0.034 A 
HETATM   16  C16 UNL     1       9.448  -3.557 -19.698  1.00  0.00     0.010 A 
HETATM   17  C17 UNL     1      10.211  -4.602 -19.219  1.00  0.00     0.017 A 
HETATM   18  C18 UNL     1       9.891  -5.242 -18.038  1.00  0.00     0.029 A 
HETATM   19  C20 UNL     1       8.776  -4.790 -17.361  1.00  0.00     0.017 A 
HETATM   20  C21 UNL     1       8.012  -3.744 -17.843  1.00  0.00     0.010 A 
BRANCH  18  21
HETATM   21  C19 UNL     1      10.689  -6.348 -17.520  1.00  0.00     0.264 C 
HETATM   22  N6  UNL     1      10.224  -7.128 -16.442  1.00  0.00    -0.057 NA
HETATM   23  O2  UNL     1      11.803  -6.605 -18.044  1.00  0.00    -0.271 OA
ENDBRANCH  18  21
ENDBRANCH  14  15
ENDBRANCH  13  14
ENDBRANCH  12  13
ENDBRANCH  11  12
BRANCH   1  24
HETATM   24  C3  UNL     1       7.115  -4.216 -24.074  1.00  0.00     0.176 C 
BRANCH  24  25
HETATM   25  C2  UNL     1       6.784  -5.078 -25.241  1.00  0.00    -0.015 C 
HETATM   26  C1  UNL     1       5.770  -4.815 -26.057  1.00  0.00     0.008 C 
ENDBRANCH  24  25
ENDBRANCH   1  24
BRANCH   6  27
HETATM   27  N3  UNL     1       5.340  -8.922 -18.779  1.00  0.00    -0.389 N 
ATOM     28  H3  UNL     1       4.398  -9.180 -18.484  1.00  0.00     0.159 HD
BRANCH  27  29
HETATM   29  C7  UNL     1       6.463  -9.786 -18.497  1.00  0.00     0.121 C 
BRANCH  29  30
HETATM   30  C8  UNL     1       7.428  -9.187 -17.507  1.00  0.00     0.047 C 
BRANCH  30  31
HETATM   31  C9  UNL     1       6.781  -9.169 -16.146  1.00  0.00     0.231 C 
BRANCH  31  32
HETATM   32  N4  UNL     1       7.711  -8.582 -15.185  1.00  0.00    -0.079 N 
ATOM     33  H43 UNL     1       8.665  -8.920 -15.311  1.00  0.00     0.274 HD
ATOM     34  H42 UNL     1       7.885  -7.594 -15.366  1.00  0.00     0.274 HD
ATOM     35  H41 UNL     1       7.362  -8.749 -14.241  1.00  0.00     0.274 HD
ENDBRANCH  31  32
ENDBRANCH  30  31
ENDBRANCH  29  30
ENDBRANCH  27  29
ENDBRANCH   6  27
TORSDOF 12
ENDMDL
MODEL 3
REMARK VINA RESULT: -7.000521142      2.951      7.039
REMARK  12 active torsions:
REMARK  status: ('A' for Active; 'I' for Inactive)
REMARK    1  A    between atoms: C2_2  and  C3_3 
REMARK    2  A    between atoms: C3_3  and  N1_4 
REMARK    3  A    between atoms: C6_9  and  N3_10 
REMARK    4  A    between atoms: N3_10  and  C7_12 
REMARK    5  A    between atoms: C7_12  and  C8_13 
REMARK    6  A    between atoms: C8_13  and  C9_14 
REMARK    7  A    between atoms: C9_14  and  N4_15 
REMARK    8  A    between atoms: C12_23  and  C13_24 
REMARK    9  A    between atoms: C13_24  and  O1_25 
REMARK   10  A    between atoms: O1_25  and  C14_26 
REMARK   11  A    between atoms: C14_26  and  C15_27 
REMARK   12  A    between atoms: C18_30  and  C19_31 
ROOT
HETATM    1  N1  UNL     1       5.446  -4.519 -22.228  1.00  0.00    -0.284 N 
HETATM    2  N2  UNL     1       5.560  -5.853 -22.153  1.00  0.00    -0.295 N 
ATOM      3  H2  UNL     1       5.248  -6.499 -22.878  1.00  0.00     0.187 HD
HETATM    4  C4  UNL     1       6.128  -6.222 -21.021  1.00  0.00     0.079 A 
HETATM    5  C5  UNL     1       6.484  -7.443 -20.436  1.00  0.00     0.064 A 
HETATM    6  C6  UNL     1       7.085  -7.508 -19.202  1.00  0.00     0.045 A 
HETATM    7  C10 UNL     1       7.325  -6.314 -18.559  1.00  0.00     0.117 A 
HETATM    8  N5  UNL     1       6.989  -5.128 -19.107  1.00  0.00    -0.360 N 
ATOM      9  H5  UNL     1       7.182  -4.262 -18.606  1.00  0.00     0.165 HD
HETATM   10  C11 UNL     1       6.400  -5.089 -20.319  1.00  0.00     0.091 A 
HETATM   11  C12 UNL     1       5.947  -4.001 -21.126  1.00  0.00     0.102 A 
ENDROOT
BRANCH  11  12
HETATM   12  C13 UNL     1       6.031  -2.662 -20.567  1.00  0.00     0.168 C 
BRANCH  12  13
HETATM   13  O1  UNL     1       5.485  -2.210 -19.476  1.00  0.00    -0.356 OA
BRANCH  13  14
HETATM   14  C14 UNL     1       6.107  -1.915 -18.326  1.00  0.00     0.213 C 
BRANCH  14  15
HETATM   15  C15 UNL     1       6.453  -0.435 -18.233  1.00  0.00    -0.034 A 
HETATM   16  C16 UNL     1       5.864   0.488 -19.068  1.00  0.00     0.010 A 
HETATM   17  C17 UNL     1       6.176   1.829 -18.992  1.00  0.00     0.017 A 
HETATM   18  C18 UNL     1       7.092   2.303 -18.074  1.00  0.00     0.029 A 
HETATM   19  C20 UNL     1       7.680   1.375 -17.238  1.00  0.00     0.017 A 
HETATM   20  C21 UNL     1       7.367   0.030 -17.316  1.00  0.00     0.010 A 
BRANCH  18  21
HETATM   21  C19 UNL     1       7.432   3.719 -17.983  1.00  0.00     0.264 C 
HETATM   22  N6  UNL     1       8.064   4.378 -19.057  1.00  0.00    -0.057 NA
HETATM   23  O2  UNL     1       7.156   4.355 -16.933  1.00  0.00    -0.271 OA
ENDBRANCH  18  21
ENDBRANCH  14  15
ENDBRANCH  13  14
ENDBRANCH  12  13
ENDBRANCH  11  12
BRANCH   1  24
HETATM   24  C3  UNL     1       4.864  -3.912 -23.423  1.00  0.00     0.176 C 
BRANCH  24  25
HETATM   25  C2  UNL     1       4.412  -4.922 -24.417  1.00  0.00    -0.015 C 
HETATM   26  C1  UNL     1       4.753  -4.864 -25.699  1.00  0.00     0.008 C 
ENDBRANCH  24  25
ENDBRANCH   1  24
BRANCH   6  27
HETATM   27  N3  UNL     1       7.453  -8.740 -18.592  1.00  0.00    -0.389 N 
ATOM     28  H3  UNL     1       8.334  -9.196 -18.831  1.00  0.00     0.159 HD
BRANCH  27  29
HETATM   29  C7  UNL     1       6.554  -9.331 -17.629  1.00  0.00     0.121 C 
BRANCH  29  30
HETATM   30  C8  UNL     1       6.961  -9.058 -16.204  1.00  0.00     0.047 C 
BRANCH  30  31
HETATM   31  C9  UNL     1       8.457  -8.892 -16.149  1.00  0.00     0.231 C 
BRANCH  31  32
HETATM   32  N4  UNL     1       8.805  -8.112 -14.963  1.00  0.00    -0.079 N 
ATOM     33  H43 UNL     1       8.792  -8.672 -14.112  1.00  0.00     0.274 HD
ATOM     34  H42 UNL     1       9.791  -7.850 -14.947  1.00  0.00     0.274 HD
ATOM     35  H41 UNL     1       8.187  -7.303 -14.905  1.00  0.00     0.274 HD
ENDBRANCH  31  32
ENDBRANCH  30  31
ENDBRANCH  29  30
ENDBRANCH  27  29
ENDBRANCH   6  27
TORSDOF 12
ENDMDL
MODEL 4
REMARK VINA RESULT: -6.970545769      3.159      7.934
REMARK  12 active torsions:
REMARK  status: ('A' for Active; 'I' for Inactive)
REMARK    1  A    between atoms: C2_2  and  C3_3 
REMARK    2  A    between atoms: C3_3  and  N1_4 
REMARK    3  A    between atoms: C6_9  and  N3_10 
REMARK    4  A    between atoms: N3_10  and  C7_12 
REMARK    5  A    between atoms: C7_12  and  C8_13 
REMARK    6  A    between atoms: C8_13  and  C9_14 
REMARK    7  A    between atoms: C9_14  and  N4_15 
REMARK    8  A    between atoms: C12_23  and  C13_24 
REMARK    9  A    between atoms: C13_24  and  O1_25 
REMARK   10  A    between atoms: O1_25  and  C14_26 
REMARK   11  A    between atoms: C14_26  and  C15_27 
REMARK   12  A    between atoms: C18_30  and  C19_31 
ROOT
HETATM    1  N1  UNL     1       7.960  -6.940 -18.063  1.00  0.00    -0.284 N 
HETATM    2  N2  UNL     1       7.316  -7.511 -19.092  1.00  0.00    -0.295 N 
ATOM      3  H2  UNL     1       7.053  -8.495 -19.131  1.00  0.00     0.187 HD
HETATM    4  C4  UNL     1       7.066  -6.633 -20.046  1.00  0.00     0.079 A 
HETATM    5  C5  UNL     1       6.441  -6.673 -21.297  1.00  0.00     0.064 A 
HETATM    6  C6  UNL     1       6.329  -5.555 -22.088  1.00  0.00     0.045 A 
HETATM    7  C10 UNL     1       6.861  -4.384 -21.595  1.00  0.00     0.117 A 
HETATM    8  N5  UNL     1       7.465  -4.327 -20.391  1.00  0.00    -0.360 N 
ATOM      9  H5  UNL     1       7.848  -3.443 -20.054  1.00  0.00     0.165 HD
HETATM   10  C11 UNL     1       7.565  -5.437 -19.633  1.00  0.00     0.091 A 
HETATM   11  C12 UNL     1       8.138  -5.665 -18.345  1.00  0.00     0.102 A 
ENDROOT
BRANCH  11  12
HETATM   12  C13 UNL     1       8.834  -4.561 -17.707  1.00  0.00     0.168 C 
BRANCH  12  13
HETATM   13  O1  UNL     1       8.498  -3.304 -17.684  1.00  0.00    -0.356 OA
BRANCH  13  14
HETATM   14  C14 UNL     1       7.401  -2.774 -17.123  1.00  0.00     0.213 C 
BRANCH  14  15
HETATM   15  C15 UNL     1       7.299  -1.277 -17.385  1.00  0.00    -0.034 A 
HETATM   16  C16 UNL     1       6.478  -0.782 -18.373  1.00  0.00     0.010 A 
HETATM   17  C17 UNL     1       6.384   0.572 -18.619  1.00  0.00     0.017 A 
HETATM   18  C18 UNL     1       7.109   1.488 -17.882  1.00  0.00     0.029 A 
HETATM   19  C20 UNL     1       7.930   0.987 -16.892  1.00  0.00     0.017 A 
HETATM   20  C21 UNL     1       8.024  -0.370 -16.648  1.00  0.00     0.010 A 
BRANCH  18  21
HETATM   21  C19 UNL     1       7.019   2.922 -18.131  1.00  0.00     0.264 C 
HETATM   22  N6  UNL     1       7.403   3.851 -17.141  1.00  0.00    -0.057 NA
HETATM   23  O2  UNL     1       6.594   3.332 -19.242  1.00  0.00    -0.271 OA
ENDBRANCH  18  21
ENDBRANCH  14  15
ENDBRANCH  13  14
ENDBRANCH  12  13
ENDBRANCH  11  12
BRANCH   1  24
HETATM   24  C3  UNL     1       8.303  -7.745 -16.893  1.00  0.00     0.176 C 
BRANCH  24  25
HETATM   25  C2  UNL     1       7.585  -9.047 -16.863  1.00  0.00    -0.015 C 
HETATM   26  C1  UNL     1       6.537  -9.267 -16.078  1.00  0.00     0.008 C 
ENDBRANCH  24  25
ENDBRANCH   1  24
BRANCH   6  27
HETATM   27  N3  UNL     1       5.698  -5.578 -23.363  1.00  0.00    -0.389 N 
ATOM     28  H3  UNL     1       4.721  -5.857 -23.455  1.00  0.00     0.159 HD
BRANCH  27  29
HETATM   29  C7  UNL     1       6.468  -5.196 -24.523  1.00  0.00     0.121 C 
BRANCH  29  30
HETATM   30  C8  UNL     1       5.622  -4.610 -25.622  1.00  0.00     0.047 C 
BRANCH  30  31
HETATM   31  C9  UNL     1       4.417  -3.946 -25.007  1.00  0.00     0.231 C 
BRANCH  31  32
HETATM   32  N4  UNL     1       4.394  -2.540 -25.404  1.00  0.00    -0.079 N 
ATOM     33  H43 UNL     1       4.018  -2.407 -26.343  1.00  0.00     0.274 HD
ATOM     34  H42 UNL     1       3.694  -2.004 -24.892  1.00  0.00     0.274 HD
ATOM     35  H41 UNL     1       5.331  -2.151 -25.303  1.00  0.00     0.274 HD
ENDBRANCH  31  32
ENDBRANCH  30  31
ENDBRANCH  29  30
ENDBRANCH  27  29
ENDBRANCH   6  27
TORSDOF 12
ENDMDL
MODEL 5
REMARK VINA RESULT: -6.940986743      3.188      6.807
REMARK  12 active torsions:
REMARK  status: ('A' for Active; 'I' for Inactive)
REMARK    1  A    between atoms: C2_2  and  C3_3 
REMARK    2  A    between atoms: C3_3  and  N1_4 
REMARK    3  A    between atoms: C6_9  and  N3_10 
REMARK    4  A    between atoms: N3_10  and  C7_12 
REMARK    5  A    between atoms: C7_12  and  C8_13 
REMARK    6  A    between atoms: C8_13  and  C9_14 
REMARK    7  A    between atoms: C9_14  and  N4_15 
REMARK    8  A    between atoms: C12_23  and  C13_24 
REMARK    9  A    between atoms: C13_24  and  O1_25 
REMARK   10  A    between atoms: O1_25  and  C14_26 
REMARK   11  A    between atoms: C14_26  and  C15_27 
REMARK   12  A    between atoms: C18_30  and  C19_31 
ROOT
HETATM    1  N1  UNL     1       7.862  -2.641 -18.348  1.00  0.00    -0.284 N 
HETATM    2  N2  UNL     1       8.462  -3.792 -18.010  1.00  0.00    -0.295 N 
ATOM      3  H2  UNL     1       9.307  -3.855 -17.443  1.00  0.00     0.187 HD
HETATM    4  C4  UNL     1       7.817  -4.831 -18.506  1.00  0.00     0.079 A 
HETATM    5  C5  UNL     1       7.988  -6.220 -18.468  1.00  0.00     0.064 A 
HETATM    6  C6  UNL     1       7.119  -7.075 -19.103  1.00  0.00     0.045 A 
HETATM    7  C10 UNL     1       6.065  -6.505 -19.782  1.00  0.00     0.117 A 
HETATM    8  N5  UNL     1       5.884  -5.169 -19.828  1.00  0.00    -0.360 N 
ATOM      9  H5  UNL     1       5.093  -4.779 -20.339  1.00  0.00     0.165 HD
HETATM   10  C11 UNL     1       6.750  -4.350 -19.199  1.00  0.00     0.091 A 
HETATM   11  C12 UNL     1       6.804  -2.928 -19.080  1.00  0.00     0.102 A 
ENDROOT
BRANCH  11  12
HETATM   12  C13 UNL     1       5.823  -2.148 -19.815  1.00  0.00     0.168 C 
BRANCH  12  13
HETATM   13  O1  UNL     1       5.493  -0.902 -19.643  1.00  0.00    -0.356 OA
BRANCH  13  14
HETATM   14  C14 UNL     1       5.451   0.057 -20.579  1.00  0.00     0.213 C 
BRANCH  14  15
HETATM   15  C15 UNL     1       6.202   1.307 -20.143  1.00  0.00    -0.034 A 
HETATM   16  C16 UNL     1       6.904   2.069 -21.051  1.00  0.00     0.010 A 
HETATM   17  C17 UNL     1       7.591   3.201 -20.662  1.00  0.00     0.017 A 
HETATM   18  C18 UNL     1       7.601   3.618 -19.345  1.00  0.00     0.029 A 
HETATM   19  C20 UNL     1       6.895   2.852 -18.439  1.00  0.00     0.017 A 
HETATM   20  C21 UNL     1       6.209   1.718 -18.830  1.00  0.00     0.010 A 
BRANCH  18  21
HETATM   21  C19 UNL     1       8.322   4.813 -18.920  1.00  0.00     0.264 C 
HETATM   22  N6  UNL     1       8.484   5.108 -17.551  1.00  0.00    -0.057 NA
HETATM   23  O2  UNL     1       8.804   5.586 -19.788  1.00  0.00    -0.271 OA
ENDBRANCH  18  21
ENDBRANCH  14  15
ENDBRANCH  13  14
ENDBRANCH  12  13
ENDBRANCH  11  12
BRANCH   1  24
HETATM   24  C3  UNL     1       8.412  -1.375 -17.872  1.00  0.00     0.176 C 
BRANCH  24  25
HETATM   25  C2  UNL     1       7.691  -0.849 -16.681  1.00  0.00    -0.015 C 
HETATM   26  C1  UNL     1       8.065   0.259 -16.052  1.00  0.00     0.008 C 
ENDBRANCH  24  25
ENDBRANCH   1  24
BRANCH   6  27
HETATM   27  N3  UNL     1       7.277  -8.489 -19.076  1.00  0.00    -0.389 N 
ATOM     28  H3  UNL     1       8.106  -8.928 -19.478  1.00  0.00     0.159 HD
BRANCH  27  29
HETATM   29  C7  UNL     1       6.241  -9.289 -18.467  1.00  0.00     0.121 C 
BRANCH  29  30
HETATM   30  C8  UNL     1       5.801  -8.757 -17.128  1.00  0.00     0.047 C 
BRANCH  30  31
HETATM   31  C9  UNL     1       6.502  -9.532 -16.043  1.00  0.00     0.231 C 
BRANCH  31  32
HETATM   32  N4  UNL     1       7.640  -8.752 -15.562  1.00  0.00    -0.079 N 
ATOM     33  H43 UNL     1       8.235  -8.424 -16.322  1.00  0.00     0.274 HD
ATOM     34  H42 UNL     1       7.361  -7.842 -15.196  1.00  0.00     0.274 HD
ATOM     35  H41 UNL     1       8.155  -9.305 -14.877  1.00  0.00     0.274 HD
ENDBRANCH  31  32
ENDBRANCH  30  31
ENDBRANCH  29  30
ENDBRANCH  27  29
ENDBRANCH   6  27
TORSDOF 12
ENDMDL
