MODEL 1
REMARK VINA RESULT: -7.302784901      0.000      0.000
REMARK  14 active torsions:
REMARK  status: ('A' for Active; 'I' for Inactive)
REMARK    1  A    between atoms: C2_2  and  C3_3 
REMARK    2  A    between atoms: C3_3  and  N1_4 
REMARK    3  A    between atoms: N1_4  and  C4_5 
REMARK    4  A    between atoms: N1_4  and  C7_8 
REMARK    5  A    between atoms: C4_5  and  C5_6 
REMARK    6  A    between atoms: C8_13  and  N4_14 
REMARK    7  A    between atoms: N4_14  and  C9_16 
REMARK    8  A    between atoms: C9_16  and  C10_17 
REMARK    9  A    between atoms: C10_17  and  N5_18 
REMARK       I    between atoms: N5_18  and  C11_20 
REMARK   10  A    between atoms: C11_20  and  C12_22 
REMARK   11  A    between atoms: C12_22  and  C13_23 
REMARK   12  A    between atoms: C13_23  and  N6_24 
REMARK   13  A    between atoms: C14_28  and  N7_29 
REMARK   14  A    between atoms: N7_29  and  C15_31 
ROOT
HETATM    1  C7  UNL     1       6.161  -4.830 -21.948  1.00  0.00     0.700 A 
HETATM    2  N2  UNL     1       7.456  -4.774 -22.355  1.00  0.00    -0.130 N 
ATOM      3  H2  UNL     1       7.657  -4.404 -23.283  1.00  0.00     0.205 HD
HETATM    4  N3  UNL     1       8.455  -5.171 -21.614  1.00  0.00    -0.268 N 
ATOM      5  H3  UNL     1       9.401  -5.098 -21.989  1.00  0.00     0.189 HD
HETATM    6  C8  UNL     1       8.285  -5.683 -20.352  1.00  0.00     0.162 A 
HETATM    7  C14 UNL     1       6.988  -5.752 -19.911  1.00  0.00     0.167 A 
HETATM    8  N8  UNL     1       5.987  -5.329 -20.714  1.00  0.00    -0.171 N 
ATOM      9  H8  UNL     1       5.033  -5.392 -20.358  1.00  0.00     0.186 HD
ENDROOT
BRANCH   6  10
HETATM   10  N4  UNL     1       9.283  -6.049 -19.678  1.00  0.00    -0.371 N 
ATOM     11  H4  UNL     1       9.126  -6.897 -19.134  1.00  0.00     0.161 HD
BRANCH  10  12
HETATM   12  C9  UNL     1      10.586  -5.502 -19.533  1.00  0.00     0.141 C 
BRANCH  12  13
HETATM   13  C10 UNL     1      10.892  -5.480 -18.022  1.00  0.00     0.142 C 
BRANCH  13  14
HETATM   14  N5  UNL     1      11.003  -6.809 -17.485  1.00  0.00    -0.359 N 
HETATM   15  C11 UNL     1       9.950  -7.333 -16.708  1.00  0.00     0.219 C 
HETATM   16  O1  UNL     1       8.920  -6.618 -16.495  1.00  0.00    -0.274 OA
ATOM     17  H5  UNL     1      11.836  -7.368 -17.666  1.00  0.00     0.162 HD
BRANCH  15  18
HETATM   18  C12 UNL     1      10.019  -8.712 -16.126  1.00  0.00     0.130 C 
BRANCH  18  19
HETATM   19  C13 UNL     1      11.219  -8.770 -15.189  1.00  0.00     0.238 C 
BRANCH  19  20
HETATM   20  N6  UNL     1      10.942  -9.651 -14.076  1.00  0.00    -0.079 N 
ATOM     21  H63 UNL     1       9.940  -9.756 -13.914  1.00  0.00     0.274 HD
ATOM     22  H62 UNL     1      11.160 -10.622 -14.296  1.00  0.00     0.274 HD
ATOM     23  H61 UNL     1      11.432  -9.329 -13.241  1.00  0.00     0.274 HD
ENDBRANCH  19  20
ENDBRANCH  18  19
ENDBRANCH  15  18
ENDBRANCH  13  14
ENDBRANCH  12  13
ENDBRANCH  10  12
ENDBRANCH   6  10
BRANCH   7  24
HETATM   24  N7  UNL     1       6.700  -6.205 -18.740  1.00  0.00    -0.339 N 
ATOM     25  H7  UNL     1       6.856  -5.619 -17.919  1.00  0.00     0.167 HD
BRANCH  24  26
HETATM   26  C15 UNL     1       6.170  -7.511 -18.581  1.00  0.00     0.033 A 
HETATM   27  C16 UNL     1       4.839  -7.671 -18.262  1.00  0.00     0.029 A 
HETATM   28  C17 UNL     1       4.285  -8.941 -18.101  1.00  0.00     0.002 A 
HETATM   29  C18 UNL     1       5.085 -10.044 -18.263  1.00  0.00     0.000 A 
HETATM   30  C19 UNL     1       6.417  -9.877 -18.581  1.00  0.00     0.002 A 
HETATM   31  C20 UNL     1       6.988  -8.636 -18.746  1.00  0.00     0.029 A 
ENDBRANCH  24  26
ENDBRANCH   7  24
BRANCH   1  32
HETATM   32  N1  UNL     1       5.082  -4.407 -22.716  1.00  0.00    -0.189 N 
BRANCH  32  33
HETATM   33  C3  UNL     1       4.692  -5.092 -23.922  1.00  0.00     0.108 C 
BRANCH  33  34
HETATM   34  C2  UNL     1       5.223  -4.603 -25.179  1.00  0.00     0.007 C 
HETATM   35  C1  UNL     1       6.359  -5.051 -25.750  1.00  0.00     0.012 C 
ENDBRANCH  33  34
ENDBRANCH  32  33
BRANCH  32  36
HETATM   36  C4  UNL     1       4.322  -3.231 -22.355  1.00  0.00     0.173 C 
BRANCH  36  37
HETATM   37  C5  UNL     1       5.128  -1.988 -22.467  1.00  0.00    -0.016 C 
HETATM   38  C6  UNL     1       5.124  -1.220 -23.542  1.00  0.00     0.008 C 
ENDBRANCH  36  37
ENDBRANCH  32  36
ENDBRANCH   1  32
TORSDOF 14
ENDMDL
MODEL 2
REMARK VINA RESULT: -7.278671915      0.092      1.675
REMARK  14 active torsions:
REMARK  status: ('A' for Active; 'I' for Inactive)
REMARK    1  A    between atoms: C2_2  and  C3_3 
REMARK    2  A    between atoms: C3_3  and  N1_4 
REMARK    3  A    between atoms: N1_4  and  C4_5 
REMARK    4  A    between atoms: N1_4  and  C7_8 
REMARK    5  A    between atoms: C4_5  and  C5_6 
REMARK    6  A    between atoms: C8_13  and  N4_14 
REMARK    7  A    between atoms: N4_14  and  C9_16 
REMARK    8  A    between atoms: C9_16  and  C10_17 
REMARK    9  A    between atoms: C10_17  and  N5_18 
REMARK       I    between atoms: N5_18  and  C11_20 
REMARK   10  A    between atoms: C11_20  and  C12_22 
REMARK   11  A    between atoms: C12_22  and  C13_23 
REMARK   12  A    between atoms: C13_23  and  N6_24 
REMARK   13  A    between atoms: C14_28  and  N7_29 
REMARK   14  A    between atoms: N7_29  and  C15_31 
ROOT
HETATM    1  C7  UNL     1       6.176  -4.766 -21.965  1.00  0.00     0.700 A 
HETATM    2  N2  UNL     1       7.468  -4.723 -22.381  1.00  0.00    -0.130 N 
ATOM      3  H2  UNL     1       7.668  -4.349 -23.308  1.00  0.00     0.205 HD
HETATM    4  N3  UNL     1       8.468  -5.137 -21.649  1.00  0.00    -0.268 N 
ATOM      5  H3  UNL     1       9.412  -5.073 -22.030  1.00  0.00     0.189 HD
HETATM    6  C8  UNL     1       8.301  -5.656 -20.390  1.00  0.00     0.162 A 
HETATM    7  C14 UNL     1       7.006  -5.713 -19.941  1.00  0.00     0.167 A 
HETATM    8  N8  UNL     1       6.004  -5.272 -20.734  1.00  0.00    -0.171 N 
ATOM      9  H8  UNL     1       5.052  -5.326 -20.372  1.00  0.00     0.186 HD
ENDROOT
BRANCH   6  10
HETATM   10  N4  UNL     1       9.298  -6.039 -19.726  1.00  0.00    -0.371 N 
ATOM     11  H4  UNL     1       9.133  -6.886 -19.183  1.00  0.00     0.161 HD
BRANCH  10  12
HETATM   12  C9  UNL     1      10.609  -5.511 -19.589  1.00  0.00     0.141 C 
BRANCH  12  13
HETATM   13  C10 UNL     1      10.914  -5.463 -18.078  1.00  0.00     0.142 C 
BRANCH  13  14
HETATM   14  N5  UNL     1      11.034  -6.782 -17.520  1.00  0.00    -0.359 N 
HETATM   15  C11 UNL     1       9.981  -7.304 -16.740  1.00  0.00     0.219 C 
HETATM   16  O1  UNL     1       8.943  -6.596 -16.545  1.00  0.00    -0.274 OA
ATOM     17  H5  UNL     1      11.873  -7.336 -17.687  1.00  0.00     0.162 HD
BRANCH  15  18
HETATM   18  C12 UNL     1      10.060  -8.673 -16.137  1.00  0.00     0.130 C 
BRANCH  18  19
HETATM   19  C13 UNL     1      11.269  -8.713 -15.212  1.00  0.00     0.238 C 
BRANCH  19  20
HETATM   20  N6  UNL     1      11.002  -9.570 -14.078  1.00  0.00    -0.079 N 
ATOM     21  H63 UNL     1      10.489 -10.409 -14.346  1.00  0.00     0.274 HD
ATOM     22  H62 UNL     1      11.850 -10.018 -13.731  1.00  0.00     0.274 HD
ATOM     23  H61 UNL     1      10.522  -9.047 -13.345  1.00  0.00     0.274 HD
ENDBRANCH  19  20
ENDBRANCH  18  19
ENDBRANCH  15  18
ENDBRANCH  13  14
ENDBRANCH  12  13
ENDBRANCH  10  12
ENDBRANCH   6  10
BRANCH   7  24
HETATM   24  N7  UNL     1       6.720  -6.171 -18.771  1.00  0.00    -0.339 N 
ATOM     25  H7  UNL     1       6.880  -5.589 -17.947  1.00  0.00     0.167 HD
BRANCH  24  26
HETATM   26  C15 UNL     1       6.186  -7.476 -18.616  1.00  0.00     0.033 A 
HETATM   27  C16 UNL     1       4.857  -7.634 -18.290  1.00  0.00     0.029 A 
HETATM   28  C17 UNL     1       4.300  -8.903 -18.133  1.00  0.00     0.002 A 
HETATM   29  C18 UNL     1       5.096 -10.008 -18.307  1.00  0.00     0.000 A 
HETATM   30  C19 UNL     1       6.426  -9.842 -18.633  1.00  0.00     0.002 A 
HETATM   31  C20 UNL     1       7.000  -8.602 -18.794  1.00  0.00     0.029 A 
ENDBRANCH  24  26
ENDBRANCH   7  24
BRANCH   1  32
HETATM   32  N1  UNL     1       5.096  -4.325 -22.723  1.00  0.00    -0.189 N 
BRANCH  32  33
HETATM   33  C3  UNL     1       4.385  -3.115 -22.400  1.00  0.00     0.108 C 
BRANCH  33  34
HETATM   34  C2  UNL     1       5.110  -1.863 -22.477  1.00  0.00     0.007 C 
HETATM   35  C1  UNL     1       5.249  -1.131 -23.601  1.00  0.00     0.012 C 
ENDBRANCH  33  34
ENDBRANCH  32  33
BRANCH  32  36
HETATM   36  C4  UNL     1       4.614  -5.088 -23.853  1.00  0.00     0.173 C 
BRANCH  36  37
HETATM   37  C5  UNL     1       5.071  -4.522 -25.147  1.00  0.00    -0.016 C 
HETATM   38  C6  UNL     1       6.183  -4.905 -25.749  1.00  0.00     0.008 C 
ENDBRANCH  36  37
ENDBRANCH  32  36
ENDBRANCH   1  32
TORSDOF 14
ENDMDL
MODEL 3
REMARK VINA RESULT: -7.175564497      1.898      3.935
REMARK  14 active torsions:
REMARK  status: ('A' for Active; 'I' for Inactive)
REMARK    1  A    between atoms: C2_2  and  C3_3 
REMARK    2  A    between atoms: C3_3  and  N1_4 
REMARK    3  A    between atoms: N1_4  and  C4_5 
REMARK    4  A    between atoms: N1_4  and  C7_8 
REMARK    5  A    between atoms: C4_5  and  C5_6 
REMARK    6  A    between atoms: C8_13  and  N4_14 
REMARK    7  A    between atoms: N4_14  and  C9_16 
REMARK    8  A    between atoms: C9_16  and  C10_17 
REMARK    9  A    between atoms: C10_17  and  N5_18 
REMARK       I    between atoms: N5_18  and  C11_20 
REMARK   10  A    between atoms: C11_20  and  C12_22 
REMARK   11  A    between atoms: C12_22  and  C13_23 
REMARK   12  A    between atoms: C13_23  and  N6_24 
REMARK   13  A    between atoms: C14_28  and  N7_29 
REMARK   14  A    between atoms: N7_29  and  C15_31 
ROOT
HETATM    1  C7  UNL     1       6.643  -6.095 -21.726  1.00  0.00     0.700 A 
HETATM    2  N2  UNL     1       5.821  -7.155 -21.517  1.00  0.00    -0.130 N 
ATOM      3  H2  UNL     1       5.110  -7.364 -22.217  1.00  0.00     0.205 HD
HETATM    4  N3  UNL     1       5.898  -7.921 -20.462  1.00  0.00    -0.268 N 
ATOM      5  H3  UNL     1       5.245  -8.699 -20.374  1.00  0.00     0.189 HD
HETATM    6  C8  UNL     1       6.820  -7.720 -19.466  1.00  0.00     0.162 A 
HETATM    7  C14 UNL     1       7.666  -6.656 -19.647  1.00  0.00     0.167 A 
HETATM    8  N8  UNL     1       7.549  -5.892 -20.757  1.00  0.00    -0.171 N 
ATOM      9  H8  UNL     1       8.192  -5.109 -20.865  1.00  0.00     0.186 HD
ENDROOT
BRANCH   6  10
HETATM   10  N4  UNL     1       6.854  -8.489 -18.470  1.00  0.00    -0.371 N 
ATOM     11  H4  UNL     1       7.657  -9.117 -18.459  1.00  0.00     0.161 HD
BRANCH  10  12
HETATM   12  C9  UNL     1       5.982  -8.646 -17.360  1.00  0.00     0.141 C 
BRANCH  12  13
HETATM   13  C10 UNL     1       6.866  -9.022 -16.152  1.00  0.00     0.142 C 
BRANCH  13  14
HETATM   14  N5  UNL     1       8.248  -9.146 -16.527  1.00  0.00    -0.359 N 
HETATM   15  C11 UNL     1       9.222  -8.385 -15.848  1.00  0.00     0.219 C 
HETATM   16  O1  UNL     1       8.857  -7.602 -14.914  1.00  0.00    -0.274 OA
ATOM     17  H5  UNL     1       8.523  -9.778 -17.277  1.00  0.00     0.162 HD
BRANCH  15  18
HETATM   18  C12 UNL     1      10.674  -8.477 -16.203  1.00  0.00     0.130 C 
BRANCH  18  19
HETATM   19  C13 UNL     1      11.466  -8.659 -14.915  1.00  0.00     0.238 C 
BRANCH  19  20
HETATM   20  N6  UNL     1      10.876  -9.706 -14.110  1.00  0.00    -0.079 N 
ATOM     21  H63 UNL     1      10.077 -10.138 -14.572  1.00  0.00     0.274 HD
ATOM     22  H62 UNL     1      11.478 -10.527 -14.052  1.00  0.00     0.274 HD
ATOM     23  H61 UNL     1      10.633  -9.345 -13.186  1.00  0.00     0.274 HD
ENDBRANCH  19  20
ENDBRANCH  18  19
ENDBRANCH  15  18
ENDBRANCH  13  14
ENDBRANCH  12  13
ENDBRANCH  10  12
ENDBRANCH   6  10
BRANCH   7  24
HETATM   24  N7  UNL     1       8.582  -6.371 -18.787  1.00  0.00    -0.339 N 
ATOM     25  H7  UNL     1       9.079  -7.123 -18.310  1.00  0.00     0.167 HD
BRANCH  24  26
HETATM   26  C15 UNL     1       8.904  -5.020 -18.497  1.00  0.00     0.033 A 
HETATM   27  C16 UNL     1      10.151  -4.533 -18.821  1.00  0.00     0.029 A 
HETATM   28  C17 UNL     1      10.500  -3.209 -18.551  1.00  0.00     0.002 A 
HETATM   29  C18 UNL     1       9.580  -2.385 -17.953  1.00  0.00     0.000 A 
HETATM   30  C19 UNL     1       8.333  -2.880 -17.631  1.00  0.00     0.002 A 
HETATM   31  C20 UNL     1       7.964  -4.180 -17.887  1.00  0.00     0.029 A 
ENDBRANCH  24  26
ENDBRANCH   7  24
BRANCH   1  32
HETATM   32  N1  UNL     1       6.584  -5.270 -22.845  1.00  0.00    -0.189 N 
BRANCH  32  33
HETATM   33  C3  UNL     1       6.986  -5.728 -24.150  1.00  0.00     0.108 C 
BRANCH  33  34
HETATM   34  C2  UNL     1       6.799  -4.828 -25.270  1.00  0.00     0.007 C 
HETATM   35  C1  UNL     1       5.773  -4.901 -26.142  1.00  0.00     0.012 C 
ENDBRANCH  33  34
ENDBRANCH  32  33
BRANCH  32  36
HETATM   36  C4  UNL     1       6.151  -3.894 -22.737  1.00  0.00     0.173 C 
BRANCH  36  37
HETATM   37  C5  UNL     1       4.749  -3.784 -22.261  1.00  0.00    -0.016 C 
HETATM   38  C6  UNL     1       3.706  -3.845 -23.070  1.00  0.00     0.008 C 
ENDBRANCH  36  37
ENDBRANCH  32  36
ENDBRANCH   1  32
TORSDOF 14
ENDMDL
MODEL 4
REMARK VINA RESULT: -7.121830605      2.844      4.966
REMARK  14 active torsions:
REMARK  status: ('A' for Active; 'I' for Inactive)
REMARK    1  A    between atoms: C2_2  and  C3_3 
REMARK    2  A    between atoms: C3_3  and  N1_4 
REMARK    3  A    between atoms: N1_4  and  C4_5 
REMARK    4  A    between atoms: N1_4  and  C7_8 
REMARK    5  A    between atoms: C4_5  and  C5_6 
REMARK    6  A    between atoms: C8_13  and  N4_14 
REMARK    7  A    between atoms: N4_14  and  C9_16 
REMARK    8  A    between atoms: C9_16  and  C10_17 
REMARK    9  A    between atoms: C10_17  and  N5_18 
REMARK       I    between atoms: N5_18  and  C11_20 
REMARK   10  A    between atoms: C11_20  and  C12_22 
REMARK   11  A    between atoms: C12_22  and  C13_23 
REMARK   12  A    between atoms: C13_23  and  N6_24 
REMARK   13  A    between atoms: C14_28  and  N7_29 
REMARK   14  A    between atoms: N7_29  and  C15_31 
ROOT
HETATM    1  C7  UNL     1       7.178  -3.158 -18.540  1.00  0.00     0.700 A 
HETATM    2  N2  UNL     1       8.082  -3.835 -17.787  1.00  0.00    -0.130 N 
ATOM      3  H2  UNL     1       8.638  -3.314 -17.110  1.00  0.00     0.205 HD
HETATM    4  N3  UNL     1       8.273  -5.123 -17.888  1.00  0.00    -0.268 N 
ATOM      5  H3  UNL     1       8.971  -5.562 -17.288  1.00  0.00     0.189 HD
HETATM    6  C8  UNL     1       7.575  -5.910 -18.769  1.00  0.00     0.162 A 
HETATM    7  C14 UNL     1       6.653  -5.255 -19.545  1.00  0.00     0.167 A 
HETATM    8  N8  UNL     1       6.489  -3.920 -19.404  1.00  0.00    -0.171 N 
ATOM      9  H8  UNL     1       5.795  -3.461 -19.993  1.00  0.00     0.186 HD
ENDROOT
BRANCH   6  10
HETATM   10  N4  UNL     1       7.796  -7.147 -18.825  1.00  0.00    -0.371 N 
ATOM     11  H4  UNL     1       8.670  -7.391 -19.292  1.00  0.00     0.161 HD
BRANCH  10  12
HETATM   12  C9  UNL     1       7.057  -8.268 -18.361  1.00  0.00     0.141 C 
BRANCH  12  13
HETATM   13  C10 UNL     1       7.436  -8.466 -16.878  1.00  0.00     0.142 C 
BRANCH  13  14
HETATM   14  N5  UNL     1       8.859  -8.570 -16.706  1.00  0.00    -0.359 N 
HETATM   15  C11 UNL     1       9.510  -7.722 -15.787  1.00  0.00     0.219 C 
HETATM   16  O1  UNL     1       8.824  -6.879 -15.127  1.00  0.00    -0.274 OA
ATOM     17  H5  UNL     1       9.393  -9.251 -17.244  1.00  0.00     0.162 HD
BRANCH  15  18
HETATM   18  C12 UNL     1      10.991  -7.791 -15.574  1.00  0.00     0.130 C 
BRANCH  18  19
HETATM   19  C13 UNL     1      11.358  -9.237 -15.266  1.00  0.00     0.238 C 
BRANCH  19  20
HETATM   20  N6  UNL     1      10.945  -9.582 -13.924  1.00  0.00    -0.079 N 
ATOM     21  H63 UNL     1      11.377  -8.979 -13.225  1.00  0.00     0.274 HD
ATOM     22  H62 UNL     1       9.970  -9.338 -13.751  1.00  0.00     0.274 HD
ATOM     23  H61 UNL     1      11.128 -10.569 -13.741  1.00  0.00     0.274 HD
ENDBRANCH  19  20
ENDBRANCH  18  19
ENDBRANCH  15  18
ENDBRANCH  13  14
ENDBRANCH  12  13
ENDBRANCH  10  12
ENDBRANCH   6  10
BRANCH   7  24
HETATM   24  N7  UNL     1       5.927  -5.885 -20.402  1.00  0.00    -0.339 N 
ATOM     25  H7  UNL     1       5.283  -6.610 -20.084  1.00  0.00     0.167 HD
BRANCH  24  26
HETATM   26  C15 UNL     1       6.015  -5.581 -21.786  1.00  0.00     0.033 A 
HETATM   27  C16 UNL     1       4.979  -4.919 -22.405  1.00  0.00     0.029 A 
HETATM   28  C17 UNL     1       5.034  -4.603 -23.762  1.00  0.00     0.002 A 
HETATM   29  C18 UNL     1       6.144  -4.962 -24.486  1.00  0.00     0.000 A 
HETATM   30  C19 UNL     1       7.178  -5.625 -23.860  1.00  0.00     0.002 A 
HETATM   31  C20 UNL     1       7.148  -5.948 -22.523  1.00  0.00     0.029 A 
ENDBRANCH  24  26
ENDBRANCH   7  24
BRANCH   1  32
HETATM   32  N1  UNL     1       6.951  -1.789 -18.445  1.00  0.00    -0.189 N 
BRANCH  32  33
HETATM   33  C3  UNL     1       6.650  -1.153 -17.188  1.00  0.00     0.108 C 
BRANCH  33  34
HETATM   34  C2  UNL     1       7.747  -0.560 -16.450  1.00  0.00     0.007 C 
HETATM   35  C1  UNL     1       8.097   0.741 -16.521  1.00  0.00     0.012 C 
ENDBRANCH  33  34
ENDBRANCH  32  33
BRANCH  32  36
HETATM   36  C4  UNL     1       6.971  -0.944 -19.619  1.00  0.00     0.173 C 
BRANCH  36  37
HETATM   37  C5  UNL     1       5.837   0.015 -19.638  1.00  0.00    -0.016 C 
HETATM   38  C6  UNL     1       5.995   1.314 -19.816  1.00  0.00     0.008 C 
ENDBRANCH  36  37
ENDBRANCH  32  36
ENDBRANCH   1  32
TORSDOF 14
ENDMDL
MODEL 5
REMARK VINA RESULT: -7.110947320      1.884      4.177
REMARK  14 active torsions:
REMARK  status: ('A' for Active; 'I' for Inactive)
REMARK    1  A    between atoms: C2_2  and  C3_3 
REMARK    2  A    between atoms: C3_3  and  N1_4 
REMARK    3  A    between atoms: N1_4  and  C4_5 
REMARK    4  A    between atoms: N1_4  and  C7_8 
REMARK    5  A    between atoms: C4_5  and  C5_6 
REMARK    6  A    between atoms: C8_13  and  N4_14 
REMARK    7  A    between atoms: N4_14  and  C9_16 
REMARK    8  A    between atoms: C9_16  and  C10_17 
REMARK    9  A    between atoms: C10_17  and  N5_18 
REMARK       I    between atoms: N5_18  and  C11_20 
REMARK   10  A    between atoms: C11_20  and  C12_22 
REMARK   11  A    between atoms: C12_22  and  C13_23 
REMARK   12  A    between atoms: C13_23  and  N6_24 
REMARK   13  A    between atoms: C14_28  and  N7_29 
REMARK   14  A    between atoms: N7_29  and  C15_31 
ROOT
HETATM    1  C7  UNL     1       6.670  -6.023 -21.804  1.00  0.00     0.700 A 
HETATM    2  N2  UNL     1       5.877  -7.102 -21.579  1.00  0.00    -0.130 N 
ATOM      3  H2  UNL     1       5.147  -7.318 -22.257  1.00  0.00     0.205 HD
HETATM    4  N3  UNL     1       6.005  -7.876 -20.536  1.00  0.00    -0.268 N 
ATOM      5  H3  UNL     1       5.371  -8.669 -20.435  1.00  0.00     0.189 HD
HETATM    6  C8  UNL     1       6.956  -7.668 -19.569  1.00  0.00     0.162 A 
HETATM    7  C14 UNL     1       7.774  -6.585 -19.767  1.00  0.00     0.167 A 
HETATM    8  N8  UNL     1       7.604  -5.812 -20.863  1.00  0.00    -0.171 N 
ATOM      9  H8  UNL     1       8.228  -5.014 -20.984  1.00  0.00     0.186 HD
ENDROOT
BRANCH   6  10
HETATM   10  N4  UNL     1       7.039  -8.446 -18.584  1.00  0.00    -0.371 N 
ATOM     11  H4  UNL     1       7.918  -8.961 -18.536  1.00  0.00     0.161 HD
BRANCH  10  12
HETATM   12  C9  UNL     1       6.138  -8.742 -17.527  1.00  0.00     0.141 C 
BRANCH  12  13
HETATM   13  C10 UNL     1       6.996  -8.987 -16.268  1.00  0.00     0.142 C 
BRANCH  13  14
HETATM   14  N5  UNL     1       8.397  -8.823 -16.543  1.00  0.00    -0.359 N 
HETATM   15  C11 UNL     1       9.145  -7.885 -15.802  1.00  0.00     0.219 C 
HETATM   16  O1  UNL     1       8.563  -7.201 -14.901  1.00  0.00    -0.274 OA
ATOM     17  H5  UNL     1       8.847  -9.380 -17.269  1.00  0.00     0.162 HD
BRANCH  15  18
HETATM   18  C12 UNL     1      10.607  -7.677 -16.053  1.00  0.00     0.130 C 
BRANCH  18  19
HETATM   19  C13 UNL     1      11.354  -8.900 -15.539  1.00  0.00     0.238 C 
BRANCH  19  20
HETATM   20  N6  UNL     1      10.915  -9.228 -14.201  1.00  0.00    -0.079 N 
ATOM     21  H63 UNL     1      11.147 -10.189 -13.949  1.00  0.00     0.274 HD
ATOM     22  H62 UNL     1      11.468  -8.749 -13.491  1.00  0.00     0.274 HD
ATOM     23  H61 UNL     1       9.918  -9.038 -14.099  1.00  0.00     0.274 HD
ENDBRANCH  19  20
ENDBRANCH  18  19
ENDBRANCH  15  18
ENDBRANCH  13  14
ENDBRANCH  12  13
ENDBRANCH  10  12
ENDBRANCH   6  10
BRANCH   7  24
HETATM   24  N7  UNL     1       8.713  -6.290 -18.935  1.00  0.00    -0.339 N 
ATOM     25  H7  UNL     1       9.274  -7.035 -18.521  1.00  0.00     0.167 HD
BRANCH  24  26
HETATM   26  C15 UNL     1       8.973  -4.938 -18.590  1.00  0.00     0.033 A 
HETATM   27  C16 UNL     1      10.162  -4.356 -18.969  1.00  0.00     0.029 A 
HETATM   28  C17 UNL     1      10.449  -3.029 -18.648  1.00  0.00     0.002 A 
HETATM   29  C18 UNL     1       9.526  -2.299 -17.941  1.00  0.00     0.000 A 
HETATM   30  C19 UNL     1       8.338  -2.889 -17.564  1.00  0.00     0.002 A 
HETATM   31  C20 UNL     1       8.031  -4.195 -17.869  1.00  0.00     0.029 A 
ENDBRANCH  24  26
ENDBRANCH   7  24
BRANCH   1  32
HETATM   32  N1  UNL     1       6.557  -5.187 -22.911  1.00  0.00    -0.189 N 
BRANCH  32  33
HETATM   33  C3  UNL     1       6.037  -3.848 -22.803  1.00  0.00     0.108 C 
BRANCH  33  34
HETATM   34  C2  UNL     1       4.742  -3.675 -22.175  1.00  0.00     0.007 C 
HETATM   35  C1  UNL     1       3.564  -3.742 -22.828  1.00  0.00     0.012 C 
ENDBRANCH  33  34
ENDBRANCH  32  33
BRANCH  32  36
HETATM   36  C4  UNL     1       6.924  -5.643 -24.233  1.00  0.00     0.173 C 
BRANCH  36  37
HETATM   37  C5  UNL     1       6.579  -4.651 -25.283  1.00  0.00    -0.016 C 
HETATM   38  C6  UNL     1       5.605  -4.835 -26.156  1.00  0.00     0.008 C 
ENDBRANCH  36  37
ENDBRANCH  32  36
ENDBRANCH   1  32
TORSDOF 14
ENDMDL
