MODEL 1
REMARK VINA RESULT: -7.374288388      0.000      0.000
REMARK  12 active torsions:
REMARK  status: ('A' for Active; 'I' for Inactive)
REMARK    1  A    between atoms: C2_2  and  C3_3 
REMARK    2  A    between atoms: C3_3  and  N1_4 
REMARK    3  A    between atoms: N1_4  and  C4_7 
REMARK    4  A    between atoms: C4_7  and  C5_8 
REMARK    5  A    between atoms: C5_8  and  N2_9 
REMARK    6  A    between atoms: N2_9  and  C6_12 
REMARK    7  A    between atoms: C6_12  and  C7_13 
REMARK    8  A    between atoms: C7_13  and  O1_14 
REMARK    9  A    between atoms: C7_13  and  C8_16 
REMARK   10  A    between atoms: C7_13  and  C15_27 
REMARK   11  A    between atoms: C8_16  and  S1_17 
REMARK   12  A    between atoms: S1_17  and  C9_20 
ROOT
HETATM    1  C7  UNL     1       6.476  -6.438 -19.636  1.00  0.00     0.122 C 
ENDROOT
BRANCH   1   2
HETATM    2  C6  UNL     1       7.518  -6.032 -18.674  1.00  0.00     0.276 C 
BRANCH   2   3
HETATM    3  N2  UNL     1       8.895  -6.141 -19.128  1.00  0.00    -0.070 N 
ATOM      4  H22 UNL     1       9.018  -5.821 -20.090  1.00  0.00     0.277 HD
ATOM      5  H21 UNL     1       9.187  -7.109 -19.266  1.00  0.00     0.277 HD
BRANCH   3   6
HETATM    6  C5  UNL     1       9.745  -5.428 -18.189  1.00  0.00     0.260 C 
BRANCH   6   7
HETATM    7  C4  UNL     1      10.936  -6.154 -17.765  1.00  0.00     0.260 C 
BRANCH   7   8
HETATM    8  N1  UNL     1      10.769  -7.498 -17.326  1.00  0.00    -0.070 N 
ATOM      9  H12 UNL     1      11.661  -7.979 -17.203  1.00  0.00     0.277 HD
ATOM     10  H11 UNL     1      10.382  -8.099 -18.054  1.00  0.00     0.277 HD
BRANCH   8  11
HETATM   11  C3  UNL     1       9.950  -7.508 -16.094  1.00  0.00     0.259 C 
BRANCH  11  12
HETATM   12  C2  UNL     1       8.922  -8.600 -16.137  1.00  0.00    -0.010 C 
HETATM   13  C1  UNL     1       7.703  -8.332 -15.624  1.00  0.00     0.008 C 
ENDBRANCH  11  12
ENDBRANCH   8  11
ENDBRANCH   7   8
ENDBRANCH   6   7
ENDBRANCH   3   6
ENDBRANCH   2   3
ENDBRANCH   1   2
BRANCH   1  14
HETATM   14  O1  UNL     1       5.361  -5.584 -19.626  1.00  0.00    -0.382 OA
ATOM     15  H1  UNL     1       4.620  -5.949 -19.157  1.00  0.00     0.211 HD
ENDBRANCH   1  14
BRANCH   1  16
HETATM   16  C8  UNL     1       6.845  -6.767 -21.038  1.00  0.00     0.190 C 
BRANCH  16  17
HETATM   17  S1  UNL     1       7.305  -5.264 -21.841  1.00  0.00     0.180 S 
HETATM   18  O2  UNL     1       7.173  -4.066 -20.929  1.00  0.00    -0.222 OA
HETATM   19  O3  UNL     1       8.809  -5.383 -22.115  1.00  0.00    -0.222 OA
BRANCH  17  20
HETATM   20  C9  UNL     1       6.543  -4.956 -23.351  1.00  0.00     0.083 A 
HETATM   21  C10 UNL     1       7.044  -5.176 -24.605  1.00  0.00     0.025 A 
HETATM   22  C11 UNL     1       6.274  -4.972 -25.755  1.00  0.00     0.002 A 
HETATM   23  C12 UNL     1       4.963  -4.529 -25.638  1.00  0.00     0.002 A 
HETATM   24  C13 UNL     1       4.465  -4.311 -24.396  1.00  0.00     0.028 A 
HETATM   25  C14 UNL     1       5.214  -4.511 -23.285  1.00  0.00     0.067 A 
HETATM   26  N3  UNL     1       4.647  -4.254 -22.001  1.00  0.00    -0.101 NA
ENDBRANCH  17  20
ENDBRANCH  16  17
ENDBRANCH   1  16
BRANCH   1  27
HETATM   27  C15 UNL     1       5.953  -7.739 -19.010  1.00  0.00    -0.021 A 
HETATM   28  C16 UNL     1       4.781  -7.728 -18.326  1.00  0.00     0.010 A 
HETATM   29  C17 UNL     1       4.280  -8.903 -17.735  1.00  0.00     0.001 A 
HETATM   30  C18 UNL     1       5.006 -10.091 -17.863  1.00  0.00     0.000 A 
HETATM   31  C19 UNL     1       6.176 -10.085 -18.552  1.00  0.00     0.001 A 
HETATM   32  C20 UNL     1       6.646  -8.899 -19.125  1.00  0.00     0.010 A 
ENDBRANCH   1  27
TORSDOF 12
ENDMDL
MODEL 2
REMARK VINA RESULT: -7.311021326      1.303      1.796
REMARK  12 active torsions:
REMARK  status: ('A' for Active; 'I' for Inactive)
REMARK    1  A    between atoms: C2_2  and  C3_3 
REMARK    2  A    between atoms: C3_3  and  N1_4 
REMARK    3  A    between atoms: N1_4  and  C4_7 
REMARK    4  A    between atoms: C4_7  and  C5_8 
REMARK    5  A    between atoms: C5_8  and  N2_9 
REMARK    6  A    between atoms: N2_9  and  C6_12 
REMARK    7  A    between atoms: C6_12  and  C7_13 
REMARK    8  A    between atoms: C7_13  and  O1_14 
REMARK    9  A    between atoms: C7_13  and  C8_16 
REMARK   10  A    between atoms: C7_13  and  C15_27 
REMARK   11  A    between atoms: C8_16  and  S1_17 
REMARK   12  A    between atoms: S1_17  and  C9_20 
ROOT
HETATM    1  C7  UNL     1       6.539  -6.202 -19.265  1.00  0.00     0.122 C 
ENDROOT
BRANCH   1   2
HETATM    2  C6  UNL     1       7.954  -5.969 -18.923  1.00  0.00     0.276 C 
BRANCH   2   3
HETATM    3  N2  UNL     1       8.915  -6.125 -20.003  1.00  0.00    -0.070 N 
ATOM      4  H22 UNL     1       8.547  -5.816 -20.904  1.00  0.00     0.277 HD
ATOM      5  H21 UNL     1       9.075  -7.103 -20.248  1.00  0.00     0.277 HD
BRANCH   3   6
HETATM    6  C5  UNL     1      10.139  -5.435 -19.632  1.00  0.00     0.260 C 
BRANCH   6   7
HETATM    7  C4  UNL     1      10.525  -5.578 -18.234  1.00  0.00     0.260 C 
BRANCH   7   8
HETATM    8  N1  UNL     1      11.115  -6.810 -17.834  1.00  0.00    -0.070 N 
ATOM      9  H12 UNL     1      12.134  -6.787 -17.887  1.00  0.00     0.277 HD
ATOM     10  H11 UNL     1      10.954  -7.556 -18.511  1.00  0.00     0.277 HD
BRANCH   8  11
HETATM   11  C3  UNL     1      10.630  -7.165 -16.482  1.00  0.00     0.259 C 
BRANCH  11  12
HETATM   12  C2  UNL     1      10.791  -8.632 -16.216  1.00  0.00    -0.010 C 
HETATM   13  C1  UNL     1      11.206  -9.004 -14.986  1.00  0.00     0.008 C 
ENDBRANCH  11  12
ENDBRANCH   8  11
ENDBRANCH   7   8
ENDBRANCH   6   7
ENDBRANCH   3   6
ENDBRANCH   2   3
ENDBRANCH   1   2
BRANCH   1  14
HETATM   14  O1  UNL     1       5.676  -5.245 -18.706  1.00  0.00    -0.382 OA
ATOM     15  H1  UNL     1       5.162  -5.587 -17.985  1.00  0.00     0.211 HD
ENDBRANCH   1  14
BRANCH   1  16
HETATM   16  C8  UNL     1       6.148  -6.466 -20.676  1.00  0.00     0.190 C 
BRANCH  16  17
HETATM   17  S1  UNL     1       5.779  -4.915 -21.432  1.00  0.00     0.180 S 
HETATM   18  O2  UNL     1       4.537  -4.278 -20.854  1.00  0.00    -0.222 OA
HETATM   19  O3  UNL     1       6.923  -3.975 -21.034  1.00  0.00    -0.222 OA
BRANCH  17  20
HETATM   20  C9  UNL     1       5.708  -4.917 -23.151  1.00  0.00     0.083 A 
HETATM   21  C10 UNL     1       4.674  -4.511 -23.949  1.00  0.00     0.025 A 
HETATM   22  C11 UNL     1       4.787  -4.473 -25.343  1.00  0.00     0.002 A 
HETATM   23  C12 UNL     1       5.975  -4.861 -25.950  1.00  0.00     0.002 A 
HETATM   24  C13 UNL     1       7.000  -5.263 -25.160  1.00  0.00     0.028 A 
HETATM   25  C14 UNL     1       6.887  -5.297 -23.810  1.00  0.00     0.067 A 
HETATM   26  N3  UNL     1       7.992  -5.741 -23.024  1.00  0.00    -0.101 NA
ENDBRANCH  17  20
ENDBRANCH  16  17
ENDBRANCH   1  16
BRANCH   1  27
HETATM   27  C15 UNL     1       6.228  -7.485 -18.483  1.00  0.00    -0.021 A 
HETATM   28  C16 UNL     1       5.027  -8.096 -18.650  1.00  0.00     0.010 A 
HETATM   29  C17 UNL     1       4.709  -9.270 -17.941  1.00  0.00     0.001 A 
HETATM   30  C18 UNL     1       5.652  -9.806 -17.060  1.00  0.00     0.000 A 
HETATM   31  C19 UNL     1       6.850  -9.185 -16.905  1.00  0.00     0.001 A 
HETATM   32  C20 UNL     1       7.131  -8.018 -17.624  1.00  0.00     0.010 A 
ENDBRANCH   1  27
TORSDOF 12
ENDMDL
MODEL 3
REMARK VINA RESULT: -7.103101486      2.190      3.125
REMARK  12 active torsions:
REMARK  status: ('A' for Active; 'I' for Inactive)
REMARK    1  A    between atoms: C2_2  and  C3_3 
REMARK    2  A    between atoms: C3_3  and  N1_4 
REMARK    3  A    between atoms: N1_4  and  C4_7 
REMARK    4  A    between atoms: C4_7  and  C5_8 
REMARK    5  A    between atoms: C5_8  and  N2_9 
REMARK    6  A    between atoms: N2_9  and  C6_12 
REMARK    7  A    between atoms: C6_12  and  C7_13 
REMARK    8  A    between atoms: C7_13  and  O1_14 
REMARK    9  A    between atoms: C7_13  and  C8_16 
REMARK   10  A    between atoms: C7_13  and  C15_27 
REMARK   11  A    between atoms: C8_16  and  S1_17 
REMARK   12  A    between atoms: S1_17  and  C9_20 
ROOT
HETATM    1  C7  UNL     1       6.814  -6.513 -19.520  1.00  0.00     0.122 C 
ENDROOT
BRANCH   1   2
HETATM    2  C6  UNL     1       8.124  -6.396 -18.853  1.00  0.00     0.276 C 
BRANCH   2   3
HETATM    3  N2  UNL     1       8.749  -5.083 -18.878  1.00  0.00    -0.070 N 
ATOM      4  H22 UNL     1       8.361  -4.479 -19.603  1.00  0.00     0.277 HD
ATOM      5  H21 UNL     1       9.710  -5.113 -19.220  1.00  0.00     0.277 HD
BRANCH   3   6
HETATM    6  C5  UNL     1       8.646  -4.501 -17.550  1.00  0.00     0.260 C 
BRANCH   6   7
HETATM    7  C4  UNL     1       8.302  -3.085 -17.525  1.00  0.00     0.260 C 
BRANCH   7   8
HETATM    8  N1  UNL     1       7.065  -2.695 -18.113  1.00  0.00    -0.070 N 
ATOM      9  H12 UNL     1       6.311  -3.347 -17.898  1.00  0.00     0.277 HD
ATOM     10  H11 UNL     1       7.065  -2.805 -19.127  1.00  0.00     0.277 HD
BRANCH   8  11
HETATM   11  C3  UNL     1       6.746  -1.310 -17.699  1.00  0.00     0.259 C 
BRANCH  11  12
HETATM   12  C2  UNL     1       7.619  -0.872 -16.560  1.00  0.00    -0.010 C 
HETATM   13  C1  UNL     1       7.973   0.430 -16.509  1.00  0.00     0.008 C 
ENDBRANCH  11  12
ENDBRANCH   8  11
ENDBRANCH   7   8
ENDBRANCH   6   7
ENDBRANCH   3   6
ENDBRANCH   2   3
ENDBRANCH   1   2
BRANCH   1  14
HETATM   14  O1  UNL     1       5.937  -5.467 -19.189  1.00  0.00    -0.382 OA
ATOM     15  H1  UNL     1       5.054  -5.769 -19.008  1.00  0.00     0.211 HD
ENDBRANCH   1  14
BRANCH   1  16
HETATM   16  C8  UNL     1       6.745  -6.782 -20.981  1.00  0.00     0.190 C 
BRANCH  16  17
HETATM   17  S1  UNL     1       7.255  -5.318 -21.824  1.00  0.00     0.180 S 
HETATM   18  O2  UNL     1       7.152  -4.090 -20.949  1.00  0.00    -0.222 OA
HETATM   19  O3  UNL     1       8.756  -5.489 -22.084  1.00  0.00    -0.222 OA
BRANCH  17  20
HETATM   20  C9  UNL     1       6.512  -5.033 -23.349  1.00  0.00     0.083 A 
HETATM   21  C10 UNL     1       7.049  -5.224 -24.593  1.00  0.00     0.025 A 
HETATM   22  C11 UNL     1       6.295  -5.045 -25.758  1.00  0.00     0.002 A 
HETATM   23  C12 UNL     1       4.964  -4.658 -25.666  1.00  0.00     0.002 A 
HETATM   24  C13 UNL     1       4.432  -4.469 -24.434  1.00  0.00     0.028 A 
HETATM   25  C14 UNL     1       5.164  -4.645 -23.308  1.00  0.00     0.067 A 
HETATM   26  N3  UNL     1       4.560  -4.421 -22.035  1.00  0.00    -0.101 NA
ENDBRANCH  17  20
ENDBRANCH  16  17
ENDBRANCH   1  16
BRANCH   1  27
HETATM   27  C15 UNL     1       6.210  -7.740 -18.825  1.00  0.00    -0.021 A 
HETATM   28  C16 UNL     1       6.730  -8.166 -17.646  1.00  0.00     0.010 A 
HETATM   29  C17 UNL     1       6.201  -9.292 -16.988  1.00  0.00     0.001 A 
HETATM   30  C18 UNL     1       5.125  -9.972 -17.565  1.00  0.00     0.000 A 
HETATM   31  C19 UNL     1       4.615  -9.534 -18.745  1.00  0.00     0.001 A 
HETATM   32  C20 UNL     1       5.166  -8.412 -19.372  1.00  0.00     0.010 A 
ENDBRANCH   1  27
TORSDOF 12
ENDMDL
MODEL 4
REMARK VINA RESULT: -7.092526149      2.351      3.434
REMARK  12 active torsions:
REMARK  status: ('A' for Active; 'I' for Inactive)
REMARK    1  A    between atoms: C2_2  and  C3_3 
REMARK    2  A    between atoms: C3_3  and  N1_4 
REMARK    3  A    between atoms: N1_4  and  C4_7 
REMARK    4  A    between atoms: C4_7  and  C5_8 
REMARK    5  A    between atoms: C5_8  and  N2_9 
REMARK    6  A    between atoms: N2_9  and  C6_12 
REMARK    7  A    between atoms: C6_12  and  C7_13 
REMARK    8  A    between atoms: C7_13  and  O1_14 
REMARK    9  A    between atoms: C7_13  and  C8_16 
REMARK   10  A    between atoms: C7_13  and  C15_27 
REMARK   11  A    between atoms: C8_16  and  S1_17 
REMARK   12  A    between atoms: S1_17  and  C9_20 
ROOT
HETATM    1  C7  UNL     1       6.750  -6.328 -19.243  1.00  0.00     0.122 C 
ENDROOT
BRANCH   1   2
HETATM    2  C6  UNL     1       8.150  -6.248 -18.786  1.00  0.00     0.276 C 
BRANCH   2   3
HETATM    3  N2  UNL     1       8.890  -5.059 -19.175  1.00  0.00    -0.070 N 
ATOM      4  H22 UNL     1       8.404  -4.508 -19.883  1.00  0.00     0.277 HD
ATOM      5  H21 UNL     1       9.725  -5.277 -19.719  1.00  0.00     0.277 HD
BRANCH   3   6
HETATM    6  C5  UNL     1       9.189  -4.292 -17.977  1.00  0.00     0.260 C 
BRANCH   6   7
HETATM    7  C4  UNL     1       8.673  -2.929 -17.975  1.00  0.00     0.260 C 
BRANCH   7   8
HETATM    8  N1  UNL     1       7.261  -2.757 -18.049  1.00  0.00    -0.070 N 
ATOM      9  H12 UNL     1       6.759  -3.411 -17.448  1.00  0.00     0.277 HD
ATOM     10  H11 UNL     1       6.879  -3.062 -18.944  1.00  0.00     0.277 HD
BRANCH   8  11
HETATM   11  C3  UNL     1       6.928  -1.347 -17.747  1.00  0.00     0.259 C 
BRANCH  11  12
HETATM   12  C2  UNL     1       7.620  -0.883 -16.500  1.00  0.00    -0.010 C 
HETATM   13  C1  UNL     1       8.009   0.409 -16.444  1.00  0.00     0.008 C 
ENDBRANCH  11  12
ENDBRANCH   8  11
ENDBRANCH   7   8
ENDBRANCH   6   7
ENDBRANCH   3   6
ENDBRANCH   2   3
ENDBRANCH   1   2
BRANCH   1  14
HETATM   14  O1  UNL     1       5.950  -5.289 -18.739  1.00  0.00    -0.382 OA
ATOM     15  H1  UNL     1       5.559  -4.759 -19.423  1.00  0.00     0.211 HD
ENDBRANCH   1  14
BRANCH   1  16
HETATM   16  C8  UNL     1       6.449  -6.541 -20.684  1.00  0.00     0.190 C 
BRANCH  16  17
HETATM   17  S1  UNL     1       5.833  -5.020 -21.336  1.00  0.00     0.180 S 
HETATM   18  O2  UNL     1       4.552  -4.587 -20.661  1.00  0.00    -0.222 OA
HETATM   19  O3  UNL     1       6.862  -3.953 -20.945  1.00  0.00    -0.222 OA
BRANCH  17  20
HETATM   20  C9  UNL     1       5.664  -4.952 -23.045  1.00  0.00     0.083 A 
HETATM   21  C10 UNL     1       4.580  -4.531 -23.766  1.00  0.00     0.025 A 
HETATM   22  C11 UNL     1       4.612  -4.433 -25.161  1.00  0.00     0.002 A 
HETATM   23  C12 UNL     1       5.769  -4.774 -25.850  1.00  0.00     0.002 A 
HETATM   24  C13 UNL     1       6.844  -5.191 -25.137  1.00  0.00     0.028 A 
HETATM   25  C14 UNL     1       6.809  -5.283 -23.786  1.00  0.00     0.067 A 
HETATM   26  N3  UNL     1       7.964  -5.740 -23.083  1.00  0.00    -0.101 NA
ENDBRANCH  17  20
ENDBRANCH  16  17
ENDBRANCH   1  16
BRANCH   1  27
HETATM   27  C15 UNL     1       6.244  -7.577 -18.507  1.00  0.00    -0.021 A 
HETATM   28  C16 UNL     1       7.045  -8.187 -17.597  1.00  0.00     0.010 A 
HETATM   29  C17 UNL     1       6.613  -9.338 -16.911  1.00  0.00     0.001 A 
HETATM   30  C18 UNL     1       5.339  -9.848 -17.178  1.00  0.00     0.000 A 
HETATM   31  C19 UNL     1       4.549  -9.225 -18.090  1.00  0.00     0.001 A 
HETATM   32  C20 UNL     1       5.012  -8.084 -18.754  1.00  0.00     0.010 A 
ENDBRANCH   1  27
TORSDOF 12
ENDMDL
MODEL 5
REMARK VINA RESULT: -7.030775471      3.649      6.064
REMARK  12 active torsions:
REMARK  status: ('A' for Active; 'I' for Inactive)
REMARK    1  A    between atoms: C2_2  and  C3_3 
REMARK    2  A    between atoms: C3_3  and  N1_4 
REMARK    3  A    between atoms: N1_4  and  C4_7 
REMARK    4  A    between atoms: C4_7  and  C5_8 
REMARK    5  A    between atoms: C5_8  and  N2_9 
REMARK    6  A    between atoms: N2_9  and  C6_12 
REMARK    7  A    between atoms: C6_12  and  C7_13 
REMARK    8  A    between atoms: C7_13  and  O1_14 
REMARK    9  A    between atoms: C7_13  and  C8_16 
REMARK   10  A    between atoms: C7_13  and  C15_27 
REMARK   11  A    between atoms: C8_16  and  S1_17 
REMARK   12  A    between atoms: S1_17  and  C9_20 
ROOT
HETATM    1  C7  UNL     1       6.038  -3.926 -20.751  1.00  0.00     0.122 C 
ENDROOT
BRANCH   1   2
HETATM    2  C6  UNL     1       5.750  -5.312 -20.335  1.00  0.00     0.276 C 
BRANCH   2   3
HETATM    3  N2  UNL     1       6.434  -5.784 -19.142  1.00  0.00    -0.070 N 
ATOM      4  H22 UNL     1       5.787  -6.064 -18.403  1.00  0.00     0.277 HD
ATOM      5  H21 UNL     1       6.905  -5.034 -18.636  1.00  0.00     0.277 HD
BRANCH   3   6
HETATM    6  C5  UNL     1       7.340  -6.855 -19.526  1.00  0.00     0.260 C 
BRANCH   6   7
HETATM    7  C4  UNL     1       6.698  -8.136 -19.794  1.00  0.00     0.260 C 
BRANCH   7   8
HETATM    8  N1  UNL     1       7.167  -9.273 -19.075  1.00  0.00    -0.070 N 
ATOM      9  H12 UNL     1       7.919  -9.038 -18.427  1.00  0.00     0.277 HD
ATOM     10  H11 UNL     1       7.686  -9.920 -19.669  1.00  0.00     0.277 HD
BRANCH   8  11
HETATM   11  C3  UNL     1       6.023  -9.924 -18.399  1.00  0.00     0.259 C 
BRANCH  11  12
HETATM   12  C2  UNL     1       5.695  -9.236 -17.107  1.00  0.00    -0.010 C 
HETATM   13  C1  UNL     1       6.604  -9.309 -16.111  1.00  0.00     0.008 C 
ENDBRANCH  11  12
ENDBRANCH   8  11
ENDBRANCH   7   8
ENDBRANCH   6   7
ENDBRANCH   3   6
ENDBRANCH   2   3
ENDBRANCH   1   2
BRANCH   1  14
HETATM   14  O1  UNL     1       4.885  -3.128 -20.825  1.00  0.00    -0.382 OA
ATOM     15  H1  UNL     1       4.762  -2.584 -20.057  1.00  0.00     0.211 HD
ENDBRANCH   1  14
BRANCH   1  16
HETATM   16  C8  UNL     1       7.134  -3.166 -20.095  1.00  0.00     0.190 C 
BRANCH  16  17
HETATM   17  S1  UNL     1       6.605  -2.756 -18.462  1.00  0.00     0.180 S 
HETATM   18  O2  UNL     1       5.154  -3.106 -18.227  1.00  0.00    -0.222 OA
HETATM   19  O3  UNL     1       7.388  -3.684 -17.526  1.00  0.00    -0.222 OA
BRANCH  17  20
HETATM   20  C9  UNL     1       6.925  -1.145 -17.952  1.00  0.00     0.083 A 
HETATM   21  C10 UNL     1       7.780  -0.730 -16.968  1.00  0.00     0.025 A 
HETATM   22  C11 UNL     1       8.020   0.626 -16.721  1.00  0.00     0.002 A 
HETATM   23  C12 UNL     1       7.375   1.591 -17.484  1.00  0.00     0.002 A 
HETATM   24  C13 UNL     1       6.527   1.180 -18.459  1.00  0.00     0.028 A 
HETATM   25  C14 UNL     1       6.298  -0.134 -18.696  1.00  0.00     0.067 A 
HETATM   26  N3  UNL     1       5.387  -0.513 -19.726  1.00  0.00    -0.101 NA
ENDBRANCH  17  20
ENDBRANCH  16  17
ENDBRANCH   1  16
BRANCH   1  27
HETATM   27  C15 UNL     1       6.457  -4.113 -22.215  1.00  0.00    -0.021 A 
HETATM   28  C16 UNL     1       6.771  -3.026 -22.965  1.00  0.00     0.010 A 
HETATM   29  C17 UNL     1       7.152  -3.164 -24.313  1.00  0.00     0.001 A 
HETATM   30  C18 UNL     1       7.206  -4.442 -24.875  1.00  0.00     0.000 A 
HETATM   31  C19 UNL     1       6.891  -5.520 -24.112  1.00  0.00     0.001 A 
HETATM   32  C20 UNL     1       6.515  -5.346 -22.776  1.00  0.00     0.010 A 
ENDBRANCH   1  27
TORSDOF 12
ENDMDL
