MODEL 1
REMARK VINA RESULT: -9.424235174      0.000      0.000
REMARK  11 active torsions:
REMARK  status: ('A' for Active; 'I' for Inactive)
REMARK    1  A    between atoms: C5_5  and  C6_6 
REMARK    2  A    between atoms: C6_6  and  C7_7 
REMARK    3  A    between atoms: C7_7  and  C8_8 
REMARK    4  A    between atoms: C10_10  and  C11_11 
REMARK    5  A    between atoms: C11_11  and  O1_12 
REMARK    6  A    between atoms: O1_12  and  C12_13 
REMARK    7  A    between atoms: C12_13  and  C13_14 
REMARK    8  A    between atoms: C13_14  and  C14_15 
REMARK    9  A    between atoms: C15_16  and  C16_17 
REMARK   10  A    between atoms: C16_17  and  C17_18 
REMARK   11  A    between atoms: C17_18  and  N1_19 
REMARK       I    between atoms: N1_19  and  C18_21 
ROOT
HETATM    1  C8  UNL     1       8.005  -3.809 -18.144  1.00  0.00     0.058 A 
HETATM    2  C9  UNL     1       6.881  -4.483 -18.547  1.00  0.00     0.042 A 
HETATM    3  C10 UNL     1       7.009  -5.625 -19.304  1.00  0.00    -0.026 A 
HETATM    4  C19 UNL     1       8.275  -6.054 -19.631  1.00  0.00     0.091 A 
HETATM    5  C20 UNL     1       9.354  -5.329 -19.191  1.00  0.00     0.288 A 
HETATM    6  O2  UNL     1      10.547  -5.660 -19.451  1.00  0.00    -0.260 OA
HETATM    7  O3  UNL     1       9.175  -4.248 -18.473  1.00  0.00    -0.280 OA
ENDROOT
BRANCH   3   8
HETATM    8  C11 UNL     1       5.796  -6.376 -19.761  1.00  0.00     0.206 C 
BRANCH   8   9
HETATM    9  O1  UNL     1       5.140  -6.848 -18.656  1.00  0.00    -0.386 OA
BRANCH   9  10
HETATM   10  C12 UNL     1       5.057  -8.234 -18.688  1.00  0.00     0.171 C 
BRANCH  10  11
HETATM   11  C13 UNL     1       5.515  -8.686 -17.288  1.00  0.00     0.053 C 
BRANCH  11  12
HETATM   12  C14 UNL     1       6.848  -9.292 -17.498  1.00  0.00    -0.029 C 
HETATM   13  C15 UNL     1       7.968  -8.788 -17.101  1.00  0.00    -0.029 C 
BRANCH  13  14
HETATM   14  C16 UNL     1       8.086  -7.524 -16.372  1.00  0.00     0.046 C 
BRANCH  14  15
HETATM   15  C17 UNL     1       9.417  -7.532 -15.607  1.00  0.00     0.126 C 
BRANCH  15  16
HETATM   16  N1  UNL     1       9.554  -8.862 -15.071  1.00  0.00    -0.365 N 
HETATM   17  C18 UNL     1      10.838  -9.342 -14.735  1.00  0.00     0.181 C 
HETATM   18  N2  UNL     1      11.145  -9.756 -13.546  1.00  0.00    -0.374 N 
HETATM   19  N3  UNL     1      11.863  -9.393 -15.704  1.00  0.00    -0.064 NA
ATOM     20  H22 UNL     1      10.404  -9.720 -12.845  1.00  0.00     0.158 HD
ATOM     21  H21 UNL     1      12.072 -10.104 -13.303  1.00  0.00     0.158 HD
ATOM     22  H1  UNL     1       8.732  -9.450 -14.935  1.00  0.00     0.162 HD
ENDBRANCH  15  16
ENDBRANCH  14  15
ENDBRANCH  13  14
ENDBRANCH  11  12
ENDBRANCH  10  11
ENDBRANCH   9  10
ENDBRANCH   8   9
ENDBRANCH   3   8
BRANCH   1  23
HETATM   23  C7  UNL     1       7.818  -2.563 -17.317  1.00  0.00     0.070 C 
BRANCH  23  24
HETATM   24  C6  UNL     1       6.592  -1.860 -17.905  1.00  0.00     0.051 C 
BRANCH  24  25
HETATM   25  C5  UNL     1       6.763  -0.387 -17.874  1.00  0.00     0.010 A 
HETATM   26  C4  UNL     1       7.722   0.135 -17.035  1.00  0.00     0.014 A 
HETATM   27  C3  UNL     1       7.925   1.506 -16.968  1.00  0.00     0.025 A 
HETATM   28  C2  UNL     1       7.165   2.358 -17.741  1.00  0.00     0.008 A 
HETATM   29  C1  UNL     1       7.339   3.844 -17.709  1.00  0.00     0.068 C 
HETATM   30  N4  UNL     1       6.239   1.812 -18.549  1.00  0.00    -0.327 N 
HETATM   31  C21 UNL     1       6.019   0.485 -18.636  1.00  0.00     0.252 A 
ATOM     32  H4  UNL     1       5.674   2.435 -19.126  1.00  0.00     0.169 HD
HETATM   33  O4  UNL     1       5.129   0.019 -19.417  1.00  0.00    -0.268 OA
ENDBRANCH  24  25
ENDBRANCH  23  24
ENDBRANCH   1  23
TORSDOF 11
ENDMDL
MODEL 2
REMARK VINA RESULT: -9.074859755      1.560      1.953
REMARK  11 active torsions:
REMARK  status: ('A' for Active; 'I' for Inactive)
REMARK    1  A    between atoms: C5_5  and  C6_6 
REMARK    2  A    between atoms: C6_6  and  C7_7 
REMARK    3  A    between atoms: C7_7  and  C8_8 
REMARK    4  A    between atoms: C10_10  and  C11_11 
REMARK    5  A    between atoms: C11_11  and  O1_12 
REMARK    6  A    between atoms: O1_12  and  C12_13 
REMARK    7  A    between atoms: C12_13  and  C13_14 
REMARK    8  A    between atoms: C13_14  and  C14_15 
REMARK    9  A    between atoms: C15_16  and  C16_17 
REMARK   10  A    between atoms: C16_17  and  C17_18 
REMARK   11  A    between atoms: C17_18  and  N1_19 
REMARK       I    between atoms: N1_19  and  C18_21 
ROOT
HETATM    1  C8  UNL     1       6.666  -3.154 -19.019  1.00  0.00     0.058 A 
HETATM    2  C9  UNL     1       6.583  -4.511 -18.838  1.00  0.00     0.042 A 
HETATM    3  C10 UNL     1       5.864  -5.272 -19.731  1.00  0.00    -0.026 A 
HETATM    4  C19 UNL     1       5.249  -4.635 -20.785  1.00  0.00     0.091 A 
HETATM    5  C20 UNL     1       5.377  -3.274 -20.902  1.00  0.00     0.288 A 
HETATM    6  O2  UNL     1       4.840  -2.620 -21.842  1.00  0.00    -0.260 OA
HETATM    7  O3  UNL     1       6.072  -2.598 -20.022  1.00  0.00    -0.280 OA
ENDROOT
BRANCH   3   8
HETATM    8  C11 UNL     1       5.754  -6.755 -19.553  1.00  0.00     0.206 C 
BRANCH   8   9
HETATM    9  O1  UNL     1       4.942  -7.002 -18.479  1.00  0.00    -0.386 OA
BRANCH   9  10
HETATM   10  C12 UNL     1       4.647  -8.356 -18.387  1.00  0.00     0.171 C 
BRANCH  10  11
HETATM   11  C13 UNL     1       6.014  -9.061 -18.480  1.00  0.00     0.053 C 
BRANCH  11  12
HETATM   12  C14 UNL     1       6.356  -9.421 -17.087  1.00  0.00    -0.029 C 
HETATM   13  C15 UNL     1       7.269  -8.853 -16.372  1.00  0.00    -0.029 C 
BRANCH  13  14
HETATM   14  C16 UNL     1       8.112  -7.751 -16.841  1.00  0.00     0.046 C 
BRANCH  14  15
HETATM   15  C17 UNL     1       9.075  -7.367 -15.709  1.00  0.00     0.126 C 
BRANCH  15  16
HETATM   16  N1  UNL     1       9.335  -8.584 -14.985  1.00  0.00    -0.365 N 
HETATM   17  C18 UNL     1      10.651  -9.093 -14.939  1.00  0.00     0.181 C 
HETATM   18  N2  UNL     1      11.283  -9.308 -13.828  1.00  0.00    -0.374 N 
HETATM   19  N3  UNL     1      11.346  -9.397 -16.129  1.00  0.00    -0.064 NA
ATOM     20  H22 UNL     1      10.781  -9.088 -12.968  1.00  0.00     0.158 HD
ATOM     21  H21 UNL     1      12.234  -9.676 -13.795  1.00  0.00     0.158 HD
ATOM     22  H1  UNL     1       8.577  -9.073 -14.509  1.00  0.00     0.162 HD
ENDBRANCH  15  16
ENDBRANCH  14  15
ENDBRANCH  13  14
ENDBRANCH  11  12
ENDBRANCH  10  11
ENDBRANCH   9  10
ENDBRANCH   8   9
ENDBRANCH   3   8
BRANCH   1  23
HETATM   23  C7  UNL     1       7.463  -2.361 -18.015  1.00  0.00     0.070 C 
BRANCH  23  24
HETATM   24  C6  UNL     1       6.449  -1.464 -17.301  1.00  0.00     0.051 C 
BRANCH  24  25
HETATM   25  C5  UNL     1       6.749  -0.031 -17.545  1.00  0.00     0.010 A 
HETATM   26  C4  UNL     1       7.815   0.528 -16.878  1.00  0.00     0.014 A 
HETATM   27  C3  UNL     1       8.140   1.864 -17.070  1.00  0.00     0.025 A 
HETATM   28  C2  UNL     1       7.396   2.642 -17.930  1.00  0.00     0.008 A 
HETATM   29  C1  UNL     1       7.699   4.087 -18.174  1.00  0.00     0.068 C 
HETATM   30  N4  UNL     1       6.362   2.061 -18.564  1.00  0.00    -0.327 N 
HETATM   31  C21 UNL     1       6.022   0.767 -18.399  1.00  0.00     0.252 A 
ATOM     32  H4  UNL     1       5.807   2.629 -19.203  1.00  0.00     0.169 HD
HETATM   33  O4  UNL     1       5.034   0.265 -19.023  1.00  0.00    -0.268 OA
ENDBRANCH  24  25
ENDBRANCH  23  24
ENDBRANCH   1  23
TORSDOF 11
ENDMDL
MODEL 3
REMARK VINA RESULT: -8.712272401      1.251      1.925
REMARK  11 active torsions:
REMARK  status: ('A' for Active; 'I' for Inactive)
REMARK    1  A    between atoms: C5_5  and  C6_6 
REMARK    2  A    between atoms: C6_6  and  C7_7 
REMARK    3  A    between atoms: C7_7  and  C8_8 
REMARK    4  A    between atoms: C10_10  and  C11_11 
REMARK    5  A    between atoms: C11_11  and  O1_12 
REMARK    6  A    between atoms: O1_12  and  C12_13 
REMARK    7  A    between atoms: C12_13  and  C13_14 
REMARK    8  A    between atoms: C13_14  and  C14_15 
REMARK    9  A    between atoms: C15_16  and  C16_17 
REMARK   10  A    between atoms: C16_17  and  C17_18 
REMARK   11  A    between atoms: C17_18  and  N1_19 
REMARK       I    between atoms: N1_19  and  C18_21 
ROOT
HETATM    1  C8  UNL     1       8.271  -3.220 -18.233  1.00  0.00     0.058 A 
HETATM    2  C9  UNL     1       7.896  -4.538 -18.171  1.00  0.00     0.042 A 
HETATM    3  C10 UNL     1       8.372  -5.424 -19.110  1.00  0.00    -0.026 A 
HETATM    4  C19 UNL     1       9.217  -4.949 -20.088  1.00  0.00     0.091 A 
HETATM    5  C20 UNL     1       9.549  -3.617 -20.086  1.00  0.00     0.288 A 
HETATM    6  O2  UNL     1      10.319  -3.108 -20.951  1.00  0.00    -0.260 OA
HETATM    7  O3  UNL     1       9.067  -2.818 -19.168  1.00  0.00    -0.280 OA
ENDROOT
BRANCH   3   8
HETATM    8  C11 UNL     1       7.974  -6.868 -19.067  1.00  0.00     0.206 C 
BRANCH   8   9
HETATM    9  O1  UNL     1       7.387  -7.189 -20.261  1.00  0.00    -0.386 OA
BRANCH   9  10
HETATM   10  C12 UNL     1       6.005  -7.085 -20.173  1.00  0.00     0.171 C 
BRANCH  10  11
HETATM   11  C13 UNL     1       5.518  -8.529 -19.947  1.00  0.00     0.053 C 
BRANCH  11  12
HETATM   12  C14 UNL     1       4.683  -8.467 -18.728  1.00  0.00    -0.029 C 
HETATM   13  C15 UNL     1       5.000  -8.966 -17.579  1.00  0.00    -0.029 C 
BRANCH  13  14
HETATM   14  C16 UNL     1       6.252  -9.676 -17.311  1.00  0.00     0.046 C 
BRANCH  14  15
HETATM   15  C17 UNL     1       6.884  -9.076 -16.048  1.00  0.00     0.126 C 
BRANCH  15  16
HETATM   16  N1  UNL     1       8.296  -8.991 -16.317  1.00  0.00    -0.365 N 
HETATM   17  C18 UNL     1       9.121  -8.241 -15.451  1.00  0.00     0.181 C 
HETATM   18  N2  UNL     1      10.140  -8.751 -14.834  1.00  0.00    -0.374 N 
HETATM   19  N3  UNL     1       8.863  -6.873 -15.219  1.00  0.00    -0.064 NA
ATOM     20  H22 UNL     1      10.327  -9.740 -15.001  1.00  0.00     0.158 HD
ATOM     21  H21 UNL     1      10.737  -8.209 -14.208  1.00  0.00     0.158 HD
ATOM     22  H1  UNL     1       8.697  -9.469 -17.124  1.00  0.00     0.162 HD
ENDBRANCH  15  16
ENDBRANCH  14  15
ENDBRANCH  13  14
ENDBRANCH  11  12
ENDBRANCH  10  11
ENDBRANCH   9  10
ENDBRANCH   8   9
ENDBRANCH   3   8
BRANCH   1  23
HETATM   23  C7  UNL     1       7.725  -2.286 -17.185  1.00  0.00     0.070 C 
BRANCH  23  24
HETATM   24  C6  UNL     1       6.543  -1.572 -17.845  1.00  0.00     0.051 C 
BRANCH  24  25
HETATM   25  C5  UNL     1       6.751  -0.103 -17.851  1.00  0.00     0.010 A 
HETATM   26  C4  UNL     1       7.759   0.410 -17.067  1.00  0.00     0.014 A 
HETATM   27  C3  UNL     1       7.998   1.777 -17.037  1.00  0.00     0.025 A 
HETATM   28  C2  UNL     1       7.225   2.633 -17.791  1.00  0.00     0.008 A 
HETATM   29  C1  UNL     1       7.435   4.115 -17.796  1.00  0.00     0.068 C 
HETATM   30  N4  UNL     1       6.250   2.096 -18.545  1.00  0.00    -0.327 N 
HETATM   31  C21 UNL     1       5.994   0.773 -18.597  1.00  0.00     0.252 A 
ATOM     32  H4  UNL     1       5.674   2.721 -19.109  1.00  0.00     0.169 HD
HETATM   33  O4  UNL     1       5.059   0.315 -19.327  1.00  0.00    -0.268 OA
ENDBRANCH  24  25
ENDBRANCH  23  24
ENDBRANCH   1  23
TORSDOF 11
ENDMDL
MODEL 4
REMARK VINA RESULT: -8.633831004      1.629      2.301
REMARK  11 active torsions:
REMARK  status: ('A' for Active; 'I' for Inactive)
REMARK    1  A    between atoms: C5_5  and  C6_6 
REMARK    2  A    between atoms: C6_6  and  C7_7 
REMARK    3  A    between atoms: C7_7  and  C8_8 
REMARK    4  A    between atoms: C10_10  and  C11_11 
REMARK    5  A    between atoms: C11_11  and  O1_12 
REMARK    6  A    between atoms: O1_12  and  C12_13 
REMARK    7  A    between atoms: C12_13  and  C13_14 
REMARK    8  A    between atoms: C13_14  and  C14_15 
REMARK    9  A    between atoms: C15_16  and  C16_17 
REMARK   10  A    between atoms: C16_17  and  C17_18 
REMARK   11  A    between atoms: C17_18  and  N1_19 
REMARK       I    between atoms: N1_19  and  C18_21 
ROOT
HETATM    1  C8  UNL     1       6.885  -3.323 -18.471  1.00  0.00     0.058 A 
HETATM    2  C9  UNL     1       7.527  -4.533 -18.542  1.00  0.00     0.042 A 
HETATM    3  C10 UNL     1       6.937  -5.575 -19.220  1.00  0.00    -0.026 A 
HETATM    4  C19 UNL     1       5.711  -5.361 -19.808  1.00  0.00     0.091 A 
HETATM    5  C20 UNL     1       5.130  -4.123 -19.696  1.00  0.00     0.288 A 
HETATM    6  O2  UNL     1       4.006  -3.852 -20.209  1.00  0.00    -0.260 OA
HETATM    7  O3  UNL     1       5.735  -3.167 -19.038  1.00  0.00    -0.280 OA
ENDROOT
BRANCH   3   8
HETATM    8  C11 UNL     1       7.616  -6.908 -19.308  1.00  0.00     0.206 C 
BRANCH   8   9
HETATM    9  O1  UNL     1       6.825  -7.746 -20.047  1.00  0.00    -0.386 OA
BRANCH   9  10
HETATM   10  C12 UNL     1       6.628  -8.948 -19.381  1.00  0.00     0.171 C 
BRANCH  10  11
HETATM   11  C13 UNL     1       5.431  -8.687 -18.446  1.00  0.00     0.053 C 
BRANCH  11  12
HETATM   12  C14 UNL     1       5.533  -9.722 -17.394  1.00  0.00    -0.029 C 
HETATM   13  C15 UNL     1       6.235  -9.625 -16.315  1.00  0.00    -0.029 C 
BRANCH  13  14
HETATM   14  C16 UNL     1       7.045  -8.456 -15.967  1.00  0.00     0.046 C 
BRANCH  14  15
HETATM   15  C17 UNL     1       8.523  -8.820 -16.162  1.00  0.00     0.126 C 
BRANCH  15  16
HETATM   16  N1  UNL     1       9.240  -7.571 -16.156  1.00  0.00    -0.365 N 
HETATM   17  C18 UNL     1      10.588  -7.546 -16.571  1.00  0.00     0.181 C 
HETATM   18  N2  UNL     1      11.011  -6.799 -17.542  1.00  0.00    -0.374 N 
HETATM   19  N3  UNL     1      11.553  -8.352 -15.929  1.00  0.00    -0.064 NA
ATOM     20  H22 UNL     1      10.314  -6.216 -18.006  1.00  0.00     0.158 HD
ATOM     21  H21 UNL     1      11.986  -6.780 -17.842  1.00  0.00     0.158 HD
ATOM     22  H1  UNL     1       8.777  -6.713 -15.855  1.00  0.00     0.162 HD
ENDBRANCH  15  16
ENDBRANCH  14  15
ENDBRANCH  13  14
ENDBRANCH  11  12
ENDBRANCH  10  11
ENDBRANCH   9  10
ENDBRANCH   8   9
ENDBRANCH   3   8
BRANCH   1  23
HETATM   23  C7  UNL     1       7.568  -2.210 -17.717  1.00  0.00     0.070 C 
BRANCH  23  24
HETATM   24  C6  UNL     1       6.444  -1.291 -17.234  1.00  0.00     0.051 C 
BRANCH  24  25
HETATM   25  C5  UNL     1       6.727   0.121 -17.592  1.00  0.00     0.010 A 
HETATM   26  C4  UNL     1       7.749   0.763 -16.930  1.00  0.00     0.014 A 
HETATM   27  C3  UNL     1       8.056   2.084 -17.227  1.00  0.00     0.025 A 
HETATM   28  C2  UNL     1       7.339   2.764 -18.188  1.00  0.00     0.008 A 
HETATM   29  C1  UNL     1       7.625   4.188 -18.548  1.00  0.00     0.068 C 
HETATM   30  N4  UNL     1       6.349   2.104 -18.813  1.00  0.00    -0.327 N 
HETATM   31  C21 UNL     1       6.026   0.822 -18.548  1.00  0.00     0.252 A 
ATOM     32  H4  UNL     1       5.813   2.599 -19.527  1.00  0.00     0.169 HD
HETATM   33  O4  UNL     1       5.079   0.243 -19.168  1.00  0.00    -0.268 OA
ENDBRANCH  24  25
ENDBRANCH  23  24
ENDBRANCH   1  23
TORSDOF 11
ENDMDL
MODEL 5
REMARK VINA RESULT: -8.618636716      1.363      2.114
REMARK  11 active torsions:
REMARK  status: ('A' for Active; 'I' for Inactive)
REMARK    1  A    between atoms: C5_5  and  C6_6 
REMARK    2  A    between atoms: C6_6  and  C7_7 
REMARK    3  A    between atoms: C7_7  and  C8_8 
REMARK    4  A    between atoms: C10_10  and  C11_11 
REMARK    5  A    between atoms: C11_11  and  O1_12 
REMARK    6  A    between atoms: O1_12  and  C12_13 
REMARK    7  A    between atoms: C12_13  and  C13_14 
REMARK    8  A    between atoms: C13_14  and  C14_15 
REMARK    9  A    between atoms: C15_16  and  C16_17 
REMARK   10  A    between atoms: C16_17  and  C17_18 
REMARK   11  A    between atoms: C17_18  and  N1_19 
REMARK       I    between atoms: N1_19  and  C18_21 
ROOT
HETATM    1  C8  UNL     1       8.620  -3.721 -18.116  1.00  0.00     0.058 A 
HETATM    2  C9  UNL     1       8.164  -3.806 -19.407  1.00  0.00     0.042 A 
HETATM    3  C10 UNL     1       8.679  -4.767 -20.246  1.00  0.00    -0.026 A 
HETATM    4  C19 UNL     1       9.644  -5.617 -19.753  1.00  0.00     0.091 A 
HETATM    5  C20 UNL     1      10.050  -5.472 -18.449  1.00  0.00     0.288 A 
HETATM    6  O2  UNL     1      10.930  -6.214 -17.926  1.00  0.00    -0.260 OA
HETATM    7  O3  UNL     1       9.526  -4.539 -17.695  1.00  0.00    -0.280 OA
ENDROOT
BRANCH   3   8
HETATM    8  C11 UNL     1       8.202  -4.878 -21.661  1.00  0.00     0.206 C 
BRANCH   8   9
HETATM    9  O1  UNL     1       7.614  -6.104 -21.823  1.00  0.00    -0.386 OA
BRANCH   9  10
HETATM   10  C12 UNL     1       6.231  -5.994 -21.793  1.00  0.00     0.171 C 
BRANCH  10  11
HETATM   11  C13 UNL     1       5.831  -6.451 -20.377  1.00  0.00     0.053 C 
BRANCH  11  12
HETATM   12  C14 UNL     1       6.142  -7.896 -20.338  1.00  0.00    -0.029 C 
HETATM   13  C15 UNL     1       6.725  -8.509 -19.362  1.00  0.00    -0.029 C 
BRANCH  13  14
HETATM   14  C16 UNL     1       7.169  -7.854 -18.130  1.00  0.00     0.046 C 
BRANCH  14  15
HETATM   15  C17 UNL     1       7.623  -8.939 -17.145  1.00  0.00     0.126 C 
BRANCH  15  16
HETATM   16  N1  UNL     1       9.012  -8.670 -16.876  1.00  0.00    -0.365 N 
HETATM   17  C18 UNL     1       9.387  -8.172 -15.610  1.00  0.00     0.181 C 
HETATM   18  N2  UNL     1      10.240  -8.774 -14.842  1.00  0.00    -0.374 N 
HETATM   19  N3  UNL     1       8.834  -6.970 -15.118  1.00  0.00    -0.064 NA
ATOM     20  H22 UNL     1      10.640  -9.643 -15.197  1.00  0.00     0.158 HD
ATOM     21  H21 UNL     1      10.512  -8.414 -13.927  1.00  0.00     0.158 HD
ATOM     22  H1  UNL     1       9.718  -8.838 -17.593  1.00  0.00     0.162 HD
ENDBRANCH  15  16
ENDBRANCH  14  15
ENDBRANCH  13  14
ENDBRANCH  11  12
ENDBRANCH  10  11
ENDBRANCH   9  10
ENDBRANCH   8   9
ENDBRANCH   3   8
BRANCH   1  23
HETATM   23  C7  UNL     1       8.028  -2.652 -17.233  1.00  0.00     0.070 C 
BRANCH  23  24
HETATM   24  C6  UNL     1       6.880  -2.042 -18.039  1.00  0.00     0.051 C 
BRANCH  24  25
HETATM   25  C5  UNL     1       6.927  -0.560 -17.984  1.00  0.00     0.010 A 
HETATM   26  C4  UNL     1       7.844   0.027 -17.142  1.00  0.00     0.014 A 
HETATM   27  C3  UNL     1       7.932   1.409 -17.053  1.00  0.00     0.025 A 
HETATM   28  C2  UNL     1       7.098   2.207 -17.808  1.00  0.00     0.008 A 
HETATM   29  C1  UNL     1       7.146   3.701 -17.751  1.00  0.00     0.068 C 
HETATM   30  N4  UNL     1       6.215   1.598 -18.619  1.00  0.00    -0.327 N 
HETATM   31  C21 UNL     1       6.106   0.259 -18.728  1.00  0.00     0.252 A 
ATOM     32  H4  UNL     1       5.595   2.181 -19.182  1.00  0.00     0.169 HD
HETATM   33  O4  UNL     1       5.254  -0.267 -19.510  1.00  0.00    -0.268 OA
ENDBRANCH  24  25
ENDBRANCH  23  24
ENDBRANCH   1  23
TORSDOF 11
ENDMDL
