MODEL 1
REMARK VINA RESULT: -7.850185673      0.000      0.000
REMARK  15 active torsions:
REMARK  status: ('A' for Active; 'I' for Inactive)
REMARK    1  A    between atoms: C7_7  and  C8_8 
REMARK    2  A    between atoms: C8_8  and  C9_9 
REMARK    3  A    between atoms: C9_9  and  N1_10 
REMARK    4  A    between atoms: C9_9  and  C10_14 
REMARK    5  A    between atoms: C10_14  and  N2_15 
REMARK    6  A    between atoms: N2_15  and  C11_17 
REMARK    7  A    between atoms: C13_23  and  N5_24 
REMARK    8  A    between atoms: N5_24  and  C14_26 
REMARK    9  A    between atoms: C14_26  and  C15_27 
REMARK   10  A    between atoms: C15_27  and  C16_28 
REMARK   11  A    between atoms: C16_28  and  C17_29 
REMARK   12  A    between atoms: C17_29  and  C18_30 
REMARK   13  A    between atoms: C18_30  and  C19_31 
REMARK   14  A    between atoms: C19_31  and  C20_32 
REMARK   15  A    between atoms: C20_32  and  N6_33 
ROOT
HETATM    1  C11 UNL     1       7.848  -6.010 -19.633  1.00  0.00     0.693 A 
HETATM    2  N3  UNL     1       7.014  -5.681 -20.616  1.00  0.00    -0.187 N 
ATOM      3  H3  UNL     1       7.060  -4.732 -20.987  1.00  0.00     0.185 HD
HETATM    4  C12 UNL     1       6.120  -6.525 -21.146  1.00  0.00     0.215 A 
HETATM    5  N4  UNL     1       6.087  -7.774 -20.629  1.00  0.00    -0.187 N 
ATOM      6  H4  UNL     1       5.423  -8.458 -20.994  1.00  0.00     0.185 HD
HETATM    7  C13 UNL     1       6.922  -8.118 -19.637  1.00  0.00     0.693 A 
HETATM    8  N7  UNL     1       7.815  -7.261 -19.116  1.00  0.00    -0.022 N 
ATOM      9  H7  UNL     1       8.442  -7.541 -18.361  1.00  0.00     0.203 HD
ENDROOT
BRANCH   1  10
HETATM   10  N2  UNL     1       8.675  -5.138 -19.184  1.00  0.00    -0.224 N 
ATOM     11  H2  UNL     1       9.590  -5.027 -19.621  1.00  0.00     0.177 HD
BRANCH  10  12
HETATM   12  C10 UNL     1       8.309  -4.319 -18.066  1.00  0.00     0.171 C 
BRANCH  12  13
HETATM   13  C9  UNL     1       8.282  -2.846 -18.345  1.00  0.00     0.206 C 
BRANCH  13  14
HETATM   14  C8  UNL     1       7.293  -2.057 -17.572  1.00  0.00     0.073 C 
BRANCH  14  15
HETATM   15  C7  UNL     1       6.929  -0.736 -18.121  1.00  0.00    -0.050 A 
HETATM   16  C5  UNL     1       7.309   0.390 -17.421  1.00  0.00    -0.056 A 
HETATM   17  C4  UNL     1       6.942   1.614 -17.939  1.00  0.00     0.008 A 
HETATM   18  C6  UNL     1       8.093   0.304 -16.138  1.00  0.00     0.049 C 
HETATM   19  C3  UNL     1       6.222   1.729 -19.110  1.00  0.00     0.007 A 
HETATM   20  C2  UNL     1       5.833   0.612 -19.824  1.00  0.00    -0.061 A 
HETATM   21  C1  UNL     1       5.055   0.725 -21.091  1.00  0.00     0.048 C 
HETATM   22  C21 UNL     1       6.198  -0.612 -19.310  1.00  0.00     0.014 A 
ENDBRANCH  14  15
ENDBRANCH  13  14
BRANCH  13  23
HETATM   23  N1  UNL     1       9.613  -2.343 -17.946  1.00  0.00    -0.073 N 
ATOM     24  H13 UNL     1       9.572  -1.516 -17.351  1.00  0.00     0.274 HD
ATOM     25  H12 UNL     1      10.095  -2.951 -17.284  1.00  0.00     0.274 HD
ATOM     26  H11 UNL     1      10.132  -2.195 -18.812  1.00  0.00     0.274 HD
ENDBRANCH  13  23
ENDBRANCH  12  13
ENDBRANCH  10  12
ENDBRANCH   1  10
BRANCH   7  27
HETATM   27  N5  UNL     1       6.892  -9.308 -19.144  1.00  0.00    -0.226 N 
ATOM     28  H5  UNL     1       7.676  -9.923 -19.362  1.00  0.00     0.177 HD
BRANCH  27  29
HETATM   29  C14 UNL     1       5.847  -9.845 -18.314  1.00  0.00     0.138 C 
BRANCH  29  30
HETATM   30  C15 UNL     1       5.717  -9.101 -17.027  1.00  0.00     0.020 C 
BRANCH  30  31
HETATM   31  C16 UNL     1       6.788  -9.461 -16.032  1.00  0.00     0.002 C 
BRANCH  31  32
HETATM   32  C17 UNL     1       7.765  -8.364 -15.773  1.00  0.00     0.000 C 
BRANCH  32  33
HETATM   33  C18 UNL     1       9.156  -8.697 -16.261  1.00  0.00     0.002 C 
BRANCH  33  34
HETATM   34  C19 UNL     1      10.236  -8.039 -15.459  1.00  0.00     0.027 C 
BRANCH  34  35
HETATM   35  C20 UNL     1      11.319  -8.984 -15.031  1.00  0.00     0.229 C 
BRANCH  35  36
HETATM   36  N6  UNL     1      10.955  -9.794 -13.902  1.00  0.00    -0.079 N 
ATOM     37  H63 UNL     1      10.374  -9.267 -13.250  1.00  0.00     0.274 HD
ATOM     38  H62 UNL     1      10.290 -10.518 -14.174  1.00  0.00     0.274 HD
ATOM     39  H61 UNL     1      11.757 -10.202 -13.422  1.00  0.00     0.274 HD
ENDBRANCH  35  36
ENDBRANCH  34  35
ENDBRANCH  33  34
ENDBRANCH  32  33
ENDBRANCH  31  32
ENDBRANCH  30  31
ENDBRANCH  29  30
ENDBRANCH  27  29
ENDBRANCH   7  27
TORSDOF 15
ENDMDL
MODEL 2
REMARK VINA RESULT: -7.689919670      2.069      8.406
REMARK  15 active torsions:
REMARK  status: ('A' for Active; 'I' for Inactive)
REMARK    1  A    between atoms: C7_7  and  C8_8 
REMARK    2  A    between atoms: C8_8  and  C9_9 
REMARK    3  A    between atoms: C9_9  and  N1_10 
REMARK    4  A    between atoms: C9_9  and  C10_14 
REMARK    5  A    between atoms: C10_14  and  N2_15 
REMARK    6  A    between atoms: N2_15  and  C11_17 
REMARK    7  A    between atoms: C13_23  and  N5_24 
REMARK    8  A    between atoms: N5_24  and  C14_26 
REMARK    9  A    between atoms: C14_26  and  C15_27 
REMARK   10  A    between atoms: C15_27  and  C16_28 
REMARK   11  A    between atoms: C16_28  and  C17_29 
REMARK   12  A    between atoms: C17_29  and  C18_30 
REMARK   13  A    between atoms: C18_30  and  C19_31 
REMARK   14  A    between atoms: C19_31  and  C20_32 
REMARK   15  A    between atoms: C20_32  and  N6_33 
ROOT
HETATM    1  C11 UNL     1      10.173  -5.170 -18.189  1.00  0.00     0.693 A 
HETATM    2  N3  UNL     1      11.164  -4.375 -18.583  1.00  0.00    -0.187 N 
ATOM      3  H3  UNL     1      12.053  -4.806 -18.839  1.00  0.00     0.185 HD
HETATM    4  C12 UNL     1      11.062  -3.042 -18.664  1.00  0.00     0.215 A 
HETATM    5  N4  UNL     1       9.870  -2.505 -18.315  1.00  0.00    -0.187 N 
ATOM      6  H4  UNL     1       9.737  -1.495 -18.356  1.00  0.00     0.185 HD
HETATM    7  C13 UNL     1       8.863  -3.297 -17.916  1.00  0.00     0.693 A 
HETATM    8  N7  UNL     1       8.980  -4.632 -17.841  1.00  0.00    -0.022 N 
ATOM      9  H7  UNL     1       8.203  -5.217 -17.535  1.00  0.00     0.203 HD
ENDROOT
BRANCH   1  10
HETATM   10  N2  UNL     1      10.357  -6.439 -18.142  1.00  0.00    -0.224 N 
ATOM     11  H2  UNL     1      10.435  -6.977 -19.005  1.00  0.00     0.177 HD
BRANCH  10  12
HETATM   12  C10 UNL     1      10.453  -7.097 -16.873  1.00  0.00     0.171 C 
BRANCH  12  13
HETATM   13  C9  UNL     1       9.151  -7.592 -16.319  1.00  0.00     0.206 C 
BRANCH  13  14
HETATM   14  C8  UNL     1       8.590  -8.805 -16.962  1.00  0.00     0.073 C 
BRANCH  14  15
HETATM   15  C7  UNL     1       7.301  -8.646 -17.661  1.00  0.00    -0.050 A 
HETATM   16  C5  UNL     1       6.166  -9.152 -17.062  1.00  0.00    -0.056 A 
HETATM   17  C4  UNL     1       4.974  -9.011 -17.741  1.00  0.00     0.008 A 
HETATM   18  C6  UNL     1       6.209  -9.835 -15.721  1.00  0.00     0.049 C 
HETATM   19  C3  UNL     1       4.898  -8.393 -18.971  1.00  0.00     0.007 A 
HETATM   20  C2  UNL     1       6.025  -7.880 -19.586  1.00  0.00    -0.061 A 
HETATM   21  C1  UNL     1       5.954  -7.211 -20.916  1.00  0.00     0.048 C 
HETATM   22  C21 UNL     1       7.217  -8.018 -18.912  1.00  0.00     0.014 A 
ENDBRANCH  14  15
ENDBRANCH  13  14
BRANCH  13  23
HETATM   23  N1  UNL     1       9.431  -7.961 -14.916  1.00  0.00    -0.073 N 
ATOM     24  H13 UNL     1       9.142  -8.911 -14.681  1.00  0.00     0.274 HD
ATOM     25  H12 UNL     1      10.424  -8.080 -14.719  1.00  0.00     0.274 HD
ATOM     26  H11 UNL     1       8.985  -7.247 -14.340  1.00  0.00     0.274 HD
ENDBRANCH  13  23
ENDBRANCH  12  13
ENDBRANCH  10  12
ENDBRANCH   1  10
BRANCH   7  27
HETATM   27  N5  UNL     1       7.727  -2.785 -17.585  1.00  0.00    -0.226 N 
ATOM     28  H5  UNL     1       7.115  -3.350 -16.997  1.00  0.00     0.177 HD
BRANCH  27  29
HETATM   29  C14 UNL     1       7.248  -1.486 -17.974  1.00  0.00     0.138 C 
BRANCH  29  30
HETATM   30  C15 UNL     1       6.931  -0.630 -16.794  1.00  0.00     0.020 C 
BRANCH  30  31
HETATM   31  C16 UNL     1       8.062   0.290 -16.416  1.00  0.00     0.002 C 
BRANCH  31  32
HETATM   32  C17 UNL     1       8.406   1.288 -17.469  1.00  0.00     0.000 C 
BRANCH  32  33
HETATM   33  C18 UNL     1       7.727   2.620 -17.252  1.00  0.00     0.002 C 
BRANCH  33  34
HETATM   34  C19 UNL     1       6.936   3.080 -18.437  1.00  0.00     0.027 C 
BRANCH  34  35
HETATM   35  C20 UNL     1       6.739   2.013 -19.472  1.00  0.00     0.229 C 
BRANCH  35  36
HETATM   36  N6  UNL     1       5.434   1.414 -19.431  1.00  0.00    -0.079 N 
ATOM     37  H63 UNL     1       5.354   0.773 -18.642  1.00  0.00     0.274 HD
ATOM     38  H62 UNL     1       4.729   2.100 -19.161  1.00  0.00     0.274 HD
ATOM     39  H61 UNL     1       5.173   0.952 -20.301  1.00  0.00     0.274 HD
ENDBRANCH  35  36
ENDBRANCH  34  35
ENDBRANCH  33  34
ENDBRANCH  32  33
ENDBRANCH  31  32
ENDBRANCH  30  31
ENDBRANCH  29  30
ENDBRANCH  27  29
ENDBRANCH   7  27
TORSDOF 15
ENDMDL
MODEL 3
REMARK VINA RESULT: -7.613353045      1.561      2.680
REMARK  15 active torsions:
REMARK  status: ('A' for Active; 'I' for Inactive)
REMARK    1  A    between atoms: C7_7  and  C8_8 
REMARK    2  A    between atoms: C8_8  and  C9_9 
REMARK    3  A    between atoms: C9_9  and  N1_10 
REMARK    4  A    between atoms: C9_9  and  C10_14 
REMARK    5  A    between atoms: C10_14  and  N2_15 
REMARK    6  A    between atoms: N2_15  and  C11_17 
REMARK    7  A    between atoms: C13_23  and  N5_24 
REMARK    8  A    between atoms: N5_24  and  C14_26 
REMARK    9  A    between atoms: C14_26  and  C15_27 
REMARK   10  A    between atoms: C15_27  and  C16_28 
REMARK   11  A    between atoms: C16_28  and  C17_29 
REMARK   12  A    between atoms: C17_29  and  C18_30 
REMARK   13  A    between atoms: C18_30  and  C19_31 
REMARK   14  A    between atoms: C19_31  and  C20_32 
REMARK   15  A    between atoms: C20_32  and  N6_33 
ROOT
HETATM    1  C11 UNL     1       8.420  -5.706 -20.897  1.00  0.00     0.693 A 
HETATM    2  N3  UNL     1       8.079  -5.220 -22.087  1.00  0.00    -0.187 N 
ATOM      3  H3  UNL     1       8.720  -4.569 -22.541  1.00  0.00     0.185 HD
HETATM    4  C12 UNL     1       6.943  -5.535 -22.722  1.00  0.00     0.215 A 
HETATM    5  N4  UNL     1       6.117  -6.399 -22.089  1.00  0.00    -0.187 N 
ATOM      6  H4  UNL     1       5.237  -6.673 -22.526  1.00  0.00     0.185 HD
HETATM    7  C13 UNL     1       6.450  -6.897 -20.888  1.00  0.00     0.693 A 
HETATM    8  N7  UNL     1       7.593  -6.572 -20.264  1.00  0.00    -0.022 N 
ATOM      9  H7  UNL     1       7.829  -6.961 -19.351  1.00  0.00     0.203 HD
ENDROOT
BRANCH   1  10
HETATM   10  N2  UNL     1       9.530  -5.351 -20.360  1.00  0.00    -0.224 N 
ATOM     11  H2  UNL     1      10.347  -5.959 -20.420  1.00  0.00     0.177 HD
BRANCH  10  12
HETATM   12  C10 UNL     1       9.619  -4.095 -19.674  1.00  0.00     0.171 C 
BRANCH  12  13
HETATM   13  C9  UNL     1       9.537  -4.185 -18.180  1.00  0.00     0.206 C 
BRANCH  13  14
HETATM   14  C8  UNL     1       8.180  -4.055 -17.594  1.00  0.00     0.073 C 
BRANCH  14  15
HETATM   15  C7  UNL     1       7.551  -2.723 -17.675  1.00  0.00    -0.050 A 
HETATM   16  C5  UNL     1       6.398  -2.589 -18.420  1.00  0.00    -0.056 A 
HETATM   17  C4  UNL     1       5.836  -1.333 -18.500  1.00  0.00     0.008 A 
HETATM   18  C6  UNL     1       5.766  -3.758 -19.128  1.00  0.00     0.049 C 
HETATM   19  C3  UNL     1       6.390  -0.239 -17.867  1.00  0.00     0.007 A 
HETATM   20  C2  UNL     1       7.544  -0.356 -17.115  1.00  0.00    -0.061 A 
HETATM   21  C1  UNL     1       8.151   0.819 -16.427  1.00  0.00     0.048 C 
HETATM   22  C21 UNL     1       8.108  -1.609 -17.033  1.00  0.00     0.014 A 
ENDBRANCH  14  15
ENDBRANCH  13  14
BRANCH  13  23
HETATM   23  N1  UNL     1      10.005  -5.545 -17.839  1.00  0.00    -0.073 N 
ATOM     24  H13 UNL     1      10.993  -5.582 -17.588  1.00  0.00     0.274 HD
ATOM     25  H12 UNL     1       9.637  -5.890 -16.953  1.00  0.00     0.274 HD
ATOM     26  H11 UNL     1       9.766  -6.136 -18.636  1.00  0.00     0.274 HD
ENDBRANCH  13  23
ENDBRANCH  12  13
ENDBRANCH  10  12
ENDBRANCH   1  10
BRANCH   7  27
HETATM   27  N5  UNL     1       5.663  -7.721 -20.286  1.00  0.00    -0.226 N 
ATOM     28  H5  UNL     1       5.254  -8.468 -20.846  1.00  0.00     0.177 HD
BRANCH  27  29
HETATM   29  C14 UNL     1       5.313  -7.678 -18.892  1.00  0.00     0.138 C 
BRANCH  29  30
HETATM   30  C15 UNL     1       4.478  -8.847 -18.487  1.00  0.00     0.020 C 
BRANCH  30  31
HETATM   31  C16 UNL     1       5.250  -9.875 -17.703  1.00  0.00     0.002 C 
BRANCH  31  32
HETATM   32  C17 UNL     1       6.652  -9.469 -17.392  1.00  0.00     0.000 C 
BRANCH  32  33
HETATM   33  C18 UNL     1       6.869  -9.213 -15.918  1.00  0.00     0.002 C 
BRANCH  33  34
HETATM   34  C19 UNL     1       7.939  -8.201 -15.647  1.00  0.00     0.027 C 
BRANCH  34  35
HETATM   35  C20 UNL     1       9.314  -8.680 -15.999  1.00  0.00     0.229 C 
BRANCH  35  36
HETATM   36  N6  UNL     1      10.113  -9.013 -14.853  1.00  0.00    -0.079 N 
ATOM     37  H63 UNL     1       9.523  -9.285 -14.067  1.00  0.00     0.274 HD
ATOM     38  H62 UNL     1      10.611  -9.891 -15.001  1.00  0.00     0.274 HD
ATOM     39  H61 UNL     1      10.760  -8.273 -14.581  1.00  0.00     0.274 HD
ENDBRANCH  35  36
ENDBRANCH  34  35
ENDBRANCH  33  34
ENDBRANCH  32  33
ENDBRANCH  31  32
ENDBRANCH  30  31
ENDBRANCH  29  30
ENDBRANCH  27  29
ENDBRANCH   7  27
TORSDOF 15
ENDMDL
MODEL 4
REMARK VINA RESULT: -7.576505472      1.777      3.409
REMARK  15 active torsions:
REMARK  status: ('A' for Active; 'I' for Inactive)
REMARK    1  A    between atoms: C7_7  and  C8_8 
REMARK    2  A    between atoms: C8_8  and  C9_9 
REMARK    3  A    between atoms: C9_9  and  N1_10 
REMARK    4  A    between atoms: C9_9  and  C10_14 
REMARK    5  A    between atoms: C10_14  and  N2_15 
REMARK    6  A    between atoms: N2_15  and  C11_17 
REMARK    7  A    between atoms: C13_23  and  N5_24 
REMARK    8  A    between atoms: N5_24  and  C14_26 
REMARK    9  A    between atoms: C14_26  and  C15_27 
REMARK   10  A    between atoms: C15_27  and  C16_28 
REMARK   11  A    between atoms: C16_28  and  C17_29 
REMARK   12  A    between atoms: C17_29  and  C18_30 
REMARK   13  A    between atoms: C18_30  and  C19_31 
REMARK   14  A    between atoms: C19_31  and  C20_32 
REMARK   15  A    between atoms: C20_32  and  N6_33 
ROOT
HETATM    1  C11 UNL     1       8.198  -3.994 -17.872  1.00  0.00     0.693 A 
HETATM    2  N3  UNL     1       9.428  -4.473 -18.032  1.00  0.00    -0.187 N 
ATOM      3  H3  UNL     1      10.212  -3.896 -17.728  1.00  0.00     0.185 HD
HETATM    4  C12 UNL     1       9.697  -5.670 -18.570  1.00  0.00     0.215 A 
HETATM    5  N4  UNL     1       8.634  -6.408 -18.963  1.00  0.00    -0.187 N 
ATOM      6  H4  UNL     1       8.780  -7.327 -19.381  1.00  0.00     0.185 HD
HETATM    7  C13 UNL     1       7.387  -5.936 -18.807  1.00  0.00     0.693 A 
HETATM    8  N7  UNL     1       7.134  -4.735 -18.265  1.00  0.00    -0.022 N 
ATOM      9  H7  UNL     1       6.179  -4.393 -18.155  1.00  0.00     0.203 HD
ENDROOT
BRANCH   1  10
HETATM   10  N2  UNL     1       8.030  -2.836 -17.346  1.00  0.00    -0.224 N 
ATOM     11  H2  UNL     1       8.313  -2.666 -16.381  1.00  0.00     0.177 HD
BRANCH  10  12
HETATM   12  C10 UNL     1       7.444  -1.782 -18.120  1.00  0.00     0.171 C 
BRANCH  12  13
HETATM   13  C9  UNL     1       7.763  -0.397 -17.642  1.00  0.00     0.206 C 
BRANCH  13  14
HETATM   14  C8  UNL     1       6.706   0.622 -17.849  1.00  0.00     0.073 C 
BRANCH  14  15
HETATM   15  C7  UNL     1       7.158   1.977 -18.220  1.00  0.00    -0.050 A 
HETATM   16  C5  UNL     1       7.050   2.363 -19.540  1.00  0.00    -0.056 A 
HETATM   17  C4  UNL     1       7.496   3.625 -19.871  1.00  0.00     0.008 A 
HETATM   18  C6  UNL     1       6.471   1.454 -20.593  1.00  0.00     0.049 C 
HETATM   19  C3  UNL     1       8.033   4.483 -18.933  1.00  0.00     0.007 A 
HETATM   20  C2  UNL     1       8.149   4.112 -17.607  1.00  0.00    -0.061 A 
HETATM   21  C1  UNL     1       8.728   5.031 -16.586  1.00  0.00     0.048 C 
HETATM   22  C21 UNL     1       7.704   2.853 -17.273  1.00  0.00     0.014 A 
ENDBRANCH  14  15
ENDBRANCH  13  14
BRANCH  13  23
HETATM   23  N1  UNL     1       7.943  -0.514 -16.180  1.00  0.00    -0.073 N 
ATOM     24  H13 UNL     1       8.912  -0.403 -15.881  1.00  0.00     0.274 HD
ATOM     25  H12 UNL     1       7.560   0.275 -15.660  1.00  0.00     0.274 HD
ATOM     26  H11 UNL     1       7.536  -1.411 -15.914  1.00  0.00     0.274 HD
ENDBRANCH  13  23
ENDBRANCH  12  13
ENDBRANCH  10  12
ENDBRANCH   1  10
BRANCH   7  27
HETATM   27  N5  UNL     1       6.375  -6.640 -19.181  1.00  0.00    -0.226 N 
ATOM     28  H5  UNL     1       5.449  -6.236 -19.041  1.00  0.00     0.177 HD
BRANCH  27  29
HETATM   29  C14 UNL     1       6.438  -7.946 -19.779  1.00  0.00     0.138 C 
BRANCH  29  30
HETATM   30  C15 UNL     1       5.174  -8.715 -19.581  1.00  0.00     0.020 C 
BRANCH  30  31
HETATM   31  C16 UNL     1       4.786  -8.841 -18.131  1.00  0.00     0.002 C 
BRANCH  31  32
HETATM   32  C17 UNL     1       5.652  -9.774 -17.353  1.00  0.00     0.000 C 
BRANCH  32  33
HETATM   33  C18 UNL     1       6.371  -9.087 -16.216  1.00  0.00     0.002 C 
BRANCH  33  34
HETATM   34  C19 UNL     1       7.847  -8.967 -16.437  1.00  0.00     0.027 C 
BRANCH  34  35
HETATM   35  C20 UNL     1       8.490  -7.901 -15.602  1.00  0.00     0.229 C 
BRANCH  35  36
HETATM   36  N6  UNL     1       9.650  -8.358 -14.889  1.00  0.00    -0.079 N 
ATOM     37  H63 UNL     1       9.682  -9.378 -14.864  1.00  0.00     0.274 HD
ATOM     38  H62 UNL     1      10.499  -8.177 -15.424  1.00  0.00     0.274 HD
ATOM     39  H61 UNL     1       9.727  -7.971 -13.949  1.00  0.00     0.274 HD
ENDBRANCH  35  36
ENDBRANCH  34  35
ENDBRANCH  33  34
ENDBRANCH  32  33
ENDBRANCH  31  32
ENDBRANCH  30  31
ENDBRANCH  29  30
ENDBRANCH  27  29
ENDBRANCH   7  27
TORSDOF 15
ENDMDL
MODEL 5
REMARK VINA RESULT: -7.544503002      1.329      3.833
REMARK  15 active torsions:
REMARK  status: ('A' for Active; 'I' for Inactive)
REMARK    1  A    between atoms: C7_7  and  C8_8 
REMARK    2  A    between atoms: C8_8  and  C9_9 
REMARK    3  A    between atoms: C9_9  and  N1_10 
REMARK    4  A    between atoms: C9_9  and  C10_14 
REMARK    5  A    between atoms: C10_14  and  N2_15 
REMARK    6  A    between atoms: N2_15  and  C11_17 
REMARK    7  A    between atoms: C13_23  and  N5_24 
REMARK    8  A    between atoms: N5_24  and  C14_26 
REMARK    9  A    between atoms: C14_26  and  C15_27 
REMARK   10  A    between atoms: C15_27  and  C16_28 
REMARK   11  A    between atoms: C16_28  and  C17_29 
REMARK   12  A    between atoms: C17_29  and  C18_30 
REMARK   13  A    between atoms: C18_30  and  C19_31 
REMARK   14  A    between atoms: C19_31  and  C20_32 
REMARK   15  A    between atoms: C20_32  and  N6_33 
ROOT
HETATM    1  C11 UNL     1       9.660  -6.199 -17.561  1.00  0.00     0.693 A 
HETATM    2  N3  UNL     1      10.824  -6.537 -17.013  1.00  0.00    -0.187 N 
ATOM      3  H3  UNL     1      11.565  -5.837 -16.988  1.00  0.00     0.185 HD
HETATM    4  C12 UNL     1      11.078  -7.745 -16.493  1.00  0.00     0.215 A 
HETATM    5  N4  UNL     1      10.074  -8.649 -16.546  1.00  0.00    -0.187 N 
ATOM      6  H4  UNL     1      10.212  -9.585 -16.165  1.00  0.00     0.185 HD
HETATM    7  C13 UNL     1       8.894  -8.319 -17.095  1.00  0.00     0.693 A 
HETATM    8  N7  UNL     1       8.654  -7.104 -17.612  1.00  0.00    -0.022 N 
ATOM      9  H7  UNL     1       7.751  -6.872 -18.026  1.00  0.00     0.203 HD
ENDROOT
BRANCH   1  10
HETATM   10  N2  UNL     1       9.501  -5.017 -18.036  1.00  0.00    -0.224 N 
ATOM     11  H2  UNL     1      10.289  -4.523 -18.454  1.00  0.00     0.177 HD
BRANCH  10  12
HETATM   12  C10 UNL     1       8.212  -4.394 -17.975  1.00  0.00     0.171 C 
BRANCH  12  13
HETATM   13  C9  UNL     1       8.204  -2.928 -18.290  1.00  0.00     0.206 C 
BRANCH  13  14
HETATM   14  C8  UNL     1       7.266  -2.098 -17.497  1.00  0.00     0.073 C 
BRANCH  14  15
HETATM   15  C7  UNL     1       6.930  -0.771 -18.049  1.00  0.00    -0.050 A 
HETATM   16  C5  UNL     1       7.326   0.348 -17.347  1.00  0.00    -0.056 A 
HETATM   17  C4  UNL     1       6.985   1.578 -17.868  1.00  0.00     0.008 A 
HETATM   18  C6  UNL     1       8.099   0.249 -16.057  1.00  0.00     0.049 C 
HETATM   19  C3  UNL     1       6.277   1.706 -19.044  1.00  0.00     0.007 A 
HETATM   20  C2  UNL     1       5.873   0.596 -19.761  1.00  0.00    -0.061 A 
HETATM   21  C1  UNL     1       5.106   0.723 -21.034  1.00  0.00     0.048 C 
HETATM   22  C21 UNL     1       6.211  -0.634 -19.244  1.00  0.00     0.014 A 
ENDBRANCH  14  15
ENDBRANCH  13  14
BRANCH  13  23
HETATM   23  N1  UNL     1       9.562  -2.446 -17.961  1.00  0.00    -0.073 N 
ATOM     24  H13 UNL     1       9.962  -1.841 -18.678  1.00  0.00     0.274 HD
ATOM     25  H12 UNL     1       9.577  -1.766 -17.201  1.00  0.00     0.274 HD
ATOM     26  H11 UNL     1      10.122  -3.278 -17.773  1.00  0.00     0.274 HD
ENDBRANCH  13  23
ENDBRANCH  12  13
ENDBRANCH  10  12
ENDBRANCH   1  10
BRANCH   7  27
HETATM   27  N5  UNL     1       7.937  -9.180 -17.144  1.00  0.00    -0.226 N 
ATOM     28  H5  UNL     1       7.981  -9.885 -17.880  1.00  0.00     0.177 HD
BRANCH  27  29
HETATM   29  C14 UNL     1       6.812  -9.234 -16.249  1.00  0.00     0.138 C 
BRANCH  29  30
HETATM   30  C15 UNL     1       5.513  -9.248 -16.983  1.00  0.00     0.020 C 
BRANCH  30  31
HETATM   31  C16 UNL     1       5.619  -9.873 -18.349  1.00  0.00     0.002 C 
BRANCH  31  32
HETATM   32  C17 UNL     1       5.025  -9.046 -19.439  1.00  0.00     0.000 C 
BRANCH  32  33
HETATM   33  C18 UNL     1       6.026  -8.101 -20.062  1.00  0.00     0.002 C 
BRANCH  33  34
HETATM   34  C19 UNL     1       5.790  -6.667 -19.700  1.00  0.00     0.027 C 
BRANCH  34  35
HETATM   35  C20 UNL     1       6.066  -5.716 -20.825  1.00  0.00     0.229 C 
BRANCH  35  36
HETATM   36  N6  UNL     1       6.019  -6.335 -22.120  1.00  0.00    -0.079 N 
ATOM     37  H63 UNL     1       6.204  -5.653 -22.855  1.00  0.00     0.274 HD
ATOM     38  H62 UNL     1       6.820  -6.951 -22.257  1.00  0.00     0.274 HD
ATOM     39  H61 UNL     1       5.147  -6.832 -22.300  1.00  0.00     0.274 HD
ENDBRANCH  35  36
ENDBRANCH  34  35
ENDBRANCH  33  34
ENDBRANCH  32  33
ENDBRANCH  31  32
ENDBRANCH  30  31
ENDBRANCH  29  30
ENDBRANCH  27  29
ENDBRANCH   7  27
TORSDOF 15
ENDMDL
