MODEL 1
REMARK VINA RESULT: -7.216430042      0.000      0.000
REMARK  11 active torsions:
REMARK  status: ('A' for Active; 'I' for Inactive)
REMARK    1  A    between atoms: C2_2  and  O1_3 
REMARK    2  A    between atoms: O1_3  and  N1_4 
REMARK       I    between atoms: N1_4  and  C4_6 
REMARK    3  A    between atoms: C4_6  and  C5_8 
REMARK    4  A    between atoms: C5_8  and  C6_9 
REMARK       I    between atoms: N2_11  and  C8_12 
REMARK    5  A    between atoms: C8_12  and  O4_14 
REMARK    6  A    between atoms: O4_14  and  C9_15 
REMARK       I    between atoms: N3_21  and  C15_22 
REMARK    7  A    between atoms: C15_22  and  C16_24 
REMARK    8  A    between atoms: C16_24  and  S1_25 
REMARK    9  A    between atoms: S1_25  and  C17_26 
REMARK   10  A    between atoms: C19_31  and  C20_32 
REMARK   11  A    between atoms: C22_34  and  C23_35 
ROOT
HETATM    1  C6  UNL     1       8.064 -17.837 -20.702  1.00  0.00     0.114 C 
HETATM    2  C7  UNL     1       7.897 -17.196 -19.378  1.00  0.00     0.153 C 
HETATM    3  N2  UNL     1       8.916 -16.216 -19.122  1.00  0.00    -0.325 N 
HETATM    4  C8  UNL     1       8.550 -15.126 -18.227  1.00  0.00     0.363 C 
HETATM    5  O3  UNL     1       7.401 -15.059 -17.708  1.00  0.00    -0.238 OA
HETATM    6  C13 UNL     1      10.253 -16.200 -19.645  1.00  0.00     0.148 C 
HETATM    7  C14 UNL     1      10.478 -17.435 -20.485  1.00  0.00     0.146 C 
HETATM    8  N3  UNL     1       9.322 -17.528 -21.345  1.00  0.00    -0.343 N 
HETATM    9  C15 UNL     1       9.393 -17.315 -22.737  1.00  0.00     0.230 C 
HETATM   10  O5  UNL     1       8.392 -17.374 -23.491  1.00  0.00    -0.273 OA
ENDROOT
BRANCH   1  11
HETATM   11  C5  UNL     1       7.815 -19.312 -20.769  1.00  0.00     0.132 C 
BRANCH  11  12
HETATM   12  C4  UNL     1       6.428 -19.753 -20.887  1.00  0.00     0.244 C 
HETATM   13  N1  UNL     1       6.124 -21.088 -21.214  1.00  0.00    -0.231 N 
HETATM   14  C3  UNL     1       7.154 -22.064 -21.443  1.00  0.00     0.189 C 
HETATM   15  O2  UNL     1       5.487 -18.954 -20.698  1.00  0.00    -0.271 OA
BRANCH  13  16
HETATM   16  O1  UNL     1       4.837 -21.470 -21.317  1.00  0.00    -0.276 OA
BRANCH  16  17
HETATM   17  C2  UNL     1       4.468 -21.862 -22.583  1.00  0.00     0.197 C 
HETATM   18  C1  UNL     1       3.683 -20.742 -23.231  1.00  0.00     0.036 C 
ENDBRANCH  16  17
ENDBRANCH  13  16
ENDBRANCH  11  12
ENDBRANCH   1  11
BRANCH   9  19
HETATM   19  C16 UNL     1      10.696 -16.999 -23.415  1.00  0.00     0.185 C 
BRANCH  19  20
HETATM   20  S1  UNL     1      11.029 -15.248 -23.517  1.00  0.00    -0.085 SA
BRANCH  20  21
HETATM   21  C17 UNL     1       9.585 -14.262 -23.099  1.00  0.00     0.147 A 
HETATM   22  N4  UNL     1       9.462 -13.659 -21.908  1.00  0.00    -0.303 N 
HETATM   23  C18 UNL     1       8.374 -12.930 -21.625  1.00  0.00     0.255 A 
ATOM     24  H4  UNL     1      10.202 -13.755 -21.212  1.00  0.00     0.171 HD
HETATM   25  O6  UNL     1       8.197 -12.332 -20.514  1.00  0.00    -0.268 OA
HETATM   26  C19 UNL     1       7.314 -12.753 -22.533  1.00  0.00     0.033 A 
HETATM   27  C22 UNL     1       7.453 -13.377 -23.746  1.00  0.00     0.030 A 
HETATM   28  N5  UNL     1       8.584 -14.107 -23.981  1.00  0.00    -0.339 N 
ATOM     29  H5  UNL     1       8.675 -14.566 -24.888  1.00  0.00     0.168 HD
BRANCH  26  30
HETATM   30  C20 UNL     1       6.154 -11.945 -22.211  1.00  0.00     0.042 C 
HETATM   31  C21 UNL     1       5.060 -12.697 -21.473  1.00  0.00     0.010 C 
ENDBRANCH  26  30
BRANCH  27  32
HETATM   32  C23 UNL     1       6.424 -13.307 -24.769  1.00  0.00    -0.008 C 
HETATM   33  C24 UNL     1       7.037 -13.855 -26.058  1.00  0.00     0.021 C 
HETATM   34  C25 UNL     1       5.212 -14.164 -24.568  1.00  0.00     0.021 C 
HETATM   35  C26 UNL     1       6.003 -11.887 -25.148  1.00  0.00     0.021 C 
ENDBRANCH  27  32
ENDBRANCH  20  21
ENDBRANCH  19  20
ENDBRANCH   9  19
BRANCH   4  36
HETATM   36  O4  UNL     1       9.447 -14.133 -17.918  1.00  0.00    -0.294 OA
BRANCH  36  37
HETATM   37  C9  UNL     1      10.224 -14.037 -16.751  1.00  0.00     0.061 C 
HETATM   38  C10 UNL     1      10.133 -15.271 -15.886  1.00  0.00     0.046 C 
HETATM   39  C11 UNL     1      11.657 -13.778 -17.135  1.00  0.00     0.046 C 
HETATM   40  C12 UNL     1       9.710 -12.813 -15.984  1.00  0.00     0.046 C 
ENDBRANCH  36  37
ENDBRANCH   4  36
TORSDOF 11
ENDMDL
MODEL 2
REMARK VINA RESULT: -6.720396537      2.674      6.540
REMARK  11 active torsions:
REMARK  status: ('A' for Active; 'I' for Inactive)
REMARK    1  A    between atoms: C2_2  and  O1_3 
REMARK    2  A    between atoms: O1_3  and  N1_4 
REMARK       I    between atoms: N1_4  and  C4_6 
REMARK    3  A    between atoms: C4_6  and  C5_8 
REMARK    4  A    between atoms: C5_8  and  C6_9 
REMARK       I    between atoms: N2_11  and  C8_12 
REMARK    5  A    between atoms: C8_12  and  O4_14 
REMARK    6  A    between atoms: O4_14  and  C9_15 
REMARK       I    between atoms: N3_21  and  C15_22 
REMARK    7  A    between atoms: C15_22  and  C16_24 
REMARK    8  A    between atoms: C16_24  and  S1_25 
REMARK    9  A    between atoms: S1_25  and  C17_26 
REMARK   10  A    between atoms: C19_31  and  C20_32 
REMARK   11  A    between atoms: C22_34  and  C23_35 
ROOT
HETATM    1  C6  UNL     1      10.090 -15.787 -20.027  1.00  0.00     0.114 C 
HETATM    2  C7  UNL     1      10.782 -15.173 -21.183  1.00  0.00     0.153 C 
HETATM    3  N2  UNL     1      10.302 -15.689 -22.435  1.00  0.00    -0.325 N 
HETATM    4  C8  UNL     1      10.405 -14.795 -23.581  1.00  0.00     0.363 C 
HETATM    5  O3  UNL     1      10.895 -13.637 -23.469  1.00  0.00    -0.238 OA
HETATM    6  C13 UNL     1       9.741 -16.988 -22.678  1.00  0.00     0.148 C 
HETATM    7  C14 UNL     1       9.782 -17.799 -21.405  1.00  0.00     0.146 C 
HETATM    8  N3  UNL     1       9.267 -16.924 -20.378  1.00  0.00    -0.343 N 
HETATM    9  C15 UNL     1       8.023 -17.140 -19.751  1.00  0.00     0.230 C 
HETATM   10  O5  UNL     1       7.556 -16.377 -18.872  1.00  0.00    -0.273 OA
ENDROOT
BRANCH   1  11
HETATM   11  C5  UNL     1      10.937 -16.128 -18.841  1.00  0.00     0.132 C 
BRANCH  11  12
HETATM   12  C4  UNL     1      11.274 -15.043 -17.924  1.00  0.00     0.244 C 
HETATM   13  N1  UNL     1      10.589 -14.897 -16.702  1.00  0.00    -0.231 N 
HETATM   14  C3  UNL     1       9.542 -15.801 -16.309  1.00  0.00     0.189 C 
HETATM   15  O2  UNL     1      12.175 -14.226 -18.206  1.00  0.00    -0.271 OA
BRANCH  13  16
HETATM   16  O1  UNL     1      10.917 -13.888 -15.874  1.00  0.00    -0.276 OA
BRANCH  16  17
HETATM   17  C2  UNL     1       9.890 -13.007 -15.630  1.00  0.00     0.197 C 
HETATM   18  C1  UNL     1       9.624 -12.208 -16.888  1.00  0.00     0.036 C 
ENDBRANCH  16  17
ENDBRANCH  13  16
ENDBRANCH  11  12
ENDBRANCH   1  11
BRANCH   9  19
HETATM   19  C16 UNL     1       7.163 -18.321 -20.104  1.00  0.00     0.185 C 
BRANCH  19  20
HETATM   20  S1  UNL     1       5.797 -17.902 -21.175  1.00  0.00    -0.085 SA
BRANCH  20  21
HETATM   21  C17 UNL     1       6.172 -16.488 -22.222  1.00  0.00     0.147 A 
HETATM   22  N4  UNL     1       6.296 -16.607 -23.551  1.00  0.00    -0.303 N 
HETATM   23  C18 UNL     1       6.575 -15.535 -24.306  1.00  0.00     0.255 A 
ATOM     24  H4  UNL     1       6.177 -17.520 -23.992  1.00  0.00     0.171 HD
HETATM   25  O6  UNL     1       6.706 -15.581 -25.572  1.00  0.00    -0.268 OA
HETATM   26  C19 UNL     1       6.752 -14.247 -23.769  1.00  0.00     0.033 A 
HETATM   27  C22 UNL     1       6.624 -14.142 -22.409  1.00  0.00     0.030 A 
HETATM   28  N5  UNL     1       6.338 -15.268 -21.688  1.00  0.00    -0.339 N 
ATOM     29  H5  UNL     1       6.244 -15.174 -20.676  1.00  0.00     0.168 HD
BRANCH  26  30
HETATM   30  C20 UNL     1       7.037 -13.099 -24.607  1.00  0.00     0.042 C 
HETATM   31  C21 UNL     1       5.805 -12.459 -25.223  1.00  0.00     0.010 C 
ENDBRANCH  26  30
BRANCH  27  32
HETATM   32  C23 UNL     1       6.811 -12.879 -21.714  1.00  0.00    -0.008 C 
HETATM   33  C24 UNL     1       6.874 -13.196 -20.219  1.00  0.00     0.021 C 
HETATM   34  C25 UNL     1       8.094 -12.151 -21.970  1.00  0.00     0.021 C 
HETATM   35  C26 UNL     1       5.631 -11.914 -21.826  1.00  0.00     0.021 C 
ENDBRANCH  27  32
ENDBRANCH  20  21
ENDBRANCH  19  20
ENDBRANCH   9  19
BRANCH   4  36
HETATM   36  O4  UNL     1       9.971 -15.186 -24.824  1.00  0.00    -0.294 OA
BRANCH  36  37
HETATM   37  C9  UNL     1      10.776 -15.538 -25.922  1.00  0.00     0.061 C 
HETATM   38  C10 UNL     1      12.166 -15.964 -25.513  1.00  0.00     0.046 C 
HETATM   39  C11 UNL     1      10.101 -16.643 -26.691  1.00  0.00     0.046 C 
HETATM   40  C12 UNL     1      10.845 -14.303 -26.827  1.00  0.00     0.046 C 
ENDBRANCH  36  37
ENDBRANCH   4  36
TORSDOF 11
ENDMDL
MODEL 3
REMARK VINA RESULT: -6.631824543      3.444      6.010
REMARK  11 active torsions:
REMARK  status: ('A' for Active; 'I' for Inactive)
REMARK    1  A    between atoms: C2_2  and  O1_3 
REMARK    2  A    between atoms: O1_3  and  N1_4 
REMARK       I    between atoms: N1_4  and  C4_6 
REMARK    3  A    between atoms: C4_6  and  C5_8 
REMARK    4  A    between atoms: C5_8  and  C6_9 
REMARK       I    between atoms: N2_11  and  C8_12 
REMARK    5  A    between atoms: C8_12  and  O4_14 
REMARK    6  A    between atoms: O4_14  and  C9_15 
REMARK       I    between atoms: N3_21  and  C15_22 
REMARK    7  A    between atoms: C15_22  and  C16_24 
REMARK    8  A    between atoms: C16_24  and  S1_25 
REMARK    9  A    between atoms: S1_25  and  C17_26 
REMARK   10  A    between atoms: C19_31  and  C20_32 
REMARK   11  A    between atoms: C22_34  and  C23_35 
ROOT
HETATM    1  C6  UNL     1       8.032 -12.553 -21.816  1.00  0.00     0.114 C 
HETATM    2  C7  UNL     1       7.556 -12.370 -20.426  1.00  0.00     0.153 C 
HETATM    3  N2  UNL     1       7.871 -13.500 -19.596  1.00  0.00    -0.325 N 
HETATM    4  C8  UNL     1       8.039 -13.226 -18.175  1.00  0.00     0.363 C 
HETATM    5  O3  UNL     1       7.909 -12.059 -17.710  1.00  0.00    -0.238 OA
HETATM    6  C13 UNL     1       8.029 -14.864 -20.013  1.00  0.00     0.148 C 
HETATM    7  C14 UNL     1       7.745 -14.972 -21.493  1.00  0.00     0.146 C 
HETATM    8  N3  UNL     1       8.488 -13.895 -22.104  1.00  0.00    -0.343 N 
HETATM    9  C15 UNL     1       9.612 -14.120 -22.926  1.00  0.00     0.230 C 
HETATM   10  O5  UNL     1      10.277 -13.192 -23.446  1.00  0.00    -0.273 OA
ENDROOT
BRANCH   1  11
HETATM   11  C5  UNL     1       7.116 -12.091 -22.905  1.00  0.00     0.132 C 
BRANCH  11  12
HETATM   12  C4  UNL     1       5.843 -12.791 -23.053  1.00  0.00     0.244 C 
HETATM   13  N1  UNL     1       5.614 -13.643 -24.151  1.00  0.00    -0.231 N 
HETATM   14  C3  UNL     1       6.614 -13.858 -25.162  1.00  0.00     0.189 C 
HETATM   15  O2  UNL     1       4.935 -12.648 -22.208  1.00  0.00    -0.271 OA
BRANCH  13  16
HETATM   16  O1  UNL     1       4.432 -14.276 -24.265  1.00  0.00    -0.276 OA
BRANCH  16  17
HETATM   17  C2  UNL     1       4.518 -15.645 -24.159  1.00  0.00     0.197 C 
HETATM   18  C1  UNL     1       4.039 -16.059 -22.784  1.00  0.00     0.036 C 
ENDBRANCH  16  17
ENDBRANCH  13  16
ENDBRANCH  11  12
ENDBRANCH   1  11
BRANCH   9  19
HETATM   19  C16 UNL     1      10.090 -15.510 -23.235  1.00  0.00     0.185 C 
BRANCH  19  20
HETATM   20  S1  UNL     1      11.280 -16.124 -22.053  1.00  0.00    -0.085 SA
BRANCH  20  21
HETATM   21  C17 UNL     1      12.552 -14.908 -21.684  1.00  0.00     0.147 A 
HETATM   22  N4  UNL     1      12.906 -14.616 -20.425  1.00  0.00    -0.303 N 
HETATM   23  C18 UNL     1      13.858 -13.705 -20.181  1.00  0.00     0.255 A 
ATOM     24  H4  UNL     1      12.447 -15.089 -19.646  1.00  0.00     0.171 HD
HETATM   25  O6  UNL     1      14.239 -13.382 -19.009  1.00  0.00    -0.268 OA
HETATM   26  C19 UNL     1      14.533 -13.011 -21.202  1.00  0.00     0.033 A 
HETATM   27  C22 UNL     1      14.160 -13.320 -22.484  1.00  0.00     0.030 A 
HETATM   28  N5  UNL     1      13.183 -14.257 -22.675  1.00  0.00    -0.339 N 
ATOM     29  H5  UNL     1      12.915 -14.477 -23.634  1.00  0.00     0.168 HD
BRANCH  26  30
HETATM   30  C20 UNL     1      15.572 -12.042 -20.915  1.00  0.00     0.042 C 
HETATM   31  C21 UNL     1      16.943 -12.653 -20.678  1.00  0.00     0.010 C 
ENDBRANCH  26  30
BRANCH  27  32
HETATM   32  C23 UNL     1      14.749 -12.660 -23.637  1.00  0.00    -0.008 C 
HETATM   33  C24 UNL     1      13.792 -12.869 -24.810  1.00  0.00     0.021 C 
HETATM   34  C25 UNL     1      14.891 -11.171 -23.564  1.00  0.00     0.021 C 
HETATM   35  C26 UNL     1      16.056 -13.287 -24.124  1.00  0.00     0.021 C 
ENDBRANCH  27  32
ENDBRANCH  20  21
ENDBRANCH  19  20
ENDBRANCH   9  19
BRANCH   4  36
HETATM   36  O4  UNL     1       8.347 -14.233 -17.292  1.00  0.00    -0.294 OA
BRANCH  36  37
HETATM   37  C9  UNL     1       9.610 -14.509 -16.740  1.00  0.00     0.061 C 
HETATM   38  C10 UNL     1      10.676 -14.703 -17.793  1.00  0.00     0.046 C 
HETATM   39  C11 UNL     1       9.996 -13.388 -15.812  1.00  0.00     0.046 C 
HETATM   40  C12 UNL     1       9.452 -15.784 -15.905  1.00  0.00     0.046 C 
ENDBRANCH  36  37
ENDBRANCH   4  36
TORSDOF 11
ENDMDL
MODEL 4
REMARK VINA RESULT: -6.526250182      4.899      9.505
REMARK  11 active torsions:
REMARK  status: ('A' for Active; 'I' for Inactive)
REMARK    1  A    between atoms: C2_2  and  O1_3 
REMARK    2  A    between atoms: O1_3  and  N1_4 
REMARK       I    between atoms: N1_4  and  C4_6 
REMARK    3  A    between atoms: C4_6  and  C5_8 
REMARK    4  A    between atoms: C5_8  and  C6_9 
REMARK       I    between atoms: N2_11  and  C8_12 
REMARK    5  A    between atoms: C8_12  and  O4_14 
REMARK    6  A    between atoms: O4_14  and  C9_15 
REMARK       I    between atoms: N3_21  and  C15_22 
REMARK    7  A    between atoms: C15_22  and  C16_24 
REMARK    8  A    between atoms: C16_24  and  S1_25 
REMARK    9  A    between atoms: S1_25  and  C17_26 
REMARK   10  A    between atoms: C19_31  and  C20_32 
REMARK   11  A    between atoms: C22_34  and  C23_35 
ROOT
HETATM    1  C6  UNL     1      14.668 -13.227 -21.594  1.00  0.00     0.114 C 
HETATM    2  C7  UNL     1      14.812 -12.245 -22.693  1.00  0.00     0.153 C 
HETATM    3  N2  UNL     1      13.937 -12.537 -23.794  1.00  0.00    -0.325 N 
HETATM    4  C8  UNL     1      13.520 -11.398 -24.602  1.00  0.00     0.363 C 
HETATM    5  O3  UNL     1      13.914 -10.227 -24.342  1.00  0.00    -0.238 OA
HETATM    6  C13 UNL     1      13.439 -13.824 -24.187  1.00  0.00     0.148 C 
HETATM    7  C14 UNL     1      14.031 -14.886 -23.291  1.00  0.00     0.146 C 
HETATM    8  N3  UNL     1      13.874 -14.383 -21.947  1.00  0.00    -0.343 N 
HETATM    9  C15 UNL     1      12.985 -14.964 -21.019  1.00  0.00     0.230 C 
HETATM   10  O5  UNL     1      12.826 -14.525 -19.855  1.00  0.00    -0.273 OA
ENDROOT
BRANCH   1  11
HETATM   11  C5  UNL     1      15.929 -13.672 -20.921  1.00  0.00     0.132 C 
BRANCH  11  12
HETATM   12  C4  UNL     1      16.272 -13.034 -19.653  1.00  0.00     0.244 C 
HETATM   13  N1  UNL     1      17.618 -12.823 -19.295  1.00  0.00    -0.231 N 
HETATM   14  C3  UNL     1      18.699 -13.221 -20.155  1.00  0.00     0.189 C 
HETATM   15  O2  UNL     1      15.379 -12.664 -18.863  1.00  0.00    -0.271 OA
BRANCH  13  16
HETATM   16  O1  UNL     1      17.908 -12.234 -18.120  1.00  0.00    -0.276 OA
BRANCH  16  17
HETATM   17  C2  UNL     1      18.527 -11.012 -18.244  1.00  0.00     0.197 C 
HETATM   18  C1  UNL     1      17.766  -9.994 -17.423  1.00  0.00     0.036 C 
ENDBRANCH  16  17
ENDBRANCH  13  16
ENDBRANCH  11  12
ENDBRANCH   1  11
BRANCH   9  19
HETATM   19  C16 UNL     1      12.160 -16.169 -21.373  1.00  0.00     0.185 C 
BRANCH  19  20
HETATM   20  S1  UNL     1      10.509 -15.756 -21.914  1.00  0.00    -0.085 SA
BRANCH  20  21
HETATM   21  C17 UNL     1       9.600 -14.837 -20.663  1.00  0.00     0.147 A 
HETATM   22  N4  UNL     1       8.698 -13.902 -20.990  1.00  0.00    -0.303 N 
HETATM   23  C18 UNL     1       8.036 -13.234 -20.034  1.00  0.00     0.255 A 
ATOM     24  H4  UNL     1       8.513 -13.697 -21.972  1.00  0.00     0.171 HD
HETATM   25  O6  UNL     1       7.168 -12.335 -20.279  1.00  0.00    -0.268 OA
HETATM   26  C19 UNL     1       8.238 -13.462 -18.661  1.00  0.00     0.033 A 
HETATM   27  C22 UNL     1       9.165 -14.420 -18.343  1.00  0.00     0.030 A 
HETATM   28  N5  UNL     1       9.810 -15.071 -19.357  1.00  0.00    -0.339 N 
ATOM     29  H5  UNL     1      10.497 -15.782 -19.106  1.00  0.00     0.168 HD
BRANCH  26  30
HETATM   30  C20 UNL     1       7.498 -12.739 -17.646  1.00  0.00     0.042 C 
HETATM   31  C21 UNL     1       6.125 -13.316 -17.350  1.00  0.00     0.010 C 
ENDBRANCH  26  30
BRANCH  27  32
HETATM   32  C23 UNL     1       9.499 -14.739 -16.965  1.00  0.00    -0.008 C 
HETATM   33  C24 UNL     1      10.844 -15.465 -16.987  1.00  0.00     0.021 C 
HETATM   34  C25 UNL     1       9.742 -13.584 -16.044  1.00  0.00     0.021 C 
HETATM   35  C26 UNL     1       8.559 -15.746 -16.303  1.00  0.00     0.021 C 
ENDBRANCH  27  32
ENDBRANCH  20  21
ENDBRANCH  19  20
ENDBRANCH   9  19
BRANCH   4  36
HETATM   36  O4  UNL     1      12.680 -11.564 -25.676  1.00  0.00    -0.294 OA
BRANCH  36  37
HETATM   37  C9  UNL     1      12.995 -11.349 -27.030  1.00  0.00     0.061 C 
HETATM   38  C10 UNL     1      12.848  -9.903 -27.440  1.00  0.00     0.046 C 
HETATM   39  C11 UNL     1      14.403 -11.820 -27.286  1.00  0.00     0.046 C 
HETATM   40  C12 UNL     1      12.043 -12.232 -27.845  1.00  0.00     0.046 C 
ENDBRANCH  36  37
ENDBRANCH   4  36
TORSDOF 11
ENDMDL
MODEL 5
REMARK VINA RESULT: -6.506636349      4.116      9.087
REMARK  11 active torsions:
REMARK  status: ('A' for Active; 'I' for Inactive)
REMARK    1  A    between atoms: C2_2  and  O1_3 
REMARK    2  A    between atoms: O1_3  and  N1_4 
REMARK       I    between atoms: N1_4  and  C4_6 
REMARK    3  A    between atoms: C4_6  and  C5_8 
REMARK    4  A    between atoms: C5_8  and  C6_9 
REMARK       I    between atoms: N2_11  and  C8_12 
REMARK    5  A    between atoms: C8_12  and  O4_14 
REMARK    6  A    between atoms: O4_14  and  C9_15 
REMARK       I    between atoms: N3_21  and  C15_22 
REMARK    7  A    between atoms: C15_22  and  C16_24 
REMARK    8  A    between atoms: C16_24  and  S1_25 
REMARK    9  A    between atoms: S1_25  and  C17_26 
REMARK   10  A    between atoms: C19_31  and  C20_32 
REMARK   11  A    between atoms: C22_34  and  C23_35 
ROOT
HETATM    1  C6  UNL     1      14.146 -13.676 -21.619  1.00  0.00     0.114 C 
HETATM    2  C7  UNL     1      13.922 -13.208 -23.006  1.00  0.00     0.153 C 
HETATM    3  N2  UNL     1      13.173 -14.158 -23.780  1.00  0.00    -0.325 N 
HETATM    4  C8  UNL     1      12.374 -13.612 -24.870  1.00  0.00     0.363 C 
HETATM    5  O3  UNL     1      12.352 -12.374 -25.113  1.00  0.00    -0.238 OA
HETATM    6  C13 UNL     1      13.134 -15.582 -23.603  1.00  0.00     0.148 C 
HETATM    7  C14 UNL     1      14.074 -15.974 -22.487  1.00  0.00     0.146 C 
HETATM    8  N3  UNL     1      13.786 -15.061 -21.406  1.00  0.00    -0.343 N 
HETATM    9  C15 UNL     1      13.170 -15.474 -20.207  1.00  0.00     0.230 C 
HETATM   10  O5  UNL     1      12.897 -14.687 -19.269  1.00  0.00    -0.273 OA
ENDROOT
BRANCH   1  11
HETATM   11  C5  UNL     1      15.498 -13.414 -21.033  1.00  0.00     0.132 C 
BRANCH  11  12
HETATM   12  C4  UNL     1      15.601 -12.358 -20.029  1.00  0.00     0.244 C 
HETATM   13  N1  UNL     1      16.005 -11.059 -20.392  1.00  0.00    -0.231 N 
HETATM   14  C3  UNL     1      16.329 -10.720 -21.751  1.00  0.00     0.189 C 
HETATM   15  O2  UNL     1      15.332 -12.589 -18.832  1.00  0.00    -0.271 OA
BRANCH  13  16
HETATM   16  O1  UNL     1      16.093 -10.104 -19.448  1.00  0.00    -0.276 OA
BRANCH  16  17
HETATM   17  C2  UNL     1      17.383  -9.768 -19.108  1.00  0.00     0.197 C 
HETATM   18  C1  UNL     1      17.524  -9.834 -17.603  1.00  0.00     0.036 C 
ENDBRANCH  16  17
ENDBRANCH  13  16
ENDBRANCH  11  12
ENDBRANCH   1  11
BRANCH   9  19
HETATM   19  C16 UNL     1      12.796 -16.911 -19.973  1.00  0.00     0.185 C 
BRANCH  19  20
HETATM   20  S1  UNL     1      11.108 -17.281 -20.424  1.00  0.00    -0.085 SA
BRANCH  20  21
HETATM   21  C17 UNL     1       9.964 -16.023 -19.839  1.00  0.00     0.147 A 
HETATM   22  N4  UNL     1       9.117 -15.398 -20.669  1.00  0.00    -0.303 N 
HETATM   23  C18 UNL     1       8.275 -14.465 -20.202  1.00  0.00     0.255 A 
ATOM     24  H4  UNL     1       9.112 -15.634 -21.661  1.00  0.00     0.171 HD
HETATM   25  O6  UNL     1       7.447 -13.836 -20.938  1.00  0.00    -0.268 OA
HETATM   26  C19 UNL     1       8.224 -14.088 -18.849  1.00  0.00     0.033 A 
HETATM   27  C22 UNL     1       9.097 -14.734 -18.013  1.00  0.00     0.030 A 
HETATM   28  N5  UNL     1       9.934 -15.678 -18.541  1.00  0.00    -0.339 N 
ATOM     29  H5  UNL     1      10.578 -16.151 -17.908  1.00  0.00     0.168 HD
BRANCH  26  30
HETATM   30  C20 UNL     1       7.293 -13.088 -18.365  1.00  0.00     0.042 C 
HETATM   31  C21 UNL     1       7.803 -11.661 -18.471  1.00  0.00     0.010 C 
ENDBRANCH  26  30
BRANCH  27  32
HETATM   32  C23 UNL     1       9.178 -14.425 -16.595  1.00  0.00    -0.008 C 
HETATM   33  C24 UNL     1       9.816 -15.633 -15.909  1.00  0.00     0.021 C 
HETATM   34  C25 UNL     1      10.070 -13.289 -16.202  1.00  0.00     0.021 C 
HETATM   35  C26 UNL     1       7.823 -14.291 -15.899  1.00  0.00     0.021 C 
ENDBRANCH  27  32
ENDBRANCH  20  21
ENDBRANCH  19  20
ENDBRANCH   9  19
BRANCH   4  36
HETATM   36  O4  UNL     1      11.616 -14.432 -25.670  1.00  0.00    -0.294 OA
BRANCH  36  37
HETATM   37  C9  UNL     1      10.231 -14.656 -25.570  1.00  0.00     0.061 C 
HETATM   38  C10 UNL     1       9.669 -14.243 -24.231  1.00  0.00     0.046 C 
HETATM   39  C11 UNL     1       9.532 -13.913 -26.677  1.00  0.00     0.046 C 
HETATM   40  C12 UNL     1      10.016 -16.157 -25.795  1.00  0.00     0.046 C 
ENDBRANCH  36  37
ENDBRANCH   4  36
TORSDOF 11
ENDMDL
