MODEL 1
REMARK VINA RESULT: -6.533219633      0.000      0.000
REMARK  12 active torsions:
REMARK  status: ('A' for Active; 'I' for Inactive)
REMARK    1  A    between atoms: C2_2  and  C3_3 
REMARK    2  A    between atoms: C3_3  and  C4_4 
REMARK    3  A    between atoms: C6_8  and  C7_9 
REMARK    4  A    between atoms: C8_10  and  C9_11 
REMARK    5  A    between atoms: C9_11  and  C10_12 
REMARK    6  A    between atoms: C10_12  and  O4_14 
REMARK    7  A    between atoms: N2_24  and  C16_25 
REMARK    8  A    between atoms: C19_28  and  O7_29 
REMARK    9  A    between atoms: C20_31  and  C21_32 
REMARK   10  A    between atoms: C25_36  and  C26_37 
REMARK   11  A    between atoms: C26_37  and  O9_39 
REMARK   12  A    between atoms: O9_39  and  C27_40 
ROOT
HETATM    1  C4  UNL     1      10.444 -15.154 -18.732  1.00  0.00     0.099 C 
HETATM    2  C5  UNL     1      11.191 -16.162 -19.523  1.00  0.00     0.265 C 
HETATM    3  O1  UNL     1      11.004 -17.356 -19.151  1.00  0.00    -0.265 OA
HETATM    4  O2  UNL     1      11.984 -15.845 -20.522  1.00  0.00    -0.302 OA
HETATM    5  C6  UNL     1      12.197 -15.682 -21.834  1.00  0.00     0.246 C 
HETATM    6  C12 UNL     1      12.012 -14.331 -22.422  1.00  0.00     0.251 C 
HETATM    7  O5  UNL     1      12.817 -13.429 -22.064  1.00  0.00    -0.270 OA
HETATM    8  N1  UNL     1      10.998 -13.986 -23.353  1.00  0.00    -0.346 N 
ATOM      9  H1  UNL     1      11.011 -13.042 -23.741  1.00  0.00     0.163 HD
HETATM   10  C13 UNL     1       9.949 -14.881 -23.791  1.00  0.00     0.173 C 
HETATM   11  C14 UNL     1      10.444 -15.427 -25.145  1.00  0.00     0.042 C 
HETATM   12  C15 UNL     1       8.642 -14.208 -23.991  1.00  0.00     0.248 C 
HETATM   13  O6  UNL     1       8.723 -13.257 -24.860  1.00  0.00    -0.271 OA
HETATM   14  N2  UNL     1       7.390 -14.440 -23.406  1.00  0.00    -0.292 N 
HETATM   15  C19 UNL     1       7.060 -14.694 -22.055  1.00  0.00     0.147 C 
HETATM   16  C20 UNL     1       7.494 -14.052 -20.790  1.00  0.00    -0.025 C 
HETATM   17  C24 UNL     1       8.789 -14.587 -20.367  1.00  0.00     0.054 C 
HETATM   18  C25 UNL     1       8.965 -15.090 -18.958  1.00  0.00     0.103 C 
ENDROOT
BRANCH   5  19
HETATM   19  C7  UNL     1      13.664 -15.987 -22.082  1.00  0.00     0.011 C 
HETATM   20  C8  UNL     1      14.386 -16.441 -21.073  1.00  0.00    -0.018 C 
BRANCH  20  21
HETATM   21  C9  UNL     1      15.821 -16.770 -21.195  1.00  0.00     0.138 C 
BRANCH  21  22
HETATM   22  C10 UNL     1      16.698 -15.810 -20.487  1.00  0.00     0.261 C 
HETATM   23  O3  UNL     1      17.924 -15.785 -20.713  1.00  0.00    -0.265 OA
BRANCH  22  24
HETATM   24  O4  UNL     1      16.163 -14.938 -19.574  1.00  0.00    -0.326 OA
HETATM   25  C11 UNL     1      16.845 -13.752 -19.186  1.00  0.00     0.213 C 
ENDBRANCH  22  24
ENDBRANCH  21  22
ENDBRANCH  20  21
ENDBRANCH   5  19
BRANCH   1  26
HETATM   26  C3  UNL     1      10.840 -15.313 -17.279  1.00  0.00     0.015 C 
BRANCH  26  27
HETATM   27  C2  UNL     1      11.234 -14.047 -16.610  1.00  0.00    -0.004 C 
HETATM   28  C1  UNL     1      10.000 -13.484 -15.898  1.00  0.00     0.005 C 
ENDBRANCH  26  27
ENDBRANCH   1  26
BRANCH  18  29
HETATM   29  C26 UNL     1       8.181 -16.277 -18.651  1.00  0.00     0.264 C 
HETATM   30  O8  UNL     1       8.167 -16.745 -17.450  1.00  0.00    -0.265 OA
BRANCH  29  31
HETATM   31  O9  UNL     1       7.402 -17.013 -19.531  1.00  0.00    -0.322 OA
BRANCH  31  32
HETATM   32  C27 UNL     1       7.870 -18.264 -19.998  1.00  0.00     0.174 C 
HETATM   33  C28 UNL     1       8.517 -18.186 -21.339  1.00  0.00     0.034 C 
ENDBRANCH  31  32
ENDBRANCH  29  31
ENDBRANCH  18  29
BRANCH  14  34
HETATM   34  C16 UNL     1       6.252 -14.444 -24.376  1.00  0.00     0.087 C 
HETATM   35  C17 UNL     1       5.819 -13.092 -24.791  1.00  0.00     0.032 C 
HETATM   36  C18 UNL     1       6.620 -15.225 -25.635  1.00  0.00     0.032 C 
ENDBRANCH  14  34
BRANCH  16  37
HETATM   37  C21 UNL     1       7.258 -12.585 -20.710  1.00  0.00     0.011 C 
HETATM   38  C22 UNL     1       5.841 -12.215 -21.187  1.00  0.00     0.014 C 
HETATM   39  C23 UNL     1       7.430 -11.910 -19.400  1.00  0.00     0.014 C 
ENDBRANCH  16  37
BRANCH  15  40
HETATM   40  O7  UNL     1       6.208 -15.694 -21.976  1.00  0.00    -0.346 OA
ATOM     41  H7  UNL     1       6.498 -16.418 -22.519  1.00  0.00     0.219 HD
ENDBRANCH  15  40
TORSDOF 12
ENDMDL
MODEL 2
REMARK VINA RESULT: -6.348982410      1.150      1.500
REMARK  12 active torsions:
REMARK  status: ('A' for Active; 'I' for Inactive)
REMARK    1  A    between atoms: C2_2  and  C3_3 
REMARK    2  A    between atoms: C3_3  and  C4_4 
REMARK    3  A    between atoms: C6_8  and  C7_9 
REMARK    4  A    between atoms: C8_10  and  C9_11 
REMARK    5  A    between atoms: C9_11  and  C10_12 
REMARK    6  A    between atoms: C10_12  and  O4_14 
REMARK    7  A    between atoms: N2_24  and  C16_25 
REMARK    8  A    between atoms: C19_28  and  O7_29 
REMARK    9  A    between atoms: C20_31  and  C21_32 
REMARK   10  A    between atoms: C25_36  and  C26_37 
REMARK   11  A    between atoms: C26_37  and  O9_39 
REMARK   12  A    between atoms: O9_39  and  C27_40 
ROOT
HETATM    1  C4  UNL     1      10.462 -15.180 -18.772  1.00  0.00     0.099 C 
HETATM    2  C5  UNL     1      11.189 -16.194 -19.573  1.00  0.00     0.265 C 
HETATM    3  O1  UNL     1      10.993 -17.387 -19.200  1.00  0.00    -0.265 OA
HETATM    4  O2  UNL     1      11.973 -15.885 -20.581  1.00  0.00    -0.302 OA
HETATM    5  C6  UNL     1      12.171 -15.722 -21.896  1.00  0.00     0.246 C 
HETATM    6  C12 UNL     1      11.994 -14.368 -22.480  1.00  0.00     0.251 C 
HETATM    7  O5  UNL     1      12.813 -13.475 -22.131  1.00  0.00    -0.270 OA
HETATM    8  N1  UNL     1      10.973 -14.010 -23.398  1.00  0.00    -0.346 N 
ATOM      9  H1  UNL     1      10.990 -13.066 -23.784  1.00  0.00     0.163 HD
HETATM   10  C13 UNL     1       9.908 -14.894 -23.823  1.00  0.00     0.173 C 
HETATM   11  C14 UNL     1      10.381 -15.443 -25.184  1.00  0.00     0.042 C 
HETATM   12  C15 UNL     1       8.607 -14.206 -24.007  1.00  0.00     0.248 C 
HETATM   13  O6  UNL     1       8.687 -13.255 -24.876  1.00  0.00    -0.271 OA
HETATM   14  N2  UNL     1       7.359 -14.426 -23.407  1.00  0.00    -0.292 N 
HETATM   15  C19 UNL     1       7.043 -14.678 -22.052  1.00  0.00     0.147 C 
HETATM   16  C20 UNL     1       7.500 -14.043 -20.791  1.00  0.00    -0.025 C 
HETATM   17  C24 UNL     1       8.794 -14.592 -20.385  1.00  0.00     0.054 C 
HETATM   18  C25 UNL     1       8.982 -15.099 -18.980  1.00  0.00     0.103 C 
ENDROOT
BRANCH   5  19
HETATM   19  C7  UNL     1      13.632 -16.043 -22.163  1.00  0.00     0.011 C 
HETATM   20  C8  UNL     1      14.235 -16.911 -21.370  1.00  0.00    -0.018 C 
BRANCH  20  21
HETATM   21  C9  UNL     1      15.651 -17.298 -21.531  1.00  0.00     0.138 C 
BRANCH  21  22
HETATM   22  C10 UNL     1      16.017 -18.499 -20.745  1.00  0.00     0.261 C 
HETATM   23  O3  UNL     1      17.187 -18.667 -20.353  1.00  0.00    -0.265 OA
BRANCH  22  24
HETATM   24  O4  UNL     1      15.063 -19.436 -20.443  1.00  0.00    -0.326 OA
HETATM   25  C11 UNL     1      15.321 -20.497 -19.532  1.00  0.00     0.213 C 
ENDBRANCH  22  24
ENDBRANCH  21  22
ENDBRANCH  20  21
ENDBRANCH   5  19
BRANCH   1  26
HETATM   26  C3  UNL     1      10.875 -15.345 -17.324  1.00  0.00     0.015 C 
BRANCH  26  27
HETATM   27  C2  UNL     1      11.247 -14.077 -16.645  1.00  0.00    -0.004 C 
HETATM   28  C1  UNL     1      10.013 -13.559 -15.900  1.00  0.00     0.005 C 
ENDBRANCH  26  27
ENDBRANCH   1  26
BRANCH  18  29
HETATM   29  C26 UNL     1       8.189 -16.278 -18.664  1.00  0.00     0.264 C 
HETATM   30  O8  UNL     1       8.187 -16.749 -17.464  1.00  0.00    -0.265 OA
BRANCH  29  31
HETATM   31  O9  UNL     1       7.389 -17.002 -19.535  1.00  0.00    -0.322 OA
BRANCH  31  32
HETATM   32  C27 UNL     1       7.832 -18.261 -20.005  1.00  0.00     0.174 C 
HETATM   33  C28 UNL     1       8.455 -18.195 -21.359  1.00  0.00     0.034 C 
ENDBRANCH  31  32
ENDBRANCH  29  31
ENDBRANCH  18  29
BRANCH  14  34
HETATM   34  C16 UNL     1       6.209 -14.416 -24.363  1.00  0.00     0.087 C 
HETATM   35  C17 UNL     1       5.823 -13.062 -24.815  1.00  0.00     0.032 C 
HETATM   36  C18 UNL     1       6.530 -15.250 -25.601  1.00  0.00     0.032 C 
ENDBRANCH  14  34
BRANCH  16  37
HETATM   37  C21 UNL     1       7.281 -12.573 -20.706  1.00  0.00     0.011 C 
HETATM   38  C22 UNL     1       5.879 -12.182 -21.210  1.00  0.00     0.014 C 
HETATM   39  C23 UNL     1       7.435 -11.909 -19.389  1.00  0.00     0.014 C 
ENDBRANCH  16  37
BRANCH  15  40
HETATM   40  O7  UNL     1       6.181 -15.669 -21.964  1.00  0.00    -0.346 OA
ATOM     41  H7  UNL     1       6.549 -16.380 -21.452  1.00  0.00     0.219 HD
ENDBRANCH  15  40
TORSDOF 12
ENDMDL
MODEL 3
REMARK VINA RESULT: -6.338113742      2.542      6.410
REMARK  12 active torsions:
REMARK  status: ('A' for Active; 'I' for Inactive)
REMARK    1  A    between atoms: C2_2  and  C3_3 
REMARK    2  A    between atoms: C3_3  and  C4_4 
REMARK    3  A    between atoms: C6_8  and  C7_9 
REMARK    4  A    between atoms: C8_10  and  C9_11 
REMARK    5  A    between atoms: C9_11  and  C10_12 
REMARK    6  A    between atoms: C10_12  and  O4_14 
REMARK    7  A    between atoms: N2_24  and  C16_25 
REMARK    8  A    between atoms: C19_28  and  O7_29 
REMARK    9  A    between atoms: C20_31  and  C21_32 
REMARK   10  A    between atoms: C25_36  and  C26_37 
REMARK   11  A    between atoms: C26_37  and  O9_39 
REMARK   12  A    between atoms: O9_39  and  C27_40 
ROOT
HETATM    1  C4  UNL     1       8.265 -14.821 -23.300  1.00  0.00     0.099 C 
HETATM    2  C5  UNL     1       9.312 -13.771 -23.309  1.00  0.00     0.265 C 
HETATM    3  O1  UNL     1       8.862 -12.590 -23.331  1.00  0.00    -0.265 OA
HETATM    4  O2  UNL     1      10.598 -14.042 -23.298  1.00  0.00    -0.302 OA
HETATM    5  C6  UNL     1      11.750 -14.202 -22.633  1.00  0.00     0.246 C 
HETATM    6  C12 UNL     1      12.135 -15.568 -22.197  1.00  0.00     0.251 C 
HETATM    7  O5  UNL     1      12.406 -16.409 -23.097  1.00  0.00    -0.270 OA
HETATM    8  N1  UNL     1      12.218 -15.993 -20.845  1.00  0.00    -0.346 N 
ATOM      9  H1  UNL     1      12.559 -16.937 -20.664  1.00  0.00     0.163 HD
HETATM   10  C13 UNL     1      11.852 -15.177 -19.707  1.00  0.00     0.173 C 
HETATM   11  C14 UNL     1      13.190 -14.610 -19.190  1.00  0.00     0.042 C 
HETATM   12  C15 UNL     1      11.199 -15.941 -18.617  1.00  0.00     0.248 C 
HETATM   13  O6  UNL     1      11.955 -16.892 -18.181  1.00  0.00    -0.271 OA
HETATM   14  N2  UNL     1       9.941 -15.791 -18.016  1.00  0.00    -0.292 N 
HETATM   15  C19 UNL     1       8.682 -15.548 -18.610  1.00  0.00     0.147 C 
HETATM   16  C20 UNL     1       8.009 -16.146 -19.789  1.00  0.00    -0.025 C 
HETATM   17  C24 UNL     1       8.489 -15.518 -21.021  1.00  0.00     0.054 C 
HETATM   18  C25 UNL     1       7.499 -14.990 -22.026  1.00  0.00     0.103 C 
ENDROOT
BRANCH   5  19
HETATM   19  C7  UNL     1      12.865 -13.798 -23.583  1.00  0.00     0.011 C 
HETATM   20  C8  UNL     1      13.036 -12.512 -23.832  1.00  0.00    -0.018 C 
BRANCH  20  21
HETATM   21  C9  UNL     1      14.085 -12.001 -24.738  1.00  0.00     0.138 C 
BRANCH  21  22
HETATM   22  C10 UNL     1      13.588 -10.969 -25.677  1.00  0.00     0.261 C 
HETATM   23  O3  UNL     1      14.277  -9.962 -25.934  1.00  0.00    -0.265 OA
BRANCH  22  24
HETATM   24  O4  UNL     1      12.362 -11.116 -26.271  1.00  0.00    -0.326 OA
HETATM   25  C11 UNL     1      12.134 -10.728 -27.620  1.00  0.00     0.213 C 
ENDBRANCH  22  24
ENDBRANCH  21  22
ENDBRANCH  20  21
ENDBRANCH   5  19
BRANCH   1  26
HETATM   26  C3  UNL     1       7.393 -14.621 -24.523  1.00  0.00     0.015 C 
BRANCH  26  27
HETATM   27  C2  UNL     1       6.320 -15.636 -24.682  1.00  0.00    -0.004 C 
HETATM   28  C1  UNL     1       5.044 -14.909 -25.119  1.00  0.00     0.005 C 
ENDBRANCH  26  27
ENDBRANCH   1  26
BRANCH  18  29
HETATM   29  C26 UNL     1       6.718 -13.858 -21.549  1.00  0.00     0.264 C 
HETATM   30  O8  UNL     1       7.161 -13.136 -20.577  1.00  0.00    -0.265 OA
BRANCH  29  31
HETATM   31  O9  UNL     1       5.490 -13.430 -22.029  1.00  0.00    -0.322 OA
BRANCH  31  32
HETATM   32  C27 UNL     1       5.238 -12.044 -22.161  1.00  0.00     0.174 C 
HETATM   33  C28 UNL     1       5.948 -11.425 -23.317  1.00  0.00     0.034 C 
ENDBRANCH  31  32
ENDBRANCH  29  31
ENDBRANCH  18  29
BRANCH  14  34
HETATM   34  C16 UNL     1       9.962 -15.876 -16.523  1.00  0.00     0.087 C 
HETATM   35  C17 UNL     1      10.420 -14.635 -15.863  1.00  0.00     0.032 C 
HETATM   36  C18 UNL     1       8.573 -16.210 -15.983  1.00  0.00     0.032 C 
ENDBRANCH  14  34
BRANCH  16  37
HETATM   37  C21 UNL     1       7.851 -17.625 -19.747  1.00  0.00     0.011 C 
HETATM   38  C22 UNL     1       6.491 -18.064 -20.322  1.00  0.00     0.014 C 
HETATM   39  C23 UNL     1       8.866 -18.465 -20.430  1.00  0.00     0.014 C 
ENDBRANCH  16  37
BRANCH  15  40
HETATM   40  O7  UNL     1       8.040 -14.609 -17.947  1.00  0.00    -0.346 OA
ATOM     41  H7  UNL     1       8.468 -13.770 -18.070  1.00  0.00     0.219 HD
ENDBRANCH  15  40
TORSDOF 12
ENDMDL
MODEL 4
REMARK VINA RESULT: -6.133256429      0.802      1.072
REMARK  12 active torsions:
REMARK  status: ('A' for Active; 'I' for Inactive)
REMARK    1  A    between atoms: C2_2  and  C3_3 
REMARK    2  A    between atoms: C3_3  and  C4_4 
REMARK    3  A    between atoms: C6_8  and  C7_9 
REMARK    4  A    between atoms: C8_10  and  C9_11 
REMARK    5  A    between atoms: C9_11  and  C10_12 
REMARK    6  A    between atoms: C10_12  and  O4_14 
REMARK    7  A    between atoms: N2_24  and  C16_25 
REMARK    8  A    between atoms: C19_28  and  O7_29 
REMARK    9  A    between atoms: C20_31  and  C21_32 
REMARK   10  A    between atoms: C25_36  and  C26_37 
REMARK   11  A    between atoms: C26_37  and  O9_39 
REMARK   12  A    between atoms: O9_39  and  C27_40 
ROOT
HETATM    1  C4  UNL     1      10.423 -15.161 -18.669  1.00  0.00     0.099 C 
HETATM    2  C5  UNL     1      11.170 -16.182 -19.442  1.00  0.00     0.265 C 
HETATM    3  O1  UNL     1      10.971 -17.371 -19.060  1.00  0.00    -0.265 OA
HETATM    4  O2  UNL     1      11.975 -15.881 -20.437  1.00  0.00    -0.302 OA
HETATM    5  C6  UNL     1      12.200 -15.733 -21.749  1.00  0.00     0.246 C 
HETATM    6  C12 UNL     1      12.030 -14.386 -22.353  1.00  0.00     0.251 C 
HETATM    7  O5  UNL     1      12.838 -13.486 -21.996  1.00  0.00    -0.270 OA
HETATM    8  N1  UNL     1      11.027 -14.044 -23.296  1.00  0.00    -0.346 N 
ATOM      9  H1  UNL     1      11.050 -13.104 -23.693  1.00  0.00     0.163 HD
HETATM   10  C13 UNL     1       9.976 -14.936 -23.734  1.00  0.00     0.173 C 
HETATM   11  C14 UNL     1      10.480 -15.499 -25.078  1.00  0.00     0.042 C 
HETATM   12  C15 UNL     1       8.676 -14.256 -23.953  1.00  0.00     0.248 C 
HETATM   13  O6  UNL     1       8.771 -13.315 -24.831  1.00  0.00    -0.271 OA
HETATM   14  N2  UNL     1       7.417 -14.474 -23.377  1.00  0.00    -0.292 N 
HETATM   15  C19 UNL     1       7.072 -14.712 -22.027  1.00  0.00     0.147 C 
HETATM   16  C20 UNL     1       7.500 -14.060 -20.764  1.00  0.00    -0.025 C 
HETATM   17  C24 UNL     1       8.787 -14.600 -20.324  1.00  0.00     0.054 C 
HETATM   18  C25 UNL     1       8.947 -15.089 -18.909  1.00  0.00     0.103 C 
ENDROOT
BRANCH   5  19
HETATM   19  C7  UNL     1      13.668 -16.050 -21.981  1.00  0.00     0.011 C 
HETATM   20  C8  UNL     1      14.034 -16.468 -23.180  1.00  0.00    -0.018 C 
BRANCH  20  21
HETATM   21  C9  UNL     1      15.430 -16.807 -23.521  1.00  0.00     0.138 C 
BRANCH  21  22
HETATM   22  C10 UNL     1      16.419 -15.923 -22.862  1.00  0.00     0.261 C 
HETATM   23  O3  UNL     1      16.597 -14.758 -23.269  1.00  0.00    -0.265 OA
BRANCH  22  24
HETATM   24  O4  UNL     1      17.148 -16.384 -21.796  1.00  0.00    -0.326 OA
HETATM   25  C11 UNL     1      17.074 -15.765 -20.519  1.00  0.00     0.213 C 
ENDBRANCH  22  24
ENDBRANCH  21  22
ENDBRANCH  20  21
ENDBRANCH   5  19
BRANCH   1  26
HETATM   26  C3  UNL     1      10.805 -15.308 -17.210  1.00  0.00     0.015 C 
BRANCH  26  27
HETATM   27  C2  UNL     1      11.196 -14.036 -16.549  1.00  0.00    -0.004 C 
HETATM   28  C1  UNL     1       9.936 -13.413 -15.941  1.00  0.00     0.005 C 
ENDBRANCH  26  27
ENDBRANCH   1  26
BRANCH  18  29
HETATM   29  C26 UNL     1       8.152 -16.268 -18.597  1.00  0.00     0.264 C 
HETATM   30  O8  UNL     1       8.157 -16.748 -17.401  1.00  0.00    -0.265 OA
BRANCH  29  31
HETATM   31  O9  UNL     1       7.344 -16.983 -19.467  1.00  0.00    -0.322 OA
BRANCH  31  32
HETATM   32  C27 UNL     1       7.804 -18.211 -19.997  1.00  0.00     0.174 C 
HETATM   33  C28 UNL     1       6.714 -19.208 -20.202  1.00  0.00     0.034 C 
ENDBRANCH  31  32
ENDBRANCH  29  31
ENDBRANCH  18  29
BRANCH  14  34
HETATM   34  C16 UNL     1       6.287 -14.480 -24.358  1.00  0.00     0.087 C 
HETATM   35  C17 UNL     1       5.860 -13.130 -24.782  1.00  0.00     0.032 C 
HETATM   36  C18 UNL     1       6.665 -15.267 -25.611  1.00  0.00     0.032 C 
ENDBRANCH  14  34
BRANCH  16  37
HETATM   37  C21 UNL     1       7.273 -12.591 -20.701  1.00  0.00     0.011 C 
HETATM   38  C22 UNL     1       5.863 -12.216 -21.196  1.00  0.00     0.014 C 
HETATM   39  C23 UNL     1       7.437 -11.904 -19.397  1.00  0.00     0.014 C 
ENDBRANCH  16  37
BRANCH  15  40
HETATM   40  O7  UNL     1       6.213 -15.706 -21.945  1.00  0.00    -0.346 OA
ATOM     41  H7  UNL     1       5.493 -15.569 -22.550  1.00  0.00     0.219 HD
ENDBRANCH  15  40
TORSDOF 12
ENDMDL
MODEL 5
REMARK VINA RESULT: -6.077069712      1.331      1.945
REMARK  12 active torsions:
REMARK  status: ('A' for Active; 'I' for Inactive)
REMARK    1  A    between atoms: C2_2  and  C3_3 
REMARK    2  A    between atoms: C3_3  and  C4_4 
REMARK    3  A    between atoms: C6_8  and  C7_9 
REMARK    4  A    between atoms: C8_10  and  C9_11 
REMARK    5  A    between atoms: C9_11  and  C10_12 
REMARK    6  A    between atoms: C10_12  and  O4_14 
REMARK    7  A    between atoms: N2_24  and  C16_25 
REMARK    8  A    between atoms: C19_28  and  O7_29 
REMARK    9  A    between atoms: C20_31  and  C21_32 
REMARK   10  A    between atoms: C25_36  and  C26_37 
REMARK   11  A    between atoms: C26_37  and  O9_39 
REMARK   12  A    between atoms: O9_39  and  C27_40 
ROOT
HETATM    1  C4  UNL     1      10.745 -15.226 -19.052  1.00  0.00     0.099 C 
HETATM    2  C5  UNL     1      11.404 -16.294 -19.844  1.00  0.00     0.265 C 
HETATM    3  O1  UNL     1      11.293 -17.451 -19.347  1.00  0.00    -0.265 OA
HETATM    4  O2  UNL     1      12.051 -16.060 -20.964  1.00  0.00    -0.302 OA
HETATM    5  C6  UNL     1      12.085 -16.013 -22.302  1.00  0.00     0.246 C 
HETATM    6  C12 UNL     1      11.794 -14.722 -22.976  1.00  0.00     0.251 C 
HETATM    7  O5  UNL     1      12.620 -13.783 -22.809  1.00  0.00    -0.270 OA
HETATM    8  N1  UNL     1      10.660 -14.472 -23.791  1.00  0.00    -0.346 N 
ATOM      9  H1  UNL     1      10.600 -13.567 -24.258  1.00  0.00     0.163 HD
HETATM   10  C13 UNL     1       9.582 -15.414 -24.004  1.00  0.00     0.173 C 
HETATM   11  C14 UNL     1       9.906 -16.074 -25.359  1.00  0.00     0.042 C 
HETATM   12  C15 UNL     1       8.246 -14.775 -24.087  1.00  0.00     0.248 C 
HETATM   13  O6  UNL     1       8.191 -13.905 -25.039  1.00  0.00    -0.271 OA
HETATM   14  N2  UNL     1       7.087 -14.966 -23.322  1.00  0.00    -0.292 N 
HETATM   15  C19 UNL     1       6.943 -15.101 -21.922  1.00  0.00     0.147 C 
HETATM   16  C20 UNL     1       7.526 -14.343 -20.787  1.00  0.00    -0.025 C 
HETATM   17  C24 UNL     1       8.878 -14.825 -20.495  1.00  0.00     0.054 C 
HETATM   18  C25 UNL     1       9.249 -15.197 -19.084  1.00  0.00     0.103 C 
ENDROOT
BRANCH   5  19
HETATM   19  C7  UNL     1      13.513 -16.325 -22.716  1.00  0.00     0.011 C 
HETATM   20  C8  UNL     1      14.395 -16.584 -21.767  1.00  0.00    -0.018 C 
BRANCH  20  21
HETATM   21  C9  UNL     1      15.810 -16.899 -22.049  1.00  0.00     0.138 C 
BRANCH  21  22
HETATM   22  C10 UNL     1      16.395 -17.856 -21.082  1.00  0.00     0.261 C 
HETATM   23  O3  UNL     1      17.557 -17.699 -20.658  1.00  0.00    -0.265 OA
BRANCH  22  24
HETATM   24  O4  UNL     1      15.657 -18.925 -20.645  1.00  0.00    -0.326 OA
HETATM   25  C11 UNL     1      16.257 -20.015 -19.956  1.00  0.00     0.213 C 
ENDBRANCH  22  24
ENDBRANCH  21  22
ENDBRANCH  20  21
ENDBRANCH   5  19
BRANCH   1  26
HETATM   26  C3  UNL     1      11.333 -15.250 -17.656  1.00  0.00     0.015 C 
BRANCH  26  27
HETATM   27  C2  UNL     1      11.587 -13.906 -17.077  1.00  0.00    -0.004 C 
HETATM   28  C1  UNL     1      11.055 -13.903 -15.640  1.00  0.00     0.005 C 
ENDBRANCH  26  27
ENDBRANCH   1  26
BRANCH  18  29
HETATM   29  C26 UNL     1       8.538 -16.360 -18.572  1.00  0.00     0.264 C 
HETATM   30  O8  UNL     1       8.119 -17.267 -19.387  1.00  0.00    -0.265 OA
BRANCH  29  31
HETATM   31  O9  UNL     1       8.234 -16.635 -17.248  1.00  0.00    -0.322 OA
BRANCH  31  32
HETATM   32  C27 UNL     1       8.331 -15.607 -16.281  1.00  0.00     0.174 C 
HETATM   33  C28 UNL     1       7.572 -14.378 -16.654  1.00  0.00     0.034 C 
ENDBRANCH  31  32
ENDBRANCH  29  31
ENDBRANCH  18  29
BRANCH  14  34
HETATM   34  C16 UNL     1       5.831 -15.068 -24.127  1.00  0.00     0.087 C 
HETATM   35  C17 UNL     1       5.373 -13.776 -24.682  1.00  0.00     0.032 C 
HETATM   36  C18 UNL     1       6.015 -16.039 -25.291  1.00  0.00     0.032 C 
ENDBRANCH  14  34
BRANCH  16  37
HETATM   37  C21 UNL     1       7.271 -12.878 -20.805  1.00  0.00     0.011 C 
HETATM   38  C22 UNL     1       5.812 -12.564 -21.185  1.00  0.00     0.014 C 
HETATM   39  C23 UNL     1       7.543 -12.095 -19.574  1.00  0.00     0.014 C 
ENDBRANCH  16  37
BRANCH  15  40
HETATM   40  O7  UNL     1       6.131 -16.098 -21.642  1.00  0.00    -0.346 OA
ATOM     41  H7  UNL     1       6.442 -16.571 -20.879  1.00  0.00     0.219 HD
ENDBRANCH  15  40
TORSDOF 12
ENDMDL
