MODEL 1
REMARK VINA RESULT: -6.933679484      0.000      0.000
REMARK  9 active torsions:
REMARK  status: ('A' for Active; 'I' for Inactive)
REMARK    1  A    between atoms: C2_2  and  C4_4 
REMARK    2  A    between atoms: C4_4  and  C5_5 
REMARK    3  A    between atoms: C4_4  and  N1_8 
REMARK    4  A    between atoms: C6_9  and  C7_10 
REMARK    5  A    between atoms: C7_10  and  C8_11 
REMARK    6  A    between atoms: C8_11  and  C11_14 
REMARK       I    between atoms: C11_14  and  N2_16 
REMARK    7  A    between atoms: N3_19  and  C14_20 
REMARK    8  A    between atoms: C23_31  and  N5_32 
REMARK    9  A    between atoms: N6_35  and  C26_36 
ROOT
HETATM    1  N1  UNL     1       7.148 -14.628 -21.968  1.00  0.00    -0.319 N 
HETATM    2  C6  UNL     1       6.925 -15.601 -22.857  1.00  0.00     0.086 A 
HETATM    3  N4  UNL     1       7.067 -16.827 -22.276  1.00  0.00    -0.344 N 
ATOM      4  H4  UNL     1       6.953 -17.729 -22.738  1.00  0.00     0.167 HD
HETATM    5  C20 UNL     1       7.387 -16.632 -20.986  1.00  0.00     0.060 A 
HETATM    6  C21 UNL     1       7.648 -17.497 -19.928  1.00  0.00     0.034 A 
HETATM    7  C22 UNL     1       7.957 -16.997 -18.686  1.00  0.00     0.031 A 
HETATM    8  C23 UNL     1       8.017 -15.621 -18.457  1.00  0.00     0.032 A 
HETATM    9  C29 UNL     1       7.750 -14.796 -19.541  1.00  0.00     0.061 A 
HETATM   10  C30 UNL     1       7.436 -15.271 -20.798  1.00  0.00     0.065 A 
ENDROOT
BRANCH   2  11
HETATM   11  C7  UNL     1       6.548 -15.471 -24.261  1.00  0.00     0.095 C 
BRANCH  11  12
HETATM   12  C8  UNL     1       5.134 -15.873 -24.600  1.00  0.00     0.040 C 
HETATM   13  C9  UNL     1       4.182 -15.793 -23.431  1.00  0.00     0.025 C 
HETATM   14  C10 UNL     1       4.563 -14.919 -25.649  1.00  0.00     0.025 C 
BRANCH  12  15
HETATM   15  C11 UNL     1       5.081 -17.239 -25.179  1.00  0.00     0.228 C 
HETATM   16  O3  UNL     1       5.544 -17.336 -26.366  1.00  0.00    -0.273 OA
HETATM   17  N2  UNL     1       4.592 -18.398 -24.579  1.00  0.00    -0.348 N 
HETATM   18  C12 UNL     1       4.654 -19.654 -25.369  1.00  0.00     0.145 C 
HETATM   19  C19 UNL     1       4.019 -18.566 -23.277  1.00  0.00     0.145 C 
HETATM   20  C13 UNL     1       5.709 -20.491 -24.633  1.00  0.00     0.137 C 
HETATM   21  N3  UNL     1       5.334 -20.657 -23.281  1.00  0.00    -0.402 N 
HETATM   22  C18 UNL     1       4.144 -20.027 -22.863  1.00  0.00     0.137 C 
BRANCH  21  23
HETATM   23  C14 UNL     1       6.344 -20.920 -22.336  1.00  0.00     0.017 C 
HETATM   24  C15 UNL     1       7.608 -20.118 -22.681  1.00  0.00     0.037 C 
HETATM   25  C16 UNL     1       6.003 -20.610 -20.909  1.00  0.00     0.037 C 
HETATM   26  C17 UNL     1       6.746 -22.378 -22.403  1.00  0.00     0.037 C 
ENDBRANCH  21  23
ENDBRANCH  12  15
ENDBRANCH  11  12
ENDBRANCH   2  11
BRANCH   1  27
HETATM   27  C4  UNL     1       7.143 -13.207 -22.113  1.00  0.00     0.195 C 
BRANCH  27  28
HETATM   28  C2  UNL     1       5.874 -12.698 -22.793  1.00  0.00     0.011 C 
HETATM   29  C1  UNL     1       4.733 -12.721 -21.799  1.00  0.00     0.012 C 
HETATM   30  C3  UNL     1       6.104 -11.270 -23.211  1.00  0.00     0.012 C 
ENDBRANCH  27  28
BRANCH  27  31
HETATM   31  C5  UNL     1       8.346 -12.617 -22.733  1.00  0.00     0.197 C 
HETATM   32  O1  UNL     1       9.094 -11.821 -22.104  1.00  0.00    -0.646 OA
HETATM   33  O2  UNL     1       8.691 -12.920 -24.030  1.00  0.00    -0.646 OA
ENDBRANCH  27  31
ENDBRANCH   1  27
BRANCH   8  34
HETATM   34  N5  UNL     1       8.316 -15.096 -17.182  1.00  0.00    -0.378 N 
HETATM   35  C24 UNL     1       8.997 -15.900 -16.170  1.00  0.00     0.143 C 
HETATM   36  C25 UNL     1      10.271 -15.252 -15.735  1.00  0.00     0.145 C 
HETATM   37  N6  UNL     1      10.440 -14.031 -16.466  1.00  0.00    -0.356 N 
HETATM   38  C27 UNL     1       9.376 -13.070 -16.579  1.00  0.00     0.145 C 
HETATM   39  C28 UNL     1       8.009 -13.752 -16.764  1.00  0.00     0.143 C 
BRANCH  37  40
HETATM   40  C26 UNL     1      11.697 -13.773 -17.090  1.00  0.00     0.350 C 
HETATM   41  O4  UNL     1      11.972 -14.196 -18.257  1.00  0.00    -0.284 OA
ENDBRANCH  37  40
ENDBRANCH   8  34
TORSDOF 9
ENDMDL
MODEL 2
REMARK VINA RESULT: -6.921758506      1.272      2.046
REMARK  9 active torsions:
REMARK  status: ('A' for Active; 'I' for Inactive)
REMARK    1  A    between atoms: C2_2  and  C4_4 
REMARK    2  A    between atoms: C4_4  and  C5_5 
REMARK    3  A    between atoms: C4_4  and  N1_8 
REMARK    4  A    between atoms: C6_9  and  C7_10 
REMARK    5  A    between atoms: C7_10  and  C8_11 
REMARK    6  A    between atoms: C8_11  and  C11_14 
REMARK       I    between atoms: C11_14  and  N2_16 
REMARK    7  A    between atoms: N3_19  and  C14_20 
REMARK    8  A    between atoms: C23_31  and  N5_32 
REMARK    9  A    between atoms: N6_35  and  C26_36 
ROOT
HETATM    1  N1  UNL     1       7.131 -14.523 -22.154  1.00  0.00    -0.319 N 
HETATM    2  C6  UNL     1       7.083 -15.444 -23.121  1.00  0.00     0.086 A 
HETATM    3  N4  UNL     1       7.375 -16.681 -22.623  1.00  0.00    -0.344 N 
ATOM      4  H4  UNL     1       7.407 -17.552 -23.154  1.00  0.00     0.167 HD
HETATM    5  C20 UNL     1       7.613 -16.546 -21.308  1.00  0.00     0.060 A 
HETATM    6  C21 UNL     1       7.952 -17.446 -20.303  1.00  0.00     0.034 A 
HETATM    7  C22 UNL     1       8.139 -17.007 -19.015  1.00  0.00     0.031 A 
HETATM    8  C23 UNL     1       7.995 -15.658 -18.685  1.00  0.00     0.032 A 
HETATM    9  C29 UNL     1       7.656 -14.796 -19.718  1.00  0.00     0.061 A 
HETATM   10  C30 UNL     1       7.462 -15.210 -21.020  1.00  0.00     0.065 A 
ENDROOT
BRANCH   2  11
HETATM   11  C7  UNL     1       6.746 -15.258 -24.528  1.00  0.00     0.095 C 
BRANCH  11  12
HETATM   12  C8  UNL     1       7.759 -15.776 -25.519  1.00  0.00     0.040 C 
HETATM   13  C9  UNL     1       7.509 -15.322 -26.938  1.00  0.00     0.025 C 
HETATM   14  C10 UNL     1       9.147 -15.242 -25.166  1.00  0.00     0.025 C 
BRANCH  12  15
HETATM   15  C11 UNL     1       7.843 -17.257 -25.489  1.00  0.00     0.228 C 
HETATM   16  O3  UNL     1       8.995 -17.723 -25.194  1.00  0.00    -0.273 OA
HETATM   17  N2  UNL     1       6.821 -18.171 -25.741  1.00  0.00    -0.348 N 
HETATM   18  C12 UNL     1       7.157 -19.615 -25.642  1.00  0.00     0.145 C 
HETATM   19  C19 UNL     1       5.456 -17.922 -26.095  1.00  0.00     0.145 C 
HETATM   20  C13 UNL     1       6.387 -20.078 -24.398  1.00  0.00     0.137 C 
HETATM   21  N3  UNL     1       5.011 -19.798 -24.550  1.00  0.00    -0.402 N 
HETATM   22  C18 UNL     1       4.617 -19.142 -25.736  1.00  0.00     0.137 C 
BRANCH  21  23
HETATM   23  C14 UNL     1       4.227 -19.655 -23.390  1.00  0.00     0.017 C 
HETATM   24  C15 UNL     1       4.641 -20.699 -22.343  1.00  0.00     0.037 C 
HETATM   25  C16 UNL     1       4.285 -18.314 -22.720  1.00  0.00     0.037 C 
HETATM   26  C17 UNL     1       2.775 -19.942 -23.711  1.00  0.00     0.037 C 
ENDBRANCH  21  23
ENDBRANCH  12  15
ENDBRANCH  11  12
ENDBRANCH   2  11
BRANCH   1  27
HETATM   27  C4  UNL     1       6.931 -13.109 -22.196  1.00  0.00     0.195 C 
BRANCH  27  28
HETATM   28  C2  UNL     1       5.549 -12.735 -22.727  1.00  0.00     0.011 C 
HETATM   29  C1  UNL     1       4.520 -13.681 -22.147  1.00  0.00     0.012 C 
HETATM   30  C3  UNL     1       5.225 -11.343 -22.257  1.00  0.00     0.012 C 
ENDBRANCH  27  28
BRANCH  27  31
HETATM   31  C5  UNL     1       7.985 -12.328 -22.872  1.00  0.00     0.197 C 
HETATM   32  O1  UNL     1       9.020 -11.943 -22.263  1.00  0.00    -0.646 OA
HETATM   33  O2  UNL     1       7.869 -11.991 -24.201  1.00  0.00    -0.646 OA
ENDBRANCH  27  31
ENDBRANCH   1  27
BRANCH   8  34
HETATM   34  N5  UNL     1       8.167 -15.199 -17.362  1.00  0.00    -0.378 N 
HETATM   35  C24 UNL     1       8.785 -16.039 -16.340  1.00  0.00     0.143 C 
HETATM   36  C25 UNL     1       9.995 -15.382 -15.761  1.00  0.00     0.145 C 
HETATM   37  N6  UNL     1      10.186 -14.116 -16.407  1.00  0.00    -0.356 N 
HETATM   38  C27 UNL     1       9.104 -13.182 -16.560  1.00  0.00     0.145 C 
HETATM   39  C28 UNL     1       7.781 -13.890 -16.899  1.00  0.00     0.143 C 
BRANCH  37  40
HETATM   40  C26 UNL     1      11.482 -13.788 -16.906  1.00  0.00     0.350 C 
HETATM   41  O4  UNL     1      11.881 -14.164 -18.053  1.00  0.00    -0.284 OA
ENDBRANCH  37  40
ENDBRANCH   8  34
TORSDOF 9
ENDMDL
MODEL 3
REMARK VINA RESULT: -6.833694671      1.909      3.068
REMARK  9 active torsions:
REMARK  status: ('A' for Active; 'I' for Inactive)
REMARK    1  A    between atoms: C2_2  and  C4_4 
REMARK    2  A    between atoms: C4_4  and  C5_5 
REMARK    3  A    between atoms: C4_4  and  N1_8 
REMARK    4  A    between atoms: C6_9  and  C7_10 
REMARK    5  A    between atoms: C7_10  and  C8_11 
REMARK    6  A    between atoms: C8_11  and  C11_14 
REMARK       I    between atoms: C11_14  and  N2_16 
REMARK    7  A    between atoms: N3_19  and  C14_20 
REMARK    8  A    between atoms: C23_31  and  N5_32 
REMARK    9  A    between atoms: N6_35  and  C26_36 
ROOT
HETATM    1  N1  UNL     1       6.770 -14.809 -22.287  1.00  0.00    -0.319 N 
HETATM    2  C6  UNL     1       6.056 -15.567 -23.124  1.00  0.00     0.086 A 
HETATM    3  N4  UNL     1       5.997 -16.855 -22.678  1.00  0.00    -0.344 N 
ATOM      4  H4  UNL     1       5.515 -17.629 -23.134  1.00  0.00     0.167 HD
HETATM    5  C20 UNL     1       6.689 -16.920 -21.528  1.00  0.00     0.060 A 
HETATM    6  C21 UNL     1       6.969 -17.955 -20.641  1.00  0.00     0.034 A 
HETATM    7  C22 UNL     1       7.725 -17.719 -19.519  1.00  0.00     0.031 A 
HETATM    8  C23 UNL     1       8.228 -16.446 -19.243  1.00  0.00     0.032 A 
HETATM    9  C29 UNL     1       7.924 -15.444 -20.155  1.00  0.00     0.061 A 
HETATM   10  C30 UNL     1       7.167 -15.653 -21.289  1.00  0.00     0.065 A 
ENDROOT
BRANCH   2  11
HETATM   11  C7  UNL     1       5.371 -15.161 -24.347  1.00  0.00     0.095 C 
BRANCH  11  12
HETATM   12  C8  UNL     1       5.851 -15.818 -25.617  1.00  0.00     0.040 C 
HETATM   13  C9  UNL     1       5.661 -14.969 -26.851  1.00  0.00     0.025 C 
HETATM   14  C10 UNL     1       7.356 -16.071 -25.531  1.00  0.00     0.025 C 
BRANCH  12  15
HETATM   15  C11 UNL     1       5.200 -17.136 -25.828  1.00  0.00     0.228 C 
HETATM   16  O3  UNL     1       5.981 -18.142 -25.724  1.00  0.00    -0.273 OA
HETATM   17  N2  UNL     1       3.860 -17.385 -26.118  1.00  0.00    -0.348 N 
HETATM   18  C12 UNL     1       3.449 -18.803 -26.280  1.00  0.00     0.145 C 
HETATM   19  C19 UNL     1       2.787 -16.453 -26.292  1.00  0.00     0.145 C 
HETATM   20  C13 UNL     1       2.563 -19.063 -25.053  1.00  0.00     0.137 C 
HETATM   21  N3  UNL     1       1.498 -18.136 -25.023  1.00  0.00    -0.402 N 
HETATM   22  C18 UNL     1       1.463 -17.165 -26.046  1.00  0.00     0.137 C 
BRANCH  21  23
HETATM   23  C14 UNL     1       0.895 -17.852 -23.783  1.00  0.00     0.017 C 
HETATM   24  C15 UNL     1       1.887 -17.111 -22.874  1.00  0.00     0.037 C 
HETATM   25  C16 UNL     1      -0.355 -17.025 -23.836  1.00  0.00     0.037 C 
HETATM   26  C17 UNL     1       0.558 -19.142 -23.066  1.00  0.00     0.037 C 
ENDBRANCH  21  23
ENDBRANCH  12  15
ENDBRANCH  11  12
ENDBRANCH   2  11
BRANCH   1  27
HETATM   27  C4  UNL     1       7.127 -13.427 -22.347  1.00  0.00     0.195 C 
BRANCH  27  28
HETATM   28  C2  UNL     1       5.998 -12.561 -22.901  1.00  0.00     0.011 C 
HETATM   29  C1  UNL     1       4.977 -12.315 -21.811  1.00  0.00     0.012 C 
HETATM   30  C3  UNL     1       6.579 -11.234 -23.309  1.00  0.00     0.012 C 
ENDBRANCH  27  28
BRANCH  27  31
HETATM   31  C5  UNL     1       8.406 -13.118 -23.016  1.00  0.00     0.197 C 
HETATM   32  O1  UNL     1       8.578 -13.329 -24.247  1.00  0.00    -0.646 OA
HETATM   33  O2  UNL     1       9.460 -12.585 -22.310  1.00  0.00    -0.646 OA
ENDBRANCH  27  31
ENDBRANCH   1  27
BRANCH   8  34
HETATM   34  N5  UNL     1       8.989 -16.188 -18.083  1.00  0.00    -0.378 N 
HETATM   35  C24 UNL     1      10.389 -15.778 -18.169  1.00  0.00     0.143 C 
HETATM   36  C25 UNL     1      10.605 -14.457 -17.505  1.00  0.00     0.145 C 
HETATM   37  N6  UNL     1       9.351 -13.987 -16.994  1.00  0.00    -0.356 N 
HETATM   38  C27 UNL     1       8.497 -14.835 -16.207  1.00  0.00     0.145 C 
HETATM   39  C28 UNL     1       8.479 -16.279 -16.739  1.00  0.00     0.143 C 
BRANCH  37  40
HETATM   40  C26 UNL     1       8.953 -12.646 -17.277  1.00  0.00     0.350 C 
HETATM   41  O4  UNL     1       8.290 -12.344 -18.319  1.00  0.00    -0.284 OA
ENDBRANCH  37  40
ENDBRANCH   8  34
TORSDOF 9
ENDMDL
MODEL 4
REMARK VINA RESULT: -6.823820128      2.385      4.274
REMARK  9 active torsions:
REMARK  status: ('A' for Active; 'I' for Inactive)
REMARK    1  A    between atoms: C2_2  and  C4_4 
REMARK    2  A    between atoms: C4_4  and  C5_5 
REMARK    3  A    between atoms: C4_4  and  N1_8 
REMARK    4  A    between atoms: C6_9  and  C7_10 
REMARK    5  A    between atoms: C7_10  and  C8_11 
REMARK    6  A    between atoms: C8_11  and  C11_14 
REMARK       I    between atoms: C11_14  and  N2_16 
REMARK    7  A    between atoms: N3_19  and  C14_20 
REMARK    8  A    between atoms: C23_31  and  N5_32 
REMARK    9  A    between atoms: N6_35  and  C26_36 
ROOT
HETATM    1  N1  UNL     1       7.142 -14.461 -22.158  1.00  0.00    -0.319 N 
HETATM    2  C6  UNL     1       7.117 -15.356 -23.151  1.00  0.00     0.086 A 
HETATM    3  N4  UNL     1       7.426 -16.601 -22.686  1.00  0.00    -0.344 N 
ATOM      4  H4  UNL     1       7.477 -17.456 -23.240  1.00  0.00     0.167 HD
HETATM    5  C20 UNL     1       7.652 -16.499 -21.366  1.00  0.00     0.060 A 
HETATM    6  C21 UNL     1       8.000 -17.421 -20.384  1.00  0.00     0.034 A 
HETATM    7  C22 UNL     1       8.170 -17.016 -19.083  1.00  0.00     0.031 A 
HETATM    8  C23 UNL     1       8.000 -15.680 -18.715  1.00  0.00     0.032 A 
HETATM    9  C29 UNL     1       7.654 -14.795 -19.727  1.00  0.00     0.061 A 
HETATM   10  C30 UNL     1       7.476 -15.174 -21.041  1.00  0.00     0.065 A 
ENDROOT
BRANCH   2  11
HETATM   11  C7  UNL     1       6.787 -15.136 -24.555  1.00  0.00     0.095 C 
BRANCH  11  12
HETATM   12  C8  UNL     1       5.457 -15.685 -25.010  1.00  0.00     0.040 C 
HETATM   13  C9  UNL     1       4.646 -16.312 -23.901  1.00  0.00     0.025 C 
HETATM   14  C10 UNL     1       4.588 -14.551 -25.552  1.00  0.00     0.025 C 
BRANCH  12  15
HETATM   15  C11 UNL     1       5.623 -16.669 -26.109  1.00  0.00     0.228 C 
HETATM   16  O3  UNL     1       5.227 -17.853 -25.833  1.00  0.00    -0.273 OA
HETATM   17  N2  UNL     1       6.151 -16.444 -27.379  1.00  0.00    -0.348 N 
HETATM   18  C12 UNL     1       6.207 -17.600 -28.310  1.00  0.00     0.145 C 
HETATM   19  C19 UNL     1       6.667 -15.230 -27.939  1.00  0.00     0.145 C 
HETATM   20  C13 UNL     1       5.169 -17.247 -29.384  1.00  0.00     0.137 C 
HETATM   21  N3  UNL     1       5.484 -16.000 -29.967  1.00  0.00    -0.402 N 
HETATM   22  C18 UNL     1       6.611 -15.320 -29.458  1.00  0.00     0.137 C 
BRANCH  21  23
HETATM   23  C14 UNL     1       4.446 -15.261 -30.565  1.00  0.00     0.017 C 
HETATM   24  C15 UNL     1       3.403 -14.869 -29.508  1.00  0.00     0.037 C 
HETATM   25  C16 UNL     1       4.858 -13.999 -31.264  1.00  0.00     0.037 C 
HETATM   26  C17 UNL     1       3.714 -16.122 -31.572  1.00  0.00     0.037 C 
ENDBRANCH  21  23
ENDBRANCH  12  15
ENDBRANCH  11  12
ENDBRANCH   2  11
BRANCH   1  27
HETATM   27  C4  UNL     1       6.918 -13.051 -22.161  1.00  0.00     0.195 C 
BRANCH  27  28
HETATM   28  C2  UNL     1       5.526 -12.686 -22.671  1.00  0.00     0.011 C 
HETATM   29  C1  UNL     1       4.488 -13.448 -21.875  1.00  0.00     0.012 C 
HETATM   30  C3  UNL     1       5.309 -11.215 -22.440  1.00  0.00     0.012 C 
ENDBRANCH  27  28
BRANCH  27  31
HETATM   31  C5  UNL     1       7.953 -12.234 -22.825  1.00  0.00     0.197 C 
HETATM   32  O1  UNL     1       8.962 -11.806 -22.202  1.00  0.00    -0.646 OA
HETATM   33  O2  UNL     1       7.847 -11.911 -24.158  1.00  0.00    -0.646 OA
ENDBRANCH  27  31
ENDBRANCH   1  27
BRANCH   8  34
HETATM   34  N5  UNL     1       8.154 -15.255 -17.379  1.00  0.00    -0.378 N 
HETATM   35  C24 UNL     1       8.784 -16.112 -16.377  1.00  0.00     0.143 C 
HETATM   36  C25 UNL     1       9.977 -15.447 -15.772  1.00  0.00     0.145 C 
HETATM   37  N6  UNL     1      10.145 -14.159 -16.380  1.00  0.00    -0.356 N 
HETATM   38  C27 UNL     1       9.046 -13.243 -16.513  1.00  0.00     0.145 C 
HETATM   39  C28 UNL     1       7.740 -13.968 -16.882  1.00  0.00     0.143 C 
BRANCH  37  40
HETATM   40  C26 UNL     1      11.438 -13.791 -16.861  1.00  0.00     0.350 C 
HETATM   41  O4  UNL     1      11.876 -14.179 -17.989  1.00  0.00    -0.284 OA
ENDBRANCH  37  40
ENDBRANCH   8  34
TORSDOF 9
ENDMDL
MODEL 5
REMARK VINA RESULT: -6.783626374      2.691      4.421
REMARK  9 active torsions:
REMARK  status: ('A' for Active; 'I' for Inactive)
REMARK    1  A    between atoms: C2_2  and  C4_4 
REMARK    2  A    between atoms: C4_4  and  C5_5 
REMARK    3  A    between atoms: C4_4  and  N1_8 
REMARK    4  A    between atoms: C6_9  and  C7_10 
REMARK    5  A    between atoms: C7_10  and  C8_11 
REMARK    6  A    between atoms: C8_11  and  C11_14 
REMARK       I    between atoms: C11_14  and  N2_16 
REMARK    7  A    between atoms: N3_19  and  C14_20 
REMARK    8  A    between atoms: C23_31  and  N5_32 
REMARK    9  A    between atoms: N6_35  and  C26_36 
ROOT
HETATM    1  N1  UNL     1       7.240 -14.343 -22.151  1.00  0.00    -0.319 N 
HETATM    2  C6  UNL     1       7.328 -15.181 -23.189  1.00  0.00     0.086 A 
HETATM    3  N4  UNL     1       7.750 -16.413 -22.778  1.00  0.00    -0.344 N 
ATOM      4  H4  UNL     1       7.899 -17.227 -23.374  1.00  0.00     0.167 HD
HETATM    5  C20 UNL     1       7.933 -16.359 -21.449  1.00  0.00     0.060 A 
HETATM    6  C21 UNL     1       8.348 -17.293 -20.505  1.00  0.00     0.034 A 
HETATM    7  C22 UNL     1       8.446 -16.943 -19.181  1.00  0.00     0.031 A 
HETATM    8  C23 UNL     1       8.134 -15.651 -18.752  1.00  0.00     0.032 A 
HETATM    9  C29 UNL     1       7.725 -14.752 -19.727  1.00  0.00     0.061 A 
HETATM   10  C30 UNL     1       7.617 -15.077 -21.063  1.00  0.00     0.065 A 
ENDROOT
BRANCH   2  11
HETATM   11  C7  UNL     1       7.011 -14.921 -24.589  1.00  0.00     0.095 C 
BRANCH  11  12
HETATM   12  C8  UNL     1       8.065 -15.331 -25.587  1.00  0.00     0.040 C 
HETATM   13  C9  UNL     1       8.388 -16.805 -25.560  1.00  0.00     0.025 C 
HETATM   14  C10 UNL     1       7.568 -15.055 -27.006  1.00  0.00     0.025 C 
BRANCH  12  15
HETATM   15  C11 UNL     1       9.317 -14.554 -25.406  1.00  0.00     0.228 C 
HETATM   16  O3  UNL     1       9.176 -13.286 -25.479  1.00  0.00    -0.273 OA
HETATM   17  N2  UNL     1      10.598 -15.049 -25.170  1.00  0.00    -0.348 N 
HETATM   18  C12 UNL     1      11.695 -14.060 -25.019  1.00  0.00     0.145 C 
HETATM   19  C19 UNL     1      11.031 -16.409 -25.050  1.00  0.00     0.145 C 
HETATM   20  C13 UNL     1      12.078 -14.171 -23.537  1.00  0.00     0.137 C 
HETATM   21  N3  UNL     1      12.433 -15.503 -23.229  1.00  0.00    -0.402 N 
HETATM   22  C18 UNL     1      12.339 -16.449 -24.272  1.00  0.00     0.137 C 
BRANCH  21  23
HETATM   23  C14 UNL     1      12.315 -15.936 -21.895  1.00  0.00     0.017 C 
HETATM   24  C15 UNL     1      11.302 -15.057 -21.146  1.00  0.00     0.037 C 
HETATM   25  C16 UNL     1      11.888 -17.360 -21.702  1.00  0.00     0.037 C 
HETATM   26  C17 UNL     1      13.634 -15.753 -21.175  1.00  0.00     0.037 C 
ENDBRANCH  21  23
ENDBRANCH  12  15
ENDBRANCH  11  12
ENDBRANCH   2  11
BRANCH   1  27
HETATM   27  C4  UNL     1       6.876 -12.963 -22.090  1.00  0.00     0.195 C 
BRANCH  27  28
HETATM   28  C2  UNL     1       5.480 -12.706 -22.654  1.00  0.00     0.011 C 
HETATM   29  C1  UNL     1       4.551 -13.814 -22.207  1.00  0.00     0.012 C 
HETATM   30  C3  UNL     1       4.973 -11.409 -22.084  1.00  0.00     0.012 C 
ENDBRANCH  27  28
BRANCH  27  31
HETATM   31  C5  UNL     1       7.854 -12.012 -22.653  1.00  0.00     0.197 C 
HETATM   32  O1  UNL     1       9.027 -11.918 -22.197  1.00  0.00    -0.646 OA
HETATM   33  O2  UNL     1       7.515 -11.189 -23.702  1.00  0.00    -0.646 OA
ENDBRANCH  27  31
ENDBRANCH   1  27
BRANCH   8  34
HETATM   34  N5  UNL     1       8.214 -15.285 -17.391  1.00  0.00    -0.378 N 
HETATM   35  C24 UNL     1       8.841 -16.160 -16.404  1.00  0.00     0.143 C 
HETATM   36  C25 UNL     1       9.976 -15.472 -15.718  1.00  0.00     0.145 C 
HETATM   37  N6  UNL     1      10.108 -14.150 -16.259  1.00  0.00    -0.356 N 
HETATM   38  C27 UNL     1       8.974 -13.279 -16.396  1.00  0.00     0.145 C 
HETATM   39  C28 UNL     1       7.719 -14.043 -16.854  1.00  0.00     0.143 C 
BRANCH  37  40
HETATM   40  C26 UNL     1      11.401 -13.702 -16.665  1.00  0.00     0.350 C 
HETATM   41  O4  UNL     1      11.897 -14.005 -17.795  1.00  0.00    -0.284 OA
ENDBRANCH  37  40
ENDBRANCH   8  34
TORSDOF 9
ENDMDL
