MODEL 1
REMARK VINA RESULT: -7.287215164      0.000      0.000
REMARK  8 active torsions:
REMARK  status: ('A' for Active; 'I' for Inactive)
REMARK    1  A    between atoms: C3_5  and  C4_6 
REMARK    2  A    between atoms: N3_10  and  C6_11 
REMARK    3  A    between atoms: C6_11  and  C7_12 
REMARK    4  A    between atoms: C15_22  and  O1_23 
REMARK    5  A    between atoms: O1_23  and  C16_24 
REMARK    6  A    between atoms: C16_24  and  C17_25 
REMARK    7  A    between atoms: C17_25  and  N6_26 
REMARK    8  A    between atoms: C25_34  and  C26_35 
ROOT
HETATM    1  C7  UNL     1       8.239  16.961  19.728  1.00  0.00     0.161 C 
HETATM    2  C8  UNL     1       9.182  17.982  20.121  1.00  0.00     0.061 C 
HETATM    3  N4  UNL     1       9.948  18.797  20.418  1.00  0.00    -0.197 NA
ENDROOT
BRANCH   1   4
HETATM    4  C6  UNL     1       8.932  15.576  19.627  1.00  0.00     0.117 C 
HETATM    5  C9  UNL     1      10.198  15.639  18.880  1.00  0.00     0.309 C 
HETATM    6  N5  UNL     1      10.290  15.908  17.493  1.00  0.00     0.096 N 
HETATM    7  C10 UNL     1      11.116  14.870  16.807  1.00  0.00     0.277 C 
HETATM    8  C20 UNL     1       9.069  15.654  16.855  1.00  0.00     0.227 C 
HETATM    9  C11 UNL     1      10.362  14.375  15.625  1.00  0.00     0.016 C 
HETATM   10  C12 UNL     1       9.133  13.506  15.986  1.00  0.00     0.013 C 
HETATM   11  C21 UNL     1       9.512  15.638  15.370  1.00  0.00     0.042 C 
HETATM   12  C13 UNL     1       8.808  14.208  17.231  1.00  0.00     0.022 C 
HETATM   13  C14 UNL     1       7.568  14.236  17.938  1.00  0.00     0.041 C 
HETATM   14  C15 UNL     1       7.936  14.561  19.409  1.00  0.00     0.154 C 
BRANCH   4  15
HETATM   15  N3  UNL     1       9.411  15.445  21.017  1.00  0.00    -0.288 N 
HETATM   16  N2  UNL     1       8.912  16.043  22.089  1.00  0.00    -0.308 N 
HETATM   17  C5  UNL     1       9.567  15.747  23.200  1.00  0.00     0.122 A 
ATOM     18  H2  UNL     1       8.105  16.667  22.061  1.00  0.00     0.186 HD
HETATM   19  C4  UNL     1      10.587  14.886  22.851  1.00  0.00     0.025 A 
HETATM   20  C22 UNL     1      10.444  14.733  21.489  1.00  0.00     0.126 A 
BRANCH  19  21
HETATM   21  C3  UNL     1      11.578  14.278  23.726  1.00  0.00     0.045 A 
HETATM   22  N1  UNL     1      11.443  14.220  25.055  1.00  0.00    -0.359 N 
HETATM   23  C2  UNL     1      12.315  13.690  25.915  1.00  0.00     0.012 A 
ATOM     24  H1  UNL     1      10.592  14.620  25.450  1.00  0.00     0.166 HD
HETATM   25  C1  UNL     1      12.031  13.689  27.398  1.00  0.00     0.068 C 
HETATM   26  C25 UNL     1      13.501  13.126  25.418  1.00  0.00    -0.032 A 
HETATM   27  C24 UNL     1      13.696  13.155  24.062  1.00  0.00     0.012 A 
HETATM   28  C23 UNL     1      12.739  13.728  23.223  1.00  0.00     0.031 A 
BRANCH  26  29
HETATM   29  C26 UNL     1      14.446  12.535  26.338  1.00  0.00     0.024 C 
HETATM   30  C27 UNL     1      15.675  12.033  25.622  1.00  0.00     0.028 C 
HETATM   31  C28 UNL     1      15.665  10.557  25.347  1.00  0.00     0.114 C 
HETATM   32  N7  UNL     1      14.374   9.972  25.211  1.00  0.00    -0.421 N 
HETATM   33  C29 UNL     1      13.385  10.347  26.156  1.00  0.00     0.114 C 
ATOM     34  H7  UNL     1      14.169   9.309  24.463  1.00  0.00     0.153 HD
HETATM   35  C30 UNL     1      13.944  11.346  27.114  1.00  0.00     0.028 C 
ENDBRANCH  26  29
ENDBRANCH  19  21
ENDBRANCH   4  15
BRANCH  14  36
HETATM   36  O1  UNL     1       6.756  14.898  20.067  1.00  0.00    -0.382 OA
BRANCH  36  37
HETATM   37  C16 UNL     1       6.106  13.890  20.708  1.00  0.00     0.187 C 
BRANCH  37  38
HETATM   38  C17 UNL     1       6.007  14.297  22.188  1.00  0.00     0.142 C 
BRANCH  38  39
HETATM   39  N6  UNL     1       6.626  13.357  23.047  1.00  0.00    -0.419 N 
HETATM   40  C18 UNL     1       6.959  13.790  24.360  1.00  0.00     0.142 C 
HETATM   41  C19 UNL     1       7.574  12.500  22.406  1.00  0.00     0.142 C 
ENDBRANCH  38  39
ENDBRANCH  37  38
ENDBRANCH  36  37
ENDBRANCH  14  36
ENDBRANCH   1   4
TORSDOF 8
ENDMDL
MODEL 2
REMARK VINA RESULT: -6.785944901      4.141      6.829
REMARK  8 active torsions:
REMARK  status: ('A' for Active; 'I' for Inactive)
REMARK    1  A    between atoms: C3_5  and  C4_6 
REMARK    2  A    between atoms: N3_10  and  C6_11 
REMARK    3  A    between atoms: C6_11  and  C7_12 
REMARK    4  A    between atoms: C15_22  and  O1_23 
REMARK    5  A    between atoms: O1_23  and  C16_24 
REMARK    6  A    between atoms: C16_24  and  C17_25 
REMARK    7  A    between atoms: C17_25  and  N6_26 
REMARK    8  A    between atoms: C25_34  and  C26_35 
ROOT
HETATM    1  C7  UNL     1       7.119  16.684  21.160  1.00  0.00     0.161 C 
HETATM    2  C8  UNL     1       6.720  17.782  20.310  1.00  0.00     0.061 C 
HETATM    3  N4  UNL     1       6.396  18.647  19.612  1.00  0.00    -0.197 NA
ENDROOT
BRANCH   1   4
HETATM    4  C6  UNL     1       8.396  15.994  20.610  1.00  0.00     0.117 C 
HETATM    5  C9  UNL     1       8.457  16.023  19.141  1.00  0.00     0.309 C 
HETATM    6  N5  UNL     1       7.574  15.310  18.294  1.00  0.00     0.096 N 
HETATM    7  C10 UNL     1       8.337  14.504  17.294  1.00  0.00     0.277 C 
HETATM    8  C20 UNL     1       6.965  14.255  18.986  1.00  0.00     0.227 C 
HETATM    9  C11 UNL     1       7.815  13.113  17.315  1.00  0.00     0.016 C 
HETATM   10  C12 UNL     1       8.185  12.323  18.594  1.00  0.00     0.013 C 
HETATM   11  C21 UNL     1       6.387  13.428  17.810  1.00  0.00     0.042 C 
HETATM   12  C13 UNL     1       8.162  13.477  19.499  1.00  0.00     0.022 C 
HETATM   13  C14 UNL     1       8.021  13.490  20.919  1.00  0.00     0.041 C 
HETATM   14  C15 UNL     1       8.672  14.816  21.389  1.00  0.00     0.154 C 
BRANCH   4  15
HETATM   15  N3  UNL     1       9.396  17.017  20.971  1.00  0.00    -0.288 N 
HETATM   16  N2  UNL     1       9.462  17.699  22.106  1.00  0.00    -0.308 N 
HETATM   17  C5  UNL     1      10.461  18.566  22.133  1.00  0.00     0.122 A 
ATOM     18  H2  UNL     1       8.809  17.569  22.879  1.00  0.00     0.186 HD
HETATM   19  C4  UNL     1      11.119  18.462  20.925  1.00  0.00     0.025 A 
HETATM   20  C22 UNL     1      10.418  17.490  20.245  1.00  0.00     0.126 A 
BRANCH  19  21
HETATM   21  C3  UNL     1      12.287  19.208  20.480  1.00  0.00     0.045 A 
HETATM   22  N1  UNL     1      12.381  19.764  19.267  1.00  0.00    -0.359 N 
HETATM   23  C2  UNL     1      13.423  20.449  18.791  1.00  0.00     0.012 A 
ATOM     24  H1  UNL     1      11.580  19.654  18.646  1.00  0.00     0.166 HD
HETATM   25  C1  UNL     1      13.393  21.028  17.397  1.00  0.00     0.068 C 
HETATM   26  C25 UNL     1      14.550  20.626  19.611  1.00  0.00    -0.032 A 
HETATM   27  C24 UNL     1      14.512  20.080  20.866  1.00  0.00     0.012 A 
HETATM   28  C23 UNL     1      13.386  19.375  21.296  1.00  0.00     0.031 A 
BRANCH  26  29
HETATM   29  C26 UNL     1      15.678  21.379  19.112  1.00  0.00     0.024 C 
HETATM   30  C27 UNL     1      16.859  21.289  20.046  1.00  0.00     0.028 C 
HETATM   31  C28 UNL     1      17.013  22.472  20.957  1.00  0.00     0.114 C 
HETATM   32  N7  UNL     1      15.806  23.161  21.270  1.00  0.00    -0.421 N 
HETATM   33  C29 UNL     1      14.908  23.420  20.202  1.00  0.00     0.114 C 
ATOM     34  H7  UNL     1      15.596  23.456  22.223  1.00  0.00     0.153 HD
HETATM   35  C30 UNL     1      15.448  22.856  18.930  1.00  0.00     0.028 C 
ENDBRANCH  26  29
ENDBRANCH  19  21
ENDBRANCH   4  15
BRANCH  14  36
HETATM   36  O1  UNL     1       8.292  15.018  22.713  1.00  0.00    -0.382 OA
BRANCH  36  37
HETATM   37  C16 UNL     1       9.110  14.497  23.668  1.00  0.00     0.187 C 
BRANCH  37  38
HETATM   38  C17 UNL     1       8.455  14.801  25.027  1.00  0.00     0.142 C 
BRANCH  38  39
HETATM   39  N6  UNL     1       7.304  14.010  25.257  1.00  0.00    -0.419 N 
HETATM   40  C18 UNL     1       6.346  14.501  26.186  1.00  0.00     0.142 C 
HETATM   41  C19 UNL     1       7.547  12.601  25.288  1.00  0.00     0.142 C 
ENDBRANCH  38  39
ENDBRANCH  37  38
ENDBRANCH  36  37
ENDBRANCH  14  36
ENDBRANCH   1   4
TORSDOF 8
ENDMDL
MODEL 3
REMARK VINA RESULT: -6.702613696      1.165      2.051
REMARK  8 active torsions:
REMARK  status: ('A' for Active; 'I' for Inactive)
REMARK    1  A    between atoms: C3_5  and  C4_6 
REMARK    2  A    between atoms: N3_10  and  C6_11 
REMARK    3  A    between atoms: C6_11  and  C7_12 
REMARK    4  A    between atoms: C15_22  and  O1_23 
REMARK    5  A    between atoms: O1_23  and  C16_24 
REMARK    6  A    between atoms: C16_24  and  C17_25 
REMARK    7  A    between atoms: C17_25  and  N6_26 
REMARK    8  A    between atoms: C25_34  and  C26_35 
ROOT
HETATM    1  C7  UNL     1       7.980  16.934  19.664  1.00  0.00     0.161 C 
HETATM    2  C8  UNL     1       8.819  18.043  20.054  1.00  0.00     0.061 C 
HETATM    3  N4  UNL     1       9.503  18.929  20.349  1.00  0.00    -0.197 NA
ENDROOT
BRANCH   1   4
HETATM    4  C6  UNL     1       8.785  15.607  19.657  1.00  0.00     0.117 C 
HETATM    5  C9  UNL     1      10.076  15.740  18.965  1.00  0.00     0.309 C 
HETATM    6  N5  UNL     1      10.213  15.957  17.573  1.00  0.00     0.096 N 
HETATM    7  C10 UNL     1      11.150  14.960  16.973  1.00  0.00     0.277 C 
HETATM    8  C20 UNL     1       9.048  15.578  16.894  1.00  0.00     0.227 C 
HETATM    9  C11 UNL     1      10.494  14.357  15.783  1.00  0.00     0.016 C 
HETATM   10  C12 UNL     1       9.322  13.407  16.128  1.00  0.00     0.013 C 
HETATM   11  C21 UNL     1       9.561  15.535  15.432  1.00  0.00     0.042 C 
HETATM   12  C13 UNL     1       8.884  14.133  17.325  1.00  0.00     0.022 C 
HETATM   13  C14 UNL     1       7.613  14.090  17.973  1.00  0.00     0.041 C 
HETATM   14  C15 UNL     1       7.883  14.506  19.443  1.00  0.00     0.154 C 
BRANCH   4  15
HETATM   15  N3  UNL     1       9.205  15.574  21.072  1.00  0.00    -0.288 N 
HETATM   16  N2  UNL     1       8.761  16.349  22.051  1.00  0.00    -0.308 N 
HETATM   17  C5  UNL     1       9.341  16.100  23.214  1.00  0.00     0.122 A 
ATOM     18  H2  UNL     1       8.044  17.064  21.922  1.00  0.00     0.186 HD
HETATM   19  C4  UNL     1      10.247  15.081  23.003  1.00  0.00     0.025 A 
HETATM   20  C22 UNL     1      10.121  14.794  21.661  1.00  0.00     0.126 A 
BRANCH  19  21
HETATM   21  C3  UNL     1      11.126  14.454  23.979  1.00  0.00     0.045 A 
HETATM   22  N1  UNL     1      12.265  13.836  23.647  1.00  0.00    -0.359 N 
HETATM   23  C2  UNL     1      13.110  13.233  24.486  1.00  0.00     0.012 A 
ATOM     24  H1  UNL     1      12.512  13.826  22.658  1.00  0.00     0.166 HD
HETATM   25  C1  UNL     1      14.368  12.575  23.973  1.00  0.00     0.068 C 
HETATM   26  C25 UNL     1      12.811  13.224  25.859  1.00  0.00    -0.032 A 
HETATM   27  C24 UNL     1      11.657  13.842  26.260  1.00  0.00     0.012 A 
HETATM   28  C23 UNL     1      10.821  14.453  25.324  1.00  0.00     0.031 A 
BRANCH  26  29
HETATM   29  C26 UNL     1      13.725  12.587  26.780  1.00  0.00     0.024 C 
HETATM   30  C27 UNL     1      13.100  12.398  28.139  1.00  0.00     0.028 C 
HETATM   31  C28 UNL     1      13.486  13.445  29.142  1.00  0.00     0.114 C 
HETATM   32  N7  UNL     1      13.827  14.716  28.597  1.00  0.00    -0.421 N 
HETATM   33  C29 UNL     1      14.671  14.729  27.457  1.00  0.00     0.114 C 
ATOM     34  H7  UNL     1      13.479  15.581  29.010  1.00  0.00     0.153 HD
HETATM   35  C30 UNL     1      15.005  13.333  27.049  1.00  0.00     0.028 C 
ENDBRANCH  26  29
ENDBRANCH  19  21
ENDBRANCH   4  15
BRANCH  14  36
HETATM   36  O1  UNL     1       6.650  14.775  20.031  1.00  0.00    -0.382 OA
BRANCH  36  37
HETATM   37  C16 UNL     1       6.032  13.735  20.653  1.00  0.00     0.187 C 
BRANCH  37  38
HETATM   38  C17 UNL     1       5.920  14.112  22.141  1.00  0.00     0.142 C 
BRANCH  38  39
HETATM   39  N6  UNL     1       6.964  13.554  22.917  1.00  0.00    -0.419 N 
HETATM   40  C18 UNL     1       7.454  12.275  22.534  1.00  0.00     0.142 C 
HETATM   41  C19 UNL     1       6.853  13.791  24.323  1.00  0.00     0.142 C 
ENDBRANCH  38  39
ENDBRANCH  37  38
ENDBRANCH  36  37
ENDBRANCH  14  36
ENDBRANCH   1   4
TORSDOF 8
ENDMDL
MODEL 4
REMARK VINA RESULT: -6.687217233      1.933      3.528
REMARK  8 active torsions:
REMARK  status: ('A' for Active; 'I' for Inactive)
REMARK    1  A    between atoms: C3_5  and  C4_6 
REMARK    2  A    between atoms: N3_10  and  C6_11 
REMARK    3  A    between atoms: C6_11  and  C7_12 
REMARK    4  A    between atoms: C15_22  and  O1_23 
REMARK    5  A    between atoms: O1_23  and  C16_24 
REMARK    6  A    between atoms: C16_24  and  C17_25 
REMARK    7  A    between atoms: C17_25  and  N6_26 
REMARK    8  A    between atoms: C25_34  and  C26_35 
ROOT
HETATM    1  C7  UNL     1       8.709  16.750  19.967  1.00  0.00     0.161 C 
HETATM    2  C8  UNL     1       9.669  17.812  20.153  1.00  0.00     0.061 C 
HETATM    3  N4  UNL     1      10.447  18.660  20.281  1.00  0.00    -0.197 NA
ENDROOT
BRANCH   1   4
HETATM    4  C6  UNL     1       9.422  15.395  19.715  1.00  0.00     0.117 C 
HETATM    5  C9  UNL     1      10.571  15.530  18.805  1.00  0.00     0.309 C 
HETATM    6  N5  UNL     1      10.463  15.854  17.431  1.00  0.00     0.096 N 
HETATM    7  C10 UNL     1      11.217  14.871  16.597  1.00  0.00     0.277 C 
HETATM    8  C20 UNL     1       9.174  15.581  16.956  1.00  0.00     0.227 C 
HETATM    9  C11 UNL     1      10.323  14.394  15.510  1.00  0.00     0.016 C 
HETATM   10  C12 UNL     1       9.181  13.470  15.997  1.00  0.00     0.013 C 
HETATM   11  C21 UNL     1       9.409  15.636  15.425  1.00  0.00     0.042 C 
HETATM   12  C13 UNL     1       9.010  14.114  17.304  1.00  0.00     0.022 C 
HETATM   13  C14 UNL     1       7.879  14.072  18.173  1.00  0.00     0.041 C 
HETATM   14  C15 UNL     1       8.436  14.354  19.592  1.00  0.00     0.154 C 
BRANCH   4  15
HETATM   15  N3  UNL     1      10.091  15.230  21.020  1.00  0.00    -0.288 N 
HETATM   16  N2  UNL     1      11.394  15.112  21.236  1.00  0.00    -0.308 N 
HETATM   17  C5  UNL     1      11.696  14.956  22.514  1.00  0.00     0.122 A 
ATOM     18  H2  UNL     1      12.092  15.139  20.492  1.00  0.00     0.186 HD
HETATM   19  C4  UNL     1      10.507  14.968  23.215  1.00  0.00     0.025 A 
HETATM   20  C22 UNL     1       9.547  15.140  22.241  1.00  0.00     0.126 A 
BRANCH  19  21
HETATM   21  C3  UNL     1      10.318  14.834  24.652  1.00  0.00     0.045 A 
HETATM   22  N1  UNL     1      10.898  13.873  25.379  1.00  0.00    -0.359 N 
HETATM   23  C2  UNL     1      10.760  13.686  26.693  1.00  0.00     0.012 A 
ATOM     24  H1  UNL     1      11.504  13.221  24.882  1.00  0.00     0.166 HD
HETATM   25  C1  UNL     1      11.480  12.557  27.391  1.00  0.00     0.068 C 
HETATM   26  C25 UNL     1       9.935  14.561  27.420  1.00  0.00    -0.032 A 
HETATM   27  C24 UNL     1       9.314  15.567  26.729  1.00  0.00     0.012 A 
HETATM   28  C23 UNL     1       9.506  15.700  25.353  1.00  0.00     0.031 A 
BRANCH  26  29
HETATM   29  C26 UNL     1       9.790  14.377  28.846  1.00  0.00     0.024 C 
HETATM   30  C27 UNL     1       8.668  15.220  29.401  1.00  0.00     0.028 C 
HETATM   31  C28 UNL     1       9.122  16.500  30.039  1.00  0.00     0.114 C 
HETATM   32  N7  UNL     1      10.339  17.037  29.532  1.00  0.00    -0.421 N 
HETATM   33  C29 UNL     1      11.412  16.133  29.324  1.00  0.00     0.114 C 
ATOM     34  H7  UNL     1      10.435  18.031  29.326  1.00  0.00     0.153 HD
HETATM   35  C30 UNL     1      10.990  14.745  29.677  1.00  0.00     0.028 C 
ENDBRANCH  26  29
ENDBRANCH  19  21
ENDBRANCH   4  15
BRANCH  14  36
HETATM   36  O1  UNL     1       7.348  14.626  20.418  1.00  0.00    -0.382 OA
BRANCH  36  37
HETATM   37  C16 UNL     1       6.212  13.915  20.184  1.00  0.00     0.187 C 
BRANCH  37  38
HETATM   38  C17 UNL     1       5.691  13.448  21.554  1.00  0.00     0.142 C 
BRANCH  38  39
HETATM   39  N6  UNL     1       6.693  13.489  22.553  1.00  0.00    -0.419 N 
HETATM   40  C18 UNL     1       7.379  12.278  22.842  1.00  0.00     0.142 C 
HETATM   41  C19 UNL     1       6.382  14.321  23.673  1.00  0.00     0.142 C 
ENDBRANCH  38  39
ENDBRANCH  37  38
ENDBRANCH  36  37
ENDBRANCH  14  36
ENDBRANCH   1   4
TORSDOF 8
ENDMDL
MODEL 5
REMARK VINA RESULT: -6.670194561      2.654      3.797
REMARK  8 active torsions:
REMARK  status: ('A' for Active; 'I' for Inactive)
REMARK    1  A    between atoms: C3_5  and  C4_6 
REMARK    2  A    between atoms: N3_10  and  C6_11 
REMARK    3  A    between atoms: C6_11  and  C7_12 
REMARK    4  A    between atoms: C15_22  and  O1_23 
REMARK    5  A    between atoms: O1_23  and  C16_24 
REMARK    6  A    between atoms: C16_24  and  C17_25 
REMARK    7  A    between atoms: C17_25  and  N6_26 
REMARK    8  A    between atoms: C25_34  and  C26_35 
ROOT
HETATM    1  C7  UNL     1       8.580  16.996  19.825  1.00  0.00     0.161 C 
HETATM    2  C8  UNL     1       9.598  17.993  20.059  1.00  0.00     0.061 C 
HETATM    3  N4  UNL     1      10.423  18.788  20.227  1.00  0.00    -0.197 NA
ENDROOT
BRANCH   1   4
HETATM    4  C6  UNL     1       9.211  15.587  19.660  1.00  0.00     0.117 C 
HETATM    5  C9  UNL     1      10.415  15.611  18.816  1.00  0.00     0.309 C 
HETATM    6  N5  UNL     1      10.408  15.890  17.428  1.00  0.00     0.096 N 
HETATM    7  C10 UNL     1      11.139  14.828  16.673  1.00  0.00     0.277 C 
HETATM    8  C20 UNL     1       9.133  15.686  16.887  1.00  0.00     0.227 C 
HETATM    9  C11 UNL     1      10.276  14.373  15.551  1.00  0.00     0.016 C 
HETATM   10  C12 UNL     1       9.047  13.546  16.001  1.00  0.00     0.013 C 
HETATM   11  C21 UNL     1       9.457  15.669  15.371  1.00  0.00     0.042 C 
HETATM   12  C13 UNL     1       8.848  14.248  17.273  1.00  0.00     0.022 C 
HETATM   13  C14 UNL     1       7.669  14.315  18.076  1.00  0.00     0.041 C 
HETATM   14  C15 UNL     1       8.163  14.612  19.515  1.00  0.00     0.154 C 
BRANCH   4  15
HETATM   15  N3  UNL     1       9.792  15.426  21.007  1.00  0.00    -0.288 N 
HETATM   16  N2  UNL     1      10.952  14.861  21.310  1.00  0.00    -0.308 N 
HETATM   17  C5  UNL     1      11.198  14.844  22.610  1.00  0.00     0.122 A 
ATOM     18  H2  UNL     1      11.591  14.479  20.612  1.00  0.00     0.186 HD
HETATM   19  C4  UNL     1      10.121  15.442  23.232  1.00  0.00     0.025 A 
HETATM   20  C22 UNL     1       9.281  15.783  22.194  1.00  0.00     0.126 A 
BRANCH  19  21
HETATM   21  C3  UNL     1       9.925  15.663  24.658  1.00  0.00     0.045 A 
HETATM   22  N1  UNL     1       9.339  16.757  25.154  1.00  0.00    -0.359 N 
HETATM   23  C2  UNL     1       9.139  17.028  26.445  1.00  0.00     0.012 A 
ATOM     24  H1  UNL     1       9.014  17.451  24.482  1.00  0.00     0.166 HD
HETATM   25  C1  UNL     1       8.457  18.308  26.868  1.00  0.00     0.068 C 
HETATM   26  C25 UNL     1       9.570  16.101  27.408  1.00  0.00    -0.032 A 
HETATM   27  C24 UNL     1      10.177  14.958  26.960  1.00  0.00     0.012 A 
HETATM   28  C23 UNL     1      10.353  14.743  25.592  1.00  0.00     0.031 A 
BRANCH  26  29
HETATM   29  C26 UNL     1       9.345  16.377  28.809  1.00  0.00     0.024 C 
HETATM   30  C27 UNL     1      10.119  15.429  29.691  1.00  0.00     0.028 C 
HETATM   31  C28 UNL     1       9.308  14.283  30.221  1.00  0.00     0.114 C 
HETATM   32  N7  UNL     1       8.207  13.888  29.409  1.00  0.00    -0.421 N 
HETATM   33  C29 UNL     1       7.393  14.917  28.871  1.00  0.00     0.114 C 
ATOM     34  H7  UNL     1       8.013  12.904  29.221  1.00  0.00     0.153 HD
HETATM   35  C30 UNL     1       7.919  16.253  29.278  1.00  0.00     0.028 C 
ENDBRANCH  26  29
ENDBRANCH  19  21
ENDBRANCH   4  15
BRANCH  14  36
HETATM   36  O1  UNL     1       7.052  14.986  20.266  1.00  0.00    -0.382 OA
BRANCH  36  37
HETATM   37  C16 UNL     1       6.158  14.005  20.562  1.00  0.00     0.187 C 
BRANCH  37  38
HETATM   38  C17 UNL     1       5.766  14.193  22.038  1.00  0.00     0.142 C 
BRANCH  38  39
HETATM   39  N6  UNL     1       6.800  13.802  22.922  1.00  0.00    -0.419 N 
HETATM   40  C18 UNL     1       7.382  12.520  22.724  1.00  0.00     0.142 C 
HETATM   41  C19 UNL     1       6.603  14.202  24.281  1.00  0.00     0.142 C 
ENDBRANCH  38  39
ENDBRANCH  37  38
ENDBRANCH  36  37
ENDBRANCH  14  36
ENDBRANCH   1   4
TORSDOF 8
ENDMDL
