MODEL 1
REMARK VINA RESULT: -7.031039525      0.000      0.000
REMARK  11 active torsions:
REMARK  status: ('A' for Active; 'I' for Inactive)
REMARK    1  A    between atoms: C2_2  and  O2_4 
REMARK    2  A    between atoms: O2_4  and  C3_5 
REMARK    3  A    between atoms: C9_11  and  C10_12 
REMARK    4  A    between atoms: C10_12  and  S1_13 
REMARK    5  A    between atoms: S1_13  and  C11_14 
REMARK    6  A    between atoms: C15_19  and  O4_20 
REMARK    7  A    between atoms: C16_23  and  C17_24 
REMARK    8  A    between atoms: C17_24  and  C18_25 
REMARK    9  A    between atoms: C18_25  and  C20_27 
REMARK   10  A    between atoms: C20_27  and  C21_29 
REMARK   11  A    between atoms: C21_29  and  C22_30 
REMARK       I    between atoms: C22_30  and  N1_32 
ROOT
HETATM    1  C3  UNL     1      10.095  15.810  18.806  1.00  0.00     0.192 C 
HETATM    2  C4  UNL     1      10.531  16.869  19.699  1.00  0.00    -0.014 C 
HETATM    3  C5  UNL     1      11.697  16.811  20.301  1.00  0.00     0.056 C 
HETATM    4  C6  UNL     1      12.641  15.679  20.118  1.00  0.00     0.091 C 
HETATM    5  C7  UNL     1      13.537  15.483  21.302  1.00  0.00    -0.022 C 
HETATM    6  C8  UNL     1      13.916  16.467  22.078  1.00  0.00     0.002 C 
HETATM    7  C9  UNL     1      13.420  17.834  21.751  1.00  0.00     0.160 C 
HETATM    8  O3  UNL     1      12.147  17.813  21.166  1.00  0.00    -0.345 OA
HETATM    9  C14 UNL     1       9.695  18.086  20.005  1.00  0.00     0.100 C 
HETATM   10  C15 UNL     1       8.231  17.738  20.039  1.00  0.00     0.261 C 
HETATM   11  O5  UNL     1       7.971  16.413  19.796  1.00  0.00    -0.353 OA
HETATM   12  C16 UNL     1       8.551  15.858  18.715  1.00  0.00     0.159 C 
ENDROOT
BRANCH  12  13
HETATM   13  C17 UNL     1       8.048  14.565  18.206  1.00  0.00     0.046 C 
BRANCH  13  14
HETATM   14  C18 UNL     1       8.470  13.332  18.914  1.00  0.00     0.054 C 
HETATM   15  C19 UNL     1       8.582  12.110  18.041  1.00  0.00     0.018 C 
BRANCH  14  16
HETATM   16  C20 UNL     1       7.781  13.068  20.199  1.00  0.00     0.139 C 
HETATM   17  O6  UNL     1       6.605  13.327  20.295  1.00  0.00    -0.297 OA
BRANCH  16  18
HETATM   18  C21 UNL     1       8.524  12.502  21.337  1.00  0.00     0.181 C 
BRANCH  18  19
HETATM   19  C22 UNL     1       9.123  13.511  22.240  1.00  0.00     0.226 C 
HETATM   20  O7  UNL     1      10.196  14.058  21.866  1.00  0.00    -0.273 OA
HETATM   21  N1  UNL     1       8.534  13.866  23.477  1.00  0.00    -0.348 N 
HETATM   22  C23 UNL     1       9.162  14.856  24.306  1.00  0.00     0.152 C 
HETATM   23  C26 UNL     1       7.315  13.263  23.940  1.00  0.00     0.152 C 
HETATM   24  C24 UNL     1       9.049  14.395  25.743  1.00  0.00     0.187 C 
HETATM   25  O8  UNL     1       8.830  13.014  25.788  1.00  0.00    -0.388 OA
HETATM   26  C25 UNL     1       7.524  12.754  25.332  1.00  0.00     0.187 C 
ENDBRANCH  18  19
ENDBRANCH  16  18
ENDBRANCH  14  16
ENDBRANCH  13  14
ENDBRANCH  12  13
BRANCH   1  27
HETATM   27  O2  UNL     1      10.586  15.852  17.514  1.00  0.00    -0.309 OA
BRANCH  27  28
HETATM   28  C2  UNL     1      11.058  14.792  16.787  1.00  0.00     0.255 C 
HETATM   29  C1  UNL     1      10.616  14.442  15.418  1.00  0.00     0.126 C 
HETATM   30  O1  UNL     1      11.924  14.068  17.323  1.00  0.00    -0.266 OA
ENDBRANCH  27  28
ENDBRANCH   1  27
BRANCH  10  31
HETATM   31  O4  UNL     1       7.622  18.129  21.228  1.00  0.00    -0.371 OA
ATOM     32  H4  UNL     1       7.840  17.554  21.952  1.00  0.00     0.212 HD
ENDBRANCH  10  31
BRANCH   7  33
HETATM   33  C10 UNL     1      14.356  18.525  20.805  1.00  0.00     0.110 C 
BRANCH  33  34
HETATM   34  S1  UNL     1      13.878  20.194  20.382  1.00  0.00    -0.162 SA
BRANCH  34  35
HETATM   35  C11 UNL     1      12.794  20.327  18.968  1.00  0.00     0.039 C 
HETATM   36  C12 UNL     1      13.531  20.697  17.711  1.00  0.00     0.021 C 
HETATM   37  C13 UNL     1      11.614  21.243  19.218  1.00  0.00     0.021 C 
ENDBRANCH  34  35
ENDBRANCH  33  34
ENDBRANCH   7  33
TORSDOF 11
ENDMDL
MODEL 2
REMARK VINA RESULT: -6.942853886      1.037      1.140
REMARK  11 active torsions:
REMARK  status: ('A' for Active; 'I' for Inactive)
REMARK    1  A    between atoms: C2_2  and  O2_4 
REMARK    2  A    between atoms: O2_4  and  C3_5 
REMARK    3  A    between atoms: C9_11  and  C10_12 
REMARK    4  A    between atoms: C10_12  and  S1_13 
REMARK    5  A    between atoms: S1_13  and  C11_14 
REMARK    6  A    between atoms: C15_19  and  O4_20 
REMARK    7  A    between atoms: C16_23  and  C17_24 
REMARK    8  A    between atoms: C17_24  and  C18_25 
REMARK    9  A    between atoms: C18_25  and  C20_27 
REMARK   10  A    between atoms: C20_27  and  C21_29 
REMARK   11  A    between atoms: C21_29  and  C22_30 
REMARK       I    between atoms: C22_30  and  N1_32 
ROOT
HETATM    1  C3  UNL     1       9.261  15.841  18.619  1.00  0.00     0.192 C 
HETATM    2  C4  UNL     1       9.630  16.922  19.517  1.00  0.00    -0.014 C 
HETATM    3  C5  UNL     1      10.879  17.105  19.879  1.00  0.00     0.056 C 
HETATM    4  C6  UNL     1      11.988  16.237  19.409  1.00  0.00     0.091 C 
HETATM    5  C7  UNL     1      13.131  16.191  20.376  1.00  0.00    -0.022 C 
HETATM    6  C8  UNL     1      13.438  17.191  21.162  1.00  0.00     0.002 C 
HETATM    7  C9  UNL     1      12.600  18.421  21.073  1.00  0.00     0.160 C 
HETATM    8  O3  UNL     1      11.269  18.135  20.740  1.00  0.00    -0.345 OA
HETATM    9  C14 UNL     1       8.631  17.891  20.096  1.00  0.00     0.100 C 
HETATM   10  C15 UNL     1       7.317  17.210  20.370  1.00  0.00     0.261 C 
HETATM   11  O5  UNL     1       7.307  15.876  20.049  1.00  0.00    -0.353 OA
HETATM   12  C16 UNL     1       7.758  15.532  18.827  1.00  0.00     0.159 C 
ENDROOT
BRANCH  12  13
HETATM   13  C17 UNL     1       7.455  14.188  18.295  1.00  0.00     0.046 C 
BRANCH  13  14
HETATM   14  C18 UNL     1       8.087  13.022  18.960  1.00  0.00     0.054 C 
HETATM   15  C19 UNL     1       8.175  11.782  18.109  1.00  0.00     0.018 C 
BRANCH  14  16
HETATM   16  C20 UNL     1       7.625  12.749  20.341  1.00  0.00     0.139 C 
HETATM   17  O6  UNL     1       6.443  12.810  20.583  1.00  0.00    -0.297 OA
BRANCH  16  18
HETATM   18  C21 UNL     1       8.595  12.411  21.395  1.00  0.00     0.181 C 
BRANCH  18  19
HETATM   19  C22 UNL     1       9.071  13.570  22.183  1.00  0.00     0.226 C 
HETATM   20  O7  UNL     1      10.043  14.226  21.718  1.00  0.00    -0.273 OA
HETATM   21  N1  UNL     1       8.475  13.948  23.410  1.00  0.00    -0.348 N 
HETATM   22  C23 UNL     1       8.981  15.086  24.126  1.00  0.00     0.152 C 
HETATM   23  C26 UNL     1       7.370  13.224  23.974  1.00  0.00     0.152 C 
HETATM   24  C24 UNL     1       8.979  14.743  25.599  1.00  0.00     0.187 C 
HETATM   25  O8  UNL     1       8.962  13.355  25.770  1.00  0.00    -0.388 OA
HETATM   26  C25 UNL     1       7.692  12.875  25.393  1.00  0.00     0.187 C 
ENDBRANCH  18  19
ENDBRANCH  16  18
ENDBRANCH  14  16
ENDBRANCH  13  14
ENDBRANCH  12  13
BRANCH   1  27
HETATM   27  O2  UNL     1       9.452  16.068  17.269  1.00  0.00    -0.309 OA
BRANCH  27  28
HETATM   28  C2  UNL     1      10.133  15.260  16.397  1.00  0.00     0.255 C 
HETATM   29  C1  UNL     1      10.965  14.101  16.793  1.00  0.00     0.126 C 
HETATM   30  O1  UNL     1      10.042  15.524  15.179  1.00  0.00    -0.266 OA
ENDBRANCH  27  28
ENDBRANCH   1  27
BRANCH  10  31
HETATM   31  O4  UNL     1       6.897  17.382  21.685  1.00  0.00    -0.371 OA
ATOM     32  H4  UNL     1       5.957  17.276  21.781  1.00  0.00     0.212 HD
ENDBRANCH  10  31
BRANCH   7  33
HETATM   33  C10 UNL     1      13.147  19.362  20.042  1.00  0.00     0.110 C 
BRANCH  33  34
HETATM   34  S1  UNL     1      12.052  20.710  19.620  1.00  0.00    -0.162 SA
BRANCH  34  35
HETATM   35  C11 UNL     1      12.537  21.643  18.175  1.00  0.00     0.039 C 
HETATM   36  C12 UNL     1      13.650  20.983  17.411  1.00  0.00     0.021 C 
HETATM   37  C13 UNL     1      12.854  23.090  18.493  1.00  0.00     0.021 C 
ENDBRANCH  34  35
ENDBRANCH  33  34
ENDBRANCH   7  33
TORSDOF 11
ENDMDL
MODEL 3
REMARK VINA RESULT: -6.755923185      1.657      2.151
REMARK  11 active torsions:
REMARK  status: ('A' for Active; 'I' for Inactive)
REMARK    1  A    between atoms: C2_2  and  O2_4 
REMARK    2  A    between atoms: O2_4  and  C3_5 
REMARK    3  A    between atoms: C9_11  and  C10_12 
REMARK    4  A    between atoms: C10_12  and  S1_13 
REMARK    5  A    between atoms: S1_13  and  C11_14 
REMARK    6  A    between atoms: C15_19  and  O4_20 
REMARK    7  A    between atoms: C16_23  and  C17_24 
REMARK    8  A    between atoms: C17_24  and  C18_25 
REMARK    9  A    between atoms: C18_25  and  C20_27 
REMARK   10  A    between atoms: C20_27  and  C21_29 
REMARK   11  A    between atoms: C21_29  and  C22_30 
REMARK       I    between atoms: C22_30  and  N1_32 
ROOT
HETATM    1  C3  UNL     1       8.175  16.281  19.247  1.00  0.00     0.192 C 
HETATM    2  C4  UNL     1       8.476  17.435  20.076  1.00  0.00    -0.014 C 
HETATM    3  C5  UNL     1       9.700  17.902  20.170  1.00  0.00     0.056 C 
HETATM    4  C6  UNL     1      10.849  17.295  19.450  1.00  0.00     0.091 C 
HETATM    5  C7  UNL     1      12.151  17.528  20.151  1.00  0.00    -0.022 C 
HETATM    6  C8  UNL     1      12.387  18.587  20.882  1.00  0.00     0.002 C 
HETATM    7  C9  UNL     1      11.296  19.594  21.009  1.00  0.00     0.160 C 
HETATM    8  O3  UNL     1      10.024  19.010  20.958  1.00  0.00    -0.345 OA
HETATM    9  C14 UNL     1       7.432  18.166  20.882  1.00  0.00     0.100 C 
HETATM   10  C15 UNL     1       6.394  17.212  21.410  1.00  0.00     0.261 C 
HETATM   11  O5  UNL     1       6.614  15.904  21.059  1.00  0.00    -0.353 OA
HETATM   12  C16 UNL     1       6.860  15.645  19.760  1.00  0.00     0.159 C 
ENDROOT
BRANCH  12  13
HETATM   13  C17 UNL     1       6.759  14.257  19.266  1.00  0.00     0.046 C 
BRANCH  13  14
HETATM   14  C18 UNL     1       7.813  13.298  19.678  1.00  0.00     0.054 C 
HETATM   15  C19 UNL     1       8.109  12.216  18.674  1.00  0.00     0.018 C 
BRANCH  14  16
HETATM   16  C20 UNL     1       7.706  12.791  21.066  1.00  0.00     0.139 C 
HETATM   17  O6  UNL     1       6.637  12.389  21.459  1.00  0.00    -0.297 OA
BRANCH  16  18
HETATM   18  C21 UNL     1       8.886  12.782  21.947  1.00  0.00     0.181 C 
BRANCH  18  19
HETATM   19  C22 UNL     1       9.448  14.122  22.229  1.00  0.00     0.226 C 
HETATM   20  O7  UNL     1      10.385  14.524  21.487  1.00  0.00    -0.273 OA
HETATM   21  N1  UNL     1       8.970  14.937  23.283  1.00  0.00    -0.348 N 
HETATM   22  C23 UNL     1       9.556  16.230  23.504  1.00  0.00     0.152 C 
HETATM   23  C26 UNL     1       7.908  14.512  24.153  1.00  0.00     0.152 C 
HETATM   24  C24 UNL     1       9.680  16.432  24.998  1.00  0.00     0.187 C 
HETATM   25  O8  UNL     1       9.656  15.197  25.654  1.00  0.00    -0.388 OA
HETATM   26  C25 UNL     1       8.350  14.675  25.573  1.00  0.00     0.187 C 
ENDBRANCH  18  19
ENDBRANCH  16  18
ENDBRANCH  14  16
ENDBRANCH  13  14
ENDBRANCH  12  13
BRANCH   1  27
HETATM   27  O2  UNL     1       8.019  16.517  17.894  1.00  0.00    -0.309 OA
BRANCH  27  28
HETATM   28  C2  UNL     1       8.672  15.877  16.875  1.00  0.00     0.255 C 
HETATM   29  C1  UNL     1       8.383  16.067  15.436  1.00  0.00     0.126 C 
HETATM   30  O1  UNL     1       9.577  15.075  17.188  1.00  0.00    -0.266 OA
ENDBRANCH  27  28
ENDBRANCH   1  27
BRANCH  10  31
HETATM   31  O4  UNL     1       6.236  17.312  22.789  1.00  0.00    -0.371 OA
ATOM     32  H4  UNL     1       5.361  17.071  23.070  1.00  0.00     0.212 HD
ENDBRANCH  10  31
BRANCH   7  33
HETATM   33  C10 UNL     1      11.385  20.613  19.913  1.00  0.00     0.110 C 
BRANCH  33  34
HETATM   34  S1  UNL     1      12.818  21.676  20.008  1.00  0.00    -0.162 SA
BRANCH  34  35
HETATM   35  C11 UNL     1      14.082  21.339  18.790  1.00  0.00     0.039 C 
HETATM   36  C12 UNL     1      13.542  20.619  17.586  1.00  0.00     0.021 C 
HETATM   37  C13 UNL     1      15.286  20.631  19.376  1.00  0.00     0.021 C 
ENDBRANCH  34  35
ENDBRANCH  33  34
ENDBRANCH   7  33
TORSDOF 11
ENDMDL
MODEL 4
REMARK VINA RESULT: -6.655343743      3.594      7.360
REMARK  11 active torsions:
REMARK  status: ('A' for Active; 'I' for Inactive)
REMARK    1  A    between atoms: C2_2  and  O2_4 
REMARK    2  A    between atoms: O2_4  and  C3_5 
REMARK    3  A    between atoms: C9_11  and  C10_12 
REMARK    4  A    between atoms: C10_12  and  S1_13 
REMARK    5  A    between atoms: S1_13  and  C11_14 
REMARK    6  A    between atoms: C15_19  and  O4_20 
REMARK    7  A    between atoms: C16_23  and  C17_24 
REMARK    8  A    between atoms: C17_24  and  C18_25 
REMARK    9  A    between atoms: C18_25  and  C20_27 
REMARK   10  A    between atoms: C20_27  and  C21_29 
REMARK   11  A    between atoms: C21_29  and  C22_30 
REMARK       I    between atoms: C22_30  and  N1_32 
ROOT
HETATM    1  C3  UNL     1       7.097  15.170  21.722  1.00  0.00     0.192 C 
HETATM    2  C4  UNL     1       7.758  13.976  21.224  1.00  0.00    -0.014 C 
HETATM    3  C5  UNL     1       7.746  13.678  19.945  1.00  0.00     0.056 C 
HETATM    4  C6  UNL     1       7.068  14.523  18.929  1.00  0.00     0.091 C 
HETATM    5  C7  UNL     1       6.626  13.737  17.733  1.00  0.00    -0.022 C 
HETATM    6  C8  UNL     1       7.256  12.671  17.310  1.00  0.00     0.002 C 
HETATM    7  C9  UNL     1       8.464  12.236  18.068  1.00  0.00     0.160 C 
HETATM    8  O3  UNL     1       8.373  12.538  19.433  1.00  0.00    -0.345 OA
HETATM    9  C14 UNL     1       8.486  13.004  22.118  1.00  0.00     0.100 C 
HETATM   10  C15 UNL     1       7.803  12.886  23.454  1.00  0.00     0.261 C 
HETATM   11  O5  UNL     1       6.682  13.667  23.574  1.00  0.00    -0.353 OA
HETATM   12  C16 UNL     1       6.792  14.964  23.225  1.00  0.00     0.159 C 
ENDROOT
BRANCH  12  13
HETATM   13  C17 UNL     1       5.749  15.920  23.651  1.00  0.00     0.046 C 
BRANCH  13  14
HETATM   14  C18 UNL     1       6.166  17.065  24.497  1.00  0.00     0.054 C 
HETATM   15  C19 UNL     1       5.844  16.917  25.961  1.00  0.00     0.018 C 
BRANCH  14  16
HETATM   16  C20 UNL     1       5.836  18.407  23.962  1.00  0.00     0.139 C 
HETATM   17  O6  UNL     1       6.012  19.374  24.663  1.00  0.00    -0.297 OA
BRANCH  16  18
HETATM   18  C21 UNL     1       5.300  18.551  22.599  1.00  0.00     0.181 C 
BRANCH  18  19
HETATM   19  C22 UNL     1       4.752  19.892  22.295  1.00  0.00     0.226 C 
HETATM   20  O7  UNL     1       3.548  20.108  22.599  1.00  0.00    -0.273 OA
HETATM   21  N1  UNL     1       5.529  20.908  21.687  1.00  0.00    -0.348 N 
HETATM   22  C23 UNL     1       4.941  22.191  21.422  1.00  0.00     0.152 C 
HETATM   23  C26 UNL     1       6.903  20.698  21.321  1.00  0.00     0.152 C 
HETATM   24  C24 UNL     1       5.439  22.657  20.071  1.00  0.00     0.187 C 
HETATM   25  O8  UNL     1       5.888  21.564  19.322  1.00  0.00    -0.388 OA
HETATM   26  C25 UNL     1       7.089  21.097  19.891  1.00  0.00     0.187 C 
ENDBRANCH  18  19
ENDBRANCH  16  18
ENDBRANCH  14  16
ENDBRANCH  13  14
ENDBRANCH  12  13
BRANCH   1  27
HETATM   27  O2  UNL     1       7.795  16.358  21.601  1.00  0.00    -0.309 OA
BRANCH  27  28
HETATM   28  C2  UNL     1       9.150  16.520  21.711  1.00  0.00     0.255 C 
HETATM   29  C1  UNL     1       9.896  16.556  22.989  1.00  0.00     0.126 C 
HETATM   30  O1  UNL     1       9.801  16.646  20.652  1.00  0.00    -0.266 OA
ENDBRANCH  27  28
ENDBRANCH   1  27
BRANCH  10  31
HETATM   31  O4  UNL     1       7.497  11.568  23.778  1.00  0.00    -0.371 OA
ATOM     32  H4  UNL     1       7.385  11.442  24.713  1.00  0.00     0.212 HD
ENDBRANCH  10  31
BRANCH   7  33
HETATM   33  C10 UNL     1       9.696  12.898  17.526  1.00  0.00     0.110 C 
BRANCH  33  34
HETATM   34  S1  UNL     1       9.521  13.536  15.866  1.00  0.00    -0.162 SA
BRANCH  34  35
HETATM   35  C11 UNL     1       9.739  15.303  15.717  1.00  0.00     0.039 C 
HETATM   36  C12 UNL     1      10.533  15.883  16.854  1.00  0.00     0.021 C 
HETATM   37  C13 UNL     1       8.431  16.039  15.511  1.00  0.00     0.021 C 
ENDBRANCH  34  35
ENDBRANCH  33  34
ENDBRANCH   7  33
TORSDOF 11
ENDMDL
MODEL 5
REMARK VINA RESULT: -6.652290413      2.512      5.518
REMARK  11 active torsions:
REMARK  status: ('A' for Active; 'I' for Inactive)
REMARK    1  A    between atoms: C2_2  and  O2_4 
REMARK    2  A    between atoms: O2_4  and  C3_5 
REMARK    3  A    between atoms: C9_11  and  C10_12 
REMARK    4  A    between atoms: C10_12  and  S1_13 
REMARK    5  A    between atoms: S1_13  and  C11_14 
REMARK    6  A    between atoms: C15_19  and  O4_20 
REMARK    7  A    between atoms: C16_23  and  C17_24 
REMARK    8  A    between atoms: C17_24  and  C18_25 
REMARK    9  A    between atoms: C18_25  and  C20_27 
REMARK   10  A    between atoms: C20_27  and  C21_29 
REMARK   11  A    between atoms: C21_29  and  C22_30 
REMARK       I    between atoms: C22_30  and  N1_32 
ROOT
HETATM    1  C3  UNL     1      10.068  14.599  22.200  1.00  0.00     0.192 C 
HETATM    2  C4  UNL     1      10.806  14.702  23.447  1.00  0.00    -0.014 C 
HETATM    3  C5  UNL     1      12.119  14.720  23.459  1.00  0.00     0.056 C 
HETATM    4  C6  UNL     1      12.935  14.636  22.221  1.00  0.00     0.091 C 
HETATM    5  C7  UNL     1      14.288  14.043  22.465  1.00  0.00    -0.022 C 
HETATM    6  C8  UNL     1      14.925  14.167  23.601  1.00  0.00     0.002 C 
HETATM    7  C9  UNL     1      14.255  14.937  24.687  1.00  0.00     0.160 C 
HETATM    8  O3  UNL     1      12.859  14.819  24.641  1.00  0.00    -0.345 OA
HETATM    9  C14 UNL     1      10.137  14.786  24.796  1.00  0.00     0.100 C 
HETATM   10  C15 UNL     1       8.879  13.960  24.826  1.00  0.00     0.261 C 
HETATM   11  O5  UNL     1       8.614  13.312  23.646  1.00  0.00    -0.353 OA
HETATM   12  C16 UNL     1       8.658  14.043  22.516  1.00  0.00     0.159 C 
ENDROOT
BRANCH  12  13
HETATM   13  C17 UNL     1       8.054  13.505  21.280  1.00  0.00     0.046 C 
BRANCH  13  14
HETATM   14  C18 UNL     1       6.841  14.178  20.754  1.00  0.00     0.054 C 
HETATM   15  C19 UNL     1       5.543  13.495  21.096  1.00  0.00     0.018 C 
BRANCH  14  16
HETATM   16  C20 UNL     1       6.916  14.612  19.340  1.00  0.00     0.139 C 
HETATM   17  O6  UNL     1       7.137  15.775  19.097  1.00  0.00    -0.297 OA
BRANCH  16  18
HETATM   18  C21 UNL     1       6.720  13.639  18.253  1.00  0.00     0.181 C 
BRANCH  18  19
HETATM   19  C22 UNL     1       7.974  13.119  17.663  1.00  0.00     0.226 C 
HETATM   20  O7  UNL     1       8.537  12.158  18.255  1.00  0.00    -0.273 OA
HETATM   21  N1  UNL     1       8.538  13.662  16.484  1.00  0.00    -0.348 N 
HETATM   22  C23 UNL     1       9.756  13.111  15.958  1.00  0.00     0.152 C 
HETATM   23  C26 UNL     1       7.930  14.760  15.784  1.00  0.00     0.152 C 
HETATM   24  C24 UNL     1      10.611  14.260  15.472  1.00  0.00     0.187 C 
HETATM   25  O8  UNL     1      10.211  15.451  16.087  1.00  0.00    -0.388 OA
HETATM   26  C25 UNL     1       8.958  15.824  15.564  1.00  0.00     0.187 C 
ENDBRANCH  18  19
ENDBRANCH  16  18
ENDBRANCH  14  16
ENDBRANCH  13  14
ENDBRANCH  12  13
BRANCH   1  27
HETATM   27  O2  UNL     1       9.900  15.769  21.484  1.00  0.00    -0.309 OA
BRANCH  27  28
HETATM   28  C2  UNL     1      10.388  16.036  20.233  1.00  0.00     0.255 C 
HETATM   29  C1  UNL     1      10.772  17.380  19.744  1.00  0.00     0.126 C 
HETATM   30  O1  UNL     1      10.519  15.071  19.450  1.00  0.00    -0.266 OA
ENDBRANCH  27  28
ENDBRANCH   1  27
BRANCH  10  31
HETATM   31  O4  UNL     1       8.869  13.049  25.878  1.00  0.00    -0.371 OA
ATOM     32  H4  UNL     1       9.234  12.208  25.631  1.00  0.00     0.212 HD
ENDBRANCH  10  31
BRANCH   7  33
HETATM   33  C10 UNL     1      14.602  16.393  24.597  1.00  0.00     0.110 C 
BRANCH  33  34
HETATM   34  S1  UNL     1      13.329  17.493  25.199  1.00  0.00    -0.162 SA
BRANCH  34  35
HETATM   35  C11 UNL     1      12.541  18.485  23.938  1.00  0.00     0.039 C 
HETATM   36  C12 UNL     1      11.045  18.335  23.940  1.00  0.00     0.021 C 
HETATM   37  C13 UNL     1      13.129  18.257  22.561  1.00  0.00     0.021 C 
ENDBRANCH  34  35
ENDBRANCH  33  34
ENDBRANCH   7  33
TORSDOF 11
ENDMDL
