MODEL 1
REMARK VINA RESULT: -7.604084398      0.000      0.000
REMARK  10 active torsions:
REMARK  status: ('A' for Active; 'I' for Inactive)
REMARK    1  A    between atoms: C2_2  and  C4_5 
REMARK    2  A    between atoms: C8_9  and  C9_10 
REMARK    3  A    between atoms: C10_11  and  C11_12 
REMARK    4  A    between atoms: N2_14  and  C13_15 
REMARK    5  A    between atoms: C15_18  and  N4_19 
REMARK    6  A    between atoms: N5_22  and  C18_23 
REMARK    7  A    between atoms: C18_23  and  C19_24 
REMARK    8  A    between atoms: C19_24  and  O1_25 
REMARK    9  A    between atoms: C19_24  and  C20_27 
REMARK   10  A    between atoms: C20_27  and  N6_28 
ROOT
HETATM    1  C1  UNL     1      10.880  14.127  15.432  1.00  0.00     0.031 C 
HETATM    2  C2  UNL     1      10.159  14.826  16.568  1.00  0.00     0.121 C 
HETATM    3  C3  UNL     1      11.144  15.558  17.345  1.00  0.00     0.068 C 
HETATM    4  N1  UNL     1      11.943  16.127  17.962  1.00  0.00    -0.197 NA
ENDROOT
BRANCH   2   5
HETATM    5  C4  UNL     1       9.405  13.885  17.427  1.00  0.00    -0.040 A 
HETATM    6  C5  UNL     1       9.257  12.578  17.025  1.00  0.00     0.008 A 
HETATM    7  C6  UNL     1       8.553  11.703  17.824  1.00  0.00     0.001 A 
HETATM    8  C7  UNL     1       8.019  12.156  19.002  1.00  0.00     0.012 A 
HETATM    9  C8  UNL     1       8.147  13.479  19.450  1.00  0.00    -0.029 A 
HETATM   10  C30 UNL     1       8.845  14.303  18.633  1.00  0.00     0.020 A 
BRANCH   9  11
HETATM   11  C9  UNL     1       7.492  13.908  20.680  1.00  0.00    -0.039 C 
HETATM   12  C10 UNL     1       7.897  14.674  21.657  1.00  0.00    -0.022 C 
HETATM   13  C27 UNL     1       6.771  14.778  22.708  1.00  0.00     0.042 C 
HETATM   14  C28 UNL     1       5.534  14.373  21.978  1.00  0.00     0.009 C 
HETATM   15  C29 UNL     1       6.059  13.419  20.956  1.00  0.00     0.040 C 
BRANCH  12  16
HETATM   16  C11 UNL     1       9.160  15.374  21.861  1.00  0.00     0.072 A 
HETATM   17  C12 UNL     1       9.564  16.652  22.017  1.00  0.00     0.140 A 
HETATM   18  N2  UNL     1      10.931  16.734  22.166  1.00  0.00    -0.178 N 
HETATM   19  C15 UNL     1      11.375  15.474  22.103  1.00  0.00     0.683 A 
HETATM   20  N7  UNL     1      10.340  14.649  21.922  1.00  0.00    -0.190 N 
ATOM     21  H7  UNL     1      10.408  13.635  21.840  1.00  0.00     0.184 HD
BRANCH  18  22
HETATM   22  C13 UNL     1      11.693  17.953  22.350  1.00  0.00     0.270 C 
HETATM   23  C14 UNL     1      11.869  18.583  21.037  1.00  0.00     0.079 C 
HETATM   24  N3  UNL     1      11.998  19.097  19.994  1.00  0.00    -0.196 NA
ENDBRANCH  18  22
BRANCH  19  25
HETATM   25  N4  UNL     1      12.760  15.103  22.224  1.00  0.00    -0.214 N 
HETATM   26  C16 UNL     1      13.216  14.590  23.496  1.00  0.00     0.160 C 
HETATM   27  C17 UNL     1      14.185  13.449  23.227  1.00  0.00     0.137 C 
HETATM   28  N5  UNL     1      15.232  13.966  22.407  1.00  0.00    -0.407 N 
HETATM   29  C25 UNL     1      14.808  14.295  21.086  1.00  0.00     0.137 C 
HETATM   30  C26 UNL     1      13.649  15.245  21.121  1.00  0.00     0.160 C 
BRANCH  28  31
HETATM   31  C18 UNL     1      16.496  13.338  22.492  1.00  0.00     0.150 C 
BRANCH  31  32
HETATM   32  C19 UNL     1      16.391  11.852  22.155  1.00  0.00     0.164 C 
BRANCH  32  33
HETATM   33  O1  UNL     1      16.833  11.108  23.276  1.00  0.00    -0.392 OA
ATOM     34  H1  UNL     1      17.668  10.710  23.061  1.00  0.00     0.210 HD
ENDBRANCH  32  33
BRANCH  32  35
HETATM   35  C20 UNL     1      17.290  11.454  21.017  1.00  0.00     0.305 C 
BRANCH  35  36
HETATM   36  N6  UNL     1      16.595  10.837  19.910  1.00  0.00     0.095 N 
HETATM   37  C21 UNL     1      17.414   9.844  19.272  1.00  0.00     0.298 C 
HETATM   38  C22 UNL     1      17.510  10.017  17.774  1.00  0.00     0.198 C 
HETATM   39  O2  UNL     1      18.007  11.250  17.407  1.00  0.00    -0.388 OA
HETATM   40  C23 UNL     1      17.579  12.299  18.185  1.00  0.00     0.198 C 
HETATM   41  C24 UNL     1      16.333  11.893  18.949  1.00  0.00     0.298 C 
ENDBRANCH  35  36
ENDBRANCH  32  35
ENDBRANCH  31  32
ENDBRANCH  28  31
ENDBRANCH  19  25
ENDBRANCH  12  16
ENDBRANCH   9  11
ENDBRANCH   2   5
TORSDOF 10
ENDMDL
MODEL 2
REMARK VINA RESULT: -7.577633871      5.035      8.179
REMARK  10 active torsions:
REMARK  status: ('A' for Active; 'I' for Inactive)
REMARK    1  A    between atoms: C2_2  and  C4_5 
REMARK    2  A    between atoms: C8_9  and  C9_10 
REMARK    3  A    between atoms: C10_11  and  C11_12 
REMARK    4  A    between atoms: N2_14  and  C13_15 
REMARK    5  A    between atoms: C15_18  and  N4_19 
REMARK    6  A    between atoms: N5_22  and  C18_23 
REMARK    7  A    between atoms: C18_23  and  C19_24 
REMARK    8  A    between atoms: C19_24  and  O1_25 
REMARK    9  A    between atoms: C19_24  and  C20_27 
REMARK   10  A    between atoms: C20_27  and  N6_28 
ROOT
HETATM    1  C1  UNL     1       9.509  15.588  15.496  1.00  0.00     0.031 C 
HETATM    2  C2  UNL     1       9.767  15.393  16.978  1.00  0.00     0.121 C 
HETATM    3  C3  UNL     1      10.990  14.622  17.124  1.00  0.00     0.068 C 
HETATM    4  N1  UNL     1      11.960  13.996  17.225  1.00  0.00    -0.197 NA
ENDROOT
BRANCH   2   5
HETATM    5  C4  UNL     1       8.639  14.727  17.668  1.00  0.00    -0.040 A 
HETATM    6  C5  UNL     1       7.534  14.350  16.942  1.00  0.00     0.008 A 
HETATM    7  C6  UNL     1       6.484  13.732  17.586  1.00  0.00     0.001 A 
HETATM    8  C7  UNL     1       6.566  13.508  18.934  1.00  0.00     0.012 A 
HETATM    9  C8  UNL     1       7.674  13.874  19.713  1.00  0.00    -0.029 A 
HETATM   10  C30 UNL     1       8.682  14.479  19.039  1.00  0.00     0.020 A 
BRANCH   9  11
HETATM   11  C9  UNL     1       7.664  13.667  21.156  1.00  0.00    -0.039 C 
HETATM   12  C10 UNL     1       7.253  14.424  22.138  1.00  0.00    -0.022 C 
HETATM   13  C27 UNL     1       7.492  13.683  23.471  1.00  0.00     0.042 C 
HETATM   14  C28 UNL     1       7.640  12.249  23.085  1.00  0.00     0.009 C 
HETATM   15  C29 UNL     1       8.215  12.341  21.710  1.00  0.00     0.040 C 
BRANCH  12  16
HETATM   16  C11 UNL     1       6.657  15.755  22.133  1.00  0.00     0.072 A 
HETATM   17  C12 UNL     1       5.477  16.307  22.487  1.00  0.00     0.140 A 
HETATM   18  N2  UNL     1       5.462  17.662  22.242  1.00  0.00    -0.178 N 
HETATM   19  C15 UNL     1       6.663  17.947  21.728  1.00  0.00     0.683 A 
HETATM   20  N7  UNL     1       7.390  16.829  21.654  1.00  0.00    -0.190 N 
ATOM     21  H7  UNL     1       8.344  16.774  21.298  1.00  0.00     0.184 HD
BRANCH  18  22
HETATM   22  C13 UNL     1       4.353  18.558  22.500  1.00  0.00     0.270 C 
HETATM   23  C14 UNL     1       3.324  17.812  23.232  1.00  0.00     0.079 C 
HETATM   24  N3  UNL     1       2.507  17.225  23.829  1.00  0.00    -0.196 NA
ENDBRANCH  18  22
BRANCH  19  25
HETATM   25  N4  UNL     1       7.076  19.269  21.335  1.00  0.00    -0.214 N 
HETATM   26  C16 UNL     1       6.816  19.684  19.974  1.00  0.00     0.160 C 
HETATM   27  C17 UNL     1       6.378  21.139  19.999  1.00  0.00     0.137 C 
HETATM   28  N5  UNL     1       7.413  21.884  20.639  1.00  0.00    -0.407 N 
HETATM   29  C25 UNL     1       7.536  21.602  22.032  1.00  0.00     0.137 C 
HETATM   30  C26 UNL     1       7.725  20.133  22.262  1.00  0.00     0.160 C 
BRANCH  28  31
HETATM   31  C18 UNL     1       7.546  23.248  20.289  1.00  0.00     0.150 C 
BRANCH  31  32
HETATM   32  C19 UNL     1       9.018  23.634  20.148  1.00  0.00     0.164 C 
BRANCH  32  33
HETATM   33  O1  UNL     1       9.086  24.940  19.605  1.00  0.00    -0.392 OA
ATOM     34  H1  UNL     1       9.912  25.030  19.145  1.00  0.00     0.210 HD
ENDBRANCH  32  33
BRANCH  32  35
HETATM   35  C20 UNL     1       9.756  22.747  19.182  1.00  0.00     0.305 C 
BRANCH  35  36
HETATM   36  N6  UNL     1      11.143  22.534  19.527  1.00  0.00     0.095 N 
HETATM   37  C21 UNL     1      11.853  21.904  18.449  1.00  0.00     0.298 C 
HETATM   38  C22 UNL     1      12.629  20.679  18.876  1.00  0.00     0.198 C 
HETATM   39  O2  UNL     1      11.832  19.714  19.454  1.00  0.00    -0.388 OA
HETATM   40  C23 UNL     1      10.832  20.200  20.263  1.00  0.00     0.198 C 
HETATM   41  C24 UNL     1      11.149  21.629  20.663  1.00  0.00     0.298 C 
ENDBRANCH  35  36
ENDBRANCH  32  35
ENDBRANCH  31  32
ENDBRANCH  28  31
ENDBRANCH  19  25
ENDBRANCH  12  16
ENDBRANCH   9  11
ENDBRANCH   2   5
TORSDOF 10
ENDMDL
MODEL 3
REMARK VINA RESULT: -7.540469900      4.313      7.668
REMARK  10 active torsions:
REMARK  status: ('A' for Active; 'I' for Inactive)
REMARK    1  A    between atoms: C2_2  and  C4_5 
REMARK    2  A    between atoms: C8_9  and  C9_10 
REMARK    3  A    between atoms: C10_11  and  C11_12 
REMARK    4  A    between atoms: N2_14  and  C13_15 
REMARK    5  A    between atoms: C15_18  and  N4_19 
REMARK    6  A    between atoms: N5_22  and  C18_23 
REMARK    7  A    between atoms: C18_23  and  C19_24 
REMARK    8  A    between atoms: C19_24  and  O1_25 
REMARK    9  A    between atoms: C19_24  and  C20_27 
REMARK   10  A    between atoms: C20_27  and  N6_28 
ROOT
HETATM    1  C1  UNL     1      11.162  15.264  16.951  1.00  0.00     0.031 C 
HETATM    2  C2  UNL     1       9.991  14.536  16.319  1.00  0.00     0.121 C 
HETATM    3  C3  UNL     1       9.054  15.531  15.827  1.00  0.00     0.068 C 
HETATM    4  N1  UNL     1       8.311  16.335  15.451  1.00  0.00    -0.197 NA
ENDROOT
BRANCH   2   5
HETATM    5  C4  UNL     1       9.326  13.606  17.260  1.00  0.00    -0.040 A 
HETATM    6  C5  UNL     1       9.259  12.268  16.949  1.00  0.00     0.008 A 
HETATM    7  C6  UNL     1       8.638  11.403  17.824  1.00  0.00     0.001 A 
HETATM    8  C7  UNL     1       8.102  11.897  18.984  1.00  0.00     0.012 A 
HETATM    9  C8  UNL     1       8.149  13.253  19.341  1.00  0.00    -0.029 A 
HETATM   10  C30 UNL     1       8.768  14.066  18.451  1.00  0.00     0.020 A 
BRANCH   9  11
HETATM   11  C9  UNL     1       7.496  13.719  20.558  1.00  0.00    -0.039 C 
HETATM   12  C10 UNL     1       7.931  14.445  21.552  1.00  0.00    -0.022 C 
HETATM   13  C27 UNL     1       6.789  14.623  22.576  1.00  0.00     0.042 C 
HETATM   14  C28 UNL     1       5.545  14.316  21.811  1.00  0.00     0.009 C 
HETATM   15  C29 UNL     1       6.024  13.335  20.793  1.00  0.00     0.040 C 
BRANCH  12  16
HETATM   16  C11 UNL     1       9.237  15.048  21.796  1.00  0.00     0.072 A 
HETATM   17  C12 UNL     1      10.360  14.726  22.470  1.00  0.00     0.140 A 
HETATM   18  N2  UNL     1      11.314  15.714  22.362  1.00  0.00    -0.178 N 
HETATM   19  C15 UNL     1      10.761  16.663  21.600  1.00  0.00     0.683 A 
HETATM   20  N7  UNL     1       9.527  16.290  21.252  1.00  0.00    -0.190 N 
ATOM     21  H7  UNL     1       8.892  16.837  20.672  1.00  0.00     0.184 HD
BRANCH  18  22
HETATM   22  C13 UNL     1      12.631  15.691  22.966  1.00  0.00     0.270 C 
HETATM   23  C14 UNL     1      13.479  14.791  22.177  1.00  0.00     0.079 C 
HETATM   24  N3  UNL     1      14.163  14.086  21.542  1.00  0.00    -0.196 NA
ENDBRANCH  18  22
BRANCH  19  25
HETATM   25  N4  UNL     1      11.428  17.884  21.227  1.00  0.00    -0.214 N 
HETATM   26  C16 UNL     1      12.431  17.818  20.188  1.00  0.00     0.160 C 
HETATM   27  C17 UNL     1      12.284  19.050  19.309  1.00  0.00     0.137 C 
HETATM   28  N5  UNL     1      12.407  20.192  20.156  1.00  0.00    -0.407 N 
HETATM   29  C25 UNL     1      11.311  20.352  21.054  1.00  0.00     0.137 C 
HETATM   30  C26 UNL     1      11.107  19.112  21.870  1.00  0.00     0.160 C 
BRANCH  28  31
HETATM   31  C18 UNL     1      12.883  21.388  19.570  1.00  0.00     0.150 C 
BRANCH  31  32
HETATM   32  C19 UNL     1      11.825  22.008  18.659  1.00  0.00     0.164 C 
BRANCH  32  33
HETATM   33  O1  UNL     1      12.301  21.960  17.326  1.00  0.00    -0.392 OA
ATOM     34  H1  UNL     1      11.596  21.657  16.767  1.00  0.00     0.210 HD
ENDBRANCH  32  33
BRANCH  32  35
HETATM   35  C20 UNL     1      11.587  23.463  18.959  1.00  0.00     0.305 C 
BRANCH  35  36
HETATM   36  N6  UNL     1      10.233  23.762  19.365  1.00  0.00     0.095 N 
HETATM   37  C21 UNL     1       9.306  22.814  18.812  1.00  0.00     0.298 C 
HETATM   38  C22 UNL     1       8.139  23.461  18.102  1.00  0.00     0.198 C 
HETATM   39  O2  UNL     1       8.531  24.291  17.073  1.00  0.00    -0.388 OA
HETATM   40  C23 UNL     1       9.663  25.028  17.326  1.00  0.00     0.198 C 
HETATM   41  C24 UNL     1       9.920  25.071  18.821  1.00  0.00     0.298 C 
ENDBRANCH  35  36
ENDBRANCH  32  35
ENDBRANCH  31  32
ENDBRANCH  28  31
ENDBRANCH  19  25
ENDBRANCH  12  16
ENDBRANCH   9  11
ENDBRANCH   2   5
TORSDOF 10
ENDMDL
MODEL 4
REMARK VINA RESULT: -7.438653427      4.508      7.861
REMARK  10 active torsions:
REMARK  status: ('A' for Active; 'I' for Inactive)
REMARK    1  A    between atoms: C2_2  and  C4_5 
REMARK    2  A    between atoms: C8_9  and  C9_10 
REMARK    3  A    between atoms: C10_11  and  C11_12 
REMARK    4  A    between atoms: N2_14  and  C13_15 
REMARK    5  A    between atoms: C15_18  and  N4_19 
REMARK    6  A    between atoms: N5_22  and  C18_23 
REMARK    7  A    between atoms: C18_23  and  C19_24 
REMARK    8  A    between atoms: C19_24  and  O1_25 
REMARK    9  A    between atoms: C19_24  and  C20_27 
REMARK   10  A    between atoms: C20_27  and  N6_28 
ROOT
HETATM    1  C1  UNL     1       9.545  15.598  15.392  1.00  0.00     0.031 C 
HETATM    2  C2  UNL     1       9.775  15.513  16.889  1.00  0.00     0.121 C 
HETATM    3  C3  UNL     1      10.957  14.700  17.118  1.00  0.00     0.068 C 
HETATM    4  N1  UNL     1      11.894  14.040  17.286  1.00  0.00    -0.197 NA
ENDROOT
BRANCH   2   5
HETATM    5  C4  UNL     1       8.607  14.961  17.613  1.00  0.00    -0.040 A 
HETATM    6  C5  UNL     1       7.685  14.208  16.926  1.00  0.00     0.008 A 
HETATM    7  C6  UNL     1       6.598  13.695  17.600  1.00  0.00     0.001 A 
HETATM    8  C7  UNL     1       6.462  13.948  18.940  1.00  0.00     0.012 A 
HETATM    9  C8  UNL     1       7.380  14.710  19.679  1.00  0.00    -0.029 A 
HETATM   10  C30 UNL     1       8.431  15.194  18.976  1.00  0.00     0.020 A 
BRANCH   9  11
HETATM   11  C9  UNL     1       7.135  14.997  21.087  1.00  0.00    -0.039 C 
HETATM   12  C10 UNL     1       7.911  15.475  22.022  1.00  0.00    -0.022 C 
HETATM   13  C27 UNL     1       7.108  15.566  23.338  1.00  0.00     0.042 C 
HETATM   14  C28 UNL     1       5.678  15.533  22.910  1.00  0.00     0.009 C 
HETATM   15  C29 UNL     1       5.733  14.721  21.659  1.00  0.00     0.040 C 
BRANCH  12  16
HETATM   16  C11 UNL     1       9.308  15.891  21.984  1.00  0.00     0.072 A 
HETATM   17  C12 UNL     1      10.508  15.342  22.271  1.00  0.00     0.140 A 
HETATM   18  N2  UNL     1      11.535  16.233  22.052  1.00  0.00    -0.178 N 
HETATM   19  C15 UNL     1      10.950  17.354  21.617  1.00  0.00     0.683 A 
HETATM   20  N7  UNL     1       9.628  17.175  21.569  1.00  0.00    -0.190 N 
ATOM     21  H7  UNL     1       8.952  17.878  21.271  1.00  0.00     0.184 HD
BRANCH  18  22
HETATM   22  C13 UNL     1      12.944  15.971  22.262  1.00  0.00     0.270 C 
HETATM   23  C14 UNL     1      13.479  15.346  21.048  1.00  0.00     0.079 C 
HETATM   24  N3  UNL     1      13.912  14.861  20.075  1.00  0.00    -0.196 NA
ENDBRANCH  18  22
BRANCH  19  25
HETATM   25  N4  UNL     1      11.669  18.549  21.257  1.00  0.00    -0.214 N 
HETATM   26  C16 UNL     1      12.193  18.646  19.913  1.00  0.00     0.160 C 
HETATM   27  C17 UNL     1      11.991  20.073  19.429  1.00  0.00     0.137 C 
HETATM   28  N5  UNL     1      12.641  20.934  20.364  1.00  0.00    -0.407 N 
HETATM   29  C25 UNL     1      12.002  20.974  21.637  1.00  0.00     0.137 C 
HETATM   30  C26 UNL     1      11.860  19.594  22.204  1.00  0.00     0.160 C 
BRANCH  28  31
HETATM   31  C18 UNL     1      13.106  22.181  19.886  1.00  0.00     0.150 C 
BRANCH  31  32
HETATM   32  C19 UNL     1      12.241  22.678  18.728  1.00  0.00     0.164 C 
BRANCH  32  33
HETATM   33  O1  UNL     1      13.064  22.816  17.584  1.00  0.00    -0.392 OA
ATOM     34  H1  UNL     1      12.511  22.795  16.813  1.00  0.00     0.210 HD
ENDBRANCH  32  33
BRANCH  32  35
HETATM   35  C20 UNL     1      11.662  24.043  18.985  1.00  0.00     0.305 C 
BRANCH  35  36
HETATM   36  N6  UNL     1      10.239  24.036  19.234  1.00  0.00     0.095 N 
HETATM   37  C21 UNL     1       9.575  23.063  18.412  1.00  0.00     0.298 C 
HETATM   38  C22 UNL     1       8.396  23.624  17.650  1.00  0.00     0.198 C 
HETATM   39  O2  UNL     1       8.740  24.679  16.831  1.00  0.00    -0.388 OA
HETATM   40  C23 UNL     1       9.678  25.535  17.356  1.00  0.00     0.198 C 
HETATM   41  C24 UNL     1       9.750  25.352  18.861  1.00  0.00     0.298 C 
ENDBRANCH  35  36
ENDBRANCH  32  35
ENDBRANCH  31  32
ENDBRANCH  28  31
ENDBRANCH  19  25
ENDBRANCH  12  16
ENDBRANCH   9  11
ENDBRANCH   2   5
TORSDOF 10
ENDMDL
MODEL 5
REMARK VINA RESULT: -7.437700725      4.866      9.005
REMARK  10 active torsions:
REMARK  status: ('A' for Active; 'I' for Inactive)
REMARK    1  A    between atoms: C2_2  and  C4_5 
REMARK    2  A    between atoms: C8_9  and  C9_10 
REMARK    3  A    between atoms: C10_11  and  C11_12 
REMARK    4  A    between atoms: N2_14  and  C13_15 
REMARK    5  A    between atoms: C15_18  and  N4_19 
REMARK    6  A    between atoms: N5_22  and  C18_23 
REMARK    7  A    between atoms: C18_23  and  C19_24 
REMARK    8  A    between atoms: C19_24  and  O1_25 
REMARK    9  A    between atoms: C19_24  and  C20_27 
REMARK   10  A    between atoms: C20_27  and  N6_28 
ROOT
HETATM    1  C1  UNL     1       7.014  13.494  23.047  1.00  0.00     0.031 C 
HETATM    2  C2  UNL     1       7.957  12.958  21.986  1.00  0.00     0.121 C 
HETATM    3  C3  UNL     1       9.308  13.356  22.341  1.00  0.00     0.068 C 
HETATM    4  N1  UNL     1      10.378  13.691  22.631  1.00  0.00    -0.197 NA
ENDROOT
BRANCH   2   5
HETATM    5  C4  UNL     1       7.610  13.430  20.626  1.00  0.00    -0.040 A 
HETATM    6  C5  UNL     1       6.293  13.675  20.314  1.00  0.00     0.008 A 
HETATM    7  C6  UNL     1       5.971  14.113  19.048  1.00  0.00     0.001 A 
HETATM    8  C7  UNL     1       6.970  14.294  18.129  1.00  0.00     0.012 A 
HETATM    9  C8  UNL     1       8.325  14.057  18.405  1.00  0.00    -0.029 A 
HETATM   10  C30 UNL     1       8.595  13.628  19.661  1.00  0.00     0.020 A 
BRANCH   9  11
HETATM   11  C9  UNL     1       9.328  14.204  17.357  1.00  0.00    -0.039 C 
HETATM   12  C10 UNL     1      10.473  14.832  17.334  1.00  0.00    -0.022 C 
HETATM   13  C27 UNL     1      11.115  14.645  15.942  1.00  0.00     0.042 C 
HETATM   14  C28 UNL     1      10.424  13.455  15.364  1.00  0.00     0.009 C 
HETATM   15  C29 UNL     1       9.075  13.523  16.000  1.00  0.00     0.040 C 
BRANCH  12  16
HETATM   16  C11 UNL     1      11.153  15.616  18.358  1.00  0.00     0.072 A 
HETATM   17  C12 UNL     1      12.233  15.471  19.154  1.00  0.00     0.140 A 
HETATM   18  N2  UNL     1      12.408  16.566  19.970  1.00  0.00    -0.178 N 
HETATM   19  C15 UNL     1      11.412  17.404  19.664  1.00  0.00     0.683 A 
HETATM   20  N7  UNL     1      10.654  16.861  18.708  1.00  0.00    -0.190 N 
ATOM     21  H7  UNL     1       9.829  17.297  18.298  1.00  0.00     0.184 HD
BRANCH  18  22
HETATM   22  C13 UNL     1      13.465  16.736  20.947  1.00  0.00     0.270 C 
HETATM   23  C14 UNL     1      13.729  15.432  21.565  1.00  0.00     0.079 C 
HETATM   24  N3  UNL     1      13.953  14.392  22.049  1.00  0.00    -0.196 NA
ENDBRANCH  18  22
BRANCH  19  25
HETATM   25  N4  UNL     1      11.224  18.690  20.285  1.00  0.00    -0.214 N 
HETATM   26  C16 UNL     1      12.015  19.799  19.801  1.00  0.00     0.160 C 
HETATM   27  C17 UNL     1      11.128  21.033  19.767  1.00  0.00     0.137 C 
HETATM   28  N5  UNL     1      10.617  21.224  21.085  1.00  0.00    -0.407 N 
HETATM   29  C25 UNL     1       9.687  20.219  21.484  1.00  0.00     0.137 C 
HETATM   30  C26 UNL     1      10.289  18.854  21.345  1.00  0.00     0.160 C 
BRANCH  28  31
HETATM   31  C18 UNL     1      10.275  22.543  21.467  1.00  0.00     0.150 C 
BRANCH  31  32
HETATM   32  C19 UNL     1       9.939  23.395  20.244  1.00  0.00     0.164 C 
BRANCH  32  33
HETATM   33  O1  UNL     1      10.432  24.704  20.463  1.00  0.00    -0.392 OA
ATOM     34  H1  UNL     1      10.247  25.226  19.692  1.00  0.00     0.210 HD
ENDBRANCH  32  33
BRANCH  32  35
HETATM   35  C20 UNL     1       8.456  23.543  20.035  1.00  0.00     0.305 C 
BRANCH  35  36
HETATM   36  N6  UNL     1       7.923  22.686  19.001  1.00  0.00     0.095 N 
HETATM   37  C21 UNL     1       7.155  23.439  18.049  1.00  0.00     0.298 C 
HETATM   38  C22 UNL     1       5.779  22.865  17.798  1.00  0.00     0.198 C 
HETATM   39  O2  UNL     1       5.021  22.770  18.946  1.00  0.00    -0.388 OA
HETATM   40  C23 UNL     1       5.718  22.394  20.069  1.00  0.00     0.198 C 
HETATM   41  C24 UNL     1       7.031  21.750  19.662  1.00  0.00     0.298 C 
ENDBRANCH  35  36
ENDBRANCH  32  35
ENDBRANCH  31  32
ENDBRANCH  28  31
ENDBRANCH  19  25
ENDBRANCH  12  16
ENDBRANCH   9  11
ENDBRANCH   2   5
TORSDOF 10
ENDMDL
