MODEL 1
REMARK VINA RESULT: -6.745636960      0.000      0.000
REMARK  12 active torsions:
REMARK  status: ('A' for Active; 'I' for Inactive)
REMARK    1  A    between atoms: C2_2  and  C3_3 
REMARK    2  A    between atoms: C3_3  and  C4_4 
REMARK    3  A    between atoms: C4_4  and  O2_6 
REMARK    4  A    between atoms: C10_13  and  O4_14 
REMARK    5  A    between atoms: O4_14  and  C11_15 
REMARK    6  A    between atoms: C13_18  and  C14_19 
REMARK    7  A    between atoms: C14_19  and  C15_20 
REMARK    8  A    between atoms: C14_19  and  C27_34 
REMARK    9  A    between atoms: C14_19  and  C28_37 
REMARK   10  A    between atoms: C16_21  and  C17_22 
REMARK   11  A    between atoms: C27_34  and  O8_35 
REMARK   12  A    between atoms: C29_38  and  O9_39 
ROOT
HETATM    1  C14 UNL     1       7.084  17.761  21.263  1.00  0.00     0.027 C 
ENDROOT
BRANCH   1   2
HETATM    2  C13 UNL     1       6.685  17.385  22.604  1.00  0.00     0.078 C 
HETATM    3  C3  UNL     1       6.010  18.249  23.602  1.00  0.00     0.156 C 
HETATM    4  O3  UNL     1       5.303  17.576  24.589  1.00  0.00    -0.359 OA
HETATM    5  C6  UNL     1       4.586  16.498  24.428  1.00  0.00     0.058 C 
HETATM    6  C7  UNL     1       5.128  15.448  25.422  1.00  0.00     0.045 C 
HETATM    7  C8  UNL     1       3.156  16.677  24.855  1.00  0.00     0.045 C 
HETATM    8  C9  UNL     1       4.698  15.867  23.060  1.00  0.00     0.070 C 
HETATM    9  C10 UNL     1       6.166  15.956  22.603  1.00  0.00     0.143 C 
BRANCH   3  10
HETATM   10  C2  UNL     1       6.992  19.019  24.526  1.00  0.00     0.045 C 
HETATM   11  C1  UNL     1       8.020  18.200  25.179  1.00  0.00     0.009 C 
ENDBRANCH   3  10
BRANCH   3  12
HETATM   12  C4  UNL     1       5.085  19.312  23.186  1.00  0.00     0.294 C 
HETATM   13  O1  UNL     1       5.381  20.569  23.334  1.00  0.00    -0.262 OA
BRANCH  12  14
HETATM   14  O2  UNL     1       3.846  19.230  22.603  1.00  0.00    -0.324 OA
HETATM   15  C5  UNL     1       2.648  19.788  23.074  1.00  0.00     0.213 C 
ENDBRANCH  12  14
ENDBRANCH   3  12
BRANCH   9  16
HETATM   16  O4  UNL     1       6.899  15.032  23.369  1.00  0.00    -0.316 OA
BRANCH  16  17
HETATM   17  C11 UNL     1       7.302  13.781  23.030  1.00  0.00     0.255 C 
HETATM   18  C12 UNL     1       6.542  12.895  22.088  1.00  0.00     0.126 C 
HETATM   19  O5  UNL     1       8.369  13.419  23.567  1.00  0.00    -0.266 OA
ENDBRANCH  16  17
ENDBRANCH   9  16
ENDBRANCH   1   2
BRANCH   1  20
HETATM   20  C15 UNL     1       7.262  16.565  20.389  1.00  0.00    -0.014 C 
HETATM   21  C16 UNL     1       7.563  16.501  19.110  1.00  0.00    -0.024 C 
BRANCH  21  22
HETATM   22  C17 UNL     1       7.675  15.167  18.449  1.00  0.00     0.017 C 
HETATM   23  C18 UNL     1       8.251  14.084  19.293  1.00  0.00     0.010 C 
HETATM   24  C19 UNL     1       8.797  13.077  18.263  1.00  0.00     0.013 C 
HETATM   25  C20 UNL     1       8.799  13.800  16.931  1.00  0.00     0.065 C 
HETATM   26  C21 UNL     1       9.953  13.452  16.094  1.00  0.00     0.138 C 
HETATM   27  C25 UNL     1       8.781  15.248  17.359  1.00  0.00    -0.020 C 
HETATM   28  O6  UNL     1       9.823  12.847  15.040  1.00  0.00    -0.297 OA
HETATM   29  C22 UNL     1      11.305  13.855  16.563  1.00  0.00     0.156 C 
HETATM   30  C23 UNL     1      11.230  14.884  17.597  1.00  0.00     0.134 C 
HETATM   31  O7  UNL     1      12.251  15.095  18.270  1.00  0.00    -0.298 OA
HETATM   32  C24 UNL     1      10.055  15.719  17.944  1.00  0.00     0.089 C 
HETATM   33  C26 UNL     1       8.322  16.082  16.188  1.00  0.00     0.017 C 
ENDBRANCH  21  22
ENDBRANCH   1  20
BRANCH   1  34
HETATM   34  C27 UNL     1       8.471  18.466  21.201  1.00  0.00     0.182 C 
BRANCH  34  35
HETATM   35  O8  UNL     1       9.454  17.921  21.929  1.00  0.00    -0.399 OA
ATOM     36  H8  UNL     1       9.349  17.947  22.873  1.00  0.00     0.209 HD
ENDBRANCH  34  35
ENDBRANCH   1  34
BRANCH   1  37
HETATM   37  C28 UNL     1       6.321  18.724  20.423  1.00  0.00     0.013 C 
HETATM   38  C29 UNL     1       6.758  20.043  20.021  1.00  0.00     0.128 C 
BRANCH  38  39
HETATM   39  O9  UNL     1       7.031  21.001  20.985  1.00  0.00    -0.373 OA
ATOM     40  H9  UNL     1       7.071  21.918  20.740  1.00  0.00     0.216 HD
ENDBRANCH  38  39
ENDBRANCH   1  37
TORSDOF 12
ENDMDL
MODEL 2
REMARK VINA RESULT: -6.732637894      2.179      6.916
REMARK  12 active torsions:
REMARK  status: ('A' for Active; 'I' for Inactive)
REMARK    1  A    between atoms: C2_2  and  C3_3 
REMARK    2  A    between atoms: C3_3  and  C4_4 
REMARK    3  A    between atoms: C4_4  and  O2_6 
REMARK    4  A    between atoms: C10_13  and  O4_14 
REMARK    5  A    between atoms: O4_14  and  C11_15 
REMARK    6  A    between atoms: C13_18  and  C14_19 
REMARK    7  A    between atoms: C14_19  and  C15_20 
REMARK    8  A    between atoms: C14_19  and  C27_34 
REMARK    9  A    between atoms: C14_19  and  C28_37 
REMARK   10  A    between atoms: C16_21  and  C17_22 
REMARK   11  A    between atoms: C27_34  and  O8_35 
REMARK   12  A    between atoms: C29_38  and  O9_39 
ROOT
HETATM    1  C14 UNL     1      10.593  15.951  20.616  1.00  0.00     0.027 C 
ENDROOT
BRANCH   1   2
HETATM    2  C13 UNL     1       9.777  14.850  20.146  1.00  0.00     0.078 C 
HETATM    3  C3  UNL     1       8.588  14.277  20.822  1.00  0.00     0.156 C 
HETATM    4  O3  UNL     1       7.705  13.597  19.996  1.00  0.00    -0.359 OA
HETATM    5  C6  UNL     1       7.363  13.936  18.784  1.00  0.00     0.058 C 
HETATM    6  C7  UNL     1       7.667  12.724  17.877  1.00  0.00     0.045 C 
HETATM    7  C8  UNL     1       5.880  14.126  18.625  1.00  0.00     0.045 C 
HETATM    8  C9  UNL     1       8.150  15.090  18.208  1.00  0.00     0.070 C 
HETATM    9  C10 UNL     1       9.621  14.935  18.636  1.00  0.00     0.143 C 
BRANCH   3  10
HETATM   10  C2  UNL     1       8.923  13.109  21.790  1.00  0.00     0.045 C 
HETATM   11  C1  UNL     1       7.784  12.274  22.189  1.00  0.00     0.009 C 
ENDBRANCH   3  10
BRANCH   3  12
HETATM   12  C4  UNL     1       7.706  15.113  21.649  1.00  0.00     0.294 C 
HETATM   13  O1  UNL     1       8.104  15.611  22.782  1.00  0.00    -0.262 OA
BRANCH  12  14
HETATM   14  O2  UNL     1       6.415  15.521  21.432  1.00  0.00    -0.324 OA
HETATM   15  C5  UNL     1       5.298  15.267  22.242  1.00  0.00     0.213 C 
ENDBRANCH  12  14
ENDBRANCH   3  12
BRANCH   9  16
HETATM   16  O4  UNL     1      10.161  13.866  17.899  1.00  0.00    -0.316 OA
BRANCH  16  17
HETATM   17  C11 UNL     1      11.090  13.904  16.910  1.00  0.00     0.255 C 
HETATM   18  C12 UNL     1      10.752  14.128  15.466  1.00  0.00     0.126 C 
HETATM   19  O5  UNL     1      12.265  13.738  17.299  1.00  0.00    -0.266 OA
ENDBRANCH  16  17
ENDBRANCH   9  16
ENDBRANCH   1   2
BRANCH   1  20
HETATM   20  C15 UNL     1      10.029  17.268  20.198  1.00  0.00    -0.014 C 
HETATM   21  C16 UNL     1       9.552  18.246  20.936  1.00  0.00    -0.024 C 
BRANCH  21  22
HETATM   22  C17 UNL     1       9.027  19.476  20.272  1.00  0.00     0.017 C 
HETATM   23  C18 UNL     1       9.577  20.760  20.784  1.00  0.00     0.010 C 
HETATM   24  C19 UNL     1       8.494  21.791  20.408  1.00  0.00     0.013 C 
HETATM   25  C20 UNL     1       7.270  20.989  20.016  1.00  0.00     0.065 C 
HETATM   26  C21 UNL     1       6.015  21.615  20.445  1.00  0.00     0.138 C 
HETATM   27  C25 UNL     1       7.538  19.660  20.684  1.00  0.00    -0.020 C 
HETATM   28  O6  UNL     1       5.203  22.044  19.639  1.00  0.00    -0.297 OA
HETATM   29  C22 UNL     1       5.748  21.723  21.904  1.00  0.00     0.156 C 
HETATM   30  C23 UNL     1       6.607  20.827  22.674  1.00  0.00     0.134 C 
HETATM   31  O7  UNL     1       6.692  21.025  23.896  1.00  0.00    -0.298 OA
HETATM   32  C24 UNL     1       7.405  19.689  22.157  1.00  0.00     0.089 C 
HETATM   33  C26 UNL     1       6.666  18.617  20.030  1.00  0.00     0.017 C 
ENDBRANCH  21  22
ENDBRANCH   1  20
BRANCH   1  34
HETATM   34  C27 UNL     1      12.029  15.963  20.013  1.00  0.00     0.182 C 
BRANCH  34  35
HETATM   35  O8  UNL     1      12.311  16.950  19.153  1.00  0.00    -0.399 OA
ATOM     36  H8  UNL     1      12.329  17.831  19.508  1.00  0.00     0.209 HD
ENDBRANCH  34  35
ENDBRANCH   1  34
BRANCH   1  37
HETATM   37  C28 UNL     1      10.963  16.142  22.045  1.00  0.00     0.013 C 
HETATM   38  C29 UNL     1      12.026  15.463  22.752  1.00  0.00     0.128 C 
BRANCH  38  39
HETATM   39  O9  UNL     1      11.996  14.083  22.879  1.00  0.00    -0.373 OA
ATOM     40  H9  UNL     1      11.162  13.636  22.970  1.00  0.00     0.216 HD
ENDBRANCH  38  39
ENDBRANCH   1  37
TORSDOF 12
ENDMDL
MODEL 3
REMARK VINA RESULT: -6.704126682      2.039      3.217
REMARK  12 active torsions:
REMARK  status: ('A' for Active; 'I' for Inactive)
REMARK    1  A    between atoms: C2_2  and  C3_3 
REMARK    2  A    between atoms: C3_3  and  C4_4 
REMARK    3  A    between atoms: C4_4  and  O2_6 
REMARK    4  A    between atoms: C10_13  and  O4_14 
REMARK    5  A    between atoms: O4_14  and  C11_15 
REMARK    6  A    between atoms: C13_18  and  C14_19 
REMARK    7  A    between atoms: C14_19  and  C15_20 
REMARK    8  A    between atoms: C14_19  and  C27_34 
REMARK    9  A    between atoms: C14_19  and  C28_37 
REMARK   10  A    between atoms: C16_21  and  C17_22 
REMARK   11  A    between atoms: C27_34  and  O8_35 
REMARK   12  A    between atoms: C29_38  and  O9_39 
ROOT
HETATM    1  C14 UNL     1       8.030  17.461  22.118  1.00  0.00     0.027 C 
ENDROOT
BRANCH   1   2
HETATM    2  C13 UNL     1       8.241  16.241  22.869  1.00  0.00     0.078 C 
HETATM    3  C3  UNL     1       8.871  16.122  24.206  1.00  0.00     0.156 C 
HETATM    4  O3  UNL     1       8.533  14.981  24.922  1.00  0.00    -0.359 OA
HETATM    5  C6  UNL     1       7.357  14.419  24.972  1.00  0.00     0.058 C 
HETATM    6  C7  UNL     1       7.546  12.948  24.541  1.00  0.00     0.045 C 
HETATM    7  C8  UNL     1       6.820  14.307  26.371  1.00  0.00     0.045 C 
HETATM    8  C9  UNL     1       6.342  15.001  24.016  1.00  0.00     0.070 C 
HETATM    9  C10 UNL     1       7.051  15.313  22.685  1.00  0.00     0.143 C 
BRANCH   3  10
HETATM   10  C2  UNL     1      10.407  15.898  24.155  1.00  0.00     0.045 C 
HETATM   11  C1  UNL     1      10.886  15.053  23.054  1.00  0.00     0.009 C 
ENDBRANCH   3  10
BRANCH   3  12
HETATM   12  C4  UNL     1       8.752  17.196  25.201  1.00  0.00     0.294 C 
HETATM   13  O1  UNL     1       9.774  17.593  25.901  1.00  0.00    -0.262 OA
BRANCH  12  14
HETATM   14  O2  UNL     1       7.664  17.947  25.568  1.00  0.00    -0.324 OA
HETATM   15  C5  UNL     1       7.039  17.977  26.824  1.00  0.00     0.213 C 
ENDBRANCH  12  14
ENDBRANCH   3  12
BRANCH   9  16
HETATM   16  O4  UNL     1       7.318  14.084  22.055  1.00  0.00    -0.316 OA
BRANCH  16  17
HETATM   17  C11 UNL     1       6.575  13.431  21.125  1.00  0.00     0.255 C 
HETATM   18  C12 UNL     1       6.146  14.048  19.827  1.00  0.00     0.126 C 
HETATM   19  O5  UNL     1       6.272  12.261  21.436  1.00  0.00    -0.266 OA
ENDBRANCH  16  17
ENDBRANCH   9  16
ENDBRANCH   1   2
BRANCH   1  20
HETATM   20  C15 UNL     1       8.282  17.259  20.661  1.00  0.00    -0.014 C 
HETATM   21  C16 UNL     1       9.322  16.724  20.059  1.00  0.00    -0.024 C 
BRANCH  21  22
HETATM   22  C17 UNL     1       9.343  16.645  18.568  1.00  0.00     0.017 C 
HETATM   23  C18 UNL     1       8.033  16.346  17.927  1.00  0.00     0.010 C 
HETATM   24  C19 UNL     1       8.429  15.741  16.565  1.00  0.00     0.013 C 
HETATM   25  C20 UNL     1       9.908  15.428  16.660  1.00  0.00     0.065 C 
HETATM   26  C21 UNL     1      10.275  14.191  15.962  1.00  0.00     0.138 C 
HETATM   27  C25 UNL     1      10.121  15.363  18.154  1.00  0.00    -0.020 C 
HETATM   28  O6  UNL     1      10.993  14.200  14.974  1.00  0.00    -0.297 OA
HETATM   29  C22 UNL     1       9.746  12.905  16.490  1.00  0.00     0.156 C 
HETATM   30  C23 UNL     1       9.260  13.047  17.860  1.00  0.00     0.134 C 
HETATM   31  O7  UNL     1       8.539  12.143  18.309  1.00  0.00    -0.298 OA
HETATM   32  C24 UNL     1       9.531  14.167  18.794  1.00  0.00     0.089 C 
HETATM   33  C26 UNL     1      11.596  15.516  18.429  1.00  0.00     0.017 C 
ENDBRANCH  21  22
ENDBRANCH   1  20
BRANCH   1  34
HETATM   34  C27 UNL     1       9.016  18.605  22.500  1.00  0.00     0.182 C 
BRANCH  34  35
HETATM   35  O8  UNL     1       8.478  19.706  23.041  1.00  0.00    -0.399 OA
ATOM     36  H8  UNL     1       8.682  20.531  22.617  1.00  0.00     0.209 HD
ENDBRANCH  34  35
ENDBRANCH   1  34
BRANCH   1  37
HETATM   37  C28 UNL     1       6.767  18.246  22.171  1.00  0.00     0.013 C 
HETATM   38  C29 UNL     1       5.612  18.068  21.318  1.00  0.00     0.128 C 
BRANCH  38  39
HETATM   39  O9  UNL     1       5.736  18.239  19.948  1.00  0.00    -0.373 OA
ATOM     40  H9  UNL     1       5.029  18.642  19.458  1.00  0.00     0.216 HD
ENDBRANCH  38  39
ENDBRANCH   1  37
TORSDOF 12
ENDMDL
MODEL 4
REMARK VINA RESULT: -6.701292755      1.960      3.949
REMARK  12 active torsions:
REMARK  status: ('A' for Active; 'I' for Inactive)
REMARK    1  A    between atoms: C2_2  and  C3_3 
REMARK    2  A    between atoms: C3_3  and  C4_4 
REMARK    3  A    between atoms: C4_4  and  O2_6 
REMARK    4  A    between atoms: C10_13  and  O4_14 
REMARK    5  A    between atoms: O4_14  and  C11_15 
REMARK    6  A    between atoms: C13_18  and  C14_19 
REMARK    7  A    between atoms: C14_19  and  C15_20 
REMARK    8  A    between atoms: C14_19  and  C27_34 
REMARK    9  A    between atoms: C14_19  and  C28_37 
REMARK   10  A    between atoms: C16_21  and  C17_22 
REMARK   11  A    between atoms: C27_34  and  O8_35 
REMARK   12  A    between atoms: C29_38  and  O9_39 
ROOT
HETATM    1  C14 UNL     1       6.669  14.875  22.348  1.00  0.00     0.027 C 
ENDROOT
BRANCH   1   2
HETATM    2  C13 UNL     1       7.610  15.659  23.120  1.00  0.00     0.078 C 
HETATM    3  C3  UNL     1       8.347  16.861  22.660  1.00  0.00     0.156 C 
HETATM    4  O3  UNL     1       8.790  17.708  23.667  1.00  0.00    -0.359 OA
HETATM    5  C6  UNL     1       8.144  18.016  24.757  1.00  0.00     0.058 C 
HETATM    6  C7  UNL     1       9.072  17.666  25.941  1.00  0.00     0.045 C 
HETATM    7  C8  UNL     1       7.926  19.495  24.912  1.00  0.00     0.045 C 
HETATM    8  C9  UNL     1       6.875  17.226  24.981  1.00  0.00     0.070 C 
HETATM    9  C10 UNL     1       7.130  15.768  24.558  1.00  0.00     0.143 C 
BRANCH   3  10
HETATM   10  C2  UNL     1       9.728  16.541  22.025  1.00  0.00     0.045 C 
HETATM   11  C1  UNL     1      10.431  15.384  22.592  1.00  0.00     0.009 C 
ENDBRANCH   3  10
BRANCH   3  12
HETATM   12  C4  UNL     1       7.764  17.781  21.673  1.00  0.00     0.294 C 
HETATM   13  O1  UNL     1       8.412  18.132  20.603  1.00  0.00    -0.262 OA
BRANCH  12  14
HETATM   14  O2  UNL     1       6.538  18.397  21.655  1.00  0.00    -0.324 OA
HETATM   15  C5  UNL     1       6.099  19.384  20.759  1.00  0.00     0.213 C 
ENDBRANCH  12  14
ENDBRANCH   3  12
BRANCH   9  16
HETATM   16  O4  UNL     1       7.963  15.190  25.532  1.00  0.00    -0.316 OA
BRANCH  16  17
HETATM   17  C11 UNL     1       7.627  14.345  26.540  1.00  0.00     0.255 C 
HETATM   18  C12 UNL     1       7.934  14.615  27.983  1.00  0.00     0.126 C 
HETATM   19  O5  UNL     1       7.033  13.311  26.170  1.00  0.00    -0.266 OA
ENDBRANCH  16  17
ENDBRANCH   9  16
ENDBRANCH   1   2
BRANCH   1  20
HETATM   20  C15 UNL     1       6.824  15.118  20.884  1.00  0.00    -0.014 C 
HETATM   21  C16 UNL     1       7.104  14.267  19.920  1.00  0.00    -0.024 C 
BRANCH  21  22
HETATM   22  C17 UNL     1       7.220  14.763  18.516  1.00  0.00     0.017 C 
HETATM   23  C18 UNL     1       6.521  13.942  17.491  1.00  0.00     0.010 C 
HETATM   24  C19 UNL     1       7.269  14.282  16.187  1.00  0.00     0.013 C 
HETATM   25  C20 UNL     1       8.535  15.001  16.605  1.00  0.00     0.065 C 
HETATM   26  C21 UNL     1       9.688  14.661  15.764  1.00  0.00     0.138 C 
HETATM   27  C25 UNL     1       8.687  14.559  18.042  1.00  0.00    -0.020 C 
HETATM   28  O6  UNL     1      10.221  15.489  15.040  1.00  0.00    -0.297 OA
HETATM   29  C22 UNL     1      10.203  13.267  15.810  1.00  0.00     0.156 C 
HETATM   30  C23 UNL     1       9.718  12.555  16.990  1.00  0.00     0.134 C 
HETATM   31  O7  UNL     1       9.830  11.319  16.998  1.00  0.00    -0.298 OA
HETATM   32  C24 UNL     1       9.092  13.146  18.198  1.00  0.00     0.089 C 
HETATM   33  C26 UNL     1       9.617  15.523  18.737  1.00  0.00     0.017 C 
ENDBRANCH  21  22
ENDBRANCH   1  20
BRANCH   1  34
HETATM   34  C27 UNL     1       5.181  15.244  22.621  1.00  0.00     0.182 C 
BRANCH  34  35
HETATM   35  O8  UNL     1       4.723  16.360  22.040  1.00  0.00    -0.399 OA
ATOM     36  H8  UNL     1       4.579  16.324  21.101  1.00  0.00     0.209 HD
ENDBRANCH  34  35
ENDBRANCH   1  34
BRANCH   1  37
HETATM   37  C28 UNL     1       6.544  13.397  22.468  1.00  0.00     0.013 C 
HETATM   38  C29 UNL     1       7.573  12.484  22.918  1.00  0.00     0.128 C 
BRANCH  38  39
HETATM   39  O9  UNL     1       8.764  12.391  22.216  1.00  0.00    -0.373 OA
ATOM     40  H9  UNL     1       8.762  12.471  21.269  1.00  0.00     0.216 HD
ENDBRANCH  38  39
ENDBRANCH   1  37
TORSDOF 12
ENDMDL
MODEL 5
REMARK VINA RESULT: -6.682896482      2.272      5.324
REMARK  12 active torsions:
REMARK  status: ('A' for Active; 'I' for Inactive)
REMARK    1  A    between atoms: C2_2  and  C3_3 
REMARK    2  A    between atoms: C3_3  and  C4_4 
REMARK    3  A    between atoms: C4_4  and  O2_6 
REMARK    4  A    between atoms: C10_13  and  O4_14 
REMARK    5  A    between atoms: O4_14  and  C11_15 
REMARK    6  A    between atoms: C13_18  and  C14_19 
REMARK    7  A    between atoms: C14_19  and  C15_20 
REMARK    8  A    between atoms: C14_19  and  C27_34 
REMARK    9  A    between atoms: C14_19  and  C28_37 
REMARK   10  A    between atoms: C16_21  and  C17_22 
REMARK   11  A    between atoms: C27_34  and  O8_35 
REMARK   12  A    between atoms: C29_38  and  O9_39 
ROOT
HETATM    1  C14 UNL     1       7.653  14.562  22.951  1.00  0.00     0.027 C 
ENDROOT
BRANCH   1   2
HETATM    2  C13 UNL     1       8.457  15.692  23.368  1.00  0.00     0.078 C 
HETATM    3  C3  UNL     1       9.628  15.659  24.277  1.00  0.00     0.156 C 
HETATM    4  O3  UNL     1      10.511  16.722  24.148  1.00  0.00    -0.359 OA
HETATM    5  C6  UNL     1      10.874  17.295  23.034  1.00  0.00     0.058 C 
HETATM    6  C7  UNL     1      10.562  18.800  23.183  1.00  0.00     0.045 C 
HETATM    7  C8  UNL     1      12.361  17.268  22.818  1.00  0.00     0.045 C 
HETATM    8  C9  UNL     1      10.112  16.835  21.813  1.00  0.00     0.070 C 
HETATM    9  C10 UNL     1       8.634  16.654  22.203  1.00  0.00     0.143 C 
BRANCH   3  10
HETATM   10  C2  UNL     1       9.263  15.861  25.773  1.00  0.00     0.045 C 
HETATM   11  C1  UNL     1       8.551  17.106  26.086  1.00  0.00     0.009 C 
ENDBRANCH   3  10
BRANCH   3  12
HETATM   12  C4  UNL     1      10.513  14.486  24.335  1.00  0.00     0.294 C 
HETATM   13  O1  UNL     1      10.677  13.810  25.433  1.00  0.00    -0.262 OA
BRANCH  12  14
HETATM   14  O2  UNL     1      11.271  13.900  23.353  1.00  0.00    -0.324 OA
HETATM   15  C5  UNL     1      12.650  13.646  23.385  1.00  0.00     0.213 C 
ENDBRANCH  12  14
ENDBRANCH   3  12
BRANCH   9  16
HETATM   16  O4  UNL     1       8.086  17.938  22.375  1.00  0.00    -0.316 OA
BRANCH  16  17
HETATM   17  C11 UNL     1       6.784  18.319  22.311  1.00  0.00     0.255 C 
HETATM   18  C12 UNL     1       6.044  18.517  21.022  1.00  0.00     0.126 C 
HETATM   19  O5  UNL     1       6.242  18.492  23.422  1.00  0.00    -0.266 OA
ENDBRANCH  16  17
ENDBRANCH   9  16
ENDBRANCH   1   2
BRANCH   1  20
HETATM   20  C15 UNL     1       7.355  14.611  21.489  1.00  0.00    -0.014 C 
HETATM   21  C16 UNL     1       8.013  14.076  20.484  1.00  0.00    -0.024 C 
BRANCH  21  22
HETATM   22  C17 UNL     1       7.514  14.280  19.091  1.00  0.00     0.017 C 
HETATM   23  C18 UNL     1       7.559  13.077  18.215  1.00  0.00     0.010 C 
HETATM   24  C19 UNL     1       7.591  13.669  16.793  1.00  0.00     0.013 C 
HETATM   25  C20 UNL     1       7.899  15.143  16.959  1.00  0.00     0.065 C 
HETATM   26  C21 UNL     1       8.770  15.668  15.901  1.00  0.00     0.138 C 
HETATM   27  C25 UNL     1       8.530  15.180  18.331  1.00  0.00    -0.020 C 
HETATM   28  O6  UNL     1       8.374  16.497  15.096  1.00  0.00    -0.297 OA
HETATM   29  C22 UNL     1      10.166  15.160  15.827  1.00  0.00     0.156 C 
HETATM   30  C23 UNL     1      10.566  14.507  17.071  1.00  0.00     0.134 C 
HETATM   31  O7  UNL     1      11.582  13.795  17.042  1.00  0.00    -0.298 OA
HETATM   32  C24 UNL     1       9.887  14.594  18.386  1.00  0.00     0.089 C 
HETATM   33  C26 UNL     1       8.476  16.600  18.839  1.00  0.00     0.017 C 
ENDBRANCH  21  22
ENDBRANCH   1  20
BRANCH   1  34
HETATM   34  C27 UNL     1       6.241  14.527  23.607  1.00  0.00     0.182 C 
BRANCH  34  35
HETATM   35  O8  UNL     1       5.880  15.607  24.312  1.00  0.00    -0.399 OA
ATOM     36  H8  UNL     1       5.437  15.448  25.137  1.00  0.00     0.209 HD
ENDBRANCH  34  35
ENDBRANCH   1  34
BRANCH   1  37
HETATM   37  C28 UNL     1       8.038  13.147  23.204  1.00  0.00     0.013 C 
HETATM   38  C29 UNL     1       7.600  12.326  24.312  1.00  0.00     0.128 C 
BRANCH  38  39
HETATM   39  O9  UNL     1       7.899  12.707  25.610  1.00  0.00    -0.373 OA
ATOM     40  H9  UNL     1       7.677  12.132  26.333  1.00  0.00     0.216 HD
ENDBRANCH  38  39
ENDBRANCH   1  37
TORSDOF 12
ENDMDL
