MODEL 1
REMARK VINA RESULT: -6.697765001      0.000      0.000
REMARK  3 active torsions:
REMARK  status: ('A' for Active; 'I' for Inactive)
REMARK       I    between atoms: C2_2  and  N1_4 
REMARK       I    between atoms: C3_6  and  N2_7 
REMARK       I    between atoms: C3_6  and  N5_17 
REMARK    1  A    between atoms: N2_7  and  C4_9 
REMARK    2  A    between atoms: C4_9  and  C5_10 
REMARK       I    between atoms: C5_10  and  N3_12 
REMARK    3  A    between atoms: N3_12  and  N4_14 
ROOT
HETATM    1  C1  UNL     1     -14.328  13.555  36.417  1.00  0.00     0.118 C 
HETATM    2  C2  UNL     1     -14.384  13.306  34.954  1.00  0.00     0.231 C 
HETATM    3  O1  UNL     1     -14.094  14.272  34.201  1.00  0.00    -0.273 OA
HETATM    4  N1  UNL     1     -14.734  12.085  34.367  1.00  0.00    -0.160 N 
ATOM      5  H1  UNL     1     -13.987  11.398  34.268  1.00  0.00     0.187 HD
HETATM    6  C3  UNL     1     -15.872  11.742  33.947  1.00  0.00     0.679 C 
HETATM    7  N2  UNL     1     -16.023  10.426  33.368  1.00  0.00    -0.217 N 
ATOM      8  H2  UNL     1     -16.647   9.725  33.768  1.00  0.00     0.178 HD
HETATM    9  N5  UNL     1     -17.039  12.546  33.990  1.00  0.00    -0.218 N 
HETATM   10  C6  UNL     1     -17.902  12.403  35.118  1.00  0.00     0.141 C 
HETATM   11  C7  UNL     1     -19.081  13.293  35.157  1.00  0.00     0.020 C 
HETATM   12  C8  UNL     1     -18.949  14.623  34.509  1.00  0.00     0.003 C 
HETATM   13  C9  UNL     1     -17.728  14.779  33.640  1.00  0.00     0.020 C 
HETATM   14  C10 UNL     1     -17.368  13.486  32.941  1.00  0.00     0.141 C 
ENDROOT
BRANCH   7  15
HETATM   15  C4  UNL     1     -15.240  10.173  32.201  1.00  0.00     0.242 C 
BRANCH  15  16
HETATM   16  C5  UNL     1     -15.611   9.006  31.420  1.00  0.00     0.253 C 
HETATM   17  O2  UNL     1     -15.510   9.096  30.154  1.00  0.00    -0.270 OA
HETATM   18  N3  UNL     1     -16.068   7.801  31.964  1.00  0.00    -0.275 N 
ATOM     19  H3  UNL     1     -16.157   7.708  32.975  1.00  0.00     0.189 HD
BRANCH  18  20
HETATM   20  N4  UNL     1     -16.404   6.730  31.146  1.00  0.00    -0.343 N 
ATOM     21  H42 UNL     1     -16.318   6.843  30.136  1.00  0.00     0.176 HD
ATOM     22  H41 UNL     1     -16.728   5.848  31.542  1.00  0.00     0.176 HD
ENDBRANCH  18  20
ENDBRANCH  15  16
ENDBRANCH   7  15
TORSDOF 3
ENDMDL
MODEL 2
REMARK VINA RESULT: -6.687797034      2.563      3.643
REMARK  3 active torsions:
REMARK  status: ('A' for Active; 'I' for Inactive)
REMARK       I    between atoms: C2_2  and  N1_4 
REMARK       I    between atoms: C3_6  and  N2_7 
REMARK       I    between atoms: C3_6  and  N5_17 
REMARK    1  A    between atoms: N2_7  and  C4_9 
REMARK    2  A    between atoms: C4_9  and  C5_10 
REMARK       I    between atoms: C5_10  and  N3_12 
REMARK    3  A    between atoms: N3_12  and  N4_14 
ROOT
HETATM    1  C1  UNL     1     -16.160  13.290  38.192  1.00  0.00     0.118 C 
HETATM    2  C2  UNL     1     -15.836  12.364  37.077  1.00  0.00     0.231 C 
HETATM    3  O1  UNL     1     -14.844  11.606  37.237  1.00  0.00    -0.273 OA
HETATM    4  N1  UNL     1     -16.551  12.281  35.877  1.00  0.00    -0.160 N 
ATOM      5  H1  UNL     1     -17.380  11.688  35.883  1.00  0.00     0.187 HD
HETATM    6  C3  UNL     1     -16.281  12.859  34.790  1.00  0.00     0.679 C 
HETATM    7  N2  UNL     1     -17.154  12.638  33.659  1.00  0.00    -0.217 N 
ATOM      8  H2  UNL     1     -17.670  13.398  33.215  1.00  0.00     0.178 HD
HETATM    9  N5  UNL     1     -15.178  13.722  34.572  1.00  0.00    -0.218 N 
HETATM   10  C6  UNL     1     -15.385  15.123  34.752  1.00  0.00     0.141 C 
HETATM   11  C7  UNL     1     -14.202  15.989  34.568  1.00  0.00     0.020 C 
HETATM   12  C8  UNL     1     -12.875  15.404  34.894  1.00  0.00     0.003 C 
HETATM   13  C9  UNL     1     -12.880  13.910  35.089  1.00  0.00     0.020 C 
HETATM   14  C10 UNL     1     -13.877  13.228  34.178  1.00  0.00     0.141 C 
ENDROOT
BRANCH   7  15
HETATM   15  C4  UNL     1     -17.244  11.287  33.206  1.00  0.00     0.242 C 
BRANCH  15  16
HETATM   16  C5  UNL     1     -16.031  10.713  32.651  1.00  0.00     0.253 C 
HETATM   17  O2  UNL     1     -15.510   9.734  33.276  1.00  0.00    -0.270 OA
HETATM   18  N3  UNL     1     -15.403  11.163  31.485  1.00  0.00    -0.275 N 
ATOM     19  H3  UNL     1     -15.803  11.946  30.969  1.00  0.00     0.189 HD
BRANCH  18  20
HETATM   20  N4  UNL     1     -14.242  10.559  31.019  1.00  0.00    -0.343 N 
ATOM     21  H42 UNL     1     -14.058   9.591  31.282  1.00  0.00     0.176 HD
ATOM     22  H41 UNL     1     -13.587  11.068  30.427  1.00  0.00     0.176 HD
ENDBRANCH  18  20
ENDBRANCH  15  16
ENDBRANCH   7  15
TORSDOF 3
ENDMDL
MODEL 3
REMARK VINA RESULT: -6.564861941      2.246      3.182
REMARK  3 active torsions:
REMARK  status: ('A' for Active; 'I' for Inactive)
REMARK       I    between atoms: C2_2  and  N1_4 
REMARK       I    between atoms: C3_6  and  N2_7 
REMARK       I    between atoms: C3_6  and  N5_17 
REMARK    1  A    between atoms: N2_7  and  C4_9 
REMARK    2  A    between atoms: C4_9  and  C5_10 
REMARK       I    between atoms: C5_10  and  N3_12 
REMARK    3  A    between atoms: N3_12  and  N4_14 
ROOT
HETATM    1  C1  UNL     1     -16.435  12.623  37.635  1.00  0.00     0.118 C 
HETATM    2  C2  UNL     1     -15.393  12.101  36.714  1.00  0.00     0.231 C 
HETATM    3  O1  UNL     1     -14.260  11.869  37.212  1.00  0.00    -0.273 OA
HETATM    4  N1  UNL     1     -15.586  11.853  35.351  1.00  0.00    -0.160 N 
ATOM      5  H1  UNL     1     -15.992  10.950  35.107  1.00  0.00     0.187 HD
HETATM    6  C3  UNL     1     -15.312  12.624  34.392  1.00  0.00     0.679 C 
HETATM    7  N2  UNL     1     -15.590  12.173  33.048  1.00  0.00    -0.217 N 
ATOM      8  H2  UNL     1     -16.245  12.661  32.436  1.00  0.00     0.178 HD
HETATM    9  N5  UNL     1     -14.744  13.917  34.516  1.00  0.00    -0.218 N 
HETATM   10  C6  UNL     1     -15.635  15.031  34.575  1.00  0.00     0.141 C 
HETATM   11  C7  UNL     1     -15.013  16.358  34.757  1.00  0.00     0.020 C 
HETATM   12  C8  UNL     1     -13.735  16.411  35.513  1.00  0.00     0.003 C 
HETATM   13  C9  UNL     1     -13.087  15.071  35.743  1.00  0.00     0.020 C 
HETATM   14  C10 UNL     1     -13.315  14.129  34.581  1.00  0.00     0.141 C 
ENDROOT
BRANCH   7  15
HETATM   15  C4  UNL     1     -14.887  11.002  32.633  1.00  0.00     0.242 C 
BRANCH  15  16
HETATM   16  C5  UNL     1     -15.700   9.832  32.349  1.00  0.00     0.253 C 
HETATM   17  O2  UNL     1     -15.260   9.014  31.478  1.00  0.00    -0.270 OA
HETATM   18  N3  UNL     1     -16.925   9.550  32.963  1.00  0.00    -0.275 N 
ATOM     19  H3  UNL     1     -17.297  10.192  33.661  1.00  0.00     0.189 HD
BRANCH  18  20
HETATM   20  N4  UNL     1     -17.643   8.407  32.633  1.00  0.00    -0.343 N 
ATOM     21  H42 UNL     1     -17.138   7.608  32.251  1.00  0.00     0.176 HD
ATOM     22  H41 UNL     1     -18.653   8.364  32.770  1.00  0.00     0.176 HD
ENDBRANCH  18  20
ENDBRANCH  15  16
ENDBRANCH   7  15
TORSDOF 3
ENDMDL
MODEL 4
REMARK VINA RESULT: -6.310738662      2.297      3.542
REMARK  3 active torsions:
REMARK  status: ('A' for Active; 'I' for Inactive)
REMARK       I    between atoms: C2_2  and  N1_4 
REMARK       I    between atoms: C3_6  and  N2_7 
REMARK       I    between atoms: C3_6  and  N5_17 
REMARK    1  A    between atoms: N2_7  and  C4_9 
REMARK    2  A    between atoms: C4_9  and  C5_10 
REMARK       I    between atoms: C5_10  and  N3_12 
REMARK    3  A    between atoms: N3_12  and  N4_14 
ROOT
HETATM    1  C1  UNL     1     -15.913  13.388  38.469  1.00  0.00     0.118 C 
HETATM    2  C2  UNL     1     -15.835  12.448  37.322  1.00  0.00     0.231 C 
HETATM    3  O1  UNL     1     -14.896  11.609  37.337  1.00  0.00    -0.273 OA
HETATM    4  N1  UNL     1     -16.723  12.434  36.241  1.00  0.00    -0.160 N 
ATOM      5  H1  UNL     1     -17.589  11.911  36.372  1.00  0.00     0.187 HD
HETATM    6  C3  UNL     1     -16.570  12.998  35.124  1.00  0.00     0.679 C 
HETATM    7  N2  UNL     1     -17.615  12.859  34.136  1.00  0.00    -0.217 N 
ATOM      8  H2  UNL     1     -18.127  13.662  33.769  1.00  0.00     0.178 HD
HETATM    9  N5  UNL     1     -15.443  13.769  34.742  1.00  0.00    -0.218 N 
HETATM   10  C6  UNL     1     -15.505  15.180  34.946  1.00  0.00     0.141 C 
HETATM   11  C7  UNL     1     -14.294  15.948  34.586  1.00  0.00     0.020 C 
HETATM   12  C8  UNL     1     -12.987  15.252  34.715  1.00  0.00     0.003 C 
HETATM   13  C9  UNL     1     -13.086  13.763  34.913  1.00  0.00     0.020 C 
HETATM   14  C10 UNL     1     -14.260  13.172  34.163  1.00  0.00     0.141 C 
ENDROOT
BRANCH   7  15
HETATM   15  C4  UNL     1     -17.883  11.524  33.706  1.00  0.00     0.242 C 
BRANCH  15  16
HETATM   16  C5  UNL     1     -16.913  10.935  32.799  1.00  0.00     0.253 C 
HETATM   17  O2  UNL     1     -16.516  11.652  31.824  1.00  0.00    -0.270 OA
HETATM   18  N3  UNL     1     -16.393   9.642  32.925  1.00  0.00    -0.275 N 
ATOM     19  H3  UNL     1     -16.698   9.051  33.698  1.00  0.00     0.189 HD
BRANCH  18  20
HETATM   20  N4  UNL     1     -15.468   9.152  32.013  1.00  0.00    -0.343 N 
ATOM     21  H42 UNL     1     -14.494   9.443  32.103  1.00  0.00     0.176 HD
ATOM     22  H41 UNL     1     -15.751   8.514  31.269  1.00  0.00     0.176 HD
ENDBRANCH  18  20
ENDBRANCH  15  16
ENDBRANCH   7  15
TORSDOF 3
ENDMDL
MODEL 5
REMARK VINA RESULT: -6.185752835      2.247      5.840
REMARK  3 active torsions:
REMARK  status: ('A' for Active; 'I' for Inactive)
REMARK       I    between atoms: C2_2  and  N1_4 
REMARK       I    between atoms: C3_6  and  N2_7 
REMARK       I    between atoms: C3_6  and  N5_17 
REMARK    1  A    between atoms: N2_7  and  C4_9 
REMARK    2  A    between atoms: C4_9  and  C5_10 
REMARK       I    between atoms: C5_10  and  N3_12 
REMARK    3  A    between atoms: N3_12  and  N4_14 
ROOT
HETATM    1  C1  UNL     1     -18.657  12.452  33.017  1.00  0.00     0.118 C 
HETATM    2  C2  UNL     1     -17.265  12.811  32.646  1.00  0.00     0.231 C 
HETATM    3  O1  UNL     1     -17.081  13.240  31.476  1.00  0.00    -0.273 OA
HETATM    4  N1  UNL     1     -16.160  12.704  33.498  1.00  0.00    -0.160 N 
ATOM      5  H1  UNL     1     -15.996  13.488  34.129  1.00  0.00     0.187 HD
HETATM    6  C3  UNL     1     -15.345  11.745  33.569  1.00  0.00     0.679 C 
HETATM    7  N2  UNL     1     -14.263  11.833  34.523  1.00  0.00    -0.217 N 
ATOM      8  H2  UNL     1     -14.156  11.164  35.286  1.00  0.00     0.178 HD
HETATM    9  N5  UNL     1     -15.394  10.567  32.782  1.00  0.00    -0.218 N 
HETATM   10  C6  UNL     1     -16.084   9.439  33.319  1.00  0.00     0.141 C 
HETATM   11  C7  UNL     1     -16.161   8.245  32.451  1.00  0.00     0.020 C 
HETATM   12  C8  UNL     1     -16.175   8.472  30.983  1.00  0.00     0.003 C 
HETATM   13  C9  UNL     1     -15.812   9.873  30.563  1.00  0.00     0.020 C 
HETATM   14  C10 UNL     1     -14.774  10.483  31.478  1.00  0.00     0.141 C 
ENDROOT
BRANCH   7  15
HETATM   15  C4  UNL     1     -13.355  12.917  34.327  1.00  0.00     0.242 C 
BRANCH  15  16
HETATM   16  C5  UNL     1     -13.229  13.857  35.426  1.00  0.00     0.253 C 
HETATM   17  O2  UNL     1     -13.764  13.531  36.536  1.00  0.00    -0.270 OA
HETATM   18  N3  UNL     1     -12.567  15.086  35.347  1.00  0.00    -0.275 N 
ATOM     19  H3  UNL     1     -12.133  15.367  34.469  1.00  0.00     0.189 HD
BRANCH  18  20
HETATM   20  N4  UNL     1     -12.492  15.930  36.448  1.00  0.00    -0.343 N 
ATOM     21  H42 UNL     1     -13.357  16.195  36.918  1.00  0.00     0.176 HD
ATOM     22  H41 UNL     1     -11.594  16.279  36.782  1.00  0.00     0.176 HD
ENDBRANCH  18  20
ENDBRANCH  15  16
ENDBRANCH   7  15
TORSDOF 3
ENDMDL
