MODEL 1
REMARK VINA RESULT: -6.991861338      0.000      0.000
REMARK  1 active torsions:
REMARK  status: ('A' for Active; 'I' for Inactive)
REMARK    1  A    between atoms: C2_2  and  N1_3 
REMARK       I    between atoms: N1_3  and  C3_5 
REMARK       I    between atoms: N3_7  and  C4_9 
REMARK       I    between atoms: C4_9  and  N4_11 
ROOT
HETATM    1  N1  UNL     1     -16.892   8.631  31.278  1.00  0.00    -0.365 N 
ATOM      2  H1  UNL     1     -17.280   8.536  30.339  1.00  0.00     0.162 HD
HETATM    3  C3  UNL     1     -17.314   9.710  32.096  1.00  0.00     0.192 C 
HETATM    4  N2  UNL     1     -18.473   9.542  32.885  1.00  0.00    -0.063 NA
HETATM    5  N3  UNL     1     -16.693  10.815  32.145  1.00  0.00    -0.283 N 
ATOM      6  H3  UNL     1     -15.856  10.933  31.574  1.00  0.00     0.173 HD
HETATM    7  C4  UNL     1     -17.122  11.902  32.971  1.00  0.00     0.325 C 
HETATM    8  O1  UNL     1     -18.316  12.305  32.836  1.00  0.00    -0.247 OA
HETATM    9  N4  UNL     1     -16.243  12.508  33.910  1.00  0.00    -0.327 N 
HETATM   10  C5  UNL     1     -14.891  11.996  34.012  1.00  0.00     0.171 C 
HETATM   11  C6  UNL     1     -14.462  11.732  35.425  1.00  0.00     0.080 C 
HETATM   12  N5  UNL     1     -14.048  12.827  36.177  1.00  0.00    -0.379 N 
ATOM     13  H5  UNL     1     -14.308  12.899  37.161  1.00  0.00     0.164 HD
HETATM   14  C7  UNL     1     -13.275  13.830  35.581  1.00  0.00     0.086 C 
HETATM   15  C8  UNL     1     -14.031  15.112  35.281  1.00  0.00     0.212 C 
HETATM   16  O2  UNL     1     -14.797  14.944  34.156  1.00  0.00    -0.385 OA
HETATM   17  C9  UNL     1     -16.143  14.931  34.347  1.00  0.00     0.188 C 
HETATM   18  C10 UNL     1     -16.722  13.588  34.710  1.00  0.00     0.154 C 
ENDROOT
BRANCH   1  19
HETATM   19  C2  UNL     1     -15.922   7.663  31.744  1.00  0.00     0.118 C 
HETATM   20  C1  UNL     1     -16.309   6.271  31.347  1.00  0.00     0.026 C 
ENDBRANCH   1  19
TORSDOF 1
ENDMDL
MODEL 2
REMARK VINA RESULT: -6.552183175      2.178      3.331
REMARK  1 active torsions:
REMARK  status: ('A' for Active; 'I' for Inactive)
REMARK    1  A    between atoms: C2_2  and  N1_3 
REMARK       I    between atoms: N1_3  and  C3_5 
REMARK       I    between atoms: N3_7  and  C4_9 
REMARK       I    between atoms: C4_9  and  N4_11 
ROOT
HETATM    1  N1  UNL     1     -15.429   8.601  31.701  1.00  0.00    -0.365 N 
ATOM      2  H1  UNL     1     -14.546   8.091  31.746  1.00  0.00     0.162 HD
HETATM    3  C3  UNL     1     -15.428  10.004  31.903  1.00  0.00     0.192 C 
HETATM    4  N2  UNL     1     -15.197  10.844  30.792  1.00  0.00    -0.063 NA
HETATM    5  N3  UNL     1     -15.626  10.531  33.040  1.00  0.00    -0.283 N 
ATOM      6  H3  UNL     1     -15.793   9.922  33.842  1.00  0.00     0.173 HD
HETATM    7  C4  UNL     1     -15.625  11.948  33.242  1.00  0.00     0.325 C 
HETATM    8  O1  UNL     1     -14.606  12.594  32.854  1.00  0.00    -0.247 OA
HETATM    9  N4  UNL     1     -16.725  12.609  33.854  1.00  0.00    -0.327 N 
HETATM   10  C5  UNL     1     -17.857  11.808  34.273  1.00  0.00     0.171 C 
HETATM   11  C6  UNL     1     -19.176  12.364  33.823  1.00  0.00     0.080 C 
HETATM   12  N5  UNL     1     -19.708  13.412  34.568  1.00  0.00    -0.379 N 
ATOM     13  H5  UNL     1     -20.176  14.188  34.097  1.00  0.00     0.164 HD
HETATM   14  C7  UNL     1     -19.600  13.402  35.963  1.00  0.00     0.086 C 
HETATM   15  C8  UNL     1     -18.562  14.359  36.520  1.00  0.00     0.212 C 
HETATM   16  O2  UNL     1     -17.309  13.828  36.355  1.00  0.00    -0.385 OA
HETATM   17  C9  UNL     1     -16.505  14.463  35.461  1.00  0.00     0.188 C 
HETATM   18  C10 UNL     1     -16.672  14.024  34.030  1.00  0.00     0.154 C 
ENDROOT
BRANCH   1  19
HETATM   19  C2  UNL     1     -16.652   7.875  31.432  1.00  0.00     0.118 C 
HETATM   20  C1  UNL     1     -16.397   6.405  31.304  1.00  0.00     0.026 C 
ENDBRANCH   1  19
TORSDOF 1
ENDMDL
MODEL 3
REMARK VINA RESULT: -6.445533814      1.110      1.163
REMARK  1 active torsions:
REMARK  status: ('A' for Active; 'I' for Inactive)
REMARK    1  A    between atoms: C2_2  and  N1_3 
REMARK       I    between atoms: N1_3  and  C3_5 
REMARK       I    between atoms: N3_7  and  C4_9 
REMARK       I    between atoms: C4_9  and  N4_11 
ROOT
HETATM    1  N1  UNL     1     -17.369   9.563  32.099  1.00  0.00    -0.365 N 
ATOM      2  H1  UNL     1     -17.832   9.447  31.197  1.00  0.00     0.162 HD
HETATM    3  C3  UNL     1     -17.586  10.750  32.842  1.00  0.00     0.192 C 
HETATM    4  N2  UNL     1     -18.698  10.806  33.711  1.00  0.00    -0.063 NA
HETATM    5  N3  UNL     1     -16.823  11.760  32.756  1.00  0.00    -0.283 N 
ATOM      6  H3  UNL     1     -16.021  11.717  32.127  1.00  0.00     0.173 HD
HETATM    7  C4  UNL     1     -17.045  12.958  33.507  1.00  0.00     0.325 C 
HETATM    8  O1  UNL     1     -18.182  13.509  33.409  1.00  0.00    -0.247 OA
HETATM    9  N4  UNL     1     -16.029  13.511  34.334  1.00  0.00    -0.327 N 
HETATM   10  C5  UNL     1     -14.753  12.828  34.399  1.00  0.00     0.171 C 
HETATM   11  C6  UNL     1     -14.262  12.620  35.801  1.00  0.00     0.080 C 
HETATM   12  N5  UNL     1     -13.655  13.705  36.427  1.00  0.00    -0.379 N 
ATOM     13  H5  UNL     1     -13.833  13.890  37.415  1.00  0.00     0.164 HD
HETATM   14  C7  UNL     1     -12.802  14.542  35.700  1.00  0.00     0.086 C 
HETATM   15  C8  UNL     1     -13.402  15.887  35.334  1.00  0.00     0.212 C 
HETATM   16  O2  UNL     1     -14.261  15.737  34.276  1.00  0.00    -0.385 OA
HETATM   17  C9  UNL     1     -15.580  15.924  34.548  1.00  0.00     0.188 C 
HETATM   18  C10 UNL     1     -16.304  14.707  35.062  1.00  0.00     0.154 C 
ENDROOT
BRANCH   1  19
HETATM   19  C2  UNL     1     -16.504   8.510  32.590  1.00  0.00     0.118 C 
HETATM   20  C1  UNL     1     -16.447   7.360  31.631  1.00  0.00     0.026 C 
ENDBRANCH   1  19
TORSDOF 1
ENDMDL
MODEL 4
REMARK VINA RESULT: -5.839081600      2.748      3.935
REMARK  1 active torsions:
REMARK  status: ('A' for Active; 'I' for Inactive)
REMARK    1  A    between atoms: C2_2  and  N1_3 
REMARK       I    between atoms: N1_3  and  C3_5 
REMARK       I    between atoms: N3_7  and  C4_9 
REMARK       I    between atoms: C4_9  and  N4_11 
ROOT
HETATM    1  N1  UNL     1     -15.783   9.218  32.682  1.00  0.00    -0.365 N 
ATOM      2  H1  UNL     1     -14.814   8.910  32.764  1.00  0.00     0.162 HD
HETATM    3  C3  UNL     1     -16.073  10.606  32.716  1.00  0.00     0.192 C 
HETATM    4  N2  UNL     1     -16.023  11.333  31.507  1.00  0.00    -0.063 NA
HETATM    5  N3  UNL     1     -16.375  11.215  33.787  1.00  0.00    -0.283 N 
ATOM      6  H3  UNL     1     -16.411  10.686  34.659  1.00  0.00     0.173 HD
HETATM    7  C4  UNL     1     -16.667  12.615  33.818  1.00  0.00     0.325 C 
HETATM    8  O1  UNL     1     -15.805  13.405  33.329  1.00  0.00    -0.247 OA
HETATM    9  N4  UNL     1     -17.880  13.105  34.376  1.00  0.00    -0.327 N 
HETATM   10  C5  UNL     1     -18.821  12.146  34.918  1.00  0.00     0.171 C 
HETATM   11  C6  UNL     1     -20.227  12.359  34.440  1.00  0.00     0.080 C 
HETATM   12  N5  UNL     1     -20.964  13.359  35.069  1.00  0.00    -0.379 N 
ATOM     13  H5  UNL     1     -21.583  13.958  34.522  1.00  0.00     0.164 HD
HETATM   14  C7  UNL     1     -20.855  13.541  36.452  1.00  0.00     0.086 C 
HETATM   15  C8  UNL     1     -20.037  14.751  36.864  1.00  0.00     0.212 C 
HETATM   16  O2  UNL     1     -18.701  14.474  36.729  1.00  0.00    -0.385 OA
HETATM   17  C9  UNL     1     -18.048  15.147  35.745  1.00  0.00     0.188 C 
HETATM   18  C10 UNL     1     -18.122  14.511  34.381  1.00  0.00     0.154 C 
ENDROOT
BRANCH   1  19
HETATM   19  C2  UNL     1     -16.830   8.229  32.534  1.00  0.00     0.118 C 
HETATM   20  C1  UNL     1     -16.385   7.090  31.669  1.00  0.00     0.026 C 
ENDBRANCH   1  19
TORSDOF 1
ENDMDL
MODEL 5
REMARK VINA RESULT: -5.681689671      1.919      6.088
REMARK  1 active torsions:
REMARK  status: ('A' for Active; 'I' for Inactive)
REMARK    1  A    between atoms: C2_2  and  N1_3 
REMARK       I    between atoms: N1_3  and  C3_5 
REMARK       I    between atoms: N3_7  and  C4_9 
REMARK       I    between atoms: C4_9  and  N4_11 
ROOT
HETATM    1  N1  UNL     1     -14.024  15.136  35.828  1.00  0.00    -0.365 N 
ATOM      2  H1  UNL     1     -14.115  15.410  36.807  1.00  0.00     0.162 HD
HETATM    3  C3  UNL     1     -15.166  14.661  35.134  1.00  0.00     0.192 C 
HETATM    4  N2  UNL     1     -16.014  15.603  34.512  1.00  0.00    -0.063 NA
HETATM    5  N3  UNL     1     -15.452  13.428  35.052  1.00  0.00    -0.283 N 
ATOM      6  H3  UNL     1     -14.837  12.750  35.502  1.00  0.00     0.173 HD
HETATM    7  C4  UNL     1     -16.605  12.952  34.351  1.00  0.00     0.325 C 
HETATM    8  O1  UNL     1     -17.731  13.437  34.675  1.00  0.00    -0.247 OA
HETATM    9  N4  UNL     1     -16.495  11.971  33.327  1.00  0.00    -0.327 N 
HETATM   10  C5  UNL     1     -15.178  11.461  33.007  1.00  0.00     0.171 C 
HETATM   11  C6  UNL     1     -14.884  11.455  31.536  1.00  0.00     0.080 C 
HETATM   12  N5  UNL     1     -15.415  10.409  30.788  1.00  0.00    -0.379 N 
ATOM     13  H5  UNL     1     -15.791  10.586  29.856  1.00  0.00     0.164 HD
HETATM   14  C7  UNL     1     -15.432   9.112  31.316  1.00  0.00     0.086 C 
HETATM   15  C8  UNL     1     -16.797   8.643  31.784  1.00  0.00     0.212 C 
HETATM   16  O2  UNL     1     -17.089   9.210  32.998  1.00  0.00    -0.385 OA
HETATM   17  C9  UNL     1     -18.095  10.126  33.001  1.00  0.00     0.188 C 
HETATM   18  C10 UNL     1     -17.677  11.532  32.658  1.00  0.00     0.154 C 
ENDROOT
BRANCH   1  19
HETATM   19  C2  UNL     1     -12.734  15.241  35.181  1.00  0.00     0.118 C 
HETATM   20  C1  UNL     1     -11.661  15.606  36.160  1.00  0.00     0.026 C 
ENDBRANCH   1  19
TORSDOF 1
ENDMDL
