MODEL 1
REMARK VINA RESULT: -5.492576262      0.000      0.000
REMARK  5 active torsions:
REMARK  status: ('A' for Active; 'I' for Inactive)
REMARK    1  A    between atoms: C1_2  and  N2_4 
REMARK    2  A    between atoms: N2_4  and  N3_6 
REMARK    3  A    between atoms: N4_11  and  C5_12 
REMARK    4  A    between atoms: C5_12  and  N5_14 
REMARK    5  A    between atoms: N5_14  and  C6_16 
ROOT
HETATM    1  N3  UNL     1     -12.677  14.724  35.101  1.00  0.00    -0.305 N 
ATOM      2  H3  UNL     1     -11.967  14.783  34.370  1.00  0.00     0.186 HD
HETATM    3  C2  UNL     1     -13.416  13.705  35.097  1.00  0.00     0.023 C 
HETATM    4  C3  UNL     1     -14.499  13.378  36.021  1.00  0.00     0.075 C 
HETATM    5  C4  UNL     1     -15.581  12.892  35.043  1.00  0.00     0.131 C 
HETATM    6  N4  UNL     1     -14.885  12.457  33.889  1.00  0.00    -0.352 N 
HETATM    7  C7  UNL     1     -13.401  12.569  34.171  1.00  0.00     0.179 C 
ENDROOT
BRANCH   1   8
HETATM    8  N2  UNL     1     -12.737  15.776  36.008  1.00  0.00    -0.279 N 
ATOM      9  H2  UNL     1     -13.609  16.299  36.097  1.00  0.00     0.189 HD
BRANCH   8  10
HETATM   10  C1  UNL     1     -11.638  16.147  36.809  1.00  0.00     0.199 C 
HETATM   11  N1  UNL     1     -10.418  15.437  36.733  1.00  0.00    -0.068 NA
HETATM   12  S1  UNL     1     -11.765  17.407  37.840  1.00  0.00    -0.043 SA
ENDBRANCH   8  10
ENDBRANCH   1   8
BRANCH   6  13
HETATM   13  C5  UNL     1     -15.278  11.978  32.645  1.00  0.00     0.176 C 
HETATM   14  S2  UNL     1     -16.921  12.296  32.281  1.00  0.00    -0.041 SA
BRANCH  13  15
HETATM   15  N5  UNL     1     -14.616  11.300  31.657  1.00  0.00    -0.311 N 
ATOM     16  H5  UNL     1     -13.918  11.855  31.162  1.00  0.00     0.170 HD
BRANCH  15  17
HETATM   17  C6  UNL     1     -14.726   9.990  31.210  1.00  0.00     0.355 C 
HETATM   18  O1  UNL     1     -15.269   9.543  30.219  1.00  0.00    -0.283 OA
ENDBRANCH  15  17
ENDBRANCH  13  15
ENDBRANCH   6  13
TORSDOF 5
ENDMDL
MODEL 2
REMARK VINA RESULT: -5.393160738      3.771      6.759
REMARK  5 active torsions:
REMARK  status: ('A' for Active; 'I' for Inactive)
REMARK    1  A    between atoms: C1_2  and  N2_4 
REMARK    2  A    between atoms: N2_4  and  N3_6 
REMARK    3  A    between atoms: N4_11  and  C5_12 
REMARK    4  A    between atoms: C5_12  and  N5_14 
REMARK    5  A    between atoms: N5_14  and  C6_16 
ROOT
HETATM    1  N3  UNL     1     -16.862  11.011  31.997  1.00  0.00    -0.305 N 
ATOM      2  H3  UNL     1     -16.116  11.347  31.387  1.00  0.00     0.186 HD
HETATM    3  C2  UNL     1     -17.601  11.881  32.527  1.00  0.00     0.023 C 
HETATM    4  C3  UNL     1     -18.728  11.671  33.432  1.00  0.00     0.075 C 
HETATM    5  C4  UNL     1     -18.456  12.749  34.493  1.00  0.00     0.131 C 
HETATM    6  N4  UNL     1     -17.672  13.734  33.845  1.00  0.00    -0.352 N 
HETATM    7  C7  UNL     1     -17.541  13.339  32.388  1.00  0.00     0.179 C 
ENDROOT
BRANCH   1   8
HETATM    8  N2  UNL     1     -16.966   9.635  32.166  1.00  0.00    -0.279 N 
ATOM      9  H2  UNL     1     -17.744   9.264  32.713  1.00  0.00     0.189 HD
BRANCH   8  10
HETATM   10  C1  UNL     1     -16.037   8.732  31.610  1.00  0.00     0.199 C 
HETATM   11  N1  UNL     1     -14.817   9.197  31.066  1.00  0.00    -0.068 NA
HETATM   12  S1  UNL     1     -16.361   7.132  31.589  1.00  0.00    -0.043 SA
ENDBRANCH   8  10
ENDBRANCH   1   8
BRANCH   6  13
HETATM   13  C5  UNL     1     -17.053  14.906  34.261  1.00  0.00     0.176 C 
HETATM   14  S2  UNL     1     -18.130  16.229  34.412  1.00  0.00    -0.041 SA
BRANCH  13  15
HETATM   15  N5  UNL     1     -15.755  15.215  34.569  1.00  0.00    -0.311 N 
ATOM     16  H5  UNL     1     -15.602  16.193  34.813  1.00  0.00     0.170 HD
BRANCH  15  17
HETATM   17  C6  UNL     1     -14.610  14.431  34.607  1.00  0.00     0.355 C 
HETATM   18  O1  UNL     1     -14.222  13.570  33.841  1.00  0.00    -0.283 OA
ENDBRANCH  15  17
ENDBRANCH  13  15
ENDBRANCH   6  13
TORSDOF 5
ENDMDL
MODEL 3
REMARK VINA RESULT: -5.376187540      3.916      6.752
REMARK  5 active torsions:
REMARK  status: ('A' for Active; 'I' for Inactive)
REMARK    1  A    between atoms: C1_2  and  N2_4 
REMARK    2  A    between atoms: N2_4  and  N3_6 
REMARK    3  A    between atoms: N4_11  and  C5_12 
REMARK    4  A    between atoms: C5_12  and  N5_14 
REMARK    5  A    between atoms: N5_14  and  C6_16 
ROOT
HETATM    1  N3  UNL     1     -15.729  10.542  33.493  1.00  0.00    -0.305 N 
ATOM      2  H3  UNL     1     -15.078  10.388  34.264  1.00  0.00     0.186 HD
HETATM    3  C2  UNL     1     -15.882  11.728  33.103  1.00  0.00     0.023 C 
HETATM    4  C3  UNL     1     -16.745  12.217  32.031  1.00  0.00     0.075 C 
HETATM    5  C4  UNL     1     -17.371  13.451  32.700  1.00  0.00     0.131 C 
HETATM    6  N4  UNL     1     -16.458  13.844  33.708  1.00  0.00    -0.352 N 
HETATM    7  C7  UNL     1     -15.242  12.946  33.609  1.00  0.00     0.179 C 
ENDROOT
BRANCH   1   8
HETATM    8  N2  UNL     1     -16.366   9.420  32.973  1.00  0.00    -0.279 N 
ATOM      9  H2  UNL     1     -17.255   9.126  33.379  1.00  0.00     0.189 HD
BRANCH   8  10
HETATM   10  C1  UNL     1     -15.829   8.674  31.904  1.00  0.00     0.199 C 
HETATM   11  N1  UNL     1     -14.807   9.214  31.089  1.00  0.00    -0.068 NA
HETATM   12  S1  UNL     1     -16.383   7.169  31.596  1.00  0.00    -0.043 SA
ENDBRANCH   8  10
ENDBRANCH   1   8
BRANCH   6  13
HETATM   13  C5  UNL     1     -16.466  14.826  34.691  1.00  0.00     0.176 C 
HETATM   14  S2  UNL     1     -17.255  14.343  36.132  1.00  0.00    -0.041 SA
BRANCH  13  15
HETATM   15  N5  UNL     1     -15.973  16.103  34.734  1.00  0.00    -0.311 N 
ATOM     16  H5  UNL     1     -16.688  16.829  34.766  1.00  0.00     0.170 HD
BRANCH  15  17
HETATM   17  C6  UNL     1     -14.670  16.584  34.741  1.00  0.00     0.355 C 
HETATM   18  O1  UNL     1     -13.633  16.046  34.404  1.00  0.00    -0.283 OA
ENDBRANCH  15  17
ENDBRANCH  13  15
ENDBRANCH   6  13
TORSDOF 5
ENDMDL
MODEL 4
REMARK VINA RESULT: -5.350766349      4.127      6.132
REMARK  5 active torsions:
REMARK  status: ('A' for Active; 'I' for Inactive)
REMARK    1  A    between atoms: C1_2  and  N2_4 
REMARK    2  A    between atoms: N2_4  and  N3_6 
REMARK    3  A    between atoms: N4_11  and  C5_12 
REMARK    4  A    between atoms: C5_12  and  N5_14 
REMARK    5  A    between atoms: N5_14  and  C6_16 
ROOT
HETATM    1  N3  UNL     1     -18.895  11.241  35.077  1.00  0.00    -0.305 N 
ATOM      2  H3  UNL     1     -18.707  10.240  35.133  1.00  0.00     0.186 HD
HETATM    3  C2  UNL     1     -18.368  11.867  34.121  1.00  0.00     0.023 C 
HETATM    4  C3  UNL     1     -18.474  13.291  33.813  1.00  0.00     0.075 C 
HETATM    5  C4  UNL     1     -17.012  13.629  33.482  1.00  0.00     0.131 C 
HETATM    6  N4  UNL     1     -16.419  12.408  33.078  1.00  0.00    -0.352 N 
HETATM    7  C7  UNL     1     -17.504  11.350  33.055  1.00  0.00     0.179 C 
ENDROOT
BRANCH   1   8
HETATM    8  N2  UNL     1     -19.709  11.786  36.063  1.00  0.00    -0.279 N 
ATOM      9  H2  UNL     1     -19.846  12.797  36.085  1.00  0.00     0.189 HD
BRANCH   8  10
HETATM   10  C1  UNL     1     -20.354  10.993  37.034  1.00  0.00     0.199 C 
HETATM   11  N1  UNL     1     -21.609  10.400  36.764  1.00  0.00    -0.068 NA
HETATM   12  S1  UNL     1     -19.653  10.750  38.489  1.00  0.00    -0.043 SA
ENDBRANCH   8  10
ENDBRANCH   1   8
BRANCH   6  13
HETATM   13  C5  UNL     1     -15.131  12.029  32.721  1.00  0.00     0.176 C 
HETATM   14  S2  UNL     1     -13.948  12.453  33.885  1.00  0.00    -0.041 SA
BRANCH  13  15
HETATM   15  N5  UNL     1     -14.620  11.389  31.624  1.00  0.00    -0.311 N 
ATOM     16  H5  UNL     1     -14.097  11.994  30.991  1.00  0.00     0.170 HD
BRANCH  15  17
HETATM   17  C6  UNL     1     -14.688  10.062  31.221  1.00  0.00     0.355 C 
HETATM   18  O1  UNL     1     -15.255   9.559  30.270  1.00  0.00    -0.283 OA
ENDBRANCH  15  17
ENDBRANCH  13  15
ENDBRANCH   6  13
TORSDOF 5
ENDMDL
MODEL 5
REMARK VINA RESULT: -5.337708815      3.595      6.725
REMARK  5 active torsions:
REMARK  status: ('A' for Active; 'I' for Inactive)
REMARK    1  A    between atoms: C1_2  and  N2_4 
REMARK    2  A    between atoms: N2_4  and  N3_6 
REMARK    3  A    between atoms: N4_11  and  C5_12 
REMARK    4  A    between atoms: C5_12  and  N5_14 
REMARK    5  A    between atoms: N5_14  and  C6_16 
ROOT
HETATM    1  N3  UNL     1     -15.406  10.400  33.407  1.00  0.00    -0.305 N 
ATOM      2  H3  UNL     1     -14.633  10.067  33.984  1.00  0.00     0.186 HD
HETATM    3  C2  UNL     1     -15.492  11.644  33.231  1.00  0.00     0.023 C 
HETATM    4  C3  UNL     1     -16.493  12.374  32.458  1.00  0.00     0.075 C 
HETATM    5  C4  UNL     1     -16.814  13.532  33.415  1.00  0.00     0.131 C 
HETATM    6  N4  UNL     1     -15.671  13.675  34.239  1.00  0.00    -0.352 N 
HETATM    7  C7  UNL     1     -14.619  12.702  33.747  1.00  0.00     0.179 C 
ENDROOT
BRANCH   1   8
HETATM    8  N2  UNL     1     -16.268   9.438  32.890  1.00  0.00    -0.279 N 
ATOM      9  H2  UNL     1     -17.150   9.260  33.370  1.00  0.00     0.189 HD
BRANCH   8  10
HETATM   10  C1  UNL     1     -15.966   8.701  31.728  1.00  0.00     0.199 C 
HETATM   11  N1  UNL     1     -15.309   9.313  30.636  1.00  0.00    -0.068 NA
HETATM   12  S1  UNL     1     -16.374   7.123  31.630  1.00  0.00    -0.043 SA
ENDBRANCH   8  10
ENDBRANCH   1   8
BRANCH   6  13
HETATM   13  C5  UNL     1     -15.357  14.481  35.326  1.00  0.00     0.176 C 
HETATM   14  S2  UNL     1     -14.730  16.012  34.881  1.00  0.00    -0.041 SA
BRANCH  13  15
HETATM   15  N5  UNL     1     -15.444  14.293  36.679  1.00  0.00    -0.311 N 
ATOM     16  H5  UNL     1     -15.655  15.139  37.209  1.00  0.00     0.170 HD
BRANCH  15  17
HETATM   17  C6  UNL     1     -15.295  13.154  37.459  1.00  0.00     0.355 C 
HETATM   18  O1  UNL     1     -14.392  12.341  37.496  1.00  0.00    -0.283 OA
ENDBRANCH  15  17
ENDBRANCH  13  15
ENDBRANCH   6  13
TORSDOF 5
ENDMDL
