MODEL 1
REMARK VINA RESULT: -6.217365118      0.000      0.000
REMARK  6 active torsions:
REMARK  status: ('A' for Active; 'I' for Inactive)
REMARK    1  A    between atoms: C2_2  and  S1_3 
REMARK    2  A    between atoms: S1_3  and  N1_4 
REMARK    3  A    between atoms: S1_3  and  N2_8 
REMARK    4  A    between atoms: C3_10  and  N3_11 
REMARK    5  A    between atoms: C3_10  and  C9_18 
REMARK    6  A    between atoms: N3_11  and  C4_13 
ROOT
HETATM    1  N2  UNL     1      49.758  49.426  36.627  1.00  0.00    -0.290 N 
ATOM      2  H2  UNL     1      50.094  48.688  37.246  1.00  0.00     0.178 HD
HETATM    3  C3  UNL     1      48.481  49.543  36.528  1.00  0.00     0.092 C 
ENDROOT
BRANCH   3   4
HETATM    4  N3  UNL     1      47.746  48.597  37.323  1.00  0.00    -0.374 N 
ATOM      5  H3  UNL     1      47.523  47.688  36.916  1.00  0.00     0.161 HD
BRANCH   4   6
HETATM    6  C4  UNL     1      47.313  48.871  38.659  1.00  0.00     0.082 C 
HETATM    7  C5  UNL     1      48.237  49.740  39.449  1.00  0.00     0.025 C 
HETATM    8  C6  UNL     1      48.245  49.225  40.868  1.00  0.00     0.002 C 
HETATM    9  C7  UNL     1      47.446  47.967  40.901  1.00  0.00     0.002 C 
HETATM   10  C8  UNL     1      47.300  47.591  39.463  1.00  0.00     0.025 C 
ENDBRANCH   4   6
ENDBRANCH   3   4
BRANCH   3  11
HETATM   11  C9  UNL     1      47.838  50.548  35.684  1.00  0.00     0.086 A 
HETATM   12  C10 UNL     1      46.330  50.645  35.888  1.00  0.00     0.048 A 
HETATM   13  C11 UNL     1      46.945  50.306  34.576  1.00  0.00     0.087 A 
HETATM   14 BR1  UNL     1      46.703  51.751  33.269  1.00  0.00    -0.072 Br
HETATM   15 BR2  UNL     1      46.661  48.605  33.753  1.00  0.00    -0.072 Br
ENDBRANCH   3  11
BRANCH   1  16
HETATM   16  S1  UNL     1      50.948  50.349  35.852  1.00  0.00     0.105 S 
HETATM   17  O1  UNL     1      50.913  51.818  36.208  1.00  0.00    -0.229 OA
BRANCH  16  18
HETATM   18  C2  UNL     1      50.781  50.255  34.083  1.00  0.00     0.135 C 
HETATM   19  C1  UNL     1      50.666  48.851  33.593  1.00  0.00     0.021 C 
ENDBRANCH  16  18
BRANCH  16  20
HETATM   20  N1  UNL     1      52.399  49.882  36.249  1.00  0.00    -0.345 N 
ATOM     21  H12 UNL     1      53.254  50.165  35.769  1.00  0.00     0.167 HD
ATOM     22  H11 UNL     1      52.334  49.259  37.054  1.00  0.00     0.167 HD
ENDBRANCH  16  20
ENDBRANCH   1  16
TORSDOF 6
ENDMDL
MODEL 2
REMARK VINA RESULT: -5.874718720      1.173      1.231
REMARK  6 active torsions:
REMARK  status: ('A' for Active; 'I' for Inactive)
REMARK    1  A    between atoms: C2_2  and  S1_3 
REMARK    2  A    between atoms: S1_3  and  N1_4 
REMARK    3  A    between atoms: S1_3  and  N2_8 
REMARK    4  A    between atoms: C3_10  and  N3_11 
REMARK    5  A    between atoms: C3_10  and  C9_18 
REMARK    6  A    between atoms: N3_11  and  C4_13 
ROOT
HETATM    1  N2  UNL     1      49.629  49.270  36.404  1.00  0.00    -0.290 N 
ATOM      2  H2  UNL     1      49.992  48.517  36.989  1.00  0.00     0.178 HD
HETATM    3  C3  UNL     1      48.356  49.448  36.438  1.00  0.00     0.092 C 
ENDROOT
BRANCH   3   4
HETATM    4  N3  UNL     1      47.664  48.540  37.311  1.00  0.00    -0.374 N 
ATOM      5  H3  UNL     1      47.428  47.612  36.959  1.00  0.00     0.161 HD
BRANCH   4   6
HETATM    6  C4  UNL     1      47.290  48.878  38.650  1.00  0.00     0.082 C 
HETATM    7  C5  UNL     1      48.274  49.736  39.376  1.00  0.00     0.025 C 
HETATM    8  C6  UNL     1      48.313  49.271  40.812  1.00  0.00     0.002 C 
HETATM    9  C7  UNL     1      47.467  48.049  40.918  1.00  0.00     0.002 C 
HETATM   10  C8  UNL     1      47.255  47.629  39.501  1.00  0.00     0.025 C 
ENDBRANCH   4   6
ENDBRANCH   3   4
BRANCH   3  11
HETATM   11  C9  UNL     1      47.679  50.483  35.660  1.00  0.00     0.086 A 
HETATM   12  C10 UNL     1      46.200  50.637  36.002  1.00  0.00     0.048 A 
HETATM   13  C11 UNL     1      46.679  50.283  34.638  1.00  0.00     0.087 A 
HETATM   14 BR1  UNL     1      46.375  51.745  33.363  1.00  0.00    -0.072 Br
HETATM   15 BR2  UNL     1      46.255  48.599  33.839  1.00  0.00    -0.072 Br
ENDBRANCH   3  11
BRANCH   1  16
HETATM   16  S1  UNL     1      50.775  50.133  35.504  1.00  0.00     0.105 S 
HETATM   17  O1  UNL     1      50.246  50.677  34.197  1.00  0.00    -0.229 OA
BRANCH  16  18
HETATM   18  C2  UNL     1      52.171  49.109  35.094  1.00  0.00     0.135 C 
HETATM   19  C1  UNL     1      53.420  49.538  35.788  1.00  0.00     0.021 C 
ENDBRANCH  16  18
BRANCH  16  20
HETATM   20  N1  UNL     1      51.291  51.403  36.281  1.00  0.00    -0.345 N 
ATOM     21  H12 UNL     1      51.388  51.467  37.295  1.00  0.00     0.167 HD
ATOM     22  H11 UNL     1      51.506  52.135  35.604  1.00  0.00     0.167 HD
ENDBRANCH  16  20
ENDBRANCH   1  16
TORSDOF 6
ENDMDL
MODEL 3
REMARK VINA RESULT: -5.826693854      2.314      5.075
REMARK  6 active torsions:
REMARK  status: ('A' for Active; 'I' for Inactive)
REMARK    1  A    between atoms: C2_2  and  S1_3 
REMARK    2  A    between atoms: S1_3  and  N1_4 
REMARK    3  A    between atoms: S1_3  and  N2_8 
REMARK    4  A    between atoms: C3_10  and  N3_11 
REMARK    5  A    between atoms: C3_10  and  C9_18 
REMARK    6  A    between atoms: N3_11  and  C4_13 
ROOT
HETATM    1  N2  UNL     1      49.143  49.452  37.290  1.00  0.00    -0.290 N 
ATOM      2  H2  UNL     1      50.061  49.325  37.715  1.00  0.00     0.178 HD
HETATM    3  C3  UNL     1      49.126  50.032  36.143  1.00  0.00     0.092 C 
ENDROOT
BRANCH   3   4
HETATM    4  N3  UNL     1      50.428  50.401  35.658  1.00  0.00    -0.374 N 
ATOM      5  H3  UNL     1      50.535  51.297  35.183  1.00  0.00     0.161 HD
BRANCH   4   6
HETATM    6  C4  UNL     1      51.582  49.568  35.811  1.00  0.00     0.082 C 
HETATM    7  C5  UNL     1      52.862  50.307  36.024  1.00  0.00     0.025 C 
HETATM    8  C6  UNL     1      53.945  49.567  35.276  1.00  0.00     0.002 C 
HETATM    9  C7  UNL     1      53.298  48.473  34.500  1.00  0.00     0.002 C 
HETATM   10  C8  UNL     1      51.846  48.820  34.523  1.00  0.00     0.025 C 
ENDBRANCH   4   6
ENDBRANCH   3   4
BRANCH   3  11
HETATM   11  C9  UNL     1      47.894  50.289  35.401  1.00  0.00     0.086 A 
HETATM   12  C10 UNL     1      47.449  49.121  34.527  1.00  0.00     0.048 A 
HETATM   13  C11 UNL     1      47.762  50.467  33.975  1.00  0.00     0.087 A 
HETATM   14 BR1  UNL     1      46.149  51.371  33.314  1.00  0.00    -0.072 Br
HETATM   15 BR2  UNL     1      49.220  50.734  32.767  1.00  0.00    -0.072 Br
ENDBRANCH   3  11
BRANCH   1  16
HETATM   16  S1  UNL     1      47.823  48.875  38.182  1.00  0.00     0.105 S 
HETATM   17  O1  UNL     1      46.514  49.557  37.851  1.00  0.00    -0.229 OA
BRANCH  16  18
HETATM   18  C2  UNL     1      48.081  49.101  39.928  1.00  0.00     0.135 C 
HETATM   19  C1  UNL     1      47.219  48.207  40.753  1.00  0.00     0.021 C 
ENDBRANCH  16  18
BRANCH  16  20
HETATM   20  N1  UNL     1      47.553  47.348  37.903  1.00  0.00    -0.345 N 
ATOM     21  H12 UNL     1      46.629  46.931  37.787  1.00  0.00     0.167 HD
ATOM     22  H11 UNL     1      48.448  46.861  37.860  1.00  0.00     0.167 HD
ENDBRANCH  16  20
ENDBRANCH   1  16
TORSDOF 6
ENDMDL
MODEL 4
REMARK VINA RESULT: -5.748299313      2.578      5.469
REMARK  6 active torsions:
REMARK  status: ('A' for Active; 'I' for Inactive)
REMARK    1  A    between atoms: C2_2  and  S1_3 
REMARK    2  A    between atoms: S1_3  and  N1_4 
REMARK    3  A    between atoms: S1_3  and  N2_8 
REMARK    4  A    between atoms: C3_10  and  N3_11 
REMARK    5  A    between atoms: C3_10  and  C9_18 
REMARK    6  A    between atoms: N3_11  and  C4_13 
ROOT
HETATM    1  N2  UNL     1      47.390  50.278  36.845  1.00  0.00    -0.290 N 
ATOM      2  H2  UNL     1      46.536  50.797  37.049  1.00  0.00     0.178 HD
HETATM    3  C3  UNL     1      47.786  50.301  35.622  1.00  0.00     0.092 C 
ENDROOT
BRANCH   3   4
HETATM    4  N3  UNL     1      46.940  51.067  34.749  1.00  0.00    -0.374 N 
ATOM      5  H3  UNL     1      47.236  52.008  34.486  1.00  0.00     0.161 HD
BRANCH   4   6
HETATM    6  C4  UNL     1      45.701  50.572  34.231  1.00  0.00     0.082 C 
HETATM    7  C5  UNL     1      45.746  49.159  33.750  1.00  0.00     0.025 C 
HETATM    8  C6  UNL     1      44.884  49.071  32.514  1.00  0.00     0.002 C 
HETATM    9  C7  UNL     1      44.439  50.451  32.169  1.00  0.00     0.002 C 
HETATM   10  C8  UNL     1      45.331  51.333  32.978  1.00  0.00     0.025 C 
ENDBRANCH   4   6
ENDBRANCH   3   4
BRANCH   3  11
HETATM   11  C9  UNL     1      48.990  49.609  35.164  1.00  0.00     0.086 A 
HETATM   12  C10 UNL     1      50.232  50.494  35.137  1.00  0.00     0.048 A 
HETATM   13  C11 UNL     1      49.693  49.823  33.923  1.00  0.00     0.087 A 
HETATM   14 BR1  UNL     1      50.888  48.397  33.294  1.00  0.00    -0.072 Br
HETATM   15 BR2  UNL     1      49.020  50.832  32.445  1.00  0.00    -0.072 Br
ENDBRANCH   3  11
BRANCH   1  16
HETATM   16  S1  UNL     1      48.114  49.490  38.157  1.00  0.00     0.105 S 
HETATM   17  O1  UNL     1      49.163  48.475  37.761  1.00  0.00    -0.229 OA
BRANCH  16  18
HETATM   18  C2  UNL     1      46.905  48.612  39.124  1.00  0.00     0.135 C 
HETATM   19  C1  UNL     1      47.437  48.180  40.449  1.00  0.00     0.021 C 
ENDBRANCH  16  18
BRANCH  16  20
HETATM   20  N1  UNL     1      48.876  50.499  39.096  1.00  0.00    -0.345 N 
ATOM     21  H12 UNL     1      48.429  51.222  39.660  1.00  0.00     0.167 HD
ATOM     22  H11 UNL     1      49.876  50.305  39.041  1.00  0.00     0.167 HD
ENDBRANCH  16  20
ENDBRANCH   1  16
TORSDOF 6
ENDMDL
MODEL 5
REMARK VINA RESULT: -5.743661797      3.333      5.578
REMARK  6 active torsions:
REMARK  status: ('A' for Active; 'I' for Inactive)
REMARK    1  A    between atoms: C2_2  and  S1_3 
REMARK    2  A    between atoms: S1_3  and  N1_4 
REMARK    3  A    between atoms: S1_3  and  N2_8 
REMARK    4  A    between atoms: C3_10  and  N3_11 
REMARK    5  A    between atoms: C3_10  and  C9_18 
REMARK    6  A    between atoms: N3_11  and  C4_13 
ROOT
HETATM    1  N2  UNL     1      47.135  48.737  35.023  1.00  0.00    -0.290 N 
ATOM      2  H2  UNL     1      47.374  47.806  35.365  1.00  0.00     0.178 HD
HETATM    3  C3  UNL     1      46.653  48.796  33.832  1.00  0.00     0.092 C 
ENDROOT
BRANCH   3   4
HETATM    4  N3  UNL     1      46.535  47.517  33.188  1.00  0.00    -0.374 N 
ATOM      5  H3  UNL     1      45.603  47.162  32.975  1.00  0.00     0.161 HD
BRANCH   4   6
HETATM    6  C4  UNL     1      47.667  46.717  32.830  1.00  0.00     0.082 C 
HETATM    7  C5  UNL     1      47.957  46.665  31.365  1.00  0.00     0.025 C 
HETATM    8  C6  UNL     1      48.411  45.262  31.041  1.00  0.00     0.002 C 
HETATM    9  C7  UNL     1      48.257  44.436  32.272  1.00  0.00     0.002 C 
HETATM   10  C8  UNL     1      47.393  45.267  33.161  1.00  0.00     0.025 C 
ENDBRANCH   4   6
ENDBRANCH   3   4
BRANCH   3  11
HETATM   11  C9  UNL     1      46.261  50.051  33.195  1.00  0.00     0.086 A 
HETATM   12  C10 UNL     1      44.763  50.330  33.261  1.00  0.00     0.048 A 
HETATM   13  C11 UNL     1      45.503  50.205  31.976  1.00  0.00     0.087 A 
HETATM   14 BR1  UNL     1      45.622  51.926  31.040  1.00  0.00    -0.072 Br
HETATM   15 BR2  UNL     1      45.123  48.796  30.742  1.00  0.00    -0.072 Br
ENDBRANCH   3  11
BRANCH   1  16
HETATM   16  S1  UNL     1      47.421  50.019  36.091  1.00  0.00     0.105 S 
HETATM   17  O1  UNL     1      48.274  51.124  35.510  1.00  0.00    -0.229 OA
BRANCH  16  18
HETATM   18  C2  UNL     1      48.258  49.457  37.558  1.00  0.00     0.135 C 
HETATM   19  C1  UNL     1      47.337  48.789  38.522  1.00  0.00     0.021 C 
ENDBRANCH  16  18
BRANCH  16  20
HETATM   20  N1  UNL     1      46.084  50.735  36.516  1.00  0.00    -0.345 N 
ATOM     21  H12 UNL     1      45.320  50.289  37.024  1.00  0.00     0.167 HD
ATOM     22  H11 UNL     1      46.117  51.704  36.200  1.00  0.00     0.167 HD
ENDBRANCH  16  20
ENDBRANCH   1  16
TORSDOF 6
ENDMDL
