MODEL 1
REMARK VINA RESULT: -8.292833103      0.000      0.000
REMARK  5 active torsions:
REMARK  status: ('A' for Active; 'I' for Inactive)
REMARK       I    between atoms: C1_2  and  N1_3 
REMARK    1  A    between atoms: C1_2  and  C8_13 
REMARK    2  A    between atoms: N1_3  and  C2_5 
REMARK    3  A    between atoms: C2_5  and  C3_6 
REMARK       I    between atoms: C3_6  and  N2_8 
REMARK       I    between atoms: C8_13  and  N3_15 
REMARK    4  A    between atoms: C12_19  and  C13_20 
REMARK    5  A    between atoms: C13_20  and  C14_21 
ROOT
HETATM    1  C8  UNL     1      51.556  50.709  34.243  1.00  0.00     0.311 C 
HETATM    2  O3  UNL     1      51.215  51.390  33.197  1.00  0.00    -0.262 OA
HETATM    3  N3  UNL     1      52.889  50.659  34.653  1.00  0.00    -0.344 N 
HETATM    4  C9  UNL     1      53.882  51.421  33.873  1.00  0.00     0.126 C 
HETATM    5  C10 UNL     1      54.637  52.218  34.914  1.00  0.00     0.020 C 
HETATM    6  C11 UNL     1      55.445  51.253  35.739  1.00  0.00     0.008 C 
HETATM    7  C12 UNL     1      54.789  49.970  36.083  1.00  0.00     0.004 C 
HETATM    8  C21 UNL     1      53.329  49.916  35.779  1.00  0.00     0.130 C 
ENDROOT
BRANCH   1   9
HETATM    9  C1  UNL     1      50.512  49.998  34.979  1.00  0.00     0.309 C 
HETATM   10  O1  UNL     1      50.152  48.826  34.768  1.00  0.00    -0.262 OA
HETATM   11  N1  UNL     1      49.810  50.671  36.053  1.00  0.00    -0.344 N 
ATOM     12  H1  UNL     1      50.060  51.636  36.270  1.00  0.00     0.163 HD
BRANCH  11  13
HETATM   13  C2  UNL     1      48.789  50.045  36.816  1.00  0.00     0.226 C 
BRANCH  13  14
HETATM   14  C3  UNL     1      48.799  50.347  38.265  1.00  0.00     0.237 C 
HETATM   15  O2  UNL     1      49.179  51.455  38.727  1.00  0.00    -0.272 OA
HETATM   16  N2  UNL     1      48.366  49.355  39.175  1.00  0.00    -0.351 N 
HETATM   17  C4  UNL     1      48.318  49.499  40.611  1.00  0.00     0.126 C 
HETATM   18  C7  UNL     1      47.901  48.038  38.828  1.00  0.00     0.126 C 
HETATM   19  C5  UNL     1      47.375  48.421  41.109  1.00  0.00     0.021 C 
HETATM   20  C6  UNL     1      46.781  47.838  39.854  1.00  0.00     0.021 C 
ENDBRANCH  13  14
ENDBRANCH  11  13
ENDBRANCH   1   9
BRANCH   7  21
HETATM   21  C13 UNL     1      55.604  48.847  35.497  1.00  0.00     0.011 C 
BRANCH  21  22
HETATM   22  C14 UNL     1      54.904  47.553  35.321  1.00  0.00    -0.014 C 
HETATM   23  C15 UNL     1      55.011  47.206  33.826  1.00  0.00     0.005 C 
HETATM   24  C16 UNL     1      54.590  45.807  33.555  1.00  0.00     0.006 C 
HETATM   25  C17 UNL     1      55.535  44.742  33.892  1.00  0.00     0.079 C 
HETATM   26  C18 UNL     1      56.883  45.155  34.377  1.00  0.00     0.243 C 
HETATM   27  F1  UNL     1      57.686  45.677  33.354  1.00  0.00    -0.206 F 
HETATM   28  F2  UNL     1      57.543  43.967  34.739  1.00  0.00    -0.206 F 
HETATM   29  C19 UNL     1      56.864  46.024  35.586  1.00  0.00     0.079 C 
HETATM   30  C20 UNL     1      55.507  46.406  36.069  1.00  0.00     0.010 C 
ENDBRANCH  21  22
ENDBRANCH   7  21
TORSDOF 5
ENDMDL
MODEL 2
REMARK VINA RESULT: -8.212365717      2.695      3.364
REMARK  5 active torsions:
REMARK  status: ('A' for Active; 'I' for Inactive)
REMARK       I    between atoms: C1_2  and  N1_3 
REMARK    1  A    between atoms: C1_2  and  C8_13 
REMARK    2  A    between atoms: N1_3  and  C2_5 
REMARK    3  A    between atoms: C2_5  and  C3_6 
REMARK       I    between atoms: C3_6  and  N2_8 
REMARK       I    between atoms: C8_13  and  N3_15 
REMARK    4  A    between atoms: C12_19  and  C13_20 
REMARK    5  A    between atoms: C13_20  and  C14_21 
ROOT
HETATM    1  C8  UNL     1      53.149  51.822  35.194  1.00  0.00     0.311 C 
HETATM    2  O3  UNL     1      52.866  53.041  34.868  1.00  0.00    -0.262 OA
HETATM    3  N3  UNL     1      54.458  51.347  35.094  1.00  0.00    -0.344 N 
HETATM    4  C9  UNL     1      55.500  52.283  34.630  1.00  0.00     0.126 C 
HETATM    5  C10 UNL     1      56.598  52.156  35.663  1.00  0.00     0.020 C 
HETATM    6  C11 UNL     1      57.209  50.788  35.522  1.00  0.00     0.008 C 
HETATM    7  C12 UNL     1      56.272  49.671  35.257  1.00  0.00     0.004 C 
HETATM    8  C21 UNL     1      54.830  50.017  35.418  1.00  0.00     0.130 C 
ENDROOT
BRANCH   1   9
HETATM    9  C1  UNL     1      52.068  50.961  35.668  1.00  0.00     0.309 C 
HETATM   10  O1  UNL     1      51.940  50.539  36.832  1.00  0.00    -0.262 OA
HETATM   11  N1  UNL     1      51.036  50.535  34.746  1.00  0.00    -0.344 N 
ATOM     12  H1  UNL     1      51.089  50.846  33.775  1.00  0.00     0.163 HD
BRANCH  11  13
HETATM   13  C2  UNL     1      49.952  49.703  35.134  1.00  0.00     0.226 C 
BRANCH  13  14
HETATM   14  C3  UNL     1      48.705  50.411  35.500  1.00  0.00     0.237 C 
HETATM   15  O2  UNL     1      48.692  51.442  36.222  1.00  0.00    -0.272 OA
HETATM   16  N2  UNL     1      47.469  49.914  35.023  1.00  0.00    -0.351 N 
HETATM   17  C4  UNL     1      46.173  50.491  35.292  1.00  0.00     0.126 C 
HETATM   18  C7  UNL     1      47.293  48.753  34.190  1.00  0.00     0.126 C 
HETATM   19  C5  UNL     1      45.241  49.943  34.229  1.00  0.00     0.021 C 
HETATM   20  C6  UNL     1      46.151  49.212  33.278  1.00  0.00     0.021 C 
ENDBRANCH  13  14
ENDBRANCH  11  13
ENDBRANCH   1   9
BRANCH   7  21
HETATM   21  C13 UNL     1      56.635  49.050  33.934  1.00  0.00     0.011 C 
BRANCH  21  22
HETATM   22  C14 UNL     1      57.572  47.903  33.985  1.00  0.00    -0.014 C 
HETATM   23  C15 UNL     1      57.886  47.672  35.474  1.00  0.00     0.005 C 
HETATM   24  C16 UNL     1      58.598  46.386  35.692  1.00  0.00     0.006 C 
HETATM   25  C17 UNL     1      57.801  45.159  35.647  1.00  0.00     0.079 C 
HETATM   26  C18 UNL     1      56.325  45.310  35.495  1.00  0.00     0.243 C 
HETATM   27  F1  UNL     1      55.710  45.783  36.662  1.00  0.00    -0.206 F 
HETATM   28  F2  UNL     1      55.817  44.006  35.361  1.00  0.00    -0.206 F 
HETATM   29  C19 UNL     1      55.903  46.065  34.283  1.00  0.00     0.079 C 
HETATM   30  C20 UNL     1      57.018  46.616  33.461  1.00  0.00     0.010 C 
ENDBRANCH  21  22
ENDBRANCH   7  21
TORSDOF 5
ENDMDL
MODEL 3
REMARK VINA RESULT: -8.053115125      1.663      2.149
REMARK  5 active torsions:
REMARK  status: ('A' for Active; 'I' for Inactive)
REMARK       I    between atoms: C1_2  and  N1_3 
REMARK    1  A    between atoms: C1_2  and  C8_13 
REMARK    2  A    between atoms: N1_3  and  C2_5 
REMARK    3  A    between atoms: C2_5  and  C3_6 
REMARK       I    between atoms: C3_6  and  N2_8 
REMARK       I    between atoms: C8_13  and  N3_15 
REMARK    4  A    between atoms: C12_19  and  C13_20 
REMARK    5  A    between atoms: C13_20  and  C14_21 
ROOT
HETATM    1  C8  UNL     1      52.369  50.883  35.359  1.00  0.00     0.311 C 
HETATM    2  O3  UNL     1      52.285  52.108  34.951  1.00  0.00    -0.262 OA
HETATM    3  N3  UNL     1      53.553  50.162  35.197  1.00  0.00    -0.344 N 
HETATM    4  C9  UNL     1      54.701  50.846  34.572  1.00  0.00     0.126 C 
HETATM    5  C10 UNL     1      55.849  50.585  35.522  1.00  0.00     0.020 C 
HETATM    6  C11 UNL     1      56.182  49.119  35.453  1.00  0.00     0.008 C 
HETATM    7  C12 UNL     1      55.035  48.186  35.362  1.00  0.00     0.004 C 
HETATM    8  C21 UNL     1      53.703  48.811  35.605  1.00  0.00     0.130 C 
ENDROOT
BRANCH   1   9
HETATM    9  C1  UNL     1      51.198  50.280  35.991  1.00  0.00     0.309 C 
HETATM   10  O1  UNL     1      51.031  49.063  36.188  1.00  0.00    -0.262 OA
HETATM   11  N1  UNL     1      50.113  51.128  36.442  1.00  0.00    -0.344 N 
ATOM     12  H1  UNL     1      50.190  52.135  36.303  1.00  0.00     0.163 HD
BRANCH  11  13
HETATM   13  C2  UNL     1      48.946  50.615  37.069  1.00  0.00     0.226 C 
BRANCH  13  14
HETATM   14  C3  UNL     1      48.944  50.660  38.548  1.00  0.00     0.237 C 
HETATM   15  O2  UNL     1      49.365  51.651  39.200  1.00  0.00    -0.272 OA
HETATM   16  N2  UNL     1      48.451  49.546  39.267  1.00  0.00    -0.351 N 
HETATM   17  C4  UNL     1      48.384  49.441  40.705  1.00  0.00     0.126 C 
HETATM   18  C7  UNL     1      47.933  48.334  38.690  1.00  0.00     0.126 C 
HETATM   19  C5  UNL     1      47.385  48.338  40.999  1.00  0.00     0.021 C 
HETATM   20  C6  UNL     1      46.787  48.012  39.656  1.00  0.00     0.021 C 
ENDBRANCH  13  14
ENDBRANCH  11  13
ENDBRANCH   1   9
BRANCH   7  21
HETATM   21  C13 UNL     1      55.151  47.414  34.074  1.00  0.00     0.011 C 
BRANCH  21  22
HETATM   22  C14 UNL     1      54.377  46.153  33.995  1.00  0.00    -0.014 C 
HETATM   23  C15 UNL     1      53.375  46.337  32.841  1.00  0.00     0.005 C 
HETATM   24  C16 UNL     1      52.720  45.055  32.473  1.00  0.00     0.006 C 
HETATM   25  C17 UNL     1      53.497  44.105  31.676  1.00  0.00     0.079 C 
HETATM   26  C18 UNL     1      54.841  44.550  31.207  1.00  0.00     0.243 C 
HETATM   27  F1  UNL     1      54.765  45.500  30.180  1.00  0.00    -0.206 F 
HETATM   28  F2  UNL     1      55.418  43.432  30.578  1.00  0.00    -0.206 F 
HETATM   29  C19 UNL     1      55.770  44.960  32.295  1.00  0.00     0.079 C 
HETATM   30  C20 UNL     1      55.186  44.939  33.666  1.00  0.00     0.010 C 
ENDBRANCH  21  22
ENDBRANCH   7  21
TORSDOF 5
ENDMDL
MODEL 4
REMARK VINA RESULT: -8.047054956      2.227      3.341
REMARK  5 active torsions:
REMARK  status: ('A' for Active; 'I' for Inactive)
REMARK       I    between atoms: C1_2  and  N1_3 
REMARK    1  A    between atoms: C1_2  and  C8_13 
REMARK    2  A    between atoms: N1_3  and  C2_5 
REMARK    3  A    between atoms: C2_5  and  C3_6 
REMARK       I    between atoms: C3_6  and  N2_8 
REMARK       I    between atoms: C8_13  and  N3_15 
REMARK    4  A    between atoms: C12_19  and  C13_20 
REMARK    5  A    between atoms: C13_20  and  C14_21 
ROOT
HETATM    1  C8  UNL     1      53.697  51.787  34.961  1.00  0.00     0.311 C 
HETATM    2  O3  UNL     1      53.454  53.005  34.597  1.00  0.00    -0.262 OA
HETATM    3  N3  UNL     1      54.998  51.283  34.926  1.00  0.00    -0.344 N 
HETATM    4  C9  UNL     1      56.078  52.186  34.487  1.00  0.00     0.126 C 
HETATM    5  C10 UNL     1      57.129  52.058  35.569  1.00  0.00     0.020 C 
HETATM    6  C11 UNL     1      57.715  50.675  35.483  1.00  0.00     0.008 C 
HETATM    7  C12 UNL     1      56.766  49.573  35.202  1.00  0.00     0.004 C 
HETATM    8  C21 UNL     1      55.326  49.952  35.294  1.00  0.00     0.130 C 
ENDROOT
BRANCH   1   9
HETATM    9  C1  UNL     1      52.578  50.960  35.407  1.00  0.00     0.309 C 
HETATM   10  O1  UNL     1      52.280  50.730  36.593  1.00  0.00    -0.262 OA
HETATM   11  N1  UNL     1      51.715  50.334  34.426  1.00  0.00    -0.344 N 
ATOM     12  H1  UNL     1      51.913  50.482  33.436  1.00  0.00     0.163 HD
BRANCH  11  13
HETATM   13  C2  UNL     1      50.607  49.521  34.783  1.00  0.00     0.226 C 
BRANCH  13  14
HETATM   14  C3  UNL     1      49.290  49.991  34.299  1.00  0.00     0.237 C 
HETATM   15  O2  UNL     1      49.026  50.139  33.077  1.00  0.00    -0.272 OA
HETATM   16  N2  UNL     1      48.279  50.289  35.243  1.00  0.00    -0.351 N 
HETATM   17  C4  UNL     1      46.949  50.754  34.927  1.00  0.00     0.126 C 
HETATM   18  C7  UNL     1      48.402  50.179  36.672  1.00  0.00     0.126 C 
HETATM   19  C5  UNL     1      46.106  50.480  36.158  1.00  0.00     0.021 C 
HETATM   20  C6  UNL     1      47.007  49.671  37.052  1.00  0.00     0.021 C 
ENDBRANCH  13  14
ENDBRANCH  11  13
ENDBRANCH   1   9
BRANCH   7  21
HETATM   21  C13 UNL     1      57.170  48.915  33.909  1.00  0.00     0.011 C 
BRANCH  21  22
HETATM   22  C14 UNL     1      57.978  47.678  34.030  1.00  0.00    -0.014 C 
HETATM   23  C15 UNL     1      58.179  47.442  35.537  1.00  0.00     0.005 C 
HETATM   24  C16 UNL     1      58.739  46.093  35.812  1.00  0.00     0.006 C 
HETATM   25  C17 UNL     1      57.822  44.955  35.734  1.00  0.00     0.079 C 
HETATM   26  C18 UNL     1      56.382  45.255  35.493  1.00  0.00     0.243 C 
HETATM   27  F1  UNL     1      55.753  45.810  36.616  1.00  0.00    -0.206 F 
HETATM   28  F2  UNL     1      55.748  44.008  35.344  1.00  0.00    -0.206 F 
HETATM   29  C19 UNL     1      56.112  46.028  34.249  1.00  0.00     0.079 C 
HETATM   30  C20 UNL     1      57.324  46.446  33.489  1.00  0.00     0.010 C 
ENDBRANCH  21  22
ENDBRANCH   7  21
TORSDOF 5
ENDMDL
MODEL 5
REMARK VINA RESULT: -7.949602378      2.236      3.071
REMARK  5 active torsions:
REMARK  status: ('A' for Active; 'I' for Inactive)
REMARK       I    between atoms: C1_2  and  N1_3 
REMARK    1  A    between atoms: C1_2  and  C8_13 
REMARK    2  A    between atoms: N1_3  and  C2_5 
REMARK    3  A    between atoms: C2_5  and  C3_6 
REMARK       I    between atoms: C3_6  and  N2_8 
REMARK       I    between atoms: C8_13  and  N3_15 
REMARK    4  A    between atoms: C12_19  and  C13_20 
REMARK    5  A    between atoms: C13_20  and  C14_21 
ROOT
HETATM    1  C8  UNL     1      51.338  50.597  33.959  1.00  0.00     0.311 C 
HETATM    2  O3  UNL     1      51.092  51.377  32.957  1.00  0.00    -0.262 OA
HETATM    3  N3  UNL     1      52.610  50.559  34.533  1.00  0.00    -0.344 N 
HETATM    4  C9  UNL     1      53.647  51.447  33.975  1.00  0.00     0.126 C 
HETATM    5  C10 UNL     1      54.219  52.152  35.185  1.00  0.00     0.020 C 
HETATM    6  C11 UNL     1      54.971  51.135  36.001  1.00  0.00     0.008 C 
HETATM    7  C12 UNL     1      54.352  49.794  36.116  1.00  0.00     0.004 C 
HETATM    8  C21 UNL     1      52.947  49.712  35.620  1.00  0.00     0.130 C 
ENDROOT
BRANCH   1   9
HETATM    9  C1  UNL     1      50.253  49.764  34.473  1.00  0.00     0.309 C 
HETATM   10  O1  UNL     1      50.061  48.569  34.180  1.00  0.00    -0.262 OA
HETATM   11  N1  UNL     1      49.295  50.329  35.401  1.00  0.00    -0.344 N 
ATOM     12  H1  UNL     1      49.398  51.306  35.675  1.00  0.00     0.163 HD
BRANCH  11  13
HETATM   13  C2  UNL     1      48.218  49.580  35.946  1.00  0.00     0.226 C 
BRANCH  13  14
HETATM   14  C3  UNL     1      46.864  50.059  35.590  1.00  0.00     0.237 C 
HETATM   15  O2  UNL     1      46.310  51.029  36.170  1.00  0.00    -0.272 OA
HETATM   16  N2  UNL     1      46.155  49.405  34.555  1.00  0.00    -0.351 N 
HETATM   17  C4  UNL     1      44.832  49.755  34.095  1.00  0.00     0.126 C 
HETATM   18  C7  UNL     1      46.629  48.284  33.787  1.00  0.00     0.126 C 
HETATM   19  C5  UNL     1      44.688  49.134  32.719  1.00  0.00     0.021 C 
HETATM   20  C6  UNL     1      46.066  48.615  32.401  1.00  0.00     0.021 C 
ENDBRANCH  13  14
ENDBRANCH  11  13
ENDBRANCH   1   9
BRANCH   7  21
HETATM   21  C13 UNL     1      55.297  48.782  35.525  1.00  0.00     0.011 C 
BRANCH  21  22
HETATM   22  C14 UNL     1      54.763  47.410  35.355  1.00  0.00    -0.014 C 
HETATM   23  C15 UNL     1      54.871  47.091  33.854  1.00  0.00     0.005 C 
HETATM   24  C16 UNL     1      54.624  45.651  33.579  1.00  0.00     0.006 C 
HETATM   25  C17 UNL     1      55.707  44.713  33.879  1.00  0.00     0.079 C 
HETATM   26  C18 UNL     1      57.004  45.292  34.332  1.00  0.00     0.243 C 
HETATM   27  F1  UNL     1      57.705  45.919  33.293  1.00  0.00    -0.206 F 
HETATM   28  F2  UNL     1      57.820  44.195  34.663  1.00  0.00    -0.206 F 
HETATM   29  C19 UNL     1      56.909  46.142  35.550  1.00  0.00     0.079 C 
HETATM   30  C20 UNL     1      55.529  46.344  36.074  1.00  0.00     0.010 C 
ENDBRANCH  21  22
ENDBRANCH   7  21
TORSDOF 5
ENDMDL
