MODEL 1
REMARK VINA RESULT: -7.451600151      0.000      0.000
REMARK  6 active torsions:
REMARK  status: ('A' for Active; 'I' for Inactive)
REMARK    1  A    between atoms: S1_2  and  N1_5 
REMARK    2  A    between atoms: N1_5  and  C2_6 
REMARK    3  A    between atoms: N1_5  and  C5_13 
REMARK    4  A    between atoms: C2_6  and  C3_7 
REMARK    5  A    between atoms: C3_7  and  C4_8 
REMARK    6  A    between atoms: C4_8  and  N2_9 
REMARK       I    between atoms: N3_16  and  C8_17 
ROOT
HETATM    1  C5  UNL     1      15.554 -25.397 -20.233  1.00  0.00     0.086 C 
HETATM    2  C6  UNL     1      15.419 -26.516 -21.254  1.00  0.00     0.041 C 
HETATM    3  C7  UNL     1      14.236 -27.340 -20.876  1.00  0.00     0.127 C 
HETATM    4  N3  UNL     1      13.277 -26.744 -20.013  1.00  0.00    -0.355 N 
HETATM    5  C8  UNL     1      12.211 -27.591 -19.593  1.00  0.00     0.183 C 
HETATM    6  N4  UNL     1      11.011 -27.180 -19.405  1.00  0.00    -0.374 N 
ATOM      7  H41 UNL     1      10.248 -27.786 -19.105  1.00  0.00     0.158 HD
ATOM      8  H42 UNL     1      10.838 -26.188 -19.572  1.00  0.00     0.158 HD
HETATM    9  N5  UNL     1      12.452 -28.972 -19.361  1.00  0.00    -0.064 NA
HETATM   10  C9  UNL     1      13.291 -25.400 -19.534  1.00  0.00     0.137 C 
HETATM   11  C10 UNL     1      14.356 -24.558 -20.287  1.00  0.00     0.000 C 
HETATM   12  C11 UNL     1      13.701 -24.323 -21.619  1.00  0.00    -0.002 C 
HETATM   13  C12 UNL     1      14.326 -23.256 -22.473  1.00  0.00     0.010 C 
HETATM   14  C13 UNL     1      14.616 -21.984 -21.775  1.00  0.00    -0.014 C 
HETATM   15  C14 UNL     1      13.497 -20.991 -21.884  1.00  0.00     0.005 C 
HETATM   16  C15 UNL     1      12.194 -21.413 -21.386  1.00  0.00     0.005 C 
HETATM   17  C16 UNL     1      12.112 -22.650 -20.583  1.00  0.00    -0.014 C 
HETATM   18  C17 UNL     1      12.253 -23.880 -21.448  1.00  0.00     0.010 C 
HETATM   19  C18 UNL     1      12.958 -22.695 -19.359  1.00  0.00     0.010 C 
HETATM   20  C19 UNL     1      14.379 -23.228 -19.598  1.00  0.00    -0.002 C 
HETATM   21  C20 UNL     1      15.068 -22.127 -20.355  1.00  0.00     0.010 C 
ENDROOT
BRANCH   1  22
HETATM   22  N1  UNL     1      16.884 -24.860 -20.105  1.00  0.00    -0.205 NA
BRANCH  22  23
HETATM   23  S1  UNL     1      17.755 -25.812 -18.890  1.00  0.00     0.208 S 
HETATM   24  C1  UNL     1      17.332 -27.487 -18.880  1.00  0.00     0.180 C 
HETATM   25  O1  UNL     1      19.204 -25.661 -19.214  1.00  0.00    -0.212 OA
HETATM   26  O2  UNL     1      17.613 -25.134 -17.541  1.00  0.00    -0.212 OA
ENDBRANCH  22  23
BRANCH  22  27
HETATM   27  C2  UNL     1      17.636 -24.892 -21.333  1.00  0.00     0.109 C 
BRANCH  27  28
HETATM   28  C3  UNL     1      18.202 -23.688 -21.913  1.00  0.00     0.043 C 
BRANCH  28  29
HETATM   29  C4  UNL     1      18.596 -22.570 -20.985  1.00  0.00     0.230 C 
BRANCH  29  30
HETATM   30  N2  UNL     1      19.695 -22.902 -20.129  1.00  0.00    -0.079 N 
ATOM     31  H23 UNL     1      19.923 -22.121 -19.513  1.00  0.00     0.274 HD
ATOM     32  H22 UNL     1      19.415 -23.592 -19.432  1.00  0.00     0.274 HD
ATOM     33  H21 UNL     1      20.522 -23.216 -20.636  1.00  0.00     0.274 HD
ENDBRANCH  29  30
ENDBRANCH  28  29
ENDBRANCH  27  28
ENDBRANCH  22  27
ENDBRANCH   1  22
TORSDOF 6
ENDMDL
MODEL 2
REMARK VINA RESULT: -7.417048732      3.925      6.798
REMARK  6 active torsions:
REMARK  status: ('A' for Active; 'I' for Inactive)
REMARK    1  A    between atoms: S1_2  and  N1_5 
REMARK    2  A    between atoms: N1_5  and  C2_6 
REMARK    3  A    between atoms: N1_5  and  C5_13 
REMARK    4  A    between atoms: C2_6  and  C3_7 
REMARK    5  A    between atoms: C3_7  and  C4_8 
REMARK    6  A    between atoms: C4_8  and  N2_9 
REMARK       I    between atoms: N3_16  and  C8_17 
ROOT
HETATM    1  C5  UNL     1      15.471 -20.477 -20.438  1.00  0.00     0.086 C 
HETATM    2  C6  UNL     1      16.073 -19.919 -21.719  1.00  0.00     0.041 C 
HETATM    3  C7  UNL     1      17.553 -20.083 -21.638  1.00  0.00     0.127 C 
HETATM    4  N3  UNL     1      18.052 -21.037 -20.710  1.00  0.00    -0.355 N 
HETATM    5  C8  UNL     1      19.470 -21.098 -20.587  1.00  0.00     0.183 C 
HETATM    6  N4  UNL     1      20.117 -22.184 -20.372  1.00  0.00    -0.374 N 
ATOM      7  H41 UNL     1      21.132 -22.228 -20.284  1.00  0.00     0.158 HD
ATOM      8  H42 UNL     1      19.562 -23.036 -20.289  1.00  0.00     0.158 HD
HETATM    9  N5  UNL     1      20.243 -19.911 -20.703  1.00  0.00    -0.064 NA
HETATM   10  C9  UNL     1      17.273 -21.917 -19.902  1.00  0.00     0.137 C 
HETATM   11  C10 UNL     1      15.786 -21.903 -20.347  1.00  0.00     0.000 C 
HETATM   12  C11 UNL     1      15.818 -22.715 -21.611  1.00  0.00    -0.002 C 
HETATM   13  C12 UNL     1      14.483 -23.177 -22.123  1.00  0.00     0.010 C 
HETATM   14  C13 UNL     1      13.598 -23.786 -21.105  1.00  0.00    -0.014 C 
HETATM   15  C14 UNL     1      13.742 -25.276 -21.024  1.00  0.00     0.005 C 
HETATM   16  C15 UNL     1      15.074 -25.792 -20.730  1.00  0.00     0.005 C 
HETATM   17  C16 UNL     1      16.114 -24.844 -20.279  1.00  0.00    -0.014 C 
HETATM   18  C17 UNL     1      16.621 -23.996 -21.420  1.00  0.00     0.010 C 
HETATM   19  C18 UNL     1      15.795 -24.054 -19.059  1.00  0.00     0.010 C 
HETATM   20  C19 UNL     1      15.055 -22.737 -19.340  1.00  0.00    -0.002 C 
HETATM   21  C20 UNL     1      13.672 -23.165 -19.746  1.00  0.00     0.010 C 
ENDROOT
BRANCH   1  22
HETATM   22  N1  UNL     1      14.183 -19.933 -20.096  1.00  0.00    -0.205 NA
BRANCH  22  23
HETATM   23  S1  UNL     1      14.432 -18.382 -19.275  1.00  0.00     0.208 S 
HETATM   24  C1  UNL     1      14.132 -17.006 -20.274  1.00  0.00     0.180 C 
HETATM   25  O1  UNL     1      13.490 -18.377 -18.116  1.00  0.00    -0.212 OA
HETATM   26  O2  UNL     1      15.802 -18.385 -18.627  1.00  0.00    -0.212 OA
ENDBRANCH  22  23
BRANCH  22  27
HETATM   27  C2  UNL     1      13.332 -19.712 -21.238  1.00  0.00     0.109 C 
BRANCH  27  28
HETATM   28  C3  UNL     1      11.974 -20.222 -21.289  1.00  0.00     0.043 C 
BRANCH  28  29
HETATM   29  C4  UNL     1      10.939 -19.576 -20.407  1.00  0.00     0.230 C 
BRANCH  29  30
HETATM   30  N2  UNL     1      11.060 -19.943 -19.027  1.00  0.00    -0.079 N 
ATOM     31  H23 UNL     1      10.299 -20.564 -18.750  1.00  0.00     0.274 HD
ATOM     32  H22 UNL     1      11.851 -20.571 -18.887  1.00  0.00     0.274 HD
ATOM     33  H21 UNL     1      11.119 -19.141 -18.400  1.00  0.00     0.274 HD
ENDBRANCH  29  30
ENDBRANCH  28  29
ENDBRANCH  27  28
ENDBRANCH  22  27
ENDBRANCH   1  22
TORSDOF 6
ENDMDL
MODEL 3
REMARK VINA RESULT: -7.410869321      3.421      6.648
REMARK  6 active torsions:
REMARK  status: ('A' for Active; 'I' for Inactive)
REMARK    1  A    between atoms: S1_2  and  N1_5 
REMARK    2  A    between atoms: N1_5  and  C2_6 
REMARK    3  A    between atoms: N1_5  and  C5_13 
REMARK    4  A    between atoms: C2_6  and  C3_7 
REMARK    5  A    between atoms: C3_7  and  C4_8 
REMARK    6  A    between atoms: C4_8  and  N2_9 
REMARK       I    between atoms: N3_16  and  C8_17 
ROOT
HETATM    1  C5  UNL     1      16.876 -22.702 -21.430  1.00  0.00     0.086 C 
HETATM    2  C6  UNL     1      17.519 -22.710 -22.809  1.00  0.00     0.041 C 
HETATM    3  C7  UNL     1      18.984 -22.499 -22.631  1.00  0.00     0.127 C 
HETATM    4  N3  UNL     1      19.528 -22.766 -21.346  1.00  0.00    -0.355 N 
HETATM    5  C8  UNL     1      20.911 -22.461 -21.183  1.00  0.00     0.183 C 
HETATM    6  N4  UNL     1      21.707 -23.149 -20.451  1.00  0.00    -0.374 N 
ATOM      7  H41 UNL     1      22.696 -22.931 -20.334  1.00  0.00     0.158 HD
ATOM      8  H42 UNL     1      21.304 -23.953 -19.970  1.00  0.00     0.158 HD
HETATM    9  N5  UNL     1      21.472 -21.340 -21.853  1.00  0.00    -0.064 NA
HETATM   10  C9  UNL     1      18.825 -23.296 -20.223  1.00  0.00     0.137 C 
HETATM   11  C10 UNL     1      17.422 -23.809 -20.645  1.00  0.00     0.000 C 
HETATM   12  C11 UNL     1      17.746 -25.098 -21.347  1.00  0.00    -0.002 C 
HETATM   13  C12 UNL     1      16.582 -26.018 -21.590  1.00  0.00     0.010 C 
HETATM   14  C13 UNL     1      15.703 -26.239 -20.421  1.00  0.00    -0.014 C 
HETATM   15  C14 UNL     1      16.095 -27.441 -19.615  1.00  0.00     0.005 C 
HETATM   16  C15 UNL     1      17.451 -27.460 -19.082  1.00  0.00     0.005 C 
HETATM   17  C16 UNL     1      18.248 -26.218 -19.136  1.00  0.00    -0.014 C 
HETATM   18  C17 UNL     1      18.731 -25.931 -20.537  1.00  0.00     0.010 C 
HETATM   19  C18 UNL     1      17.653 -25.029 -18.467  1.00  0.00     0.010 C 
HETATM   20  C19 UNL     1      16.734 -24.195 -19.372  1.00  0.00    -0.002 C 
HETATM   21  C20 UNL     1      15.504 -25.045 -19.540  1.00  0.00     0.010 C 
ENDROOT
BRANCH   1  22
HETATM   22  N1  UNL     1      15.481 -22.346 -21.423  1.00  0.00    -0.205 NA
BRANCH  22  23
HETATM   23  S1  UNL     1      15.356 -20.578 -21.400  1.00  0.00     0.208 S 
HETATM   24  C1  UNL     1      16.857 -19.776 -21.109  1.00  0.00     0.180 C 
HETATM   25  O1  UNL     1      14.828 -20.188 -22.740  1.00  0.00    -0.212 OA
HETATM   26  O2  UNL     1      14.249 -20.178 -20.444  1.00  0.00    -0.212 OA
ENDBRANCH  22  23
BRANCH  22  27
HETATM   27  C2  UNL     1      14.757 -22.838 -22.568  1.00  0.00     0.109 C 
BRANCH  27  28
HETATM   28  C3  UNL     1      13.589 -23.688 -22.425  1.00  0.00     0.043 C 
BRANCH  28  29
HETATM   29  C4  UNL     1      12.475 -23.220 -21.527  1.00  0.00     0.230 C 
BRANCH  29  30
HETATM   30  N2  UNL     1      12.163 -21.831 -21.685  1.00  0.00    -0.079 N 
ATOM     31  H23 UNL     1      12.895 -21.353 -22.212  1.00  0.00     0.274 HD
ATOM     32  H22 UNL     1      11.383 -21.706 -22.330  1.00  0.00     0.274 HD
ATOM     33  H21 UNL     1      11.983 -21.354 -20.803  1.00  0.00     0.274 HD
ENDBRANCH  29  30
ENDBRANCH  28  29
ENDBRANCH  27  28
ENDBRANCH  22  27
ENDBRANCH   1  22
TORSDOF 6
ENDMDL
MODEL 4
REMARK VINA RESULT: -7.327271037      2.670      5.332
REMARK  6 active torsions:
REMARK  status: ('A' for Active; 'I' for Inactive)
REMARK    1  A    between atoms: S1_2  and  N1_5 
REMARK    2  A    between atoms: N1_5  and  C2_6 
REMARK    3  A    between atoms: N1_5  and  C5_13 
REMARK    4  A    between atoms: C2_6  and  C3_7 
REMARK    5  A    between atoms: C3_7  and  C4_8 
REMARK    6  A    between atoms: C4_8  and  N2_9 
REMARK       I    between atoms: N3_16  and  C8_17 
ROOT
HETATM    1  C5  UNL     1      17.194 -22.496 -20.582  1.00  0.00     0.086 C 
HETATM    2  C6  UNL     1      17.396 -21.542 -19.416  1.00  0.00     0.041 C 
HETATM    3  C7  UNL     1      17.139 -20.157 -19.908  1.00  0.00     0.127 C 
HETATM    4  N3  UNL     1      16.385 -20.022 -21.105  1.00  0.00    -0.355 N 
HETATM    5  C8  UNL     1      16.241 -18.694 -21.600  1.00  0.00     0.183 C 
HETATM    6  N4  UNL     1      15.185 -18.267 -22.188  1.00  0.00    -0.374 N 
ATOM      7  H41 UNL     1      15.082 -17.316 -22.542  1.00  0.00     0.158 HD
ATOM      8  H42 UNL     1      14.421 -18.935 -22.294  1.00  0.00     0.158 HD
HETATM    9  N5  UNL     1      17.306 -17.764 -21.452  1.00  0.00    -0.064 NA
HETATM   10  C9  UNL     1      15.776 -21.080 -21.844  1.00  0.00     0.137 C 
HETATM   11  C10 UNL     1      15.806 -22.405 -21.036  1.00  0.00     0.000 C 
HETATM   12  C11 UNL     1      14.727 -22.185 -20.013  1.00  0.00    -0.002 C 
HETATM   13  C12 UNL     1      14.267 -23.413 -19.276  1.00  0.00     0.010 C 
HETATM   14  C13 UNL     1      13.978 -24.585 -20.132  1.00  0.00    -0.014 C 
HETATM   15  C14 UNL     1      12.539 -24.664 -20.545  1.00  0.00     0.005 C 
HETATM   16  C15 UNL     1      12.001 -23.520 -21.271  1.00  0.00     0.005 C 
HETATM   17  C16 UNL     1      12.941 -22.498 -21.776  1.00  0.00    -0.014 C 
HETATM   18  C17 UNL     1      13.464 -21.629 -20.658  1.00  0.00     0.010 C 
HETATM   19  C18 UNL     1      14.011 -22.987 -22.687  1.00  0.00     0.010 C 
HETATM   20  C19 UNL     1      15.284 -23.456 -21.966  1.00  0.00    -0.002 C 
HETATM   21  C20 UNL     1      14.885 -24.751 -21.311  1.00  0.00     0.010 C 
ENDROOT
BRANCH   1  22
HETATM   22  N1  UNL     1      17.902 -23.745 -20.463  1.00  0.00    -0.205 NA
BRANCH  22  23
HETATM   23  S1  UNL     1      19.411 -23.620 -21.383  1.00  0.00     0.208 S 
HETATM   24  C1  UNL     1      20.295 -22.168 -21.081  1.00  0.00     0.180 C 
HETATM   25  O1  UNL     1      20.232 -24.801 -20.983  1.00  0.00    -0.212 OA
HETATM   26  O2  UNL     1      19.114 -23.867 -22.849  1.00  0.00    -0.212 OA
ENDBRANCH  22  23
BRANCH  22  27
HETATM   27  C2  UNL     1      18.225 -24.094 -19.103  1.00  0.00     0.109 C 
BRANCH  27  28
HETATM   28  C3  UNL     1      17.545 -25.172 -18.409  1.00  0.00     0.043 C 
BRANCH  28  29
HETATM   29  C4  UNL     1      17.914 -26.588 -18.762  1.00  0.00     0.230 C 
BRANCH  29  30
HETATM   30  N2  UNL     1      17.950 -26.830 -20.174  1.00  0.00    -0.079 N 
ATOM     31  H23 UNL     1      17.165 -27.416 -20.461  1.00  0.00     0.274 HD
ATOM     32  H22 UNL     1      17.727 -25.981 -20.693  1.00  0.00     0.274 HD
ATOM     33  H21 UNL     1      18.834 -27.228 -20.493  1.00  0.00     0.274 HD
ENDBRANCH  29  30
ENDBRANCH  28  29
ENDBRANCH  27  28
ENDBRANCH  22  27
ENDBRANCH   1  22
TORSDOF 6
ENDMDL
MODEL 5
REMARK VINA RESULT: -7.293678959      3.494      5.230
REMARK  6 active torsions:
REMARK  status: ('A' for Active; 'I' for Inactive)
REMARK    1  A    between atoms: S1_2  and  N1_5 
REMARK    2  A    between atoms: N1_5  and  C2_6 
REMARK    3  A    between atoms: N1_5  and  C5_13 
REMARK    4  A    between atoms: C2_6  and  C3_7 
REMARK    5  A    between atoms: C3_7  and  C4_8 
REMARK    6  A    between atoms: C4_8  and  N2_9 
REMARK       I    between atoms: N3_16  and  C8_17 
ROOT
HETATM    1  C5  UNL     1      16.538 -22.251 -21.085  1.00  0.00     0.086 C 
HETATM    2  C6  UNL     1      17.295 -22.162 -19.769  1.00  0.00     0.041 C 
HETATM    3  C7  UNL     1      16.894 -20.893 -19.096  1.00  0.00     0.127 C 
HETATM    4  N3  UNL     1      15.678 -20.290 -19.516  1.00  0.00    -0.355 N 
HETATM    5  C8  UNL     1      15.373 -19.030 -18.925  1.00  0.00     0.183 C 
HETATM    6  N4  UNL     1      14.183 -18.650 -18.640  1.00  0.00    -0.374 N 
ATOM      7  H41 UNL     1      13.965 -17.748 -18.216  1.00  0.00     0.158 HD
ATOM      8  H42 UNL     1      13.431 -19.303 -18.859  1.00  0.00     0.158 HD
HETATM    9  N5  UNL     1      16.421 -18.120 -18.620  1.00  0.00    -0.064 NA
HETATM   10  C9  UNL     1      14.754 -20.822 -20.466  1.00  0.00     0.137 C 
HETATM   11  C10 UNL     1      15.103 -22.296 -20.806  1.00  0.00     0.000 C 
HETATM   12  C11 UNL     1      14.630 -23.032 -19.584  1.00  0.00    -0.002 C 
HETATM   13  C12 UNL     1      14.516 -24.524 -19.725  1.00  0.00     0.010 C 
HETATM   14  C13 UNL     1      13.818 -24.987 -20.945  1.00  0.00    -0.014 C 
HETATM   15  C14 UNL     1      12.349 -25.198 -20.731  1.00  0.00     0.005 C 
HETATM   16  C15 UNL     1      11.581 -24.051 -20.263  1.00  0.00     0.005 C 
HETATM   17  C16 UNL     1      12.220 -22.719 -20.283  1.00  0.00    -0.014 C 
HETATM   18  C17 UNL     1      13.235 -22.577 -19.175  1.00  0.00     0.010 C 
HETATM   19  C18 UNL     1      12.726 -22.255 -21.604  1.00  0.00     0.010 C 
HETATM   20  C19 UNL     1      14.169 -22.687 -21.909  1.00  0.00    -0.002 C 
HETATM   21  C20 UNL     1      14.068 -24.165 -22.171  1.00  0.00     0.010 C 
ENDROOT
BRANCH   1  22
HETATM   22  N1  UNL     1      17.171 -23.073 -22.084  1.00  0.00    -0.205 NA
BRANCH  22  23
HETATM   23  S1  UNL     1      17.885 -22.011 -23.310  1.00  0.00     0.208 S 
HETATM   24  C1  UNL     1      19.459 -22.498 -23.827  1.00  0.00     0.180 C 
HETATM   25  O1  UNL     1      16.945 -22.036 -24.470  1.00  0.00    -0.212 OA
HETATM   26  O2  UNL     1      17.814 -20.578 -22.819  1.00  0.00    -0.212 OA
ENDBRANCH  22  23
BRANCH  22  27
HETATM   27  C2  UNL     1      18.210 -23.920 -21.556  1.00  0.00     0.109 C 
BRANCH  27  28
HETATM   28  C3  UNL     1      17.969 -25.315 -21.238  1.00  0.00     0.043 C 
BRANCH  28  29
HETATM   29  C4  UNL     1      19.146 -26.255 -21.230  1.00  0.00     0.230 C 
BRANCH  29  30
HETATM   30  N2  UNL     1      20.269 -25.753 -20.496  1.00  0.00    -0.079 N 
ATOM     31  H23 UNL     1      20.248 -24.734 -20.455  1.00  0.00     0.274 HD
ATOM     32  H22 UNL     1      20.176 -25.965 -19.503  1.00  0.00     0.274 HD
ATOM     33  H21 UNL     1      21.165 -26.083 -20.854  1.00  0.00     0.274 HD
ENDBRANCH  29  30
ENDBRANCH  28  29
ENDBRANCH  27  28
ENDBRANCH  22  27
ENDBRANCH   1  22
TORSDOF 6
ENDMDL
