MODEL 1
REMARK VINA RESULT: -9.037496307      0.000      0.000
REMARK  7 active torsions:
REMARK  status: ('A' for Active; 'I' for Inactive)
REMARK    1  A    between atoms: C2_2  and  C3_3 
REMARK    2  A    between atoms: C3_3  and  C4_4 
REMARK    3  A    between atoms: C4_4  and  C5_5 
REMARK       I    between atoms: N1_15  and  C15_16 
REMARK    4  A    between atoms: C15_16  and  C16_18 
REMARK    5  A    between atoms: C16_18  and  C17_19 
REMARK    6  A    between atoms: C17_19  and  C18_20 
REMARK    7  A    between atoms: C20_23  and  C21_24 
ROOT
HETATM    1  C5  UNL     1      12.918 -26.320 -19.927  1.00  0.00     0.043 C 
HETATM    2  C6  UNL     1      12.284 -27.598 -19.646  1.00  0.00    -0.021 C 
HETATM    3  C7  UNL     1      12.861 -28.932 -19.772  1.00  0.00    -0.029 C 
HETATM    4  C8  UNL     1      14.044 -29.398 -19.001  1.00  0.00     0.038 C 
HETATM    5  C9  UNL     1      15.428 -28.964 -19.600  1.00  0.00     0.084 C 
HETATM    6  C10 UNL     1      15.168 -27.722 -20.196  1.00  0.00    -0.173 C 
HETATM    7  C11 UNL     1      15.304 -26.494 -20.870  1.00  0.00     0.087 C 
HETATM    8  C12 UNL     1      16.119 -25.472 -20.129  1.00  0.00     0.030 C 
HETATM    9  C13 UNL     1      16.544 -24.385 -21.031  1.00  0.00     0.046 C 
HETATM   10  C14 UNL     1      17.923 -23.864 -20.835  1.00  0.00     0.134 C 
HETATM   11  N1  UNL     1      17.805 -22.485 -21.247  1.00  0.00    -0.345 N 
HETATM   12  C15 UNL     1      18.934 -21.595 -21.519  1.00  0.00     0.243 C 
HETATM   13  O1  UNL     1      18.660 -20.430 -21.867  1.00  0.00    -0.268 OA
HETATM   14  C19 UNL     1      16.432 -22.072 -21.362  1.00  0.00     0.169 C 
HETATM   15  C20 UNL     1      15.604 -23.214 -20.808  1.00  0.00     0.143 C 
HETATM   16  N3  UNL     1      14.413 -23.472 -21.546  1.00  0.00    -0.336 N 
ATOM     17  H3  UNL     1      13.996 -22.670 -22.020  1.00  0.00     0.164 HD
HETATM   18  C22 UNL     1      13.726 -24.734 -21.704  1.00  0.00     0.246 C 
HETATM   19  O4  UNL     1      12.859 -24.612 -22.645  1.00  0.00    -0.268 OA
HETATM   20  C23 UNL     1      13.820 -26.021 -21.049  1.00  0.00     0.010 C 
ENDROOT
BRANCH  12  21
HETATM   21  C16 UNL     1      20.269 -22.077 -21.381  1.00  0.00     0.075 C 
BRANCH  21  22
HETATM   22  C17 UNL     1      21.434 -21.642 -21.635  1.00  0.00     0.020 C 
BRANCH  22  23
HETATM   23  C18 UNL     1      22.066 -21.128 -22.830  1.00  0.00     0.100 C 
HETATM   24  N2  UNL     1      21.909 -19.781 -23.150  1.00  0.00    -0.115 NA
ENDBRANCH  22  23
ENDBRANCH  21  22
ENDBRANCH  12  21
BRANCH  15  25
HETATM   25  C21 UNL     1      15.374 -22.942 -19.374  1.00  0.00     0.204 C 
HETATM   26  O2  UNL     1      16.292 -22.858 -18.525  1.00  0.00    -0.646 OA
HETATM   27  O3  UNL     1      14.078 -22.771 -18.944  1.00  0.00    -0.646 OA
ENDBRANCH  15  25
BRANCH   1  28
HETATM   28  C4  UNL     1      11.750 -25.311 -20.134  1.00  0.00     0.013 C 
BRANCH  28  29
HETATM   29  C3  UNL     1      10.424 -26.017 -20.143  1.00  0.00     0.001 C 
BRANCH  29  30
HETATM   30  C2  UNL     1       9.330 -25.060 -20.567  1.00  0.00    -0.005 C 
HETATM   31  C1  UNL     1       9.868 -23.718 -20.987  1.00  0.00     0.005 C 
ENDBRANCH  29  30
ENDBRANCH  28  29
ENDBRANCH   1  28
TORSDOF 7
ENDMDL
MODEL 2
REMARK VINA RESULT: -8.910137004      2.782      3.915
REMARK  7 active torsions:
REMARK  status: ('A' for Active; 'I' for Inactive)
REMARK    1  A    between atoms: C2_2  and  C3_3 
REMARK    2  A    between atoms: C3_3  and  C4_4 
REMARK    3  A    between atoms: C4_4  and  C5_5 
REMARK       I    between atoms: N1_15  and  C15_16 
REMARK    4  A    between atoms: C15_16  and  C16_18 
REMARK    5  A    between atoms: C16_18  and  C17_19 
REMARK    6  A    between atoms: C17_19  and  C18_20 
REMARK    7  A    between atoms: C20_23  and  C21_24 
ROOT
HETATM    1  C5  UNL     1      11.919 -24.371 -20.494  1.00  0.00     0.043 C 
HETATM    2  C6  UNL     1      10.516 -24.746 -20.420  1.00  0.00    -0.021 C 
HETATM    3  C7  UNL     1       9.939 -26.083 -20.514  1.00  0.00    -0.029 C 
HETATM    4  C8  UNL     1      10.239 -27.184 -19.561  1.00  0.00     0.038 C 
HETATM    5  C9  UNL     1      11.571 -27.959 -19.855  1.00  0.00     0.084 C 
HETATM    6  C10 UNL     1      12.416 -26.988 -20.411  1.00  0.00    -0.173 C 
HETATM    7  C11 UNL     1      13.524 -26.324 -20.969  1.00  0.00     0.087 C 
HETATM    8  C12 UNL     1      14.679 -26.153 -20.024  1.00  0.00     0.030 C 
HETATM    9  C13 UNL     1      15.913 -25.817 -20.758  1.00  0.00     0.046 C 
HETATM   10  C14 UNL     1      17.167 -26.450 -20.268  1.00  0.00     0.134 C 
HETATM   11  N1  UNL     1      18.173 -25.472 -20.609  1.00  0.00    -0.345 N 
HETATM   12  C15 UNL     1      19.615 -25.720 -20.604  1.00  0.00     0.243 C 
HETATM   13  O1  UNL     1      20.350 -24.766 -20.924  1.00  0.00    -0.268 OA
HETATM   14  C19 UNL     1      17.594 -24.203 -20.960  1.00  0.00     0.169 C 
HETATM   15  C20 UNL     1      16.116 -24.316 -20.647  1.00  0.00     0.143 C 
HETATM   16  N3  UNL     1      15.274 -23.697 -21.616  1.00  0.00    -0.336 N 
ATOM     17  H3  UNL     1      15.671 -22.898 -22.110  1.00  0.00     0.164 HD
HETATM   18  C22 UNL     1      13.924 -24.066 -21.981  1.00  0.00     0.246 C 
HETATM   19  O4  UNL     1      13.609 -23.445 -23.062  1.00  0.00    -0.268 OA
HETATM   20  C23 UNL     1      12.928 -24.940 -21.400  1.00  0.00     0.010 C 
ENDROOT
BRANCH  12  21
HETATM   21  C16 UNL     1      20.114 -27.005 -20.242  1.00  0.00     0.075 C 
BRANCH  21  22
HETATM   22  C17 UNL     1      20.276 -27.660 -19.166  1.00  0.00     0.020 C 
BRANCH  22  23
HETATM   23  C18 UNL     1      21.387 -28.399 -18.609  1.00  0.00     0.100 C 
HETATM   24  N2  UNL     1      22.233 -29.096 -19.469  1.00  0.00    -0.115 NA
ENDBRANCH  22  23
ENDBRANCH  21  22
ENDBRANCH  12  21
BRANCH  15  25
HETATM   25  C21 UNL     1      15.913 -23.821 -19.271  1.00  0.00     0.204 C 
HETATM   26  O2  UNL     1      16.555 -24.237 -18.279  1.00  0.00    -0.646 OA
HETATM   27  O3  UNL     1      14.964 -22.846 -19.063  1.00  0.00    -0.646 OA
ENDBRANCH  15  25
BRANCH   1  28
HETATM   28  C4  UNL     1      11.929 -22.858 -20.859  1.00  0.00     0.013 C 
BRANCH  28  29
HETATM   29  C3  UNL     1      10.641 -22.199 -20.453  1.00  0.00     0.001 C 
BRANCH  29  30
HETATM   30  C2  UNL     1      10.886 -21.250 -19.299  1.00  0.00    -0.005 C 
HETATM   31  C1  UNL     1      12.221 -20.562 -19.390  1.00  0.00     0.005 C 
ENDBRANCH  29  30
ENDBRANCH  28  29
ENDBRANCH   1  28
TORSDOF 7
ENDMDL
MODEL 3
REMARK VINA RESULT: -8.619258957      0.903      1.150
REMARK  7 active torsions:
REMARK  status: ('A' for Active; 'I' for Inactive)
REMARK    1  A    between atoms: C2_2  and  C3_3 
REMARK    2  A    between atoms: C3_3  and  C4_4 
REMARK    3  A    between atoms: C4_4  and  C5_5 
REMARK       I    between atoms: N1_15  and  C15_16 
REMARK    4  A    between atoms: C15_16  and  C16_18 
REMARK    5  A    between atoms: C16_18  and  C17_19 
REMARK    6  A    between atoms: C17_19  and  C18_20 
REMARK    7  A    between atoms: C20_23  and  C21_24 
ROOT
HETATM    1  C5  UNL     1      13.156 -25.565 -20.284  1.00  0.00     0.043 C 
HETATM    2  C6  UNL     1      12.465 -26.831 -20.097  1.00  0.00    -0.021 C 
HETATM    3  C7  UNL     1      12.995 -28.178 -20.280  1.00  0.00    -0.029 C 
HETATM    4  C8  UNL     1      14.133 -28.733 -19.501  1.00  0.00     0.038 C 
HETATM    5  C9  UNL     1      15.552 -28.321 -20.030  1.00  0.00     0.084 C 
HETATM    6  C10 UNL     1      15.359 -27.038 -20.562  1.00  0.00    -0.173 C 
HETATM    7  C11 UNL     1      15.565 -25.782 -21.159  1.00  0.00     0.087 C 
HETATM    8  C12 UNL     1      16.392 -24.836 -20.336  1.00  0.00     0.030 C 
HETATM    9  C13 UNL     1      16.888 -23.718 -21.161  1.00  0.00     0.046 C 
HETATM   10  C14 UNL     1      18.278 -23.263 -20.891  1.00  0.00     0.134 C 
HETATM   11  N1  UNL     1      18.227 -21.860 -21.227  1.00  0.00    -0.345 N 
HETATM   12  C15 UNL     1      19.398 -21.002 -21.412  1.00  0.00     0.243 C 
HETATM   13  O1  UNL     1      19.180 -19.809 -21.701  1.00  0.00    -0.268 OA
HETATM   14  C19 UNL     1      16.875 -21.387 -21.362  1.00  0.00     0.169 C 
HETATM   15  C20 UNL     1      15.987 -22.524 -20.900  1.00  0.00     0.143 C 
HETATM   16  N3  UNL     1      14.813 -22.693 -21.690  1.00  0.00    -0.336 N 
ATOM     17  H3  UNL     1      14.443 -21.850 -22.130  1.00  0.00     0.164 HD
HETATM   18  C22 UNL     1      14.083 -23.916 -21.941  1.00  0.00     0.246 C 
HETATM   19  O4  UNL     1      13.254 -23.708 -22.901  1.00  0.00    -0.268 OA
HETATM   20  C23 UNL     1      14.107 -25.240 -21.358  1.00  0.00     0.010 C 
ENDROOT
BRANCH  12  21
HETATM   21  C16 UNL     1      20.708 -21.543 -21.260  1.00  0.00     0.075 C 
BRANCH  21  22
HETATM   22  C17 UNL     1      21.792 -21.528 -21.920  1.00  0.00     0.020 C 
BRANCH  22  23
HETATM   23  C18 UNL     1      22.156 -21.018 -23.224  1.00  0.00     0.100 C 
HETATM   24  N2  UNL     1      21.667 -21.659 -24.360  1.00  0.00    -0.115 NA
ENDBRANCH  22  23
ENDBRANCH  21  22
ENDBRANCH  12  21
BRANCH  15  25
HETATM   25  C21 UNL     1      15.719 -22.324 -19.462  1.00  0.00     0.204 C 
HETATM   26  O2  UNL     1      14.660 -22.681 -18.895  1.00  0.00    -0.646 OA
HETATM   27  O3  UNL     1      16.685 -21.709 -18.698  1.00  0.00    -0.646 OA
ENDBRANCH  15  25
BRANCH   1  28
HETATM   28  C4  UNL     1      12.035 -24.501 -20.471  1.00  0.00     0.013 C 
BRANCH  28  29
HETATM   29  C3  UNL     1      10.783 -24.905 -19.745  1.00  0.00     0.001 C 
BRANCH  29  30
HETATM   30  C2  UNL     1       9.596 -24.836 -20.682  1.00  0.00    -0.005 C 
HETATM   31  C1  UNL     1       8.514 -25.817 -20.317  1.00  0.00     0.005 C 
ENDBRANCH  29  30
ENDBRANCH  28  29
ENDBRANCH   1  28
TORSDOF 7
ENDMDL
MODEL 4
REMARK VINA RESULT: -8.210792331      3.353      6.178
REMARK  7 active torsions:
REMARK  status: ('A' for Active; 'I' for Inactive)
REMARK    1  A    between atoms: C2_2  and  C3_3 
REMARK    2  A    between atoms: C3_3  and  C4_4 
REMARK    3  A    between atoms: C4_4  and  C5_5 
REMARK       I    between atoms: N1_15  and  C15_16 
REMARK    4  A    between atoms: C15_16  and  C16_18 
REMARK    5  A    between atoms: C16_18  and  C17_19 
REMARK    6  A    between atoms: C17_19  and  C18_20 
REMARK    7  A    between atoms: C20_23  and  C21_24 
ROOT
HETATM    1  C5  UNL     1      16.925 -25.811 -20.004  1.00  0.00     0.043 C 
HETATM    2  C6  UNL     1      16.566 -27.212 -20.155  1.00  0.00    -0.021 C 
HETATM    3  C7  UNL     1      15.231 -27.801 -20.156  1.00  0.00    -0.029 C 
HETATM    4  C8  UNL     1      14.181 -27.469 -21.155  1.00  0.00     0.038 C 
HETATM    5  C9  UNL     1      13.380 -26.154 -20.849  1.00  0.00     0.084 C 
HETATM    6  C10 UNL     1      14.313 -25.327 -20.207  1.00  0.00    -0.173 C 
HETATM    7  C11 UNL     1      14.936 -24.239 -19.570  1.00  0.00     0.087 C 
HETATM    8  C12 UNL     1      15.149 -23.045 -20.457  1.00  0.00     0.030 C 
HETATM    9  C13 UNL     1      15.435 -21.840 -19.656  1.00  0.00     0.046 C 
HETATM   10  C14 UNL     1      14.820 -20.571 -20.127  1.00  0.00     0.134 C 
HETATM   11  N1  UNL     1      15.769 -19.574 -19.694  1.00  0.00    -0.345 N 
HETATM   12  C15 UNL     1      15.510 -18.134 -19.654  1.00  0.00     0.243 C 
HETATM   13  O1  UNL     1      16.439 -17.407 -19.253  1.00  0.00    -0.268 OA
HETATM   14  C19 UNL     1      17.022 -20.159 -19.298  1.00  0.00     0.169 C 
HETATM   15  C20 UNL     1      16.938 -21.624 -19.677  1.00  0.00     0.143 C 
HETATM   16  N3  UNL     1      17.511 -22.501 -18.711  1.00  0.00    -0.336 N 
ATOM     17  H3  UNL     1      18.279 -22.120 -18.158  1.00  0.00     0.164 HD
HETATM   18  C22 UNL     1      17.134 -23.867 -18.422  1.00  0.00     0.246 C 
HETATM   19  O4  UNL     1      17.698 -24.222 -17.323  1.00  0.00    -0.268 OA
HETATM   20  C23 UNL     1      16.301 -24.844 -19.089  1.00  0.00     0.010 C 
ENDROOT
BRANCH  12  21
HETATM   21  C16 UNL     1      14.242 -17.629 -20.064  1.00  0.00     0.075 C 
BRANCH  21  22
HETATM   22  C17 UNL     1      13.104 -17.456 -19.530  1.00  0.00     0.020 C 
BRANCH  22  23
HETATM   23  C18 UNL     1      12.444 -18.041 -18.383  1.00  0.00     0.100 C 
HETATM   24  N2  UNL     1      12.118 -17.224 -17.302  1.00  0.00    -0.115 NA
ENDBRANCH  22  23
ENDBRANCH  21  22
ENDBRANCH  12  21
BRANCH  15  25
HETATM   25  C21 UNL     1      17.509 -21.767 -21.032  1.00  0.00     0.204 C 
HETATM   26  O2  UNL     1      18.102 -22.796 -21.432  1.00  0.00    -0.646 OA
HETATM   27  O3  UNL     1      17.384 -20.712 -21.906  1.00  0.00    -0.646 OA
ENDBRANCH  15  25
BRANCH   1  28
HETATM   28  C4  UNL     1      18.416 -25.808 -19.557  1.00  0.00     0.013 C 
BRANCH  28  29
HETATM   29  C3  UNL     1      18.839 -27.170 -19.084  1.00  0.00     0.001 C 
BRANCH  29  30
HETATM   30  C2  UNL     1      20.276 -27.434 -19.485  1.00  0.00    -0.005 C 
HETATM   31  C1  UNL     1      20.968 -28.394 -18.554  1.00  0.00     0.005 C 
ENDBRANCH  29  30
ENDBRANCH  28  29
ENDBRANCH   1  28
TORSDOF 7
ENDMDL
MODEL 5
REMARK VINA RESULT: -8.126235330      3.236      5.998
REMARK  7 active torsions:
REMARK  status: ('A' for Active; 'I' for Inactive)
REMARK    1  A    between atoms: C2_2  and  C3_3 
REMARK    2  A    between atoms: C3_3  and  C4_4 
REMARK    3  A    between atoms: C4_4  and  C5_5 
REMARK       I    between atoms: N1_15  and  C15_16 
REMARK    4  A    between atoms: C15_16  and  C16_18 
REMARK    5  A    between atoms: C16_18  and  C17_19 
REMARK    6  A    between atoms: C17_19  and  C18_20 
REMARK    7  A    between atoms: C20_23  and  C21_24 
ROOT
HETATM    1  C5  UNL     1      16.429 -25.813 -20.414  1.00  0.00     0.043 C 
HETATM    2  C6  UNL     1      15.874 -27.142 -20.607  1.00  0.00    -0.021 C 
HETATM    3  C7  UNL     1      14.484 -27.563 -20.463  1.00  0.00    -0.029 C 
HETATM    4  C8  UNL     1      13.367 -27.024 -21.283  1.00  0.00     0.038 C 
HETATM    5  C9  UNL     1      12.791 -25.652 -20.782  1.00  0.00     0.084 C 
HETATM    6  C10 UNL     1      13.898 -25.001 -20.222  1.00  0.00    -0.173 C 
HETATM    7  C11 UNL     1      14.736 -24.054 -19.605  1.00  0.00     0.087 C 
HETATM    8  C12 UNL     1      14.988 -22.824 -20.431  1.00  0.00     0.030 C 
HETATM    9  C13 UNL     1      15.530 -21.734 -19.599  1.00  0.00     0.046 C 
HETATM   10  C14 UNL     1      15.030 -20.365 -19.895  1.00  0.00     0.134 C 
HETATM   11  N1  UNL     1      16.150 -19.529 -19.532  1.00  0.00    -0.345 N 
HETATM   12  C15 UNL     1      16.089 -18.078 -19.360  1.00  0.00     0.243 C 
HETATM   13  O1  UNL     1      17.148 -17.504 -19.044  1.00  0.00    -0.268 OA
HETATM   14  C19 UNL     1      17.355 -20.293 -19.353  1.00  0.00     0.169 C 
HETATM   15  C20 UNL     1      17.032 -21.699 -19.813  1.00  0.00     0.143 C 
HETATM   16  N3  UNL     1      17.605 -22.717 -18.997  1.00  0.00    -0.336 N 
ATOM     17  H3  UNL     1      18.481 -22.479 -18.531  1.00  0.00     0.164 HD
HETATM   18  C22 UNL     1      17.093 -24.047 -18.750  1.00  0.00     0.246 C 
HETATM   19  O4  UNL     1      17.742 -24.559 -17.766  1.00  0.00    -0.268 OA
HETATM   20  C23 UNL     1      16.060 -24.857 -19.359  1.00  0.00     0.010 C 
ENDROOT
BRANCH  12  21
HETATM   21  C16 UNL     1      14.855 -17.390 -19.557  1.00  0.00     0.075 C 
BRANCH  21  22
HETATM   22  C17 UNL     1      13.857 -17.069 -18.842  1.00  0.00     0.020 C 
BRANCH  22  23
HETATM   23  C18 UNL     1      12.804 -17.829 -18.205  1.00  0.00     0.100 C 
HETATM   24  N2  UNL     1      12.074 -17.240 -17.175  1.00  0.00    -0.115 NA
ENDBRANCH  22  23
ENDBRANCH  21  22
ENDBRANCH  12  21
BRANCH  15  25
HETATM   25  C21 UNL     1      17.400 -21.797 -21.240  1.00  0.00     0.204 C 
HETATM   26  O2  UNL     1      17.128 -20.918 -22.091  1.00  0.00    -0.646 OA
HETATM   27  O3  UNL     1      18.080 -22.917 -21.662  1.00  0.00    -0.646 OA
ENDBRANCH  15  25
BRANCH   1  28
HETATM   28  C4  UNL     1      17.953 -26.027 -20.178  1.00  0.00     0.013 C 
BRANCH  28  29
HETATM   29  C3  UNL     1      18.646 -26.412 -21.455  1.00  0.00     0.001 C 
BRANCH  29  30
HETATM   30  C2  UNL     1      19.929 -27.154 -21.144  1.00  0.00    -0.005 C 
HETATM   31  C1  UNL     1      20.172 -27.293 -19.665  1.00  0.00     0.005 C 
ENDBRANCH  29  30
ENDBRANCH  28  29
ENDBRANCH   1  28
TORSDOF 7
ENDMDL
