MODEL 1
REMARK VINA RESULT: -7.863638319      0.000      0.000
REMARK  6 active torsions:
REMARK  status: ('A' for Active; 'I' for Inactive)
REMARK       I    between atoms: N2_8  and  C7_9 
REMARK       I    between atoms: C7_9  and  N3_11 
REMARK    1  A    between atoms: N3_11  and  C8_13 
REMARK    2  A    between atoms: C8_13  and  C9_14 
REMARK    3  A    between atoms: C8_13  and  C11_20 
REMARK    4  A    between atoms: C9_14  and  C10_15 
REMARK    5  A    between atoms: C10_15  and  N4_16 
REMARK       I    between atoms: C11_20  and  N5_22 
REMARK    6  A    between atoms: N5_22  and  C12_24 
ROOT
HETATM    1  C8  UNL     1      19.461 -20.678 -21.515  1.00  0.00     0.179 C 
ENDROOT
BRANCH   1   2
HETATM    2  N3  UNL     1      18.118 -20.207 -21.036  1.00  0.00    -0.330 N 
HETATM    3  C7  UNL     1      17.003 -20.257 -21.912  1.00  0.00     0.319 C 
HETATM    4  N2  UNL     1      15.724 -19.822 -21.486  1.00  0.00    -0.334 N 
HETATM    5  O1  UNL     1      17.118 -20.687 -23.083  1.00  0.00    -0.247 OA
HETATM    6  C6  UNL     1      15.547 -19.325 -20.139  1.00  0.00     0.128 C 
HETATM    7  C22 UNL     1      14.561 -19.854 -22.354  1.00  0.00     0.128 C 
HETATM    8  C5  UNL     1      14.077 -19.395 -19.797  1.00  0.00     0.031 C 
HETATM    9  C4  UNL     1      13.549 -20.720 -20.243  1.00  0.00    -0.009 C 
HETATM   10  C3  UNL     1      14.261 -21.895 -19.616  1.00  0.00     0.041 C 
HETATM   11  C23 UNL     1      13.609 -20.881 -21.751  1.00  0.00     0.031 C 
HETATM   12  C24 UNL     1      12.124 -20.998 -19.811  1.00  0.00     0.281 C 
HETATM   13  C2  UNL     1      13.258 -23.017 -19.868  1.00  0.00     0.272 C 
HETATM   14  N1  UNL     1      11.997 -22.393 -20.199  1.00  0.00     0.085 N 
HETATM   15  C1  UNL     1      10.916 -22.966 -19.432  1.00  0.00     0.309 C 
ATOM     16  H3  UNL     1      18.008 -19.853 -20.086  1.00  0.00     0.165 HD
ENDBRANCH   1   2
BRANCH   1  17
HETATM   17  C9  UNL     1      20.409 -19.942 -20.631  1.00  0.00     0.062 C 
BRANCH  17  18
HETATM   18  C10 UNL     1      19.860 -18.979 -19.659  1.00  0.00     0.232 C 
BRANCH  18  19
HETATM   19  N4  UNL     1      20.741 -18.696 -18.539  1.00  0.00    -0.079 N 
ATOM     20  H43 UNL     1      20.424 -17.867 -18.037  1.00  0.00     0.274 HD
ATOM     21  H42 UNL     1      20.625 -19.397 -17.807  1.00  0.00     0.274 HD
ATOM     22  H41 UNL     1      21.725 -18.605 -18.792  1.00  0.00     0.274 HD
ENDBRANCH  18  19
ENDBRANCH  17  18
ENDBRANCH   1  17
BRANCH   1  23
HETATM   23  C11 UNL     1      19.500 -22.148 -21.404  1.00  0.00     0.241 C 
HETATM   24  O2  UNL     1      20.277 -22.770 -22.200  1.00  0.00    -0.271 OA
HETATM   25  N5  UNL     1      18.762 -22.930 -20.499  1.00  0.00    -0.350 N 
ATOM     26  H5  UNL     1      18.145 -22.434 -19.856  1.00  0.00     0.163 HD
BRANCH  25  27
HETATM   27  C12 UNL     1      18.793 -24.369 -20.394  1.00  0.00     0.034 C 
HETATM   28  C13 UNL     1      17.949 -24.789 -19.177  1.00  0.00     0.035 C 
HETATM   29  C14 UNL     1      17.879 -26.275 -19.093  1.00  0.00    -0.012 C 
HETATM   30  C15 UNL     1      17.223 -26.817 -20.344  1.00  0.00     0.009 C 
HETATM   31  C19 UNL     1      19.244 -26.888 -18.964  1.00  0.00     0.009 C 
HETATM   32  C16 UNL     1      18.079 -26.500 -21.525  1.00  0.00    -0.012 C 
HETATM   33  C17 UNL     1      19.495 -27.020 -21.379  1.00  0.00     0.009 C 
HETATM   34  C21 UNL     1      18.204 -24.979 -21.634  1.00  0.00     0.035 C 
HETATM   35  C18 UNL     1      20.071 -26.441 -20.128  1.00  0.00    -0.012 C 
HETATM   36  C20 UNL     1      20.175 -24.928 -20.160  1.00  0.00     0.035 C 
ENDBRANCH  25  27
ENDBRANCH   1  23
TORSDOF 6
ENDMDL
MODEL 2
REMARK VINA RESULT: -7.757696511      0.455      1.290
REMARK  6 active torsions:
REMARK  status: ('A' for Active; 'I' for Inactive)
REMARK       I    between atoms: N2_8  and  C7_9 
REMARK       I    between atoms: C7_9  and  N3_11 
REMARK    1  A    between atoms: N3_11  and  C8_13 
REMARK    2  A    between atoms: C8_13  and  C9_14 
REMARK    3  A    between atoms: C8_13  and  C11_20 
REMARK    4  A    between atoms: C9_14  and  C10_15 
REMARK    5  A    between atoms: C10_15  and  N4_16 
REMARK       I    between atoms: C11_20  and  N5_22 
REMARK    6  A    between atoms: N5_22  and  C12_24 
ROOT
HETATM    1  C8  UNL     1      19.293 -20.809 -21.412  1.00  0.00     0.179 C 
ENDROOT
BRANCH   1   2
HETATM    2  N3  UNL     1      17.990 -20.201 -20.978  1.00  0.00    -0.330 N 
HETATM    3  C7  UNL     1      16.887 -20.193 -21.871  1.00  0.00     0.319 C 
HETATM    4  N2  UNL     1      15.646 -19.628 -21.487  1.00  0.00    -0.334 N 
HETATM    5  O1  UNL     1      16.980 -20.684 -23.020  1.00  0.00    -0.247 OA
HETATM    6  C6  UNL     1      15.495 -19.057 -20.167  1.00  0.00     0.128 C 
HETATM    7  C22 UNL     1      14.497 -19.597 -22.375  1.00  0.00     0.128 C 
HETATM    8  C5  UNL     1      14.020 -18.982 -19.849  1.00  0.00     0.031 C 
HETATM    9  C4  UNL     1      13.383 -20.275 -20.246  1.00  0.00    -0.009 C 
HETATM   10  C3  UNL     1      13.979 -21.478 -19.555  1.00  0.00     0.041 C 
HETATM   11  C23 UNL     1      13.450 -20.508 -21.744  1.00  0.00     0.031 C 
HETATM   12  C24 UNL     1      11.933 -20.407 -19.828  1.00  0.00     0.281 C 
HETATM   13  C2  UNL     1      12.884 -22.519 -19.776  1.00  0.00     0.272 C 
HETATM   14  N1  UNL     1      11.688 -21.802 -20.158  1.00  0.00     0.085 N 
HETATM   15  C1  UNL     1      10.550 -22.243 -19.386  1.00  0.00     0.309 C 
ATOM     16  H3  UNL     1      17.898 -19.796 -20.047  1.00  0.00     0.165 HD
ENDBRANCH   1   2
BRANCH   1  17
HETATM   17  C9  UNL     1      20.282 -20.166 -20.501  1.00  0.00     0.062 C 
BRANCH  17  18
HETATM   18  C10 UNL     1      19.849 -19.011 -19.696  1.00  0.00     0.232 C 
BRANCH  18  19
HETATM   19  N4  UNL     1      20.717 -18.709 -18.570  1.00  0.00    -0.079 N 
ATOM     20  H43 UNL     1      20.275 -18.029 -17.951  1.00  0.00     0.274 HD
ATOM     21  H42 UNL     1      20.774 -19.508 -17.939  1.00  0.00     0.274 HD
ATOM     22  H41 UNL     1      21.652 -18.396 -18.835  1.00  0.00     0.274 HD
ENDBRANCH  18  19
ENDBRANCH  17  18
ENDBRANCH   1  17
BRANCH   1  23
HETATM   23  C11 UNL     1      19.179 -22.275 -21.294  1.00  0.00     0.241 C 
HETATM   24  O2  UNL     1      19.684 -22.974 -22.232  1.00  0.00    -0.271 OA
HETATM   25  N5  UNL     1      18.567 -22.976 -20.240  1.00  0.00    -0.350 N 
ATOM     26  H5  UNL     1      18.169 -22.419 -19.485  1.00  0.00     0.163 HD
BRANCH  25  27
HETATM   27  C12 UNL     1      18.449 -24.409 -20.127  1.00  0.00     0.034 C 
HETATM   28  C13 UNL     1      17.515 -24.913 -21.243  1.00  0.00     0.035 C 
HETATM   29  C14 UNL     1      17.445 -26.401 -21.216  1.00  0.00    -0.012 C 
HETATM   30  C15 UNL     1      18.828 -26.972 -21.451  1.00  0.00     0.009 C 
HETATM   31  C19 UNL     1      16.935 -26.910 -19.899  1.00  0.00     0.009 C 
HETATM   32  C16 UNL     1      19.723 -26.570 -20.326  1.00  0.00    -0.012 C 
HETATM   33  C17 UNL     1      19.182 -26.982 -18.971  1.00  0.00     0.009 C 
HETATM   34  C21 UNL     1      19.800 -25.042 -20.295  1.00  0.00     0.035 C 
HETATM   35  C18 UNL     1      17.822 -26.381 -18.816  1.00  0.00    -0.012 C 
HETATM   36  C20 UNL     1      17.833 -24.865 -18.827  1.00  0.00     0.035 C 
ENDBRANCH  25  27
ENDBRANCH   1  23
TORSDOF 6
ENDMDL
MODEL 3
REMARK VINA RESULT: -7.605252736      0.171      1.285
REMARK  6 active torsions:
REMARK  status: ('A' for Active; 'I' for Inactive)
REMARK       I    between atoms: N2_8  and  C7_9 
REMARK       I    between atoms: C7_9  and  N3_11 
REMARK    1  A    between atoms: N3_11  and  C8_13 
REMARK    2  A    between atoms: C8_13  and  C9_14 
REMARK    3  A    between atoms: C8_13  and  C11_20 
REMARK    4  A    between atoms: C9_14  and  C10_15 
REMARK    5  A    between atoms: C10_15  and  N4_16 
REMARK       I    between atoms: C11_20  and  N5_22 
REMARK    6  A    between atoms: N5_22  and  C12_24 
ROOT
HETATM    1  C8  UNL     1      19.435 -20.667 -21.504  1.00  0.00     0.179 C 
ENDROOT
BRANCH   1   2
HETATM    2  N3  UNL     1      18.104 -20.156 -21.033  1.00  0.00    -0.330 N 
HETATM    3  C7  UNL     1      16.988 -20.191 -21.909  1.00  0.00     0.319 C 
HETATM    4  N2  UNL     1      15.720 -19.718 -21.491  1.00  0.00    -0.334 N 
HETATM    5  O1  UNL     1      17.093 -20.640 -23.074  1.00  0.00    -0.247 OA
HETATM    6  C6  UNL     1      15.554 -19.198 -20.152  1.00  0.00     0.128 C 
HETATM    7  C22 UNL     1      14.557 -19.733 -22.361  1.00  0.00     0.128 C 
HETATM    8  C5  UNL     1      14.082 -19.226 -19.811  1.00  0.00     0.031 C 
HETATM    9  C4  UNL     1      13.522 -20.544 -20.240  1.00  0.00    -0.009 C 
HETATM   10  C3  UNL     1      14.204 -21.728 -19.595  1.00  0.00     0.041 C 
HETATM   11  C23 UNL     1      13.580 -20.727 -21.745  1.00  0.00     0.031 C 
HETATM   12  C24 UNL     1      12.090 -20.781 -19.805  1.00  0.00     0.281 C 
HETATM   13  C2  UNL     1      13.173 -22.828 -19.833  1.00  0.00     0.272 C 
HETATM   14  N1  UNL     1      11.928 -22.177 -20.175  1.00  0.00     0.085 N 
HETATM   15  C1  UNL     1      10.833 -22.713 -19.401  1.00  0.00     0.309 C 
ATOM     16  H3  UNL     1      18.001 -19.786 -20.088  1.00  0.00     0.165 HD
ENDBRANCH   1   2
BRANCH   1  17
HETATM   17  C9  UNL     1      20.392 -20.030 -20.556  1.00  0.00     0.062 C 
BRANCH  17  18
HETATM   18  C10 UNL     1      19.911 -18.926 -19.707  1.00  0.00     0.232 C 
BRANCH  18  19
HETATM   19  N4  UNL     1      20.726 -18.680 -18.529  1.00  0.00    -0.079 N 
ATOM     20  H43 UNL     1      20.138 -18.598 -17.700  1.00  0.00     0.274 HD
ATOM     21  H42 UNL     1      21.257 -19.515 -18.283  1.00  0.00     0.274 HD
ATOM     22  H41 UNL     1      21.345 -17.873 -18.609  1.00  0.00     0.274 HD
ENDBRANCH  18  19
ENDBRANCH  17  18
ENDBRANCH   1  17
BRANCH   1  23
HETATM   23  C11 UNL     1      19.398 -22.141 -21.476  1.00  0.00     0.241 C 
HETATM   24  O2  UNL     1      20.021 -22.755 -22.404  1.00  0.00    -0.271 OA
HETATM   25  N5  UNL     1      18.743 -22.936 -20.519  1.00  0.00    -0.350 N 
ATOM     26  H5  UNL     1      18.252 -22.447 -19.771  1.00  0.00     0.163 HD
BRANCH  25  27
HETATM   27  C12 UNL     1      18.701 -24.377 -20.494  1.00  0.00     0.034 C 
HETATM   28  C13 UNL     1      20.113 -24.903 -20.173  1.00  0.00     0.035 C 
HETATM   29  C14 UNL     1      20.087 -26.387 -20.044  1.00  0.00    -0.012 C 
HETATM   30  C15 UNL     1      19.160 -26.775 -18.912  1.00  0.00     0.009 C 
HETATM   31  C19 UNL     1      19.605 -27.046 -21.304  1.00  0.00     0.009 C 
HETATM   32  C16 UNL     1      17.768 -26.356 -19.251  1.00  0.00    -0.012 C 
HETATM   33  C17 UNL     1      17.290 -26.926 -20.571  1.00  0.00     0.009 C 
HETATM   34  C21 UNL     1      17.752 -24.836 -19.424  1.00  0.00     0.035 C 
HETATM   35  C18 UNL     1      18.252 -26.499 -21.632  1.00  0.00    -0.012 C 
HETATM   36  C20 UNL     1      18.313 -24.995 -21.815  1.00  0.00     0.035 C 
ENDBRANCH  25  27
ENDBRANCH   1  23
TORSDOF 6
ENDMDL
MODEL 4
REMARK VINA RESULT: -7.524342796      2.206      6.538
REMARK  6 active torsions:
REMARK  status: ('A' for Active; 'I' for Inactive)
REMARK       I    between atoms: N2_8  and  C7_9 
REMARK       I    between atoms: C7_9  and  N3_11 
REMARK    1  A    between atoms: N3_11  and  C8_13 
REMARK    2  A    between atoms: C8_13  and  C9_14 
REMARK    3  A    between atoms: C8_13  and  C11_20 
REMARK    4  A    between atoms: C9_14  and  C10_15 
REMARK    5  A    between atoms: C10_15  and  N4_16 
REMARK       I    between atoms: C11_20  and  N5_22 
REMARK    6  A    between atoms: N5_22  and  C12_24 
ROOT
HETATM    1  C8  UNL     1      18.782 -20.189 -19.776  1.00  0.00     0.179 C 
ENDROOT
BRANCH   1   2
HETATM    2  N3  UNL     1      18.660 -21.626 -20.194  1.00  0.00    -0.330 N 
HETATM    3  C7  UNL     1      18.287 -22.607 -19.239  1.00  0.00     0.319 C 
HETATM    4  N2  UNL     1      18.163 -23.970 -19.605  1.00  0.00    -0.334 N 
HETATM    5  O1  UNL     1      18.058 -22.295 -18.047  1.00  0.00    -0.247 OA
HETATM    6  C6  UNL     1      18.412 -24.370 -20.972  1.00  0.00     0.128 C 
HETATM    7  C22 UNL     1      17.788 -25.001 -18.655  1.00  0.00     0.128 C 
HETATM    8  C5  UNL     1      17.759 -25.713 -21.200  1.00  0.00     0.031 C 
HETATM    9  C4  UNL     1      16.388 -25.680 -20.606  1.00  0.00    -0.009 C 
HETATM   10  C3  UNL     1      15.507 -24.597 -21.182  1.00  0.00     0.041 C 
HETATM   11  C23 UNL     1      16.421 -25.510 -19.098  1.00  0.00     0.031 C 
HETATM   12  C24 UNL     1      15.550 -26.907 -20.908  1.00  0.00     0.281 C 
HETATM   13  C2  UNL     1      14.123 -25.087 -20.764  1.00  0.00     0.272 C 
HETATM   14  N1  UNL     1      14.259 -26.479 -20.395  1.00  0.00     0.085 N 
HETATM   15  C1  UNL     1      13.244 -27.286 -21.031  1.00  0.00     0.309 C 
ATOM     16  H3  UNL     1      18.845 -21.897 -21.160  1.00  0.00     0.165 HD
ENDBRANCH   1   2
BRANCH   1  17
HETATM   17  C9  UNL     1      19.910 -19.692 -20.613  1.00  0.00     0.062 C 
BRANCH  17  18
HETATM   18  C10 UNL     1      20.893 -18.781 -19.998  1.00  0.00     0.232 C 
BRANCH  18  19
HETATM   19  N4  UNL     1      20.777 -18.667 -18.553  1.00  0.00    -0.079 N 
ATOM     20  H43 UNL     1      19.879 -18.254 -18.300  1.00  0.00     0.274 HD
ATOM     21  H42 UNL     1      20.671 -19.588 -18.130  1.00  0.00     0.274 HD
ATOM     22  H41 UNL     1      21.542 -18.156 -18.111  1.00  0.00     0.274 HD
ENDBRANCH  18  19
ENDBRANCH  17  18
ENDBRANCH   1  17
BRANCH   1  23
HETATM   23  C11 UNL     1      17.482 -19.532 -20.006  1.00  0.00     0.241 C 
HETATM   24  O2  UNL     1      17.458 -18.569 -20.840  1.00  0.00    -0.271 OA
HETATM   25  N5  UNL     1      16.263 -19.870 -19.393  1.00  0.00    -0.350 N 
ATOM     26  H5  UNL     1      16.278 -20.645 -18.731  1.00  0.00     0.163 HD
BRANCH  25  27
HETATM   27  C12 UNL     1      14.992 -19.223 -19.611  1.00  0.00     0.034 C 
HETATM   28  C13 UNL     1      13.886 -20.095 -18.987  1.00  0.00     0.035 C 
HETATM   29  C14 UNL     1      12.568 -19.411 -19.109  1.00  0.00    -0.012 C 
HETATM   30  C15 UNL     1      12.617 -18.093 -18.367  1.00  0.00     0.009 C 
HETATM   31  C19 UNL     1      12.213 -19.140 -20.543  1.00  0.00     0.009 C 
HETATM   32  C16 UNL     1      13.619 -17.199 -19.019  1.00  0.00    -0.012 C 
HETATM   33  C17 UNL     1      13.344 -16.988 -20.494  1.00  0.00     0.009 C 
HETATM   34  C21 UNL     1      14.989 -17.877 -18.945  1.00  0.00     0.035 C 
HETATM   35  C18 UNL     1      13.312 -18.329 -21.153  1.00  0.00    -0.012 C 
HETATM   36  C20 UNL     1      14.633 -19.069 -21.069  1.00  0.00     0.035 C 
ENDBRANCH  25  27
ENDBRANCH   1  23
TORSDOF 6
ENDMDL
MODEL 5
REMARK VINA RESULT: -7.505382181      3.174      5.955
REMARK  6 active torsions:
REMARK  status: ('A' for Active; 'I' for Inactive)
REMARK       I    between atoms: N2_8  and  C7_9 
REMARK       I    between atoms: C7_9  and  N3_11 
REMARK    1  A    between atoms: N3_11  and  C8_13 
REMARK    2  A    between atoms: C8_13  and  C9_14 
REMARK    3  A    between atoms: C8_13  and  C11_20 
REMARK    4  A    between atoms: C9_14  and  C10_15 
REMARK    5  A    between atoms: C10_15  and  N4_16 
REMARK       I    between atoms: C11_20  and  N5_22 
REMARK    6  A    between atoms: N5_22  and  C12_24 
ROOT
HETATM    1  C8  UNL     1      11.975 -24.332 -20.108  1.00  0.00     0.179 C 
ENDROOT
BRANCH   1   2
HETATM    2  N3  UNL     1      12.102 -22.933 -20.638  1.00  0.00    -0.330 N 
HETATM    3  C7  UNL     1      11.802 -21.832 -19.795  1.00  0.00     0.319 C 
HETATM    4  N2  UNL     1      11.915 -20.501 -20.269  1.00  0.00    -0.334 N 
HETATM    5  O1  UNL     1      11.430 -22.005 -18.611  1.00  0.00    -0.247 OA
HETATM    6  C6  UNL     1      12.348 -20.258 -21.627  1.00  0.00     0.128 C 
HETATM    7  C22 UNL     1      11.613 -19.350 -19.437  1.00  0.00     0.128 C 
HETATM    8  C5  UNL     1      12.841 -18.833 -21.719  1.00  0.00     0.031 C 
HETATM    9  C4  UNL     1      13.709 -18.554 -20.534  1.00  0.00    -0.009 C 
HETATM   10  C3  UNL     1      14.894 -19.483 -20.423  1.00  0.00     0.041 C 
HETATM   11  C23 UNL     1      12.934 -18.617 -19.231  1.00  0.00     0.031 C 
HETATM   12  C24 UNL     1      14.413 -17.213 -20.582  1.00  0.00     0.281 C 
HETATM   13  C2  UNL     1      15.792 -18.703 -19.467  1.00  0.00     0.272 C 
HETATM   14  N1  UNL     1      15.305 -17.342 -19.442  1.00  0.00     0.085 N 
HETATM   15  C1  UNL     1      16.385 -16.400 -19.620  1.00  0.00     0.309 C 
ATOM     16  H3  UNL     1      12.402 -22.775 -21.600  1.00  0.00     0.165 HD
ENDBRANCH   1   2
BRANCH   1  17
HETATM   17  C9  UNL     1      10.976 -24.949 -21.026  1.00  0.00     0.062 C 
BRANCH  17  18
HETATM   18  C10 UNL     1       9.847 -25.692 -20.438  1.00  0.00     0.232 C 
BRANCH  18  19
HETATM   19  N4  UNL     1      10.239 -26.851 -19.655  1.00  0.00    -0.079 N 
ATOM     20  H43 UNL     1      11.053 -27.303 -20.071  1.00  0.00     0.274 HD
ATOM     21  H42 UNL     1      10.638 -26.561 -18.762  1.00  0.00     0.274 HD
ATOM     22  H41 UNL     1       9.491 -27.529 -19.507  1.00  0.00     0.274 HD
ENDBRANCH  18  19
ENDBRANCH  17  18
ENDBRANCH   1  17
BRANCH   1  23
HETATM   23  C11 UNL     1      13.314 -24.951 -20.117  1.00  0.00     0.241 C 
HETATM   24  O2  UNL     1      13.371 -26.212 -19.944  1.00  0.00    -0.271 OA
HETATM   25  N5  UNL     1      14.536 -24.280 -20.303  1.00  0.00    -0.350 N 
ATOM     26  H5  UNL     1      14.491 -23.272 -20.451  1.00  0.00     0.163 HD
BRANCH  25  27
HETATM   27  C12 UNL     1      15.846 -24.883 -20.306  1.00  0.00     0.034 C 
HETATM   28  C13 UNL     1      16.774 -24.031 -21.192  1.00  0.00     0.035 C 
HETATM   29  C14 UNL     1      18.162 -24.569 -21.142  1.00  0.00    -0.012 C 
HETATM   30  C15 UNL     1      18.671 -24.512 -19.717  1.00  0.00     0.009 C 
HETATM   31  C19 UNL     1      18.223 -25.994 -21.614  1.00  0.00     0.009 C 
HETATM   32  C16 UNL     1      17.838 -25.408 -18.862  1.00  0.00    -0.012 C 
HETATM   33  C17 UNL     1      17.798 -26.834 -19.372  1.00  0.00     0.009 C 
HETATM   34  C21 UNL     1      16.392 -24.909 -18.907  1.00  0.00     0.035 C 
HETATM   35  C18 UNL     1      17.287 -26.807 -20.776  1.00  0.00    -0.012 C 
HETATM   36  C20 UNL     1      15.871 -26.275 -20.888  1.00  0.00     0.035 C 
ENDBRANCH  25  27
ENDBRANCH   1  23
TORSDOF 6
ENDMDL
