MODEL 1
REMARK VINA RESULT: -7.890037269      0.000      0.000
REMARK  5 active torsions:
REMARK  status: ('A' for Active; 'I' for Inactive)
REMARK    1  A    between atoms: C2_2  and  C4_4 
REMARK    2  A    between atoms: C4_4  and  N1_5 
REMARK    3  A    between atoms: C4_4  and  C22_30 
REMARK       I    between atoms: N1_5  and  C5_7 
REMARK       I    between atoms: C5_7  and  N2_9 
REMARK    4  A    between atoms: N2_9  and  C6_11 
REMARK    5  A    between atoms: N3_23  and  C18_24 
ROOT
HETATM    1  C18 UNL     1      12.573 -20.338 -20.717  1.00  0.00     0.191 C 
HETATM    2  C19 UNL     1      12.799 -19.491 -21.942  1.00  0.00     0.048 C 
HETATM    3  C20 UNL     1      12.007 -19.486 -19.673  1.00  0.00     0.084 C 
HETATM    4  N4  UNL     1      11.529 -18.819 -18.808  1.00  0.00    -0.195 NA
ENDROOT
BRANCH   1   5
HETATM    5  N3  UNL     1      13.742 -21.040 -20.249  1.00  0.00    -0.324 N 
HETATM    6  C16 UNL     1      13.734 -22.486 -20.185  1.00  0.00     0.037 C 
HETATM    7  C8  UNL     1      15.128 -22.944 -20.439  1.00  0.00     0.020 C 
HETATM    8  C15 UNL     1      13.031 -23.090 -21.388  1.00  0.00     0.036 C 
HETATM    9  C17 UNL     1      13.116 -22.872 -18.894  1.00  0.00     0.039 C 
HETATM   10  C7  UNL     1      16.109 -22.550 -19.381  1.00  0.00     0.042 C 
HETATM   11  C9  UNL     1      15.032 -24.351 -20.869  1.00  0.00    -0.004 C 
HETATM   12  C6  UNL     1      16.245 -21.029 -19.593  1.00  0.00     0.179 C 
HETATM   13  C21 UNL     1      14.938 -20.401 -19.798  1.00  0.00     0.244 C 
HETATM   14  O2  UNL     1      14.797 -19.154 -19.561  1.00  0.00    -0.271 OA
HETATM   15  C10 UNL     1      14.984 -25.408 -19.816  1.00  0.00     0.005 C 
HETATM   16  C14 UNL     1      13.819 -24.311 -21.777  1.00  0.00    -0.008 C 
HETATM   17  C11 UNL     1      14.754 -26.726 -20.584  1.00  0.00     0.000 C 
HETATM   18  C12 UNL     1      13.263 -26.646 -20.953  1.00  0.00     0.000 C 
HETATM   19  C13 UNL     1      13.025 -25.537 -21.904  1.00  0.00     0.005 C 
BRANCH  12  20
HETATM   20  N2  UNL     1      17.144 -20.827 -20.683  1.00  0.00    -0.330 N 
HETATM   21  C5  UNL     1      18.515 -20.962 -20.823  1.00  0.00     0.317 C 
HETATM   22  N1  UNL     1      19.131 -20.756 -22.088  1.00  0.00    -0.328 N 
HETATM   23  O1  UNL     1      19.263 -21.262 -19.863  1.00  0.00    -0.247 OA
ATOM     24  H1  UNL     1      18.518 -20.577 -22.884  1.00  0.00     0.165 HD
ATOM     25  H2  UNL     1      16.679 -20.520 -21.538  1.00  0.00     0.165 HD
BRANCH  22  26
HETATM   26  C4  UNL     1      20.546 -20.780 -22.338  1.00  0.00     0.190 C 
BRANCH  26  27
HETATM   27  C2  UNL     1      20.831 -21.014 -23.810  1.00  0.00     0.011 C 
HETATM   28  C1  UNL     1      19.902 -22.147 -24.291  1.00  0.00     0.012 C 
HETATM   29  C3  UNL     1      22.233 -21.433 -24.087  1.00  0.00     0.012 C 
ENDBRANCH  26  27
BRANCH  26  30
HETATM   30  C22 UNL     1      21.139 -19.536 -21.815  1.00  0.00     0.197 C 
HETATM   31  O3  UNL     1      22.205 -19.648 -21.104  1.00  0.00    -0.646 OA
HETATM   32  O4  UNL     1      20.690 -18.256 -22.005  1.00  0.00    -0.646 OA
ENDBRANCH  26  30
ENDBRANCH  22  26
ENDBRANCH  12  20
ENDBRANCH   1   5
TORSDOF 5
ENDMDL
MODEL 2
REMARK VINA RESULT: -7.763642408      3.197      7.653
REMARK  5 active torsions:
REMARK  status: ('A' for Active; 'I' for Inactive)
REMARK    1  A    between atoms: C2_2  and  C4_4 
REMARK    2  A    between atoms: C4_4  and  N1_5 
REMARK    3  A    between atoms: C4_4  and  C22_30 
REMARK       I    between atoms: N1_5  and  C5_7 
REMARK       I    between atoms: C5_7  and  N2_9 
REMARK    4  A    between atoms: N2_9  and  C6_11 
REMARK    5  A    between atoms: N3_23  and  C18_24 
ROOT
HETATM    1  C18 UNL     1      19.593 -21.589 -23.067  1.00  0.00     0.191 C 
HETATM    2  C19 UNL     1      19.234 -22.496 -24.215  1.00  0.00     0.048 C 
HETATM    3  C20 UNL     1      21.048 -21.586 -22.927  1.00  0.00     0.084 C 
HETATM    4  N4  UNL     1      22.233 -21.550 -22.801  1.00  0.00    -0.195 NA
ENDROOT
BRANCH   1   5
HETATM    5  N3  UNL     1      18.944 -21.912 -21.821  1.00  0.00    -0.324 N 
HETATM    6  C16 UNL     1      18.140 -20.914 -21.148  1.00  0.00     0.037 C 
HETATM    7  C8  UNL     1      17.052 -21.636 -20.432  1.00  0.00     0.020 C 
HETATM    8  C15 UNL     1      17.318 -20.106 -22.137  1.00  0.00     0.036 C 
HETATM    9  C17 UNL     1      19.056 -20.081 -20.332  1.00  0.00     0.039 C 
HETATM   10  C7  UNL     1      17.525 -22.516 -19.320  1.00  0.00     0.042 C 
HETATM   11  C9  UNL     1      15.987 -20.647 -20.189  1.00  0.00    -0.004 C 
HETATM   12  C6  UNL     1      18.215 -23.673 -20.069  1.00  0.00     0.179 C 
HETATM   13  C21 UNL     1      19.059 -23.173 -21.158  1.00  0.00     0.244 C 
HETATM   14  O2  UNL     1      20.014 -23.899 -21.595  1.00  0.00    -0.271 OA
HETATM   15  C10 UNL     1      16.084 -19.791 -18.969  1.00  0.00     0.005 C 
HETATM   16  C14 UNL     1      15.976 -19.881 -21.497  1.00  0.00    -0.008 C 
HETATM   17  C11 UNL     1      14.909 -18.797 -19.084  1.00  0.00     0.000 C 
HETATM   18  C12 UNL     1      15.409 -17.807 -20.149  1.00  0.00     0.000 C 
HETATM   19  C13 UNL     1      15.543 -18.481 -21.460  1.00  0.00     0.005 C 
BRANCH  12  20
HETATM   20  N2  UNL     1      17.194 -24.565 -20.514  1.00  0.00    -0.330 N 
HETATM   21  C5  UNL     1      15.977 -24.957 -19.983  1.00  0.00     0.317 C 
HETATM   22  N1  UNL     1      15.121 -25.827 -20.714  1.00  0.00    -0.328 N 
HETATM   23  O1  UNL     1      15.580 -24.578 -18.855  1.00  0.00    -0.247 OA
ATOM     24  H1  UNL     1      15.411 -26.085 -21.657  1.00  0.00     0.165 HD
ATOM     25  H2  UNL     1      17.403 -25.005 -21.410  1.00  0.00     0.165 HD
BRANCH  22  26
HETATM   26  C4  UNL     1      13.881 -26.372 -20.233  1.00  0.00     0.190 C 
BRANCH  26  27
HETATM   27  C2  UNL     1      12.727 -25.960 -21.127  1.00  0.00     0.011 C 
HETATM   28  C1  UNL     1      13.193 -24.751 -21.964  1.00  0.00     0.012 C 
HETATM   29  C3  UNL     1      11.510 -25.545 -20.376  1.00  0.00     0.012 C 
ENDBRANCH  26  27
BRANCH  26  30
HETATM   30  C22 UNL     1      14.028 -27.832 -20.099  1.00  0.00     0.197 C 
HETATM   31  O3  UNL     1      15.115 -28.356 -20.546  1.00  0.00    -0.646 OA
HETATM   32  O4  UNL     1      13.139 -28.710 -19.539  1.00  0.00    -0.646 OA
ENDBRANCH  26  30
ENDBRANCH  22  26
ENDBRANCH  12  20
ENDBRANCH   1   5
TORSDOF 5
ENDMDL
MODEL 3
REMARK VINA RESULT: -7.722839153      2.372      6.761
REMARK  5 active torsions:
REMARK  status: ('A' for Active; 'I' for Inactive)
REMARK    1  A    between atoms: C2_2  and  C4_4 
REMARK    2  A    between atoms: C4_4  and  N1_5 
REMARK    3  A    between atoms: C4_4  and  C22_30 
REMARK       I    between atoms: N1_5  and  C5_7 
REMARK       I    between atoms: C5_7  and  N2_9 
REMARK    4  A    between atoms: N2_9  and  C6_11 
REMARK    5  A    between atoms: N3_23  and  C18_24 
ROOT
HETATM    1  C18 UNL     1      19.423 -22.031 -20.567  1.00  0.00     0.191 C 
HETATM    2  C19 UNL     1      19.284 -20.704 -19.867  1.00  0.00     0.048 C 
HETATM    3  C20 UNL     1      20.357 -21.864 -21.679  1.00  0.00     0.084 C 
HETATM    4  N4  UNL     1      21.129 -21.762 -22.582  1.00  0.00    -0.195 NA
ENDROOT
BRANCH   1   5
HETATM    5  N3  UNL     1      18.178 -22.610 -21.008  1.00  0.00    -0.324 N 
HETATM    6  C16 UNL     1      17.918 -24.015 -20.780  1.00  0.00     0.037 C 
HETATM    7  C8  UNL     1      16.448 -24.165 -20.589  1.00  0.00     0.020 C 
HETATM    8  C15 UNL     1      18.410 -24.455 -19.412  1.00  0.00     0.036 C 
HETATM    9  C17 UNL     1      18.540 -24.770 -21.894  1.00  0.00     0.039 C 
HETATM   10  C7  UNL     1      15.634 -23.848 -21.803  1.00  0.00     0.042 C 
HETATM   11  C9  UNL     1      16.249 -25.440 -19.879  1.00  0.00    -0.004 C 
HETATM   12  C6  UNL     1      15.772 -22.317 -21.916  1.00  0.00     0.179 C 
HETATM   13  C21 UNL     1      17.157 -21.890 -21.703  1.00  0.00     0.244 C 
HETATM   14  O2  UNL     1      17.546 -20.766 -22.168  1.00  0.00    -0.271 OA
HETATM   15  C10 UNL     1      16.170 -26.693 -20.688  1.00  0.00     0.005 C 
HETATM   16  C14 UNL     1      17.382 -25.411 -18.873  1.00  0.00    -0.008 C 
HETATM   17  C11 UNL     1      16.094 -27.834 -19.651  1.00  0.00     0.000 C 
HETATM   18  C12 UNL     1      17.544 -27.929 -19.149  1.00  0.00     0.000 C 
HETATM   19  C13 UNL     1      17.921 -26.697 -18.419  1.00  0.00     0.005 C 
BRANCH  12  20
HETATM   20  N2  UNL     1      14.855 -21.735 -20.990  1.00  0.00    -0.330 N 
HETATM   21  C5  UNL     1      14.008 -20.641 -21.051  1.00  0.00     0.317 C 
HETATM   22  N1  UNL     1      13.136 -20.347 -19.966  1.00  0.00    -0.328 N 
HETATM   23  O1  UNL     1      13.973 -19.871 -22.040  1.00  0.00    -0.247 OA
ATOM     24  H1  UNL     1      13.116 -21.008 -19.190  1.00  0.00     0.165 HD
ATOM     25  H2  UNL     1      14.814 -22.228 -20.098  1.00  0.00     0.165 HD
BRANCH  22  26
HETATM   26  C4  UNL     1      12.281 -19.196 -19.875  1.00  0.00     0.190 C 
BRANCH  26  27
HETATM   27  C2  UNL     1      10.820 -19.604 -19.913  1.00  0.00     0.011 C 
HETATM   28  C1  UNL     1      10.715 -21.021 -19.313  1.00  0.00     0.012 C 
HETATM   29  C3  UNL     1      10.250 -19.654 -21.288  1.00  0.00     0.012 C 
ENDBRANCH  26  27
BRANCH  26  30
HETATM   30  C22 UNL     1      12.646 -18.431 -18.670  1.00  0.00     0.197 C 
HETATM   31  O3  UNL     1      13.891 -18.402 -18.348  1.00  0.00    -0.646 OA
HETATM   32  O4  UNL     1      11.809 -17.730 -17.844  1.00  0.00    -0.646 OA
ENDBRANCH  26  30
ENDBRANCH  22  26
ENDBRANCH  12  20
ENDBRANCH   1   5
TORSDOF 5
ENDMDL
MODEL 4
REMARK VINA RESULT: -7.668090374      3.205      6.872
REMARK  5 active torsions:
REMARK  status: ('A' for Active; 'I' for Inactive)
REMARK    1  A    between atoms: C2_2  and  C4_4 
REMARK    2  A    between atoms: C4_4  and  N1_5 
REMARK    3  A    between atoms: C4_4  and  C22_30 
REMARK       I    between atoms: N1_5  and  C5_7 
REMARK       I    between atoms: C5_7  and  N2_9 
REMARK    4  A    between atoms: N2_9  and  C6_11 
REMARK    5  A    between atoms: N3_23  and  C18_24 
ROOT
HETATM    1  C18 UNL     1      14.346 -20.798 -19.137  1.00  0.00     0.191 C 
HETATM    2  C19 UNL     1      13.608 -21.731 -18.214  1.00  0.00     0.048 C 
HETATM    3  C20 UNL     1      13.606 -19.538 -19.199  1.00  0.00     0.084 C 
HETATM    4  N4  UNL     1      13.033 -18.494 -19.255  1.00  0.00    -0.195 NA
ENDROOT
BRANCH   1   5
HETATM    5  N3  UNL     1      14.593 -21.328 -20.455  1.00  0.00    -0.324 N 
HETATM    6  C16 UNL     1      15.930 -21.289 -21.007  1.00  0.00     0.037 C 
HETATM    7  C8  UNL     1      16.075 -22.480 -21.891  1.00  0.00     0.020 C 
HETATM    8  C15 UNL     1      16.975 -21.611 -19.953  1.00  0.00     0.036 C 
HETATM    9  C17 UNL     1      16.118 -19.955 -21.626  1.00  0.00     0.039 C 
HETATM   10  C7  UNL     1      15.194 -22.461 -23.099  1.00  0.00     0.042 C 
HETATM   11  C9  UNL     1      17.523 -22.715 -22.036  1.00  0.00    -0.004 C 
HETATM   12  C6  UNL     1      13.792 -22.694 -22.503  1.00  0.00     0.179 C 
HETATM   13  C21 UNL     1      13.583 -21.882 -21.302  1.00  0.00     0.244 C 
HETATM   14  O2  UNL     1      12.393 -21.608 -20.929  1.00  0.00    -0.271 OA
HETATM   15  C10 UNL     1      18.256 -21.963 -23.097  1.00  0.00     0.005 C 
HETATM   16  C14 UNL     1      18.018 -22.460 -20.627  1.00  0.00    -0.008 C 
HETATM   17  C11 UNL     1      19.741 -22.334 -22.896  1.00  0.00     0.000 C 
HETATM   18  C12 UNL     1      20.131 -21.506 -21.660  1.00  0.00     0.000 C 
HETATM   19  C13 UNL     1      19.393 -21.980 -20.467  1.00  0.00     0.005 C 
BRANCH  12  20
HETATM   20  N2  UNL     1      13.656 -24.095 -22.266  1.00  0.00    -0.330 N 
HETATM   21  C5  UNL     1      13.854 -24.895 -21.153  1.00  0.00     0.317 C 
HETATM   22  N1  UNL     1      13.555 -26.285 -21.205  1.00  0.00    -0.328 N 
HETATM   23  O1  UNL     1      14.301 -24.445 -20.071  1.00  0.00    -0.247 OA
ATOM     24  H1  UNL     1      13.130 -26.640 -22.061  1.00  0.00     0.165 HD
ATOM     25  H2  UNL     1      13.347 -24.616 -23.087  1.00  0.00     0.165 HD
BRANCH  22  26
HETATM   26  C4  UNL     1      13.800 -27.228 -20.150  1.00  0.00     0.190 C 
BRANCH  26  27
HETATM   27  C2  UNL     1      12.664 -28.228 -20.043  1.00  0.00     0.011 C 
HETATM   28  C1  UNL     1      11.379 -27.441 -19.717  1.00  0.00     0.012 C 
HETATM   29  C3  UNL     1      12.858 -29.239 -18.967  1.00  0.00     0.012 C 
ENDBRANCH  26  27
BRANCH  26  30
HETATM   30  C22 UNL     1      15.116 -27.855 -20.374  1.00  0.00     0.197 C 
HETATM   31  O3  UNL     1      15.514 -27.962 -21.592  1.00  0.00    -0.646 OA
HETATM   32  O4  UNL     1      15.980 -28.337 -19.427  1.00  0.00    -0.646 OA
ENDBRANCH  26  30
ENDBRANCH  22  26
ENDBRANCH  12  20
ENDBRANCH   1   5
TORSDOF 5
ENDMDL
MODEL 5
REMARK VINA RESULT: -7.488622431      3.008      7.563
REMARK  5 active torsions:
REMARK  status: ('A' for Active; 'I' for Inactive)
REMARK    1  A    between atoms: C2_2  and  C4_4 
REMARK    2  A    between atoms: C4_4  and  N1_5 
REMARK    3  A    between atoms: C4_4  and  C22_30 
REMARK       I    between atoms: N1_5  and  C5_7 
REMARK       I    between atoms: C5_7  and  N2_9 
REMARK    4  A    between atoms: N2_9  and  C6_11 
REMARK    5  A    between atoms: N3_23  and  C18_24 
ROOT
HETATM    1  C18 UNL     1      19.804 -20.861 -22.753  1.00  0.00     0.191 C 
HETATM    2  C19 UNL     1      19.922 -21.963 -23.772  1.00  0.00     0.048 C 
HETATM    3  C20 UNL     1      21.149 -20.376 -22.448  1.00  0.00     0.084 C 
HETATM    4  N4  UNL     1      22.232 -19.949 -22.193  1.00  0.00    -0.195 NA
ENDROOT
BRANCH   1   5
HETATM    5  N3  UNL     1      19.091 -21.225 -21.554  1.00  0.00    -0.324 N 
HETATM    6  C16 UNL     1      18.198 -20.272 -20.930  1.00  0.00     0.037 C 
HETATM    7  C8  UNL     1      17.101 -21.051 -20.291  1.00  0.00     0.020 C 
HETATM    8  C15 UNL     1      17.405 -19.495 -21.965  1.00  0.00     0.036 C 
HETATM    9  C17 UNL     1      19.018 -19.404 -20.050  1.00  0.00     0.039 C 
HETATM   10  C7  UNL     1      17.541 -21.919 -19.155  1.00  0.00     0.042 C 
HETATM   11  C9  UNL     1      15.976 -20.116 -20.113  1.00  0.00    -0.004 C 
HETATM   12  C6  UNL     1      18.333 -23.034 -19.865  1.00  0.00     0.179 C 
HETATM   13  C21 UNL     1      19.222 -22.486 -20.892  1.00  0.00     0.244 C 
HETATM   14  O2  UNL     1      20.237 -23.162 -21.270  1.00  0.00    -0.271 OA
HETATM   15  C10 UNL     1      15.953 -19.267 -18.885  1.00  0.00     0.005 C 
HETATM   16  C14 UNL     1      16.015 -19.339 -21.414  1.00  0.00    -0.008 C 
HETATM   17  C11 UNL     1      14.742 -18.329 -19.071  1.00  0.00     0.000 C 
HETATM   18  C12 UNL     1      15.262 -17.306 -20.094  1.00  0.00     0.000 C 
HETATM   19  C13 UNL     1      15.514 -17.962 -21.397  1.00  0.00     0.005 C 
BRANCH  12  20
HETATM   20  N2  UNL     1      17.386 -23.969 -20.381  1.00  0.00    -0.330 N 
HETATM   21  C5  UNL     1      16.513 -24.864 -19.787  1.00  0.00     0.317 C 
HETATM   22  N1  UNL     1      15.616 -25.629 -20.583  1.00  0.00    -0.328 N 
HETATM   23  O1  UNL     1      16.473 -25.043 -18.546  1.00  0.00    -0.247 OA
ATOM     24  H1  UNL     1      15.601 -25.438 -21.585  1.00  0.00     0.165 HD
ATOM     25  H2  UNL     1      17.344 -23.980 -21.400  1.00  0.00     0.165 HD
BRANCH  22  26
HETATM   26  C4  UNL     1      14.730 -26.648 -20.093  1.00  0.00     0.190 C 
BRANCH  26  27
HETATM   27  C2  UNL     1      13.437 -26.667 -20.887  1.00  0.00     0.011 C 
HETATM   28  C1  UNL     1      13.299 -25.301 -21.588  1.00  0.00     0.012 C 
HETATM   29  C3  UNL     1      12.224 -26.866 -20.046  1.00  0.00     0.012 C 
ENDBRANCH  26  27
BRANCH  26  30
HETATM   30  C22 UNL     1      15.443 -27.937 -20.100  1.00  0.00     0.197 C 
HETATM   31  O3  UNL     1      15.112 -28.786 -21.008  1.00  0.00    -0.646 OA
HETATM   32  O4  UNL     1      16.436 -28.343 -19.249  1.00  0.00    -0.646 OA
ENDBRANCH  26  30
ENDBRANCH  22  26
ENDBRANCH  12  20
ENDBRANCH   1   5
TORSDOF 5
ENDMDL
