MODEL 1
REMARK VINA RESULT: -9.297604495      0.000      0.000
REMARK  5 active torsions:
REMARK  status: ('A' for Active; 'I' for Inactive)
REMARK    1  A    between atoms: N1_1  and  S1_4 
REMARK    2  A    between atoms: S1_4  and  N2_7 
REMARK    3  A    between atoms: N2_7  and  C1_9 
REMARK    4  A    between atoms: C8_16  and  C9_17 
REMARK       I    between atoms: C9_17  and  N3_19 
REMARK    5  A    between atoms: N3_19  and  C10_21 
ROOT
HETATM    1  C1  UNL     1      19.112 -21.131 -21.134  1.00  0.00     0.186 C 
HETATM    2  C2  UNL     1      19.815 -22.132 -22.017  1.00  0.00     0.035 C 
HETATM    3  C3  UNL     1      18.888 -22.959 -22.850  1.00  0.00     0.004 C 
HETATM    4  C4  UNL     1      17.718 -22.142 -23.340  1.00  0.00     0.025 C 
HETATM    5  C5  UNL     1      16.502 -22.593 -22.551  1.00  0.00     0.088 C 
HETATM    6  C6  UNL     1      15.213 -22.036 -23.052  1.00  0.00     0.028 C 
HETATM    7  C7  UNL     1      14.468 -21.536 -21.842  1.00  0.00     0.037 C 
HETATM    8  C8  UNL     1      15.333 -21.969 -20.653  1.00  0.00     0.179 C 
HETATM    9  N4  UNL     1      16.670 -22.064 -21.196  1.00  0.00    -0.332 N 
HETATM   10  C19 UNL     1      17.879 -21.705 -20.523  1.00  0.00     0.244 C 
HETATM   11  O4  UNL     1      17.831 -21.921 -19.295  1.00  0.00    -0.271 OA
ENDROOT
BRANCH   8  12
HETATM   12  C9  UNL     1      14.791 -23.280 -20.231  1.00  0.00     0.241 C 
HETATM   13  O3  UNL     1      15.483 -23.987 -19.448  1.00  0.00    -0.271 OA
HETATM   14  N3  UNL     1      13.534 -23.688 -20.715  1.00  0.00    -0.355 N 
ATOM     15  H3  UNL     1      13.037 -23.057 -21.343  1.00  0.00     0.162 HD
BRANCH  14  16
HETATM   16  C10 UNL     1      12.894 -24.959 -20.372  1.00  0.00     0.084 C 
HETATM   17  C11 UNL     1      13.292 -26.000 -21.333  1.00  0.00     0.025 C 
HETATM   18  C12 UNL     1      14.208 -27.070 -20.851  1.00  0.00     0.002 C 
HETATM   19  C13 UNL     1      13.823 -27.785 -19.605  1.00  0.00     0.000 C 
HETATM   20  C14 UNL     1      12.693 -28.740 -19.717  1.00  0.00     0.000 C 
HETATM   21  C15 UNL     1      11.329 -28.194 -19.896  1.00  0.00     0.000 C 
HETATM   22  C16 UNL     1      11.042 -26.920 -19.178  1.00  0.00     0.000 C 
HETATM   23  C17 UNL     1      10.513 -25.838 -20.120  1.00  0.00     0.002 C 
HETATM   24  C18 UNL     1      11.438 -24.701 -20.205  1.00  0.00     0.025 C 
ENDBRANCH  14  16
ENDBRANCH   8  12
BRANCH   1  25
HETATM   25  N2  UNL     1      20.028 -20.739 -20.082  1.00  0.00    -0.289 N 
ATOM     26  H2  UNL     1      20.505 -21.398 -19.467  1.00  0.00     0.174 HD
BRANCH  25  27
HETATM   27  S1  UNL     1      20.214 -19.034 -19.994  1.00  0.00     0.313 S 
HETATM   28  O1  UNL     1      18.875 -18.379 -20.240  1.00  0.00    -0.183 OA
HETATM   29  O2  UNL     1      21.151 -18.503 -21.041  1.00  0.00    -0.183 OA
BRANCH  27  30
HETATM   30  N1  UNL     1      20.807 -18.530 -18.452  1.00  0.00    -0.312 N 
ATOM     31  H12 UNL     1      20.702 -19.061 -17.587  1.00  0.00     0.170 HD
ATOM     32  H11 UNL     1      21.272 -17.627 -18.555  1.00  0.00     0.170 HD
ENDBRANCH  27  30
ENDBRANCH  25  27
ENDBRANCH   1  25
TORSDOF 5
ENDMDL
MODEL 2
REMARK VINA RESULT: -8.891232373      0.889      1.048
REMARK  5 active torsions:
REMARK  status: ('A' for Active; 'I' for Inactive)
REMARK    1  A    between atoms: N1_1  and  S1_4 
REMARK    2  A    between atoms: S1_4  and  N2_7 
REMARK    3  A    between atoms: N2_7  and  C1_9 
REMARK    4  A    between atoms: C8_16  and  C9_17 
REMARK       I    between atoms: C9_17  and  N3_19 
REMARK    5  A    between atoms: N3_19  and  C10_21 
ROOT
HETATM    1  C1  UNL     1      18.945 -20.697 -20.597  1.00  0.00     0.186 C 
HETATM    2  C2  UNL     1      19.875 -21.750 -21.148  1.00  0.00     0.035 C 
HETATM    3  C3  UNL     1      19.200 -22.749 -22.033  1.00  0.00     0.004 C 
HETATM    4  C4  UNL     1      18.136 -22.097 -22.881  1.00  0.00     0.025 C 
HETATM    5  C5  UNL     1      16.794 -22.530 -22.320  1.00  0.00     0.088 C 
HETATM    6  C6  UNL     1      15.629 -22.145 -23.166  1.00  0.00     0.028 C 
HETATM    7  C7  UNL     1      14.607 -21.546 -22.235  1.00  0.00     0.037 C 
HETATM    8  C8  UNL     1      15.197 -21.750 -20.835  1.00  0.00     0.179 C 
HETATM    9  N4  UNL     1      16.626 -21.814 -21.053  1.00  0.00    -0.332 N 
HETATM   10  C19 UNL     1      17.633 -21.277 -20.192  1.00  0.00     0.244 C 
HETATM   11  O4  UNL     1      17.317 -21.330 -18.986  1.00  0.00    -0.271 OA
ENDROOT
BRANCH   8  12
HETATM   12  C9  UNL     1      14.633 -23.031 -20.354  1.00  0.00     0.241 C 
HETATM   13  O3  UNL     1      15.259 -23.657 -19.455  1.00  0.00    -0.271 OA
HETATM   14  N3  UNL     1      13.429 -23.500 -20.912  1.00  0.00    -0.355 N 
ATOM     15  H3  UNL     1      12.984 -22.932 -21.633  1.00  0.00     0.162 HD
BRANCH  14  16
HETATM   16  C10 UNL     1      12.773 -24.749 -20.521  1.00  0.00     0.084 C 
HETATM   17  C11 UNL     1      13.161 -25.831 -21.439  1.00  0.00     0.025 C 
HETATM   18  C12 UNL     1      14.064 -26.892 -20.913  1.00  0.00     0.002 C 
HETATM   19  C13 UNL     1      13.668 -27.553 -19.641  1.00  0.00     0.000 C 
HETATM   20  C14 UNL     1      12.526 -28.498 -19.718  1.00  0.00     0.000 C 
HETATM   21  C15 UNL     1      11.170 -27.944 -19.922  1.00  0.00     0.000 C 
HETATM   22  C16 UNL     1      10.896 -26.640 -19.256  1.00  0.00     0.000 C 
HETATM   23  C17 UNL     1      10.381 -25.590 -20.241  1.00  0.00     0.002 C 
HETATM   24  C18 UNL     1      11.320 -24.468 -20.368  1.00  0.00     0.025 C 
ENDBRANCH  14  16
ENDBRANCH   8  12
BRANCH   1  25
HETATM   25  N2  UNL     1      19.580 -20.100 -19.439  1.00  0.00    -0.289 N 
ATOM     26  H2  UNL     1      19.648 -20.554 -18.528  1.00  0.00     0.174 HD
BRANCH  25  27
HETATM   27  S1  UNL     1      20.205 -18.537 -19.783  1.00  0.00     0.313 S 
HETATM   28  O1  UNL     1      21.567 -18.682 -20.421  1.00  0.00    -0.183 OA
HETATM   29  O2  UNL     1      20.396 -17.709 -18.545  1.00  0.00    -0.183 OA
BRANCH  27  30
HETATM   30  N1  UNL     1      19.176 -17.655 -20.854  1.00  0.00    -0.312 N 
ATOM     31  H12 UNL     1      19.375 -17.480 -21.839  1.00  0.00     0.170 HD
ATOM     32  H11 UNL     1      18.351 -17.345 -20.339  1.00  0.00     0.170 HD
ENDBRANCH  27  30
ENDBRANCH  25  27
ENDBRANCH   1  25
TORSDOF 5
ENDMDL
MODEL 3
REMARK VINA RESULT: -8.291695392      1.367      1.613
REMARK  5 active torsions:
REMARK  status: ('A' for Active; 'I' for Inactive)
REMARK    1  A    between atoms: N1_1  and  S1_4 
REMARK    2  A    between atoms: S1_4  and  N2_7 
REMARK    3  A    between atoms: N2_7  and  C1_9 
REMARK    4  A    between atoms: C8_16  and  C9_17 
REMARK       I    between atoms: C9_17  and  N3_19 
REMARK    5  A    between atoms: N3_19  and  C10_21 
ROOT
HETATM    1  C1  UNL     1      17.988 -19.532 -20.021  1.00  0.00     0.186 C 
HETATM    2  C2  UNL     1      19.166 -20.438 -19.761  1.00  0.00     0.035 C 
HETATM    3  C3  UNL     1      19.055 -21.777 -20.419  1.00  0.00     0.004 C 
HETATM    4  C4  UNL     1      18.417 -21.664 -21.781  1.00  0.00     0.025 C 
HETATM    5  C5  UNL     1      17.016 -22.237 -21.663  1.00  0.00     0.088 C 
HETATM    6  C6  UNL     1      16.313 -22.397 -22.968  1.00  0.00     0.028 C 
HETATM    7  C7  UNL     1      14.931 -21.830 -22.777  1.00  0.00     0.037 C 
HETATM    8  C8  UNL     1      14.858 -21.486 -21.286  1.00  0.00     0.179 C 
HETATM    9  N4  UNL     1      16.235 -21.260 -20.902  1.00  0.00    -0.332 N 
HETATM   10  C19 UNL     1      16.698 -20.277 -19.973  1.00  0.00     0.244 C 
HETATM   11  O4  UNL     1      15.888 -20.067 -19.046  1.00  0.00    -0.271 OA
ENDROOT
BRANCH   8  12
HETATM   12  C9  UNL     1      14.271 -22.680 -20.636  1.00  0.00     0.241 C 
HETATM   13  O3  UNL     1      14.626 -22.951 -19.457  1.00  0.00    -0.271 OA
HETATM   14  N3  UNL     1      13.346 -23.462 -21.353  1.00  0.00    -0.355 N 
ATOM     15  H3  UNL     1      13.111 -23.173 -22.302  1.00  0.00     0.162 HD
BRANCH  14  16
HETATM   16  C10 UNL     1      12.699 -24.663 -20.821  1.00  0.00     0.084 C 
HETATM   17  C11 UNL     1      13.092 -25.840 -21.611  1.00  0.00     0.025 C 
HETATM   18  C12 UNL     1      14.002 -26.828 -20.970  1.00  0.00     0.002 C 
HETATM   19  C13 UNL     1      13.612 -27.343 -19.630  1.00  0.00     0.000 C 
HETATM   20  C14 UNL     1      12.477 -28.297 -19.597  1.00  0.00     0.000 C 
HETATM   21  C15 UNL     1      11.117 -27.779 -19.859  1.00  0.00     0.000 C 
HETATM   22  C16 UNL     1      10.836 -26.409 -19.345  1.00  0.00     0.000 C 
HETATM   23  C17 UNL     1      10.313 -25.481 -20.442  1.00  0.00     0.002 C 
HETATM   24  C18 UNL     1      11.244 -24.375 -20.697  1.00  0.00     0.025 C 
ENDBRANCH  14  16
ENDBRANCH   8  12
BRANCH   1  25
HETATM   25  N2  UNL     1      17.982 -18.501 -19.003  1.00  0.00    -0.289 N 
ATOM     26  H2  UNL     1      17.346 -18.490 -18.206  1.00  0.00     0.174 HD
BRANCH  25  27
HETATM   27  S1  UNL     1      19.174 -17.299 -19.298  1.00  0.00     0.313 S 
HETATM   28  O1  UNL     1      18.546 -15.935 -19.140  1.00  0.00    -0.183 OA
HETATM   29  O2  UNL     1      19.720 -17.363 -20.696  1.00  0.00    -0.183 OA
BRANCH  27  30
HETATM   30  N1  UNL     1      20.505 -17.433 -18.206  1.00  0.00    -0.312 N 
ATOM     31  H12 UNL     1      20.479 -17.926 -17.314  1.00  0.00     0.170 HD
ATOM     32  H11 UNL     1      21.307 -16.941 -18.601  1.00  0.00     0.170 HD
ENDBRANCH  27  30
ENDBRANCH  25  27
ENDBRANCH   1  25
TORSDOF 5
ENDMDL
MODEL 4
REMARK VINA RESULT: -8.217482847      2.353      3.081
REMARK  5 active torsions:
REMARK  status: ('A' for Active; 'I' for Inactive)
REMARK    1  A    between atoms: N1_1  and  S1_4 
REMARK    2  A    between atoms: S1_4  and  N2_7 
REMARK    3  A    between atoms: N2_7  and  C1_9 
REMARK    4  A    between atoms: C8_16  and  C9_17 
REMARK       I    between atoms: C9_17  and  N3_19 
REMARK    5  A    between atoms: N3_19  and  C10_21 
ROOT
HETATM    1  C1  UNL     1      18.742 -21.617 -22.159  1.00  0.00     0.186 C 
HETATM    2  C2  UNL     1      17.514 -20.916 -22.686  1.00  0.00     0.035 C 
HETATM    3  C3  UNL     1      16.371 -20.891 -21.722  1.00  0.00     0.004 C 
HETATM    4  C4  UNL     1      16.855 -20.701 -20.306  1.00  0.00     0.025 C 
HETATM    5  C5  UNL     1      16.687 -22.033 -19.597  1.00  0.00     0.088 C 
HETATM    6  C6  UNL     1      16.922 -21.971 -18.126  1.00  0.00     0.028 C 
HETATM    7  C7  UNL     1      17.820 -23.134 -17.791  1.00  0.00     0.037 C 
HETATM    8  C8  UNL     1      17.948 -23.911 -19.106  1.00  0.00     0.179 C 
HETATM    9  N4  UNL     1      17.722 -22.919 -20.134  1.00  0.00    -0.332 N 
HETATM   10  C19 UNL     1      18.389 -22.848 -21.396  1.00  0.00     0.244 C 
HETATM   11  O4  UNL     1      18.679 -23.973 -21.854  1.00  0.00    -0.271 OA
ENDROOT
BRANCH   8  12
HETATM   12  C9  UNL     1      16.885 -24.940 -19.059  1.00  0.00     0.241 C 
HETATM   13  O3  UNL     1      17.018 -25.897 -18.248  1.00  0.00    -0.271 OA
HETATM   14  N3  UNL     1      15.775 -24.815 -19.914  1.00  0.00    -0.355 N 
ATOM     15  H3  UNL     1      15.742 -24.011 -20.540  1.00  0.00     0.162 HD
BRANCH  14  16
HETATM   16  C10 UNL     1      14.663 -25.766 -19.962  1.00  0.00     0.084 C 
HETATM   17  C11 UNL     1      15.021 -26.921 -20.800  1.00  0.00     0.025 C 
HETATM   18  C12 UNL     1      15.259 -28.222 -20.116  1.00  0.00     0.002 C 
HETATM   19  C13 UNL     1      14.207 -28.702 -19.181  1.00  0.00     0.000 C 
HETATM   20  C14 UNL     1      12.956 -29.204 -19.801  1.00  0.00     0.000 C 
HETATM   21  C15 UNL     1      12.040 -28.224 -20.424  1.00  0.00     0.000 C 
HETATM   22  C16 UNL     1      11.948 -26.901 -19.746  1.00  0.00     0.000 C 
HETATM   23  C17 UNL     1      12.223 -25.744 -20.707  1.00  0.00     0.002 C 
HETATM   24  C18 UNL     1      13.436 -25.008 -20.328  1.00  0.00     0.025 C 
ENDBRANCH  14  16
ENDBRANCH   8  12
BRANCH   1  25
HETATM   25  N2  UNL     1      19.573 -21.978 -23.289  1.00  0.00    -0.289 N 
ATOM     26  H2  UNL     1      19.302 -22.653 -24.004  1.00  0.00     0.174 HD
BRANCH  25  27
HETATM   27  S1  UNL     1      21.069 -21.133 -23.282  1.00  0.00     0.313 S 
HETATM   28  O1  UNL     1      21.412 -20.727 -24.696  1.00  0.00    -0.183 OA
HETATM   29  O2  UNL     1      22.206 -21.983 -22.791  1.00  0.00    -0.183 OA
BRANCH  27  30
HETATM   30  N1  UNL     1      21.004 -19.718 -22.294  1.00  0.00    -0.312 N 
ATOM     31  H12 UNL     1      21.359 -19.658 -21.340  1.00  0.00     0.170 HD
ATOM     32  H11 UNL     1      20.557 -18.967 -22.821  1.00  0.00     0.170 HD
ENDBRANCH  27  30
ENDBRANCH  25  27
ENDBRANCH   1  25
TORSDOF 5
ENDMDL
MODEL 5
REMARK VINA RESULT: -8.147400873      2.233      2.734
REMARK  5 active torsions:
REMARK  status: ('A' for Active; 'I' for Inactive)
REMARK    1  A    between atoms: N1_1  and  S1_4 
REMARK    2  A    between atoms: S1_4  and  N2_7 
REMARK    3  A    between atoms: N2_7  and  C1_9 
REMARK    4  A    between atoms: C8_16  and  C9_17 
REMARK       I    between atoms: C9_17  and  N3_19 
REMARK    5  A    between atoms: N3_19  and  C10_21 
ROOT
HETATM    1  C1  UNL     1      18.516 -21.842 -23.146  1.00  0.00     0.186 C 
HETATM    2  C2  UNL     1      17.486 -21.948 -24.243  1.00  0.00     0.035 C 
HETATM    3  C3  UNL     1      16.073 -21.904 -23.753  1.00  0.00     0.004 C 
HETATM    4  C4  UNL     1      15.924 -20.936 -22.605  1.00  0.00     0.025 C 
HETATM    5  C5  UNL     1      15.737 -21.765 -21.347  1.00  0.00     0.088 C 
HETATM    6  C6  UNL     1      15.365 -20.967 -20.144  1.00  0.00     0.028 C 
HETATM    7  C7  UNL     1      16.256 -21.444 -19.027  1.00  0.00     0.037 C 
HETATM    8  C8  UNL     1      17.026 -22.625 -19.627  1.00  0.00     0.179 C 
HETATM    9  N4  UNL     1      17.042 -22.359 -21.049  1.00  0.00    -0.332 N 
HETATM   10  C19 UNL     1      18.124 -22.631 -21.943  1.00  0.00     0.244 C 
HETATM   11  O4  UNL     1      18.768 -23.652 -21.627  1.00  0.00    -0.271 OA
ENDROOT
BRANCH   8  12
HETATM   12  C9  UNL     1      16.235 -23.827 -19.278  1.00  0.00     0.241 C 
HETATM   13  O3  UNL     1      16.213 -24.196 -18.072  1.00  0.00    -0.271 OA
HETATM   14  N3  UNL     1      15.543 -24.509 -20.296  1.00  0.00    -0.355 N 
ATOM     15  H3  UNL     1      15.611 -24.145 -21.246  1.00  0.00     0.162 HD
BRANCH  14  16
HETATM   16  C10 UNL     1      14.731 -25.707 -20.077  1.00  0.00     0.084 C 
HETATM   17  C11 UNL     1      15.272 -26.833 -20.854  1.00  0.00     0.025 C 
HETATM   18  C12 UNL     1      15.939 -27.932 -20.102  1.00  0.00     0.002 C 
HETATM   19  C13 UNL     1      15.187 -28.536 -18.970  1.00  0.00     0.000 C 
HETATM   20  C14 UNL     1      14.046 -29.414 -19.332  1.00  0.00     0.000 C 
HETATM   21  C15 UNL     1      12.826 -28.785 -19.885  1.00  0.00     0.000 C 
HETATM   22  C16 UNL     1      12.474 -27.451 -19.324  1.00  0.00     0.000 C 
HETATM   23  C17 UNL     1      12.299 -26.397 -20.418  1.00  0.00     0.002 C 
HETATM   24  C18 UNL     1      13.308 -25.336 -20.308  1.00  0.00     0.025 C 
ENDBRANCH  14  16
ENDBRANCH   8  12
BRANCH   1  25
HETATM   25  N2  UNL     1      19.772 -22.348 -23.659  1.00  0.00    -0.289 N 
ATOM     26  H2  UNL     1      19.868 -23.227 -24.168  1.00  0.00     0.174 HD
BRANCH  25  27
HETATM   27  S1  UNL     1      21.081 -21.291 -23.311  1.00  0.00     0.313 S 
HETATM   28  O1  UNL     1      21.607 -20.715 -24.604  1.00  0.00    -0.183 OA
HETATM   29  O2  UNL     1      22.232 -21.998 -22.656  1.00  0.00    -0.183 OA
BRANCH  27  30
HETATM   30  N1  UNL     1      20.602 -19.994 -22.275  1.00  0.00    -0.312 N 
ATOM     31  H12 UNL     1      20.931 -19.032 -22.358  1.00  0.00     0.170 HD
ATOM     32  H11 UNL     1      19.946 -20.351 -21.580  1.00  0.00     0.170 HD
ENDBRANCH  27  30
ENDBRANCH  25  27
ENDBRANCH   1  25
TORSDOF 5
ENDMDL
