MODEL 1
REMARK VINA RESULT: -6.118542874      0.000      0.000
REMARK  6 active torsions:
REMARK  status: ('A' for Active; 'I' for Inactive)
REMARK    1  A    between atoms: N1_2  and  C2_4 
REMARK    2  A    between atoms: C2_4  and  C4_6 
REMARK       I    between atoms: C4_6  and  N2_8 
REMARK    3  A    between atoms: C12_22  and  C13_23 
REMARK    4  A    between atoms: C12_22  and  C14_26 
REMARK    5  A    between atoms: C13_23  and  O2_24 
REMARK    6  A    between atoms: C14_26  and  O4_28 
ROOT
HETATM    1  C4  UNL     1      22.623 -43.682 -73.043  1.00  0.00     0.245 C 
HETATM    2  O1  UNL     1      21.523 -43.883 -72.535  1.00  0.00    -0.271 OA
HETATM    3  N2  UNL     1      22.940 -44.368 -74.289  1.00  0.00    -0.326 N 
HETATM    4  C5  UNL     1      24.211 -43.931 -74.805  1.00  0.00     0.150 C 
HETATM    5  C6  UNL     1      24.415 -44.406 -76.188  1.00  0.00     0.139 C 
HETATM    6  N3  UNL     1      25.067 -43.537 -77.126  1.00  0.00    -0.400 N 
ATOM      7  H3  UNL     1      24.697 -42.613 -77.349  1.00  0.00     0.158 HD
HETATM    8  C7  UNL     1      26.237 -44.023 -77.718  1.00  0.00     0.060 C 
HETATM    9  C8  UNL     1      26.616 -45.453 -77.688  1.00  0.00     0.088 C 
HETATM   10  C9  UNL     1      25.937 -46.387 -78.597  1.00  0.00     0.060 C 
HETATM   11  N4  UNL     1      25.114 -47.403 -78.178  1.00  0.00    -0.400 N 
ATOM     12  H4  UNL     1      24.418 -47.709 -78.856  1.00  0.00     0.158 HD
HETATM   13  C10 UNL     1      25.095 -48.070 -76.970  1.00  0.00     0.138 C 
HETATM   14  C11 UNL     1      23.644 -48.107 -76.426  1.00  0.00     0.135 C 
HETATM   15  N5  UNL     1      23.440 -47.372 -75.248  1.00  0.00    -0.397 N 
ATOM     16  H5  UNL     1      24.222 -47.288 -74.598  1.00  0.00     0.154 HD
HETATM   17  C12 UNL     1      22.250 -46.753 -74.910  1.00  0.00     0.169 C 
HETATM   18  C16 UNL     1      22.078 -45.297 -74.852  1.00  0.00     0.110 C 
ENDROOT
BRANCH   1  19
HETATM   19  C2  UNL     1      23.534 -42.758 -72.351  1.00  0.00     0.165 C 
HETATM   20  C3  UNL     1      23.097 -42.787 -70.870  1.00  0.00     0.042 C 
BRANCH  19  21
HETATM   21  N1  UNL     1      23.408 -41.387 -72.775  1.00  0.00    -0.414 N 
HETATM   22  C1  UNL     1      22.675 -40.517 -71.909  1.00  0.00     0.140 C 
ATOM     23  H1  UNL     1      23.820 -41.055 -73.647  1.00  0.00     0.153 HD
ENDBRANCH  19  21
ENDBRANCH   1  19
BRANCH  17  24
HETATM   24  C13 UNL     1      21.890 -47.364 -73.503  1.00  0.00     0.211 C 
BRANCH  24  25
HETATM   25  O2  UNL     1      20.815 -46.736 -72.950  1.00  0.00    -0.398 OA
ATOM     26  H2  UNL     1      21.082 -45.976 -72.445  1.00  0.00     0.209 HD
ENDBRANCH  24  25
ENDBRANCH  17  24
BRANCH  17  27
HETATM   27  C14 UNL     1      21.099 -47.283 -75.716  1.00  0.00     0.294 C 
HETATM   28  O3  UNL     1      20.434 -48.240 -75.296  1.00  0.00    -0.262 OA
BRANCH  27  29
HETATM   29  O4  UNL     1      20.743 -46.731 -76.944  1.00  0.00    -0.324 OA
HETATM   30  C15 UNL     1      19.374 -46.412 -77.235  1.00  0.00     0.213 C 
ENDBRANCH  27  29
ENDBRANCH  17  27
TORSDOF 6
ENDMDL
MODEL 2
REMARK VINA RESULT: -6.062126208      4.042      6.551
REMARK  6 active torsions:
REMARK  status: ('A' for Active; 'I' for Inactive)
REMARK    1  A    between atoms: N1_2  and  C2_4 
REMARK    2  A    between atoms: C2_4  and  C4_6 
REMARK       I    between atoms: C4_6  and  N2_8 
REMARK    3  A    between atoms: C12_22  and  C13_23 
REMARK    4  A    between atoms: C12_22  and  C14_26 
REMARK    5  A    between atoms: C13_23  and  O2_24 
REMARK    6  A    between atoms: C14_26  and  O4_28 
ROOT
HETATM    1  C4  UNL     1      21.482 -45.353 -73.341  1.00  0.00     0.245 C 
HETATM    2  O1  UNL     1      22.088 -46.401 -73.550  1.00  0.00    -0.271 OA
HETATM    3  N2  UNL     1      20.027 -45.375 -73.411  1.00  0.00    -0.326 N 
HETATM    4  C5  UNL     1      19.477 -44.101 -73.026  1.00  0.00     0.150 C 
HETATM    5  C6  UNL     1      18.017 -44.191 -72.828  1.00  0.00     0.139 C 
HETATM    6  N3  UNL     1      17.420 -43.442 -71.758  1.00  0.00    -0.400 N 
ATOM      7  H3  UNL     1      17.701 -43.576 -70.787  1.00  0.00     0.158 HD
HETATM    8  C7  UNL     1      16.432 -42.520 -72.117  1.00  0.00     0.060 C 
HETATM    9  C8  UNL     1      15.764 -42.534 -73.438  1.00  0.00     0.088 C 
HETATM   10  C9  UNL     1      14.721 -43.537 -73.695  1.00  0.00     0.060 C 
HETATM   11  N4  UNL     1      14.838 -44.547 -74.618  1.00  0.00    -0.400 N 
ATOM     12  H4  UNL     1      14.269 -45.373 -74.436  1.00  0.00     0.158 HD
HETATM   13  C10 UNL     1      15.616 -44.605 -75.755  1.00  0.00     0.138 C 
HETATM   14  C11 UNL     1      16.402 -45.941 -75.774  1.00  0.00     0.135 C 
HETATM   15  N5  UNL     1      17.794 -45.805 -75.652  1.00  0.00    -0.397 N 
ATOM     16  H5  UNL     1      18.225 -44.961 -76.027  1.00  0.00     0.154 HD
HETATM   17  C12 UNL     1      18.620 -46.741 -75.055  1.00  0.00     0.169 C 
HETATM   18  C16 UNL     1      19.329 -46.511 -73.791  1.00  0.00     0.110 C 
ENDROOT
BRANCH   1  19
HETATM   19  C2  UNL     1      22.279 -44.156 -73.034  1.00  0.00     0.165 C 
HETATM   20  C3  UNL     1      23.511 -44.238 -73.963  1.00  0.00     0.042 C 
BRANCH  19  21
HETATM   21  N1  UNL     1      22.796 -44.128 -71.691  1.00  0.00    -0.414 N 
HETATM   22  C1  UNL     1      23.158 -42.845 -71.173  1.00  0.00     0.140 C 
ATOM     23  H1  UNL     1      22.900 -44.979 -71.137  1.00  0.00     0.153 HD
ENDBRANCH  19  21
ENDBRANCH   1  19
BRANCH  17  24
HETATM   24  C13 UNL     1      19.672 -47.087 -76.174  1.00  0.00     0.211 C 
BRANCH  24  25
HETATM   25  O2  UNL     1      20.625 -47.945 -75.711  1.00  0.00    -0.398 OA
ATOM     26  H2  UNL     1      21.121 -48.328 -76.425  1.00  0.00     0.209 HD
ENDBRANCH  24  25
ENDBRANCH  17  24
BRANCH  17  27
HETATM   27  C14 UNL     1      17.944 -48.077 -74.923  1.00  0.00     0.294 C 
HETATM   28  O3  UNL     1      17.476 -48.431 -73.833  1.00  0.00    -0.262 OA
BRANCH  27  29
HETATM   29  O4  UNL     1      17.824 -48.950 -76.000  1.00  0.00    -0.324 OA
HETATM   30  C15 UNL     1      16.615 -49.697 -76.207  1.00  0.00     0.213 C 
ENDBRANCH  27  29
ENDBRANCH  17  27
TORSDOF 6
ENDMDL
MODEL 3
REMARK VINA RESULT: -5.967512226      2.811      5.181
REMARK  6 active torsions:
REMARK  status: ('A' for Active; 'I' for Inactive)
REMARK    1  A    between atoms: N1_2  and  C2_4 
REMARK    2  A    between atoms: C2_4  and  C4_6 
REMARK       I    between atoms: C4_6  and  N2_8 
REMARK    3  A    between atoms: C12_22  and  C13_23 
REMARK    4  A    between atoms: C12_22  and  C14_26 
REMARK    5  A    between atoms: C13_23  and  O2_24 
REMARK    6  A    between atoms: C14_26  and  O4_28 
ROOT
HETATM    1  C4  UNL     1      22.721 -42.892 -72.729  1.00  0.00     0.245 C 
HETATM    2  O1  UNL     1      23.947 -42.955 -72.726  1.00  0.00    -0.271 OA
HETATM    3  N2  UNL     1      21.970 -44.128 -72.908  1.00  0.00    -0.326 N 
HETATM    4  C5  UNL     1      20.556 -43.891 -72.768  1.00  0.00     0.150 C 
HETATM    5  C6  UNL     1      19.812 -45.163 -72.674  1.00  0.00     0.139 C 
HETATM    6  N3  UNL     1      18.689 -45.238 -71.782  1.00  0.00    -0.400 N 
ATOM      7  H3  UNL     1      18.783 -45.057 -70.783  1.00  0.00     0.158 HD
HETATM    8  C7  UNL     1      17.459 -45.575 -72.356  1.00  0.00     0.060 C 
HETATM    9  C8  UNL     1      17.339 -46.168 -73.706  1.00  0.00     0.088 C 
HETATM   10  C9  UNL     1      17.651 -47.593 -73.886  1.00  0.00     0.060 C 
HETATM   11  N4  UNL     1      18.707 -48.059 -74.629  1.00  0.00    -0.400 N 
ATOM     12  H4  UNL     1      19.052 -48.982 -74.367  1.00  0.00     0.158 HD
HETATM   13  C10 UNL     1      19.369 -47.458 -75.680  1.00  0.00     0.138 C 
HETATM   14  C11 UNL     1      20.897 -47.523 -75.430  1.00  0.00     0.135 C 
HETATM   15  N5  UNL     1      21.512 -46.278 -75.222  1.00  0.00    -0.397 N 
ATOM     16  H5  UNL     1      21.110 -45.465 -75.689  1.00  0.00     0.154 HD
HETATM   17  C12 UNL     1      22.625 -46.081 -74.426  1.00  0.00     0.169 C 
HETATM   18  C16 UNL     1      22.599 -45.336 -73.161  1.00  0.00     0.110 C 
ENDROOT
BRANCH   1  19
HETATM   19  C2  UNL     1      22.107 -41.567 -72.550  1.00  0.00     0.165 C 
HETATM   20  C3  UNL     1      21.374 -41.274 -73.878  1.00  0.00     0.042 C 
BRANCH  19  21
HETATM   21  N1  UNL     1      23.060 -40.501 -72.380  1.00  0.00    -0.414 N 
HETATM   22  C1  UNL     1      22.620 -39.365 -71.632  1.00  0.00     0.140 C 
ATOM     23  H1  UNL     1      24.001 -40.553 -72.773  1.00  0.00     0.153 HD
ENDBRANCH  19  21
ENDBRANCH   1  19
BRANCH  17  24
HETATM   24  C13 UNL     1      23.669 -45.405 -75.393  1.00  0.00     0.211 C 
BRANCH  24  25
HETATM   25  O2  UNL     1      24.790 -45.020 -74.721  1.00  0.00    -0.398 OA
ATOM     26  H2  UNL     1      25.230 -45.765 -74.327  1.00  0.00     0.209 HD
ENDBRANCH  24  25
ENDBRANCH  17  24
BRANCH  17  27
HETATM   27  C14 UNL     1      23.343 -47.370 -74.142  1.00  0.00     0.294 C 
HETATM   28  O3  UNL     1      23.149 -47.967 -73.075  1.00  0.00    -0.262 OA
BRANCH  27  29
HETATM   29  O4  UNL     1      24.237 -47.929 -75.050  1.00  0.00    -0.324 OA
HETATM   30  C15 UNL     1      24.333 -49.354 -75.201  1.00  0.00     0.213 C 
ENDBRANCH  27  29
ENDBRANCH  17  27
TORSDOF 6
ENDMDL
MODEL 4
REMARK VINA RESULT: -5.893766169      5.243      8.227
REMARK  6 active torsions:
REMARK  status: ('A' for Active; 'I' for Inactive)
REMARK    1  A    between atoms: N1_2  and  C2_4 
REMARK    2  A    between atoms: C2_4  and  C4_6 
REMARK       I    between atoms: C4_6  and  N2_8 
REMARK    3  A    between atoms: C12_22  and  C13_23 
REMARK    4  A    between atoms: C12_22  and  C14_26 
REMARK    5  A    between atoms: C13_23  and  O2_24 
REMARK    6  A    between atoms: C14_26  and  O4_28 
ROOT
HETATM    1  C4  UNL     1      19.338 -47.286 -74.220  1.00  0.00     0.245 C 
HETATM    2  O1  UNL     1      19.541 -48.402 -74.690  1.00  0.00    -0.271 OA
HETATM    3  N2  UNL     1      17.971 -46.781 -74.214  1.00  0.00    -0.326 N 
HETATM    4  C5  UNL     1      17.895 -45.519 -73.525  1.00  0.00     0.150 C 
HETATM    5  C6  UNL     1      16.491 -45.135 -73.273  1.00  0.00     0.139 C 
HETATM    6  N3  UNL     1      16.166 -44.490 -72.032  1.00  0.00    -0.400 N 
ATOM      7  H3  UNL     1      16.354 -44.931 -71.132  1.00  0.00     0.158 HD
HETATM    8  C7  UNL     1      15.577 -43.225 -72.122  1.00  0.00     0.060 C 
HETATM    9  C8  UNL     1      14.986 -42.703 -73.374  1.00  0.00     0.088 C 
HETATM   10  C9  UNL     1      13.664 -43.191 -73.792  1.00  0.00     0.060 C 
HETATM   11  N4  UNL     1      13.445 -43.940 -74.922  1.00  0.00    -0.400 N 
ATOM     12  H4  UNL     1      12.615 -44.533 -74.899  1.00  0.00     0.158 HD
HETATM   13  C10 UNL     1      14.185 -44.005 -76.084  1.00  0.00     0.138 C 
HETATM   14  C11 UNL     1      14.449 -45.490 -76.443  1.00  0.00     0.135 C 
HETATM   15  N5  UNL     1      15.795 -45.881 -76.369  1.00  0.00    -0.397 N 
ATOM     16  H5  UNL     1      16.507 -45.178 -76.570  1.00  0.00     0.154 HD
HETATM   17  C12 UNL     1      16.220 -47.156 -76.042  1.00  0.00     0.169 C 
HETATM   18  C16 UNL     1      16.929 -47.483 -74.800  1.00  0.00     0.110 C 
ENDROOT
BRANCH   1  19
HETATM   19  C2  UNL     1      20.496 -46.546 -73.697  1.00  0.00     0.165 C 
HETATM   20  C3  UNL     1      21.154 -45.893 -74.933  1.00  0.00     0.042 C 
BRANCH  19  21
HETATM   21  N1  UNL     1      21.507 -47.386 -73.108  1.00  0.00    -0.414 N 
HETATM   22  C1  UNL     1      22.810 -47.323 -73.693  1.00  0.00     0.140 C 
ATOM     23  H1  UNL     1      21.304 -47.995 -72.315  1.00  0.00     0.153 HD
ENDBRANCH  19  21
ENDBRANCH   1  19
BRANCH  17  24
HETATM   24  C13 UNL     1      17.115 -47.583 -77.266  1.00  0.00     0.211 C 
BRANCH  24  25
HETATM   25  O2  UNL     1      17.740 -48.771 -77.033  1.00  0.00    -0.398 OA
ATOM     26  H2  UNL     1      18.076 -49.149 -77.837  1.00  0.00     0.209 HD
ENDBRANCH  24  25
ENDBRANCH  17  24
BRANCH  17  27
HETATM   27  C14 UNL     1      15.114 -48.163 -76.176  1.00  0.00     0.294 C 
HETATM   28  O3  UNL     1      14.841 -48.644 -77.285  1.00  0.00    -0.262 OA
BRANCH  27  29
HETATM   29  O4  UNL     1      14.367 -48.586 -75.080  1.00  0.00    -0.324 OA
HETATM   30  C15 UNL     1      14.206 -49.984 -74.798  1.00  0.00     0.213 C 
ENDBRANCH  27  29
ENDBRANCH  17  27
TORSDOF 6
ENDMDL
MODEL 5
REMARK VINA RESULT: -5.871245719      3.030      5.511
REMARK  6 active torsions:
REMARK  status: ('A' for Active; 'I' for Inactive)
REMARK    1  A    between atoms: N1_2  and  C2_4 
REMARK    2  A    between atoms: C2_4  and  C4_6 
REMARK       I    between atoms: C4_6  and  N2_8 
REMARK    3  A    between atoms: C12_22  and  C13_23 
REMARK    4  A    between atoms: C12_22  and  C14_26 
REMARK    5  A    between atoms: C13_23  and  O2_24 
REMARK    6  A    between atoms: C14_26  and  O4_28 
ROOT
HETATM    1  C4  UNL     1      22.453 -44.139 -72.700  1.00  0.00     0.245 C 
HETATM    2  O1  UNL     1      23.600 -44.570 -72.786  1.00  0.00    -0.271 OA
HETATM    3  N2  UNL     1      21.356 -45.033 -73.046  1.00  0.00    -0.326 N 
HETATM    4  C5  UNL     1      20.085 -44.411 -72.777  1.00  0.00     0.150 C 
HETATM    5  C6  UNL     1      18.985 -45.392 -72.862  1.00  0.00     0.139 C 
HETATM    6  N3  UNL     1      17.899 -45.291 -71.928  1.00  0.00    -0.400 N 
ATOM      7  H3  UNL     1      18.051 -45.337 -70.921  1.00  0.00     0.158 HD
HETATM    8  C7  UNL     1      16.622 -45.125 -72.472  1.00  0.00     0.060 C 
HETATM    9  C8  UNL     1      16.316 -45.389 -73.896  1.00  0.00     0.088 C 
HETATM   10  C9  UNL     1      16.172 -46.781 -74.345  1.00  0.00     0.060 C 
HETATM   11  N4  UNL     1      17.028 -47.396 -75.225  1.00  0.00    -0.400 N 
ATOM     12  H4  UNL     1      17.072 -48.412 -75.153  1.00  0.00     0.158 HD
HETATM   13  C10 UNL     1      17.836 -46.837 -76.192  1.00  0.00     0.138 C 
HETATM   14  C11 UNL     1      19.272 -47.407 -76.056  1.00  0.00     0.135 C 
HETATM   15  N5  UNL     1      20.242 -46.469 -75.671  1.00  0.00    -0.397 N 
ATOM     16  H5  UNL     1      20.108 -45.500 -75.960  1.00  0.00     0.154 HD
HETATM   17  C12 UNL     1      21.366 -46.771 -74.924  1.00  0.00     0.169 C 
HETATM   18  C16 UNL     1      21.579 -46.306 -73.549  1.00  0.00     0.110 C 
ENDROOT
BRANCH   1  19
HETATM   19  C2  UNL     1      22.280 -42.750 -72.251  1.00  0.00     0.165 C 
HETATM   20  C3  UNL     1      22.418 -41.888 -73.526  1.00  0.00     0.042 C 
BRANCH  19  21
HETATM   21  N1  UNL     1      23.309 -42.295 -71.352  1.00  0.00    -0.414 N 
HETATM   22  C1  UNL     1      23.024 -42.391 -69.954  1.00  0.00     0.140 C 
ATOM     23  H1  UNL     1      24.196 -41.923 -71.694  1.00  0.00     0.153 HD
ENDBRANCH  19  21
ENDBRANCH   1  19
BRANCH  17  24
HETATM   24  C13 UNL     1      22.562 -46.274 -75.821  1.00  0.00     0.211 C 
BRANCH  24  25
HETATM   25  O2  UNL     1      23.740 -46.305 -75.138  1.00  0.00    -0.398 OA
ATOM     26  H2  UNL     1      24.428 -45.853 -75.613  1.00  0.00     0.209 HD
ENDBRANCH  24  25
ENDBRANCH  17  24
BRANCH  17  27
HETATM   27  C14 UNL     1      21.652 -48.246 -74.920  1.00  0.00     0.294 C 
HETATM   28  O3  UNL     1      21.068 -48.990 -74.120  1.00  0.00    -0.262 OA
BRANCH  27  29
HETATM   29  O4  UNL     1      22.568 -48.821 -75.797  1.00  0.00    -0.324 OA
HETATM   30  C15 UNL     1      23.560 -49.743 -75.319  1.00  0.00     0.213 C 
ENDBRANCH  27  29
ENDBRANCH  17  27
TORSDOF 6
ENDMDL
