MODEL 1
REMARK VINA RESULT: -6.970354183      0.000      0.000
REMARK  8 active torsions:
REMARK  status: ('A' for Active; 'I' for Inactive)
REMARK    1  A    between atoms: C5_6  and  O1_7 
REMARK    2  A    between atoms: C9_12  and  O2_13 
REMARK    3  A    between atoms: O2_13  and  C10_14 
REMARK    4  A    between atoms: C11_16  and  C12_17 
REMARK    5  A    between atoms: C12_17  and  O4_18 
REMARK    6  A    between atoms: C13_20  and  O5_21 
REMARK    7  A    between atoms: C14_23  and  O6_24 
REMARK    8  A    between atoms: C15_26  and  O7_27 
ROOT
HETATM    1  C10 UNL     1      18.882 -45.791 -74.099  1.00  0.00     0.292 C 
HETATM    2  O3  UNL     1      18.745 -46.945 -74.832  1.00  0.00    -0.348 OA
HETATM    3  C11 UNL     1      17.902 -47.880 -74.285  1.00  0.00     0.179 C 
HETATM    4  C13 UNL     1      16.532 -47.329 -73.965  1.00  0.00     0.180 C 
HETATM    5  C14 UNL     1      16.569 -45.959 -73.366  1.00  0.00     0.183 C 
HETATM    6  C15 UNL     1      17.537 -45.066 -74.127  1.00  0.00     0.204 C 
ENDROOT
BRANCH   1   7
HETATM    7  O2  UNL     1      19.825 -44.959 -74.624  1.00  0.00    -0.353 OA
BRANCH   7   8
HETATM    8  C9  UNL     1      20.258 -43.949 -73.814  1.00  0.00     0.132 C 
HETATM    9  C8  UNL     1      20.606 -44.369 -72.415  1.00  0.00     0.039 C 
HETATM   10  C7  UNL     1      21.799 -43.526 -72.007  1.00  0.00     0.029 C 
HETATM   11  C6  UNL     1      21.823 -42.444 -73.095  1.00  0.00     0.030 C 
HETATM   12  C17 UNL     1      23.116 -44.235 -72.309  1.00  0.00     0.234 C 
HETATM   13  C5  UNL     1      23.210 -41.918 -73.008  1.00  0.00     0.129 C 
HETATM   14  C16 UNL     1      21.572 -43.323 -74.304  1.00  0.00     0.055 C 
HETATM   15  C4  UNL     1      24.004 -43.232 -72.983  1.00  0.00     0.050 C 
HETATM   16  C3  UNL     1      24.012 -43.688 -74.448  1.00  0.00     0.045 C 
HETATM   17  C2  UNL     1      22.638 -44.351 -74.496  1.00  0.00     0.230 C 
HETATM   18  N1  UNL     1      22.766 -45.234 -73.334  1.00  0.00     0.094 N 
HETATM   19  C1  UNL     1      23.892 -46.099 -73.472  1.00  0.00     0.310 C 
BRANCH  13  20
HETATM   20  O1  UNL     1      23.358 -41.214 -71.840  1.00  0.00    -0.395 OA
ATOM     21  H1  UNL     1      24.202 -40.779 -71.796  1.00  0.00     0.210 HD
ENDBRANCH  13  20
ENDBRANCH   7   8
ENDBRANCH   1   7
BRANCH   6  22
HETATM   22  O7  UNL     1      17.074 -44.870 -75.405  1.00  0.00    -0.388 OA
ATOM     23  H7  UNL     1      17.379 -44.052 -75.780  1.00  0.00     0.210 HD
ENDBRANCH   6  22
BRANCH   3  24
HETATM   24  C12 UNL     1      18.528 -48.613 -73.116  1.00  0.00     0.198 C 
BRANCH  24  25
HETATM   25  O4  UNL     1      18.213 -49.952 -73.154  1.00  0.00    -0.398 OA
ATOM     26  H4  UNL     1      19.000 -50.483 -73.195  1.00  0.00     0.209 HD
ENDBRANCH  24  25
ENDBRANCH   3  24
BRANCH   5  27
HETATM   27  O6  UNL     1      16.886 -46.008 -72.012  1.00  0.00    -0.390 OA
ATOM     28  H6  UNL     1      17.041 -45.138 -71.662  1.00  0.00     0.210 HD
ENDBRANCH   5  27
BRANCH   4  29
HETATM   29  O5  UNL     1      15.805 -48.160 -73.131  1.00  0.00    -0.390 OA
ATOM     30  H5  UNL     1      15.504 -47.718 -72.346  1.00  0.00     0.210 HD
ENDBRANCH   4  29
TORSDOF 8
ENDMDL
MODEL 2
REMARK VINA RESULT: -6.849629531      3.377      6.854
REMARK  8 active torsions:
REMARK  status: ('A' for Active; 'I' for Inactive)
REMARK    1  A    between atoms: C5_6  and  O1_7 
REMARK    2  A    between atoms: C9_12  and  O2_13 
REMARK    3  A    between atoms: O2_13  and  C10_14 
REMARK    4  A    between atoms: C11_16  and  C12_17 
REMARK    5  A    between atoms: C12_17  and  O4_18 
REMARK    6  A    between atoms: C13_20  and  O5_21 
REMARK    7  A    between atoms: C14_23  and  O6_24 
REMARK    8  A    between atoms: C15_26  and  O7_27 
ROOT
HETATM    1  C10 UNL     1      21.947 -48.345 -74.764  1.00  0.00     0.292 C 
HETATM    2  O3  UNL     1      21.891 -48.125 -76.119  1.00  0.00    -0.348 OA
HETATM    3  C11 UNL     1      22.954 -47.425 -76.634  1.00  0.00     0.179 C 
HETATM    4  C13 UNL     1      24.292 -48.035 -76.285  1.00  0.00     0.180 C 
HETATM    5  C14 UNL     1      24.370 -48.522 -74.873  1.00  0.00     0.183 C 
HETATM    6  C15 UNL     1      23.114 -49.296 -74.501  1.00  0.00     0.204 C 
ENDROOT
BRANCH   1   7
HETATM    7  O2  UNL     1      20.809 -48.929 -74.292  1.00  0.00    -0.353 OA
BRANCH   7   8
HETATM    8  C9  UNL     1      19.964 -48.122 -73.588  1.00  0.00     0.132 C 
HETATM    9  C8  UNL     1      20.020 -46.670 -73.963  1.00  0.00     0.039 C 
HETATM   10  C7  UNL     1      18.599 -46.150 -73.853  1.00  0.00     0.029 C 
HETATM   11  C6  UNL     1      17.897 -47.280 -73.087  1.00  0.00     0.030 C 
HETATM   12  C17 UNL     1      17.864 -46.238 -75.187  1.00  0.00     0.234 C 
HETATM   13  C5  UNL     1      16.461 -47.037 -73.382  1.00  0.00     0.129 C 
HETATM   14  C16 UNL     1      18.486 -48.465 -73.826  1.00  0.00     0.055 C 
HETATM   15  C4  UNL     1      16.520 -46.839 -74.903  1.00  0.00     0.050 C 
HETATM   16  C3  UNL     1      16.640 -48.265 -75.457  1.00  0.00     0.045 C 
HETATM   17  C2  UNL     1      18.143 -48.461 -75.280  1.00  0.00     0.230 C 
HETATM   18  N1  UNL     1      18.617 -47.248 -75.953  1.00  0.00     0.094 N 
HETATM   19  C1  UNL     1      18.140 -47.191 -77.295  1.00  0.00     0.310 C 
BRANCH  13  20
HETATM   20  O1  UNL     1      16.050 -45.897 -72.738  1.00  0.00    -0.395 OA
ATOM     21  H1  UNL     1      16.231 -45.936 -71.806  1.00  0.00     0.210 HD
ENDBRANCH  13  20
ENDBRANCH   7   8
ENDBRANCH   1   7
BRANCH   6  22
HETATM   22  O7  UNL     1      23.039 -50.440 -75.256  1.00  0.00    -0.388 OA
ATOM     23  H7  UNL     1      22.583 -50.302 -76.078  1.00  0.00     0.210 HD
ENDBRANCH   6  22
BRANCH   3  24
HETATM   24  C12 UNL     1      22.883 -45.945 -76.319  1.00  0.00     0.198 C 
BRANCH  24  25
HETATM   25  O4  UNL     1      23.425 -45.200 -77.341  1.00  0.00    -0.398 OA
ATOM     26  H4  UNL     1      23.531 -45.727 -78.124  1.00  0.00     0.209 HD
ENDBRANCH  24  25
ENDBRANCH   3  24
BRANCH   5  27
HETATM   27  O6  UNL     1      24.597 -47.473 -73.988  1.00  0.00    -0.390 OA
ATOM     28  H6  UNL     1      25.518 -47.241 -73.956  1.00  0.00     0.210 HD
ENDBRANCH   5  27
BRANCH   4  29
HETATM   29  O5  UNL     1      25.348 -47.172 -76.518  1.00  0.00    -0.390 OA
ATOM     30  H5  UNL     1      26.191 -47.605 -76.467  1.00  0.00     0.210 HD
ENDBRANCH   4  29
TORSDOF 8
ENDMDL
MODEL 3
REMARK VINA RESULT: -6.725483795      1.344      1.580
REMARK  8 active torsions:
REMARK  status: ('A' for Active; 'I' for Inactive)
REMARK    1  A    between atoms: C5_6  and  O1_7 
REMARK    2  A    between atoms: C9_12  and  O2_13 
REMARK    3  A    between atoms: O2_13  and  C10_14 
REMARK    4  A    between atoms: C11_16  and  C12_17 
REMARK    5  A    between atoms: C12_17  and  O4_18 
REMARK    6  A    between atoms: C13_20  and  O5_21 
REMARK    7  A    between atoms: C14_23  and  O6_24 
REMARK    8  A    between atoms: C15_26  and  O7_27 
ROOT
HETATM    1  C10 UNL     1      19.369 -44.688 -73.583  1.00  0.00     0.292 C 
HETATM    2  O3  UNL     1      19.274 -45.605 -74.602  1.00  0.00    -0.348 OA
HETATM    3  C11 UNL     1      18.729 -46.813 -74.242  1.00  0.00     0.179 C 
HETATM    4  C13 UNL     1      17.384 -46.679 -73.567  1.00  0.00     0.180 C 
HETATM    5  C14 UNL     1      17.319 -45.545 -72.594  1.00  0.00     0.183 C 
HETATM    6  C15 UNL     1      17.947 -44.292 -73.187  1.00  0.00     0.204 C 
ENDROOT
BRANCH   1   7
HETATM    7  O2  UNL     1      20.032 -43.561 -73.967  1.00  0.00    -0.353 OA
BRANCH   7   8
HETATM    8  C9  UNL     1      21.184 -43.278 -73.294  1.00  0.00     0.132 C 
HETATM    9  C8  UNL     1      21.666 -44.370 -72.384  1.00  0.00     0.039 C 
HETATM   10  C7  UNL     1      23.181 -44.348 -72.464  1.00  0.00     0.029 C 
HETATM   11  C6  UNL     1      23.451 -43.007 -73.160  1.00  0.00     0.030 C 
HETATM   12  C17 UNL     1      23.701 -45.309 -73.528  1.00  0.00     0.234 C 
HETATM   13  C5  UNL     1      24.836 -43.175 -73.674  1.00  0.00     0.129 C 
HETATM   14  C16 UNL     1      22.384 -43.082 -74.233  1.00  0.00     0.055 C 
HETATM   15  C4  UNL     1      24.723 -44.560 -74.328  1.00  0.00     0.050 C 
HETATM   16  C3  UNL     1      24.007 -44.283 -75.657  1.00  0.00     0.045 C 
HETATM   17  C2  UNL     1      22.569 -44.249 -75.147  1.00  0.00     0.230 C 
HETATM   18  N1  UNL     1      22.549 -45.522 -74.422  1.00  0.00     0.094 N 
HETATM   19  C1  UNL     1      22.888 -46.605 -75.286  1.00  0.00     0.310 C 
BRANCH  13  20
HETATM   20  O1  UNL     1      25.715 -43.182 -72.620  1.00  0.00    -0.395 OA
ATOM     21  H1  UNL     1      25.856 -44.060 -72.286  1.00  0.00     0.210 HD
ENDBRANCH  13  20
ENDBRANCH   7   8
ENDBRANCH   1   7
BRANCH   6  22
HETATM   22  O7  UNL     1      17.203 -43.869 -74.260  1.00  0.00    -0.388 OA
ATOM     23  H7  UNL     1      17.114 -42.923 -74.289  1.00  0.00     0.210 HD
ENDBRANCH   6  22
BRANCH   3  24
HETATM   24  C12 UNL     1      19.697 -47.677 -73.459  1.00  0.00     0.198 C 
BRANCH  24  25
HETATM   25  O4  UNL     1      19.574 -48.999 -73.820  1.00  0.00    -0.398 OA
ATOM     26  H4  UNL     1      19.911 -49.143 -74.696  1.00  0.00     0.209 HD
ENDBRANCH  24  25
ENDBRANCH   3  24
BRANCH   5  27
HETATM   27  O6  UNL     1      17.914 -45.883 -71.383  1.00  0.00    -0.390 OA
ATOM     28  H6  UNL     1      18.859 -45.799 -71.426  1.00  0.00     0.210 HD
ENDBRANCH   5  27
BRANCH   4  29
HETATM   29  O5  UNL     1      16.993 -47.841 -72.924  1.00  0.00    -0.390 OA
ATOM     30  H5  UNL     1      16.733 -48.524 -73.530  1.00  0.00     0.210 HD
ENDBRANCH   4  29
TORSDOF 8
ENDMDL
MODEL 4
REMARK VINA RESULT: -6.696795146      3.456      5.875
REMARK  8 active torsions:
REMARK  status: ('A' for Active; 'I' for Inactive)
REMARK    1  A    between atoms: C5_6  and  O1_7 
REMARK    2  A    between atoms: C9_12  and  O2_13 
REMARK    3  A    between atoms: O2_13  and  C10_14 
REMARK    4  A    between atoms: C11_16  and  C12_17 
REMARK    5  A    between atoms: C12_17  and  O4_18 
REMARK    6  A    between atoms: C13_20  and  O5_21 
REMARK    7  A    between atoms: C14_23  and  O6_24 
REMARK    8  A    between atoms: C15_26  and  O7_27 
ROOT
HETATM    1  C10 UNL     1      18.400 -45.979 -74.052  1.00  0.00     0.292 C 
HETATM    2  O3  UNL     1      17.829 -46.641 -72.991  1.00  0.00    -0.348 OA
HETATM    3  C11 UNL     1      17.747 -48.004 -73.138  1.00  0.00     0.179 C 
HETATM    4  C13 UNL     1      19.074 -48.646 -73.469  1.00  0.00     0.180 C 
HETATM    5  C14 UNL     1      19.880 -47.865 -74.457  1.00  0.00     0.183 C 
HETATM    6  C15 UNL     1      19.872 -46.385 -74.108  1.00  0.00     0.204 C 
ENDROOT
BRANCH   1   7
HETATM    7  O2  UNL     1      18.337 -44.626 -73.905  1.00  0.00    -0.353 OA
BRANCH   7   8
HETATM    8  C9  UNL     1      17.338 -44.150 -73.107  1.00  0.00     0.132 C 
HETATM    9  C8  UNL     1      17.502 -42.721 -72.677  1.00  0.00     0.039 C 
HETATM   10  C7  UNL     1      16.106 -42.126 -72.650  1.00  0.00     0.029 C 
HETATM   11  C6  UNL     1      15.218 -43.375 -72.740  1.00  0.00     0.030 C 
HETATM   12  C17 UNL     1      15.757 -41.456 -73.975  1.00  0.00     0.234 C 
HETATM   13  C5  UNL     1      13.915 -42.821 -73.194  1.00  0.00     0.129 C 
HETATM   14  C16 UNL     1      15.977 -44.125 -73.817  1.00  0.00     0.055 C 
HETATM   15  C4  UNL     1      14.382 -41.924 -74.349  1.00  0.00     0.050 C 
HETATM   16  C3  UNL     1      14.639 -42.907 -75.500  1.00  0.00     0.045 C 
HETATM   17  C2  UNL     1      16.038 -43.372 -75.106  1.00  0.00     0.230 C 
HETATM   18  N1  UNL     1      16.681 -42.065 -74.948  1.00  0.00     0.094 N 
HETATM   19  C1  UNL     1      16.583 -41.301 -76.148  1.00  0.00     0.310 C 
BRANCH  13  20
HETATM   20  O1  UNL     1      13.353 -42.089 -72.179  1.00  0.00    -0.395 OA
ATOM     21  H1  UNL     1      13.146 -42.632 -71.427  1.00  0.00     0.210 HD
ENDBRANCH  13  20
ENDBRANCH   7   8
ENDBRANCH   1   7
BRANCH   6  22
HETATM   22  O7  UNL     1      20.515 -46.192 -72.911  1.00  0.00    -0.388 OA
ATOM     23  H7  UNL     1      21.408 -46.517 -72.922  1.00  0.00     0.210 HD
ENDBRANCH   6  22
BRANCH   3  24
HETATM   24  C12 UNL     1      16.640 -48.420 -74.085  1.00  0.00     0.198 C 
BRANCH  24  25
HETATM   25  O4  UNL     1      15.429 -48.461 -73.433  1.00  0.00    -0.398 OA
ATOM     26  H4  UNL     1      15.221 -47.615 -73.054  1.00  0.00     0.209 HD
ENDBRANCH  24  25
ENDBRANCH   3  24
BRANCH   5  27
HETATM   27  O6  UNL     1      19.432 -48.080 -75.757  1.00  0.00    -0.390 OA
ATOM     28  H6  UNL     1      19.071 -47.286 -76.134  1.00  0.00     0.210 HD
ENDBRANCH   5  27
BRANCH   4  29
HETATM   29  O5  UNL     1      18.937 -49.943 -73.930  1.00  0.00    -0.390 OA
ATOM     30  H5  UNL     1      19.344 -50.074 -74.778  1.00  0.00     0.210 HD
ENDBRANCH   4  29
TORSDOF 8
ENDMDL
MODEL 5
REMARK VINA RESULT: -6.622355522      1.839      3.036
REMARK  8 active torsions:
REMARK  status: ('A' for Active; 'I' for Inactive)
REMARK    1  A    between atoms: C5_6  and  O1_7 
REMARK    2  A    between atoms: C9_12  and  O2_13 
REMARK    3  A    between atoms: O2_13  and  C10_14 
REMARK    4  A    between atoms: C11_16  and  C12_17 
REMARK    5  A    between atoms: C12_17  and  O4_18 
REMARK    6  A    between atoms: C13_20  and  O5_21 
REMARK    7  A    between atoms: C14_23  and  O6_24 
REMARK    8  A    between atoms: C15_26  and  O7_27 
ROOT
HETATM    1  C10 UNL     1      18.856 -46.985 -74.435  1.00  0.00     0.292 C 
HETATM    2  O3  UNL     1      17.598 -46.759 -74.938  1.00  0.00    -0.348 OA
HETATM    3  C11 UNL     1      16.884 -47.893 -75.238  1.00  0.00     0.179 C 
HETATM    4  C13 UNL     1      16.790 -48.859 -74.080  1.00  0.00     0.180 C 
HETATM    5  C14 UNL     1      18.070 -48.996 -73.318  1.00  0.00     0.183 C 
HETATM    6  C15 UNL     1      18.692 -47.633 -73.060  1.00  0.00     0.204 C 
ENDROOT
BRANCH   1   7
HETATM    7  O2  UNL     1      19.561 -45.828 -74.278  1.00  0.00    -0.353 OA
BRANCH   7   8
HETATM    8  C9  UNL     1      20.914 -45.921 -74.422  1.00  0.00     0.132 C 
HETATM    9  C8  UNL     1      21.483 -45.123 -75.559  1.00  0.00     0.039 C 
HETATM   10  C7  UNL     1      22.824 -44.601 -75.080  1.00  0.00     0.029 C 
HETATM   11  C6  UNL     1      23.065 -45.437 -73.815  1.00  0.00     0.030 C 
HETATM   12  C17 UNL     1      22.697 -43.213 -74.460  1.00  0.00     0.234 C 
HETATM   13  C5  UNL     1      24.087 -44.641 -73.083  1.00  0.00     0.129 C 
HETATM   14  C16 UNL     1      21.677 -45.357 -73.213  1.00  0.00     0.055 C 
HETATM   15  C4  UNL     1      23.462 -43.241 -73.171  1.00  0.00     0.050 C 
HETATM   16  C3  UNL     1      22.362 -43.260 -72.102  1.00  0.00     0.045 C 
HETATM   17  C2  UNL     1      21.265 -43.955 -72.904  1.00  0.00     0.230 C 
HETATM   18  N1  UNL     1      21.274 -43.104 -74.096  1.00  0.00     0.094 N 
HETATM   19  C1  UNL     1      21.037 -41.741 -73.750  1.00  0.00     0.310 C 
BRANCH  13  20
HETATM   20  O1  UNL     1      25.281 -44.707 -73.754  1.00  0.00    -0.395 OA
ATOM     21  H1  UNL     1      25.564 -45.605 -73.883  1.00  0.00     0.210 HD
ENDBRANCH  13  20
ENDBRANCH   7   8
ENDBRANCH   1   7
BRANCH   6  22
HETATM   22  O7  UNL     1      17.875 -46.904 -72.232  1.00  0.00    -0.388 OA
ATOM     23  H7  UNL     1      17.500 -47.432 -71.536  1.00  0.00     0.210 HD
ENDBRANCH   6  22
BRANCH   3  24
HETATM   24  C12 UNL     1      17.355 -48.553 -76.518  1.00  0.00     0.198 C 
BRANCH  24  25
HETATM   25  O4  UNL     1      16.329 -49.247 -77.117  1.00  0.00    -0.398 OA
ATOM     26  H4  UNL     1      16.667 -49.887 -77.732  1.00  0.00     0.209 HD
ENDBRANCH  24  25
ENDBRANCH   3  24
BRANCH   5  27
HETATM   27  O6  UNL     1      18.960 -49.842 -73.974  1.00  0.00    -0.390 OA
ATOM     28  H6  UNL     1      19.702 -49.360 -74.320  1.00  0.00     0.210 HD
ENDBRANCH   5  27
BRANCH   4  29
HETATM   29  O5  UNL     1      16.365 -50.117 -74.469  1.00  0.00    -0.390 OA
ATOM     30  H5  UNL     1      15.504 -50.332 -74.130  1.00  0.00     0.210 HD
ENDBRANCH   4  29
TORSDOF 8
ENDMDL
