MODEL 1
REMARK VINA RESULT: -7.072283217      0.000      0.000
REMARK  7 active torsions:
REMARK  status: ('A' for Active; 'I' for Inactive)
REMARK    1  A    between atoms: C2_2  and  C4_4 
REMARK    2  A    between atoms: C2_2  and  C16_29 
REMARK    3  A    between atoms: C5_5  and  C6_6 
REMARK    4  A    between atoms: C10_13  and  O4_14 
REMARK    5  A    between atoms: C12_17  and  O5_18 
REMARK    6  A    between atoms: C14_21  and  N1_22 
REMARK    7  A    between atoms: C15_26  and  O6_27 
ROOT
HETATM    1  C6  UNL     1      17.828 -44.620 -72.766  1.00  0.00     0.175 C 
HETATM    2  O1  UNL     1      17.144 -45.721 -72.415  1.00  0.00    -0.371 OA
HETATM    3  C7  UNL     1      17.436 -46.922 -73.006  1.00  0.00     0.160 C 
HETATM    4  C8  UNL     1      16.774 -47.106 -74.319  1.00  0.00     0.166 C 
HETATM    5  O2  UNL     1      15.609 -47.911 -74.279  1.00  0.00    -0.347 OA
HETATM    6  C9  UNL     1      16.143 -49.167 -74.297  1.00  0.00     0.327 A 
HETATM    7  O3  UNL     1      16.393 -50.070 -75.206  1.00  0.00    -0.314 OA
HETATM    8  C10 UNL     1      16.871 -48.949 -75.660  1.00  0.00     0.224 A 
HETATM    9  C11 UNL     1      17.765 -47.906 -75.179  1.00  0.00     0.114 C 
HETATM   10  C12 UNL     1      18.941 -48.192 -74.393  1.00  0.00     0.139 C 
HETATM   11  C13 UNL     1      18.893 -47.166 -73.274  1.00  0.00     0.080 C 
HETATM   12  C14 UNL     1      19.642 -45.950 -73.729  1.00  0.00     0.224 C 
HETATM   13  C15 UNL     1      18.787 -44.742 -73.907  1.00  0.00     0.181 C 
ENDROOT
BRANCH   1  14
HETATM   14  C5  UNL     1      16.869 -43.527 -73.099  1.00  0.00     0.005 C 
HETATM   15  C4  UNL     1      15.751 -43.753 -73.761  1.00  0.00    -0.008 C 
BRANCH  15  16
HETATM   16  C2  UNL     1      14.813 -42.643 -74.078  1.00  0.00     0.059 C 
HETATM   17  C1  UNL     1      14.309 -42.748 -75.504  1.00  0.00     0.031 C 
HETATM   18  C3  UNL     1      15.461 -41.287 -73.922  1.00  0.00     0.031 C 
BRANCH  16  19
HETATM   19  C16 UNL     1      13.669 -42.734 -73.113  1.00  0.00     0.185 C 
HETATM   20  O7  UNL     1      12.609 -43.344 -73.398  1.00  0.00    -0.647 OA
HETATM   21  O8  UNL     1      13.735 -42.143 -71.857  1.00  0.00    -0.647 OA
ENDBRANCH  16  19
ENDBRANCH  15  16
ENDBRANCH   1  14
BRANCH  13  22
HETATM   22  O6  UNL     1      19.650 -43.622 -73.825  1.00  0.00    -0.391 OA
ATOM     23  H6  UNL     1      19.400 -43.039 -74.533  1.00  0.00     0.210 HD
ENDBRANCH  13  22
BRANCH  12  24
HETATM   24  N1  UNL     1      20.732 -45.647 -72.794  1.00  0.00    -0.072 N 
ATOM     25  H13 UNL     1      20.855 -44.643 -72.665  1.00  0.00     0.274 HD
ATOM     26  H12 UNL     1      20.490 -45.893 -71.834  1.00  0.00     0.274 HD
ATOM     27  H11 UNL     1      21.594 -46.100 -73.098  1.00  0.00     0.274 HD
ENDBRANCH  12  24
BRANCH  10  28
HETATM   28  O5  UNL     1      19.136 -49.479 -73.933  1.00  0.00    -0.394 OA
ATOM     29  H5  UNL     1      19.375 -49.609 -73.023  1.00  0.00     0.210 HD
ENDBRANCH  10  28
BRANCH   8  30
HETATM   30  O4  UNL     1      15.978 -48.426 -76.650  1.00  0.00    -0.361 OA
ATOM     31  H4  UNL     1      15.966 -48.972 -77.427  1.00  0.00     0.213 HD
ENDBRANCH   8  30
TORSDOF 7
ENDMDL
MODEL 2
REMARK VINA RESULT: -7.051445721      3.493      5.885
REMARK  7 active torsions:
REMARK  status: ('A' for Active; 'I' for Inactive)
REMARK    1  A    between atoms: C2_2  and  C4_4 
REMARK    2  A    between atoms: C2_2  and  C16_29 
REMARK    3  A    between atoms: C5_5  and  C6_6 
REMARK    4  A    between atoms: C10_13  and  O4_14 
REMARK    5  A    between atoms: C12_17  and  O5_18 
REMARK    6  A    between atoms: C14_21  and  N1_22 
REMARK    7  A    between atoms: C15_26  and  O6_27 
ROOT
HETATM    1  C6  UNL     1      19.465 -47.626 -74.096  1.00  0.00     0.175 C 
HETATM    2  O1  UNL     1      20.343 -48.620 -73.889  1.00  0.00    -0.371 OA
HETATM    3  C7  UNL     1      21.686 -48.381 -74.013  1.00  0.00     0.160 C 
HETATM    4  C8  UNL     1      22.166 -48.445 -75.412  1.00  0.00     0.166 C 
HETATM    5  O2  UNL     1      22.801 -49.663 -75.758  1.00  0.00    -0.347 OA
HETATM    6  C9  UNL     1      24.058 -49.467 -75.265  1.00  0.00     0.327 A 
HETATM    7  O3  UNL     1      25.204 -49.063 -75.743  1.00  0.00    -0.314 OA
HETATM    8  C10 UNL     1      24.315 -48.201 -76.140  1.00  0.00     0.224 A 
HETATM    9  C11 UNL     1      23.277 -47.388 -75.523  1.00  0.00     0.114 C 
HETATM   10  C12 UNL     1      23.448 -46.754 -74.238  1.00  0.00     0.139 C 
HETATM   11  C13 UNL     1      22.146 -47.042 -73.510  1.00  0.00     0.080 C 
HETATM   12  C14 UNL     1      21.196 -45.921 -73.801  1.00  0.00     0.224 C 
HETATM   13  C15 UNL     1      20.005 -46.326 -74.602  1.00  0.00     0.181 C 
ENDROOT
BRANCH   1  14
HETATM   14  C5  UNL     1      18.419 -48.082 -75.056  1.00  0.00     0.005 C 
HETATM   15  C4  UNL     1      17.213 -48.442 -74.661  1.00  0.00    -0.008 C 
BRANCH  15  16
HETATM   16  C2  UNL     1      16.188 -48.892 -75.641  1.00  0.00     0.059 C 
HETATM   17  C1  UNL     1      15.041 -49.596 -74.944  1.00  0.00     0.031 C 
HETATM   18  C3  UNL     1      16.759 -49.848 -76.662  1.00  0.00     0.031 C 
BRANCH  16  19
HETATM   19  C16 UNL     1      15.692 -47.674 -76.361  1.00  0.00     0.185 C 
HETATM   20  O7  UNL     1      15.928 -47.481 -77.579  1.00  0.00    -0.647 OA
HETATM   21  O8  UNL     1      14.945 -46.702 -75.705  1.00  0.00    -0.647 OA
ENDBRANCH  16  19
ENDBRANCH  15  16
ENDBRANCH   1  14
BRANCH  13  22
HETATM   22  O6  UNL     1      19.005 -45.355 -74.359  1.00  0.00    -0.391 OA
ATOM     23  H6  UNL     1      19.192 -44.625 -74.939  1.00  0.00     0.210 HD
ENDBRANCH  13  22
BRANCH  12  24
HETATM   24  N1  UNL     1      20.753 -45.295 -72.550  1.00  0.00    -0.072 N 
ATOM     25  H13 UNL     1      20.885 -45.910 -71.748  1.00  0.00     0.274 HD
ATOM     26  H12 UNL     1      21.375 -44.539 -72.261  1.00  0.00     0.274 HD
ATOM     27  H11 UNL     1      19.786 -44.982 -72.635  1.00  0.00     0.274 HD
ENDBRANCH  12  24
BRANCH  10  28
HETATM   28  O5  UNL     1      24.564 -47.065 -73.486  1.00  0.00    -0.394 OA
ATOM     29  H5  UNL     1      24.487 -47.083 -72.540  1.00  0.00     0.210 HD
ENDBRANCH  10  28
BRANCH   8  30
HETATM   30  O4  UNL     1      24.006 -48.448 -77.517  1.00  0.00    -0.361 OA
ATOM     31  H4  UNL     1      24.509 -47.882 -78.090  1.00  0.00     0.213 HD
ENDBRANCH   8  30
TORSDOF 7
ENDMDL
MODEL 3
REMARK VINA RESULT: -7.001263842      2.082      4.068
REMARK  7 active torsions:
REMARK  status: ('A' for Active; 'I' for Inactive)
REMARK    1  A    between atoms: C2_2  and  C4_4 
REMARK    2  A    between atoms: C2_2  and  C16_29 
REMARK    3  A    between atoms: C5_5  and  C6_6 
REMARK    4  A    between atoms: C10_13  and  O4_14 
REMARK    5  A    between atoms: C12_17  and  O5_18 
REMARK    6  A    between atoms: C14_21  and  N1_22 
REMARK    7  A    between atoms: C15_26  and  O6_27 
ROOT
HETATM    1  C6  UNL     1      16.735 -46.109 -74.537  1.00  0.00     0.175 C 
HETATM    2  O1  UNL     1      17.690 -45.571 -75.312  1.00  0.00    -0.371 OA
HETATM    3  C7  UNL     1      18.958 -46.088 -75.289  1.00  0.00     0.160 C 
HETATM    4  C8  UNL     1      19.781 -45.574 -74.170  1.00  0.00     0.166 C 
HETATM    5  O2  UNL     1      20.683 -44.544 -74.532  1.00  0.00    -0.347 OA
HETATM    6  C9  UNL     1      21.721 -45.260 -75.055  1.00  0.00     0.327 A 
HETATM    7  O3  UNL     1      22.863 -45.718 -74.617  1.00  0.00    -0.314 OA
HETATM    8  C10 UNL     1      21.968 -46.059 -73.737  1.00  0.00     0.224 A 
HETATM    9  C11 UNL     1      20.683 -46.743 -73.742  1.00  0.00     0.114 C 
HETATM   10  C12 UNL     1      20.411 -47.878 -74.591  1.00  0.00     0.139 C 
HETATM   11  C13 UNL     1      19.037 -47.583 -75.169  1.00  0.00     0.080 C 
HETATM   12  C14 UNL     1      18.012 -48.177 -74.252  1.00  0.00     0.224 C 
HETATM   13  C15 UNL     1      17.153 -47.169 -73.567  1.00  0.00     0.181 C 
ENDROOT
BRANCH   1  14
HETATM   14  C5  UNL     1      16.061 -45.029 -73.761  1.00  0.00     0.005 C 
HETATM   15  C4  UNL     1      15.536 -43.969 -74.343  1.00  0.00    -0.008 C 
BRANCH  15  16
HETATM   16  C2  UNL     1      14.869 -42.907 -73.543  1.00  0.00     0.059 C 
HETATM   17  C1  UNL     1      15.122 -41.537 -74.139  1.00  0.00     0.031 C 
HETATM   18  C3  UNL     1      15.356 -42.881 -72.113  1.00  0.00     0.031 C 
BRANCH  16  19
HETATM   19  C16 UNL     1      13.400 -43.208 -73.536  1.00  0.00     0.185 C 
HETATM   20  O7  UNL     1      12.650 -42.830 -72.602  1.00  0.00    -0.647 OA
HETATM   21  O8  UNL     1      12.804 -43.922 -74.569  1.00  0.00    -0.647 OA
ENDBRANCH  16  19
ENDBRANCH  15  16
ENDBRANCH   1  14
BRANCH  13  22
HETATM   22  O6  UNL     1      15.970 -47.844 -73.178  1.00  0.00    -0.391 OA
ATOM     23  H6  UNL     1      15.664 -48.313 -73.945  1.00  0.00     0.210 HD
ENDBRANCH  13  22
BRANCH  12  24
HETATM   24  N1  UNL     1      17.166 -49.126 -74.984  1.00  0.00    -0.072 N 
ATOM     25  H13 UNL     1      16.781 -49.844 -74.371  1.00  0.00     0.274 HD
ATOM     26  H12 UNL     1      16.290 -48.701 -75.286  1.00  0.00     0.274 HD
ATOM     27  H11 UNL     1      17.683 -49.530 -75.765  1.00  0.00     0.274 HD
ENDBRANCH  12  24
BRANCH  10  28
HETATM   28  O5  UNL     1      21.337 -48.224 -75.555  1.00  0.00    -0.394 OA
ATOM     29  H5  UNL     1      21.257 -49.068 -75.983  1.00  0.00     0.210 HD
ENDBRANCH  10  28
BRANCH   8  30
HETATM   30  O4  UNL     1      22.065 -45.184 -72.608  1.00  0.00    -0.361 OA
ATOM     31  H4  UNL     1      21.227 -44.783 -72.408  1.00  0.00     0.213 HD
ENDBRANCH   8  30
TORSDOF 7
ENDMDL
MODEL 4
REMARK VINA RESULT: -6.980491768      3.731      5.992
REMARK  7 active torsions:
REMARK  status: ('A' for Active; 'I' for Inactive)
REMARK    1  A    between atoms: C2_2  and  C4_4 
REMARK    2  A    between atoms: C2_2  and  C16_29 
REMARK    3  A    between atoms: C5_5  and  C6_6 
REMARK    4  A    between atoms: C10_13  and  O4_14 
REMARK    5  A    between atoms: C12_17  and  O5_18 
REMARK    6  A    between atoms: C14_21  and  N1_22 
REMARK    7  A    between atoms: C15_26  and  O6_27 
ROOT
HETATM    1  C6  UNL     1      19.441 -47.517 -74.476  1.00  0.00     0.175 C 
HETATM    2  O1  UNL     1      20.263 -48.551 -74.236  1.00  0.00    -0.371 OA
HETATM    3  C7  UNL     1      21.618 -48.353 -74.206  1.00  0.00     0.160 C 
HETATM    4  C8  UNL     1      22.242 -48.358 -75.549  1.00  0.00     0.166 C 
HETATM    5  O2  UNL     1      22.874 -49.577 -75.896  1.00  0.00    -0.347 OA
HETATM    6  C9  UNL     1      24.077 -49.452 -75.264  1.00  0.00     0.327 A 
HETATM    7  O3  UNL     1      25.278 -49.063 -75.597  1.00  0.00    -0.314 OA
HETATM    8  C10 UNL     1      24.462 -48.151 -76.034  1.00  0.00     0.224 A 
HETATM    9  C11 UNL     1      23.388 -47.336 -75.483  1.00  0.00     0.114 C 
HETATM   10  C12 UNL     1      23.441 -46.779 -74.152  1.00  0.00     0.139 C 
HETATM   11  C13 UNL     1      22.062 -47.060 -73.582  1.00  0.00     0.080 C 
HETATM   12  C14 UNL     1      21.180 -45.893 -73.905  1.00  0.00     0.224 C 
HETATM   13  C15 UNL     1      20.070 -46.212 -74.848  1.00  0.00     0.181 C 
ENDROOT
BRANCH   1  14
HETATM   14  C5  UNL     1      18.490 -47.884 -75.564  1.00  0.00     0.005 C 
HETATM   15  C4  UNL     1      17.350 -48.501 -75.320  1.00  0.00    -0.008 C 
BRANCH  15  16
HETATM   16  C2  UNL     1      16.419 -48.854 -76.426  1.00  0.00     0.059 C 
HETATM   17  C1  UNL     1      16.572 -50.309 -76.822  1.00  0.00     0.031 C 
HETATM   18  C3  UNL     1      16.658 -48.017 -77.661  1.00  0.00     0.031 C 
BRANCH  16  19
HETATM   19  C16 UNL     1      15.026 -48.591 -75.939  1.00  0.00     0.185 C 
HETATM   20  O7  UNL     1      14.791 -48.252 -74.752  1.00  0.00    -0.647 OA
HETATM   21  O8  UNL     1      13.930 -48.711 -76.785  1.00  0.00    -0.647 OA
ENDBRANCH  16  19
ENDBRANCH  15  16
ENDBRANCH   1  14
BRANCH  13  22
HETATM   22  O6  UNL     1      19.078 -45.220 -74.654  1.00  0.00    -0.391 OA
ATOM     23  H6  UNL     1      19.385 -44.442 -75.105  1.00  0.00     0.210 HD
ENDBRANCH  13  22
BRANCH  12  24
HETATM   24  N1  UNL     1      20.627 -45.319 -72.673  1.00  0.00    -0.072 N 
ATOM     25  H13 UNL     1      19.798 -45.823 -72.357  1.00  0.00     0.274 HD
ATOM     26  H12 UNL     1      21.226 -45.497 -71.867  1.00  0.00     0.274 HD
ATOM     27  H11 UNL     1      20.442 -44.324 -72.799  1.00  0.00     0.274 HD
ENDBRANCH  12  24
BRANCH  10  28
HETATM   28  O5  UNL     1      24.462 -47.169 -73.308  1.00  0.00    -0.394 OA
ATOM     29  H5  UNL     1      24.695 -48.089 -73.267  1.00  0.00     0.210 HD
ENDBRANCH  10  28
BRANCH   8  30
HETATM   30  O4  UNL     1      24.293 -48.311 -77.447  1.00  0.00    -0.361 OA
ATOM     31  H4  UNL     1      24.562 -47.531 -77.918  1.00  0.00     0.213 HD
ENDBRANCH   8  30
TORSDOF 7
ENDMDL
MODEL 5
REMARK VINA RESULT: -6.897662521      2.015      2.521
REMARK  7 active torsions:
REMARK  status: ('A' for Active; 'I' for Inactive)
REMARK    1  A    between atoms: C2_2  and  C4_4 
REMARK    2  A    between atoms: C2_2  and  C16_29 
REMARK    3  A    between atoms: C5_5  and  C6_6 
REMARK    4  A    between atoms: C10_13  and  O4_14 
REMARK    5  A    between atoms: C12_17  and  O5_18 
REMARK    6  A    between atoms: C14_21  and  N1_22 
REMARK    7  A    between atoms: C15_26  and  O6_27 
ROOT
HETATM    1  C6  UNL     1      18.613 -43.001 -73.104  1.00  0.00     0.175 C 
HETATM    2  O1  UNL     1      18.504 -44.172 -72.457  1.00  0.00    -0.371 OA
HETATM    3  C7  UNL     1      19.364 -45.196 -72.752  1.00  0.00     0.160 C 
HETATM    4  C8  UNL     1      18.957 -45.982 -73.940  1.00  0.00     0.166 C 
HETATM    5  O2  UNL     1      18.306 -47.203 -73.639  1.00  0.00    -0.347 OA
HETATM    6  C9  UNL     1      19.367 -48.022 -73.379  1.00  0.00     0.327 A 
HETATM    7  O3  UNL     1      20.073 -48.890 -74.052  1.00  0.00    -0.314 OA
HETATM    8  C10 UNL     1      19.998 -47.824 -74.792  1.00  0.00     0.224 A 
HETATM    9  C11 UNL     1      20.263 -46.402 -74.633  1.00  0.00     0.114 C 
HETATM   10  C12 UNL     1      21.380 -45.901 -73.867  1.00  0.00     0.139 C 
HETATM   11  C13 UNL     1      20.780 -44.782 -73.033  1.00  0.00     0.080 C 
HETATM   12  C14 UNL     1      20.900 -43.508 -73.813  1.00  0.00     0.224 C 
HETATM   13  C15 UNL     1      19.592 -42.928 -74.233  1.00  0.00     0.181 C 
ENDROOT
BRANCH   1  14
HETATM   14  C5  UNL     1      17.279 -42.605 -73.640  1.00  0.00     0.005 C 
HETATM   15  C4  UNL     1      16.157 -43.128 -73.183  1.00  0.00    -0.008 C 
BRANCH  15  16
HETATM   16  C2  UNL     1      14.839 -42.713 -73.737  1.00  0.00     0.059 C 
HETATM   17  C1  UNL     1      14.427 -43.610 -74.887  1.00  0.00     0.031 C 
HETATM   18  C3  UNL     1      14.858 -41.292 -74.249  1.00  0.00     0.031 C 
BRANCH  16  19
HETATM   19  C16 UNL     1      13.839 -42.801 -72.623  1.00  0.00     0.185 C 
HETATM   20  O7  UNL     1      12.603 -42.815 -72.843  1.00  0.00    -0.647 OA
HETATM   21  O8  UNL     1      14.242 -42.872 -71.295  1.00  0.00    -0.647 OA
ENDBRANCH  16  19
ENDBRANCH  15  16
ENDBRANCH   1  14
BRANCH  13  22
HETATM   22  O6  UNL     1      19.820 -41.552 -74.476  1.00  0.00    -0.391 OA
ATOM     23  H6  UNL     1      18.992 -41.190 -74.767  1.00  0.00     0.210 HD
ENDBRANCH  13  22
BRANCH  12  24
HETATM   24  N1  UNL     1      21.654 -42.512 -73.043  1.00  0.00    -0.072 N 
ATOM     25  H13 UNL     1      21.246 -42.353 -72.123  1.00  0.00     0.274 HD
ATOM     26  H12 UNL     1      22.562 -42.867 -72.745  1.00  0.00     0.274 HD
ATOM     27  H11 UNL     1      21.740 -41.646 -73.576  1.00  0.00     0.274 HD
ENDBRANCH  12  24
BRANCH  10  28
HETATM   28  O5  UNL     1      22.124 -46.790 -73.118  1.00  0.00    -0.394 OA
ATOM     29  H5  UNL     1      22.192 -46.654 -72.181  1.00  0.00     0.210 HD
ENDBRANCH  10  28
BRANCH   8  30
HETATM   30  O4  UNL     1      19.033 -48.040 -75.828  1.00  0.00    -0.361 OA
ATOM     31  H4  UNL     1      18.399 -47.334 -75.862  1.00  0.00     0.213 HD
ENDBRANCH   8  30
TORSDOF 7
ENDMDL
