MODEL 1
REMARK VINA RESULT: -6.197222234      0.000      0.000
REMARK  6 active torsions:
REMARK  status: ('A' for Active; 'I' for Inactive)
REMARK    1  A    between atoms: C5_5  and  O1_7 
REMARK    2  A    between atoms: C7_9  and  C8_10 
REMARK    3  A    between atoms: C8_10  and  C9_11 
REMARK    4  A    between atoms: C9_11  and  C10_12 
REMARK    5  A    between atoms: C12_16  and  C13_17 
REMARK    6  A    between atoms: C17_23  and  O2_25 
ROOT
HETATM    1  C1  UNL     1      27.742  10.245  55.911  1.00  0.00     0.013 C 
HETATM    2  C2  UNL     1      27.910  10.892  54.564  1.00  0.00     0.016 C 
HETATM    3  C3  UNL     1      26.707  11.701  54.203  1.00  0.00     0.010 C 
HETATM    4  C4  UNL     1      26.993  13.178  54.114  1.00  0.00     0.038 C 
HETATM    5  C5  UNL     1      27.878  13.670  55.206  1.00  0.00     0.061 C 
HETATM    6  C6  UNL     1      27.283  13.524  56.577  1.00  0.00     0.046 C 
HETATM    7  C7  UNL     1      29.227  13.008  55.078  1.00  0.00     0.054 C 
HETATM    8  C17 UNL     1      29.209  11.669  54.461  1.00  0.00     0.064 C 
HETATM    9  C18 UNL     1      30.347  10.852  55.026  1.00  0.00     0.046 C 
ENDROOT
BRANCH   7  10
HETATM   10  C8  UNL     1      30.112  13.982  54.355  1.00  0.00     0.017 C 
BRANCH  10  11
HETATM   11  C9  UNL     1      31.467  14.207  54.928  1.00  0.00     0.059 C 
BRANCH  11  12
HETATM   12  C10 UNL     1      31.453  15.581  55.535  1.00  0.00     0.024 A 
HETATM   13  C11 UNL     1      32.339  16.521  55.073  1.00  0.00     0.113 A 
HETATM   14  N1  UNL     1      32.343  17.765  55.606  1.00  0.00    -0.366 N 
HETATM   15  C12 UNL     1      31.493  18.120  56.590  1.00  0.00     0.028 A 
ATOM     16  H1  UNL     1      33.007  18.454  55.253  1.00  0.00     0.165 HD
HETATM   17  C16 UNL     1      30.609  17.157  57.040  1.00  0.00     0.113 A 
HETATM   18  N2  UNL     1      30.603  15.911  56.509  1.00  0.00    -0.366 N 
ATOM     19  H2  UNL     1      29.941  15.217  56.857  1.00  0.00     0.165 HD
BRANCH  15  20
HETATM   20  C13 UNL     1      31.507  19.500  57.173  1.00  0.00     0.037 A 
HETATM   21  C14 UNL     1      31.307  19.582  58.624  1.00  0.00     0.011 A 
HETATM   22  C15 UNL     1      32.645  19.927  58.032  1.00  0.00     0.011 A 
ENDBRANCH  15  20
ENDBRANCH  11  12
ENDBRANCH  10  11
ENDBRANCH   7  10
BRANCH   5  23
HETATM   23  O1  UNL     1      28.069  15.031  54.976  1.00  0.00    -0.390 OA
ATOM     24  H1  UNL     1      28.608  15.351  55.690  1.00  0.00     0.210 HD
ENDBRANCH   5  23
BRANCH   8  25
HETATM   25  O2  UNL     1      29.495  11.836  53.096  1.00  0.00    -0.389 OA
ATOM     26  H2  UNL     1      29.374  12.755  52.889  1.00  0.00     0.210 HD
ENDBRANCH   8  25
TORSDOF 6
ENDMDL
MODEL 2
REMARK VINA RESULT: -6.047686595      0.833      1.208
REMARK  6 active torsions:
REMARK  status: ('A' for Active; 'I' for Inactive)
REMARK    1  A    between atoms: C5_5  and  O1_7 
REMARK    2  A    between atoms: C7_9  and  C8_10 
REMARK    3  A    between atoms: C8_10  and  C9_11 
REMARK    4  A    between atoms: C9_11  and  C10_12 
REMARK    5  A    between atoms: C12_16  and  C13_17 
REMARK    6  A    between atoms: C17_23  and  O2_25 
ROOT
HETATM    1  C1  UNL     1      27.734  10.202  56.420  1.00  0.00     0.013 C 
HETATM    2  C2  UNL     1      27.890  10.562  54.968  1.00  0.00     0.016 C 
HETATM    3  C3  UNL     1      26.689  11.295  54.465  1.00  0.00     0.010 C 
HETATM    4  C4  UNL     1      26.988  12.720  54.075  1.00  0.00     0.038 C 
HETATM    5  C5  UNL     1      27.892  13.411  55.035  1.00  0.00     0.061 C 
HETATM    6  C6  UNL     1      27.315  13.553  56.413  1.00  0.00     0.046 C 
HETATM    7  C7  UNL     1      29.233  12.721  55.028  1.00  0.00     0.054 C 
HETATM    8  C17 UNL     1      29.195  11.285  54.695  1.00  0.00     0.064 C 
HETATM    9  C18 UNL     1      30.333  10.586  55.400  1.00  0.00     0.046 C 
ENDROOT
BRANCH   7  10
HETATM   10  C8  UNL     1      30.117  13.518  54.112  1.00  0.00     0.017 C 
BRANCH  10  11
HETATM   11  C9  UNL     1      31.525  13.720  54.551  1.00  0.00     0.059 C 
BRANCH  11  12
HETATM   12  C10 UNL     1      31.648  15.165  54.948  1.00  0.00     0.024 A 
HETATM   13  C11 UNL     1      31.019  15.596  56.089  1.00  0.00     0.113 A 
HETATM   14  N1  UNL     1      31.117  16.892  56.464  1.00  0.00    -0.366 N 
HETATM   15  C12 UNL     1      31.822  17.789  55.747  1.00  0.00     0.028 A 
ATOM     16  H1  UNL     1      30.646  17.199  57.315  1.00  0.00     0.165 HD
HETATM   17  C16 UNL     1      32.447  17.333  54.601  1.00  0.00     0.113 A 
HETATM   18  N2  UNL     1      32.350  16.036  54.222  1.00  0.00    -0.366 N 
ATOM     19  H2  UNL     1      32.820  15.723  53.373  1.00  0.00     0.165 HD
BRANCH  15  20
HETATM   20  C13 UNL     1      31.923  19.222  56.173  1.00  0.00     0.037 A 
HETATM   21  C14 UNL     1      31.392  19.531  57.505  1.00  0.00     0.011 A 
HETATM   22  C15 UNL     1      32.872  19.606  57.254  1.00  0.00     0.011 A 
ENDBRANCH  15  20
ENDBRANCH  11  12
ENDBRANCH  10  11
ENDBRANCH   7  10
BRANCH   5  23
HETATM   23  O1  UNL     1      28.092  14.696  54.532  1.00  0.00    -0.390 OA
ATOM     24  H1  UNL     1      28.524  14.591  53.692  1.00  0.00     0.210 HD
ENDBRANCH   5  23
BRANCH   8  25
HETATM   25  O2  UNL     1      29.463  11.170  53.321  1.00  0.00    -0.389 OA
ATOM     26  H2  UNL     1      30.221  11.710  53.131  1.00  0.00     0.210 HD
ENDBRANCH   8  25
TORSDOF 6
ENDMDL
MODEL 3
REMARK VINA RESULT: -6.030935895      2.002      3.199
REMARK  6 active torsions:
REMARK  status: ('A' for Active; 'I' for Inactive)
REMARK    1  A    between atoms: C5_5  and  O1_7 
REMARK    2  A    between atoms: C7_9  and  C8_10 
REMARK    3  A    between atoms: C8_10  and  C9_11 
REMARK    4  A    between atoms: C9_11  and  C10_12 
REMARK    5  A    between atoms: C12_16  and  C13_17 
REMARK    6  A    between atoms: C17_23  and  O2_25 
ROOT
HETATM    1  C1  UNL     1      26.750  10.932  54.091  1.00  0.00     0.013 C 
HETATM    2  C2  UNL     1      27.286  11.662  55.292  1.00  0.00     0.016 C 
HETATM    3  C3  UNL     1      27.214  10.807  56.515  1.00  0.00     0.010 C 
HETATM    4  C4  UNL     1      28.569  10.446  57.065  1.00  0.00     0.038 C 
HETATM    5  C5  UNL     1      29.554  10.090  56.006  1.00  0.00     0.061 C 
HETATM    6  C6  UNL     1      29.175   8.870  55.217  1.00  0.00     0.046 C 
HETATM    7  C7  UNL     1      29.799  11.298  55.138  1.00  0.00     0.054 C 
HETATM    8  C17 UNL     1      28.667  12.237  55.041  1.00  0.00     0.064 C 
HETATM    9  C18 UNL     1      28.707  12.920  53.694  1.00  0.00     0.046 C 
ENDROOT
BRANCH   7  10
HETATM   10  C8  UNL     1      31.058  11.940  55.647  1.00  0.00     0.017 C 
BRANCH  10  11
HETATM   11  C9  UNL     1      32.133  12.187  54.648  1.00  0.00     0.059 C 
BRANCH  11  12
HETATM   12  C10 UNL     1      32.337  13.675  54.598  1.00  0.00     0.024 A 
HETATM   13  C11 UNL     1      33.357  14.181  53.832  1.00  0.00     0.113 A 
HETATM   14  N1  UNL     1      33.558  15.518  53.772  1.00  0.00    -0.366 N 
HETATM   15  C12 UNL     1      32.779  16.385  54.449  1.00  0.00     0.028 A 
ATOM     16  H1  UNL     1      34.320  15.880  53.198  1.00  0.00     0.165 HD
HETATM   17  C16 UNL     1      31.758  15.853  55.214  1.00  0.00     0.113 A 
HETATM   18  N2  UNL     1      31.554  14.516  55.276  1.00  0.00    -0.366 N 
ATOM     19  H2  UNL     1      30.795  14.147  55.848  1.00  0.00     0.165 HD
BRANCH  15  20
HETATM   20  C13 UNL     1      33.012  17.863  54.375  1.00  0.00     0.037 A 
HETATM   21  C14 UNL     1      32.078  18.694  55.142  1.00  0.00     0.011 A 
HETATM   22  C15 UNL     1      33.514  18.591  55.573  1.00  0.00     0.011 A 
ENDBRANCH  15  20
ENDBRANCH  11  12
ENDBRANCH  10  11
ENDBRANCH   7  10
BRANCH   5  23
HETATM   23  O1  UNL     1      30.752   9.808  56.661  1.00  0.00    -0.390 OA
ATOM     24  H1  UNL     1      31.000   8.929  56.402  1.00  0.00     0.210 HD
ENDBRANCH   5  23
BRANCH   8  25
HETATM   25  O2  UNL     1      28.882  13.249  55.992  1.00  0.00    -0.389 OA
ATOM     26  H2  UNL     1      28.199  13.899  55.878  1.00  0.00     0.210 HD
ENDBRANCH   8  25
TORSDOF 6
ENDMDL
MODEL 4
REMARK VINA RESULT: -5.960946784      1.260      2.588
REMARK  6 active torsions:
REMARK  status: ('A' for Active; 'I' for Inactive)
REMARK    1  A    between atoms: C5_5  and  O1_7 
REMARK    2  A    between atoms: C7_9  and  C8_10 
REMARK    3  A    between atoms: C8_10  and  C9_11 
REMARK    4  A    between atoms: C9_11  and  C10_12 
REMARK    5  A    between atoms: C12_16  and  C13_17 
REMARK    6  A    between atoms: C17_23  and  O2_25 
ROOT
HETATM    1  C1  UNL     1      26.634  11.300  54.071  1.00  0.00     0.013 C 
HETATM    2  C2  UNL     1      27.097  11.933  55.354  1.00  0.00     0.016 C 
HETATM    3  C3  UNL     1      27.595  10.901  56.314  1.00  0.00     0.010 C 
HETATM    4  C4  UNL     1      29.070  11.021  56.598  1.00  0.00     0.038 C 
HETATM    5  C5  UNL     1      29.879  11.309  55.382  1.00  0.00     0.061 C 
HETATM    6  C6  UNL     1      29.822  10.221  54.348  1.00  0.00     0.046 C 
HETATM    7  C7  UNL     1      29.481  12.658  54.836  1.00  0.00     0.054 C 
HETATM    8  C17 UNL     1      28.088  13.056  55.112  1.00  0.00     0.064 C 
HETATM    9  C18 UNL     1      27.600  13.946  53.993  1.00  0.00     0.046 C 
ENDROOT
BRANCH   7  10
HETATM   10  C8  UNL     1      30.491  13.641  55.353  1.00  0.00     0.017 C 
BRANCH  10  11
HETATM   11  C9  UNL     1      31.194  14.472  54.338  1.00  0.00     0.059 C 
BRANCH  11  12
HETATM   12  C10 UNL     1      31.414  15.820  54.966  1.00  0.00     0.024 A 
HETATM   13  C11 UNL     1      31.183  15.973  56.310  1.00  0.00     0.113 A 
HETATM   14  N1  UNL     1      31.376  17.178  56.895  1.00  0.00    -0.366 N 
HETATM   15  C12 UNL     1      31.794  18.250  56.195  1.00  0.00     0.028 A 
ATOM     16  H1  UNL     1      31.200  17.277  57.895  1.00  0.00     0.165 HD
HETATM   17  C16 UNL     1      32.021  18.073  54.842  1.00  0.00     0.113 A 
HETATM   18  N2  UNL     1      31.829  16.869  54.253  1.00  0.00    -0.366 N 
ATOM     19  H2  UNL     1      32.003  16.762  53.254  1.00  0.00     0.165 HD
BRANCH  15  20
HETATM   20  C13 UNL     1      32.003  19.579  56.854  1.00  0.00     0.037 A 
HETATM   21  C14 UNL     1      31.728  19.627  58.294  1.00  0.00     0.011 A 
HETATM   22  C15 UNL     1      33.141  19.764  57.797  1.00  0.00     0.011 A 
ENDBRANCH  15  20
ENDBRANCH  11  12
ENDBRANCH  10  11
ENDBRANCH   7  10
BRANCH   5  23
HETATM   23  O1  UNL     1      31.203  11.415  55.804  1.00  0.00    -0.390 OA
ATOM     24  H1  UNL     1      31.696  11.744  55.062  1.00  0.00     0.210 HD
ENDBRANCH   5  23
BRANCH   8  25
HETATM   25  O2  UNL     1      28.106  13.860  56.264  1.00  0.00    -0.389 OA
ATOM     26  H2  UNL     1      27.290  14.347  56.286  1.00  0.00     0.210 HD
ENDBRANCH   8  25
TORSDOF 6
ENDMDL
MODEL 5
REMARK VINA RESULT: -5.880527287      1.827      2.298
REMARK  6 active torsions:
REMARK  status: ('A' for Active; 'I' for Inactive)
REMARK    1  A    between atoms: C5_5  and  O1_7 
REMARK    2  A    between atoms: C7_9  and  C8_10 
REMARK    3  A    between atoms: C8_10  and  C9_11 
REMARK    4  A    between atoms: C9_11  and  C10_12 
REMARK    5  A    between atoms: C12_16  and  C13_17 
REMARK    6  A    between atoms: C17_23  and  O2_25 
ROOT
HETATM    1  C1  UNL     1      27.101  10.896  57.409  1.00  0.00     0.013 C 
HETATM    2  C2  UNL     1      27.517  10.384  56.058  1.00  0.00     0.016 C 
HETATM    3  C3  UNL     1      26.628  10.922  54.983  1.00  0.00     0.010 C 
HETATM    4  C4  UNL     1      27.346  11.838  54.026  1.00  0.00     0.038 C 
HETATM    5  C5  UNL     1      28.287  12.772  54.704  1.00  0.00     0.061 C 
HETATM    6  C6  UNL     1      27.614  13.729  55.645  1.00  0.00     0.046 C 
HETATM    7  C7  UNL     1      29.381  11.971  55.365  1.00  0.00     0.054 C 
HETATM    8  C17 UNL     1      28.992  10.613  55.789  1.00  0.00     0.064 C 
HETATM    9  C18 UNL     1      29.806  10.223  56.999  1.00  0.00     0.046 C 
ENDROOT
BRANCH   7  10
HETATM   10  C8  UNL     1      30.549  11.986  54.422  1.00  0.00     0.017 C 
BRANCH  10  11
HETATM   11  C9  UNL     1      31.888  12.236  55.020  1.00  0.00     0.059 C 
BRANCH  11  12
HETATM   12  C10 UNL     1      32.162  13.705  54.859  1.00  0.00     0.024 A 
HETATM   13  C11 UNL     1      33.215  14.103  54.074  1.00  0.00     0.113 A 
HETATM   14  N1  UNL     1      33.478  15.421  53.915  1.00  0.00    -0.366 N 
HETATM   15  C12 UNL     1      32.731  16.372  54.509  1.00  0.00     0.028 A 
ATOM     16  H1  UNL     1      34.264  15.703  53.329  1.00  0.00     0.165 HD
HETATM   17  C16 UNL     1      31.675  15.948  55.296  1.00  0.00     0.113 A 
HETATM   18  N2  UNL     1      31.409  14.630  55.457  1.00  0.00    -0.366 N 
ATOM     19  H2  UNL     1      30.625  14.342  56.041  1.00  0.00     0.165 HD
BRANCH  15  20
HETATM   20  C13 UNL     1      33.032  17.828  54.327  1.00  0.00     0.037 A 
HETATM   21  C14 UNL     1      32.174  18.756  55.071  1.00  0.00     0.011 A 
HETATM   22  C15 UNL     1      33.621  18.607  55.451  1.00  0.00     0.011 A 
ENDBRANCH  15  20
ENDBRANCH  11  12
ENDBRANCH  10  11
ENDBRANCH   7  10
BRANCH   5  23
HETATM   23  O1  UNL     1      28.887  13.527  53.698  1.00  0.00    -0.390 OA
ATOM     24  H1  UNL     1      29.599  14.004  54.108  1.00  0.00     0.210 HD
ENDBRANCH   5  23
BRANCH   8  25
HETATM   25  O2  UNL     1      29.377   9.732  54.764  1.00  0.00    -0.389 OA
ATOM     26  H2  UNL     1      28.728   9.797  54.073  1.00  0.00     0.210 HD
ENDBRANCH   8  25
TORSDOF 6
ENDMDL
