MODEL 1
REMARK VINA RESULT: -6.605844021      0.000      0.000
REMARK  6 active torsions:
REMARK  status: ('A' for Active; 'I' for Inactive)
REMARK    1  A    between atoms: N1_2  and  C1_4 
REMARK    2  A    between atoms: C4_7  and  C5_8 
REMARK    3  A    between atoms: C5_8  and  N2_9 
REMARK    4  A    between atoms: N2_9  and  C6_11 
REMARK    5  A    between atoms: C6_11  and  N3_13 
REMARK    6  A    between atoms: N3_13  and  C7_15 
ROOT
HETATM    1  C6  UNL     1      30.099  14.548  55.187  1.00  0.00     0.168 C 
HETATM    2  S1  UNL     1      30.807  13.083  54.906  1.00  0.00    -0.041 SA
ENDROOT
BRANCH   1   3
HETATM    3  N2  UNL     1      28.914  14.569  55.948  1.00  0.00    -0.361 N 
ATOM      4  H2  UNL     1      28.876  15.098  56.819  1.00  0.00     0.162 HD
BRANCH   3   5
HETATM    5  C5  UNL     1      27.757  13.841  55.493  1.00  0.00     0.187 C 
BRANCH   5   6
HETATM    6  C4  UNL     1      27.392  12.768  56.466  1.00  0.00     0.073 A 
HETATM    7  C3  UNL     1      26.681  12.869  57.627  1.00  0.00     0.039 A 
HETATM    8  C2  UNL     1      26.608  11.609  58.172  1.00  0.00     0.065 A 
HETATM    9  C1  UNL     1      27.289  10.788  57.300  1.00  0.00     0.215 A 
HETATM   10  O3  UNL     1      27.735  11.515  56.308  1.00  0.00    -0.291 OA
BRANCH   9  11
HETATM   11  N1  UNL     1      27.466   9.371  57.476  1.00  0.00    -0.090 N 
HETATM   12  O1  UNL     1      28.419   8.816  56.937  1.00  0.00    -0.530 OA
HETATM   13  O2  UNL     1      26.582   8.653  58.234  1.00  0.00    -0.530 OA
ENDBRANCH   9  11
ENDBRANCH   5   6
ENDBRANCH   3   5
ENDBRANCH   1   3
BRANCH   1  14
HETATM   14  N3  UNL     1      30.711  15.708  54.656  1.00  0.00    -0.362 N 
ATOM     15  H3  UNL     1      30.256  16.229  53.906  1.00  0.00     0.162 HD
BRANCH  14  16
HETATM   16  C7  UNL     1      31.969  16.147  55.175  1.00  0.00     0.088 C 
HETATM   17  C8  UNL     1      32.421  17.365  54.399  1.00  0.00     0.030 C 
HETATM   18  C9  UNL     1      32.718  18.483  55.385  1.00  0.00    -0.013 C 
HETATM   19  C10 UNL     1      33.809  17.982  56.329  1.00  0.00     0.005 C 
HETATM   20  C14 UNL     1      31.464  18.831  56.146  1.00  0.00     0.005 C 
HETATM   21  C11 UNL     1      33.369  16.744  57.063  1.00  0.00     0.007 C 
HETATM   22  C12 UNL     1      31.945  16.437  56.645  1.00  0.00     0.008 C 
HETATM   23  C13 UNL     1      31.064  17.628  56.964  1.00  0.00     0.007 C 
ENDBRANCH  14  16
ENDBRANCH   1  14
TORSDOF 6
ENDMDL
MODEL 2
REMARK VINA RESULT: -6.547721492      4.201      6.527
REMARK  6 active torsions:
REMARK  status: ('A' for Active; 'I' for Inactive)
REMARK    1  A    between atoms: N1_2  and  C1_4 
REMARK    2  A    between atoms: C4_7  and  C5_8 
REMARK    3  A    between atoms: C5_8  and  N2_9 
REMARK    4  A    between atoms: N2_9  and  C6_11 
REMARK    5  A    between atoms: C6_11  and  N3_13 
REMARK    6  A    between atoms: N3_13  and  C7_15 
ROOT
HETATM    1  C6  UNL     1      29.483  12.066  54.263  1.00  0.00     0.168 C 
HETATM    2  S1  UNL     1      30.636  11.458  55.277  1.00  0.00    -0.041 SA
ENDROOT
BRANCH   1   3
HETATM    3  N2  UNL     1      28.714  13.153  54.722  1.00  0.00    -0.361 N 
ATOM      4  H2  UNL     1      29.159  14.053  54.901  1.00  0.00     0.162 HD
BRANCH   3   5
HETATM    5  C5  UNL     1      27.299  12.991  54.935  1.00  0.00     0.187 C 
BRANCH   5   6
HETATM    6  C4  UNL     1      27.040  12.160  56.149  1.00  0.00     0.073 A 
HETATM    7  C3  UNL     1      26.737  12.566  57.417  1.00  0.00     0.039 A 
HETATM    8  C2  UNL     1      26.589  11.434  58.183  1.00  0.00     0.065 A 
HETATM    9  C1  UNL     1      26.812  10.376  57.329  1.00  0.00     0.215 A 
HETATM   10  O3  UNL     1      27.074  10.852  56.139  1.00  0.00    -0.291 OA
BRANCH   9  11
HETATM   11  N1  UNL     1      26.758   8.989  57.708  1.00  0.00    -0.090 N 
HETATM   12  O1  UNL     1      27.807   8.372  57.866  1.00  0.00    -0.530 OA
HETATM   13  O2  UNL     1      25.553   8.368  57.888  1.00  0.00    -0.530 OA
ENDBRANCH   9  11
ENDBRANCH   5   6
ENDBRANCH   3   5
ENDBRANCH   1   3
BRANCH   1  14
HETATM   14  N3  UNL     1      29.321  11.472  52.990  1.00  0.00    -0.362 N 
ATOM     15  H3  UNL     1      29.385  12.043  52.146  1.00  0.00     0.162 HD
BRANCH  14  16
HETATM   16  C7  UNL     1      29.068  10.068  52.888  1.00  0.00     0.088 C 
HETATM   17  C8  UNL     1      27.667   9.860  52.353  1.00  0.00     0.030 C 
HETATM   18  C9  UNL     1      27.745   8.954  51.136  1.00  0.00    -0.013 C 
HETATM   19  C10 UNL     1      28.377   7.638  51.586  1.00  0.00     0.005 C 
HETATM   20  C14 UNL     1      28.579   9.614  50.068  1.00  0.00     0.005 C 
HETATM   21  C11 UNL     1      29.751   7.858  52.159  1.00  0.00     0.007 C 
HETATM   22  C12 UNL     1      30.068   9.336  52.047  1.00  0.00     0.008 C 
HETATM   23  C13 UNL     1      29.986   9.754  50.592  1.00  0.00     0.007 C 
ENDBRANCH  14  16
ENDBRANCH   1  14
TORSDOF 6
ENDMDL
MODEL 3
REMARK VINA RESULT: -6.472120885      0.802      1.712
REMARK  6 active torsions:
REMARK  status: ('A' for Active; 'I' for Inactive)
REMARK    1  A    between atoms: N1_2  and  C1_4 
REMARK    2  A    between atoms: C4_7  and  C5_8 
REMARK    3  A    between atoms: C5_8  and  N2_9 
REMARK    4  A    between atoms: N2_9  and  C6_11 
REMARK    5  A    between atoms: C6_11  and  N3_13 
REMARK    6  A    between atoms: N3_13  and  C7_15 
ROOT
HETATM    1  C6  UNL     1      30.085  14.440  55.128  1.00  0.00     0.168 C 
HETATM    2  S1  UNL     1      29.910  13.668  53.680  1.00  0.00    -0.041 SA
ENDROOT
BRANCH   1   3
HETATM    3  N2  UNL     1      28.936  14.603  55.928  1.00  0.00    -0.361 N 
ATOM      4  H2  UNL     1      28.978  15.175  56.771  1.00  0.00     0.162 HD
BRANCH   3   5
HETATM    5  C5  UNL     1      27.703  13.962  55.549  1.00  0.00     0.187 C 
BRANCH   5   6
HETATM    6  C4  UNL     1      27.382  12.842  56.484  1.00  0.00     0.073 A 
HETATM    7  C3  UNL     1      26.704  12.881  57.668  1.00  0.00     0.039 A 
HETATM    8  C2  UNL     1      26.665  11.597  58.159  1.00  0.00     0.065 A 
HETATM    9  C1  UNL     1      27.333  10.826  57.233  1.00  0.00     0.215 A 
HETATM   10  O3  UNL     1      27.739  11.603  56.261  1.00  0.00    -0.291 OA
BRANCH   9  11
HETATM   11  N1  UNL     1      27.536   9.406  57.341  1.00  0.00    -0.090 N 
HETATM   12  O1  UNL     1      28.497   8.895  56.774  1.00  0.00    -0.530 OA
HETATM   13  O2  UNL     1      26.667   8.637  58.066  1.00  0.00    -0.530 OA
ENDBRANCH   9  11
ENDBRANCH   5   6
ENDBRANCH   3   5
ENDBRANCH   1   3
BRANCH   1  14
HETATM   14  N3  UNL     1      31.371  14.897  55.501  1.00  0.00    -0.362 N 
ATOM     15  H3  UNL     1      32.125  14.230  55.664  1.00  0.00     0.162 HD
BRANCH  14  16
HETATM   16  C7  UNL     1      31.609  16.300  55.647  1.00  0.00     0.088 C 
HETATM   17  C8  UNL     1      32.495  16.523  56.854  1.00  0.00     0.030 C 
HETATM   18  C9  UNL     1      33.699  17.344  56.424  1.00  0.00    -0.013 C 
HETATM   19  C10 UNL     1      33.174  18.664  55.861  1.00  0.00     0.005 C 
HETATM   20  C14 UNL     1      34.481  16.586  55.382  1.00  0.00     0.005 C 
HETATM   21  C11 UNL     1      32.258  18.432  54.690  1.00  0.00     0.007 C 
HETATM   22  C12 UNL     1      32.205  16.939  54.431  1.00  0.00     0.008 C 
HETATM   23  C13 UNL     1      33.607  16.430  54.163  1.00  0.00     0.007 C 
ENDBRANCH  14  16
ENDBRANCH   1  14
TORSDOF 6
ENDMDL
MODEL 4
REMARK VINA RESULT: -6.405383029      4.387      6.785
REMARK  6 active torsions:
REMARK  status: ('A' for Active; 'I' for Inactive)
REMARK    1  A    between atoms: N1_2  and  C1_4 
REMARK    2  A    between atoms: C4_7  and  C5_8 
REMARK    3  A    between atoms: C5_8  and  N2_9 
REMARK    4  A    between atoms: N2_9  and  C6_11 
REMARK    5  A    between atoms: C6_11  and  N3_13 
REMARK    6  A    between atoms: N3_13  and  C7_15 
ROOT
HETATM    1  C6  UNL     1      29.377  11.941  53.777  1.00  0.00     0.168 C 
HETATM    2  S1  UNL     1      31.021  11.996  53.922  1.00  0.00    -0.041 SA
ENDROOT
BRANCH   1   3
HETATM    3  N2  UNL     1      28.636  13.018  54.301  1.00  0.00    -0.361 N 
ATOM      4  H2  UNL     1      29.092  13.913  54.480  1.00  0.00     0.162 HD
BRANCH   3   5
HETATM    5  C5  UNL     1      27.233  12.853  54.583  1.00  0.00     0.187 C 
BRANCH   5   6
HETATM    6  C4  UNL     1      27.035  12.098  55.857  1.00  0.00     0.073 A 
HETATM    7  C3  UNL     1      26.801  12.582  57.112  1.00  0.00     0.039 A 
HETATM    8  C2  UNL     1      26.690  11.499  57.952  1.00  0.00     0.065 A 
HETATM    9  C1  UNL     1      26.864  10.390  57.153  1.00  0.00     0.215 A 
HETATM   10  O3  UNL     1      27.066  10.792  55.924  1.00  0.00    -0.291 OA
BRANCH   9  11
HETATM   11  N1  UNL     1      26.827   9.029  57.617  1.00  0.00    -0.090 N 
HETATM   12  O1  UNL     1      25.755   8.545  57.967  1.00  0.00    -0.530 OA
HETATM   13  O2  UNL     1      27.975   8.285  57.668  1.00  0.00    -0.530 OA
ENDBRANCH   9  11
ENDBRANCH   5   6
ENDBRANCH   3   5
ENDBRANCH   1   3
BRANCH   1  14
HETATM   14  N3  UNL     1      28.791  10.824  53.137  1.00  0.00    -0.362 N 
ATOM     15  H3  UNL     1      27.778  10.698  53.152  1.00  0.00     0.162 HD
BRANCH  14  16
HETATM   16  C7  UNL     1      29.623   9.873  52.468  1.00  0.00     0.088 C 
HETATM   17  C8  UNL     1      29.323   8.492  53.012  1.00  0.00     0.030 C 
HETATM   18  C9  UNL     1      28.992   7.576  51.846  1.00  0.00    -0.013 C 
HETATM   19  C10 UNL     1      30.204   7.563  50.915  1.00  0.00     0.005 C 
HETATM   20  C14 UNL     1      27.769   8.091  51.130  1.00  0.00     0.005 C 
HETATM   21  C11 UNL     1      30.523   8.946  50.416  1.00  0.00     0.007 C 
HETATM   22  C12 UNL     1      29.482   9.894  50.977  1.00  0.00     0.008 C 
HETATM   23  C13 UNL     1      28.105   9.437  50.539  1.00  0.00     0.007 C 
ENDBRANCH  14  16
ENDBRANCH   1  14
TORSDOF 6
ENDMDL
MODEL 5
REMARK VINA RESULT: -6.391664220      1.263      1.622
REMARK  6 active torsions:
REMARK  status: ('A' for Active; 'I' for Inactive)
REMARK    1  A    between atoms: N1_2  and  C1_4 
REMARK    2  A    between atoms: C4_7  and  C5_8 
REMARK    3  A    between atoms: C5_8  and  N2_9 
REMARK    4  A    between atoms: N2_9  and  C6_11 
REMARK    5  A    between atoms: C6_11  and  N3_13 
REMARK    6  A    between atoms: N3_13  and  C7_15 
ROOT
HETATM    1  C6  UNL     1      30.455  14.840  54.477  1.00  0.00     0.168 C 
HETATM    2  S1  UNL     1      31.330  13.479  54.151  1.00  0.00    -0.041 SA
ENDROOT
BRANCH   1   3
HETATM    3  N2  UNL     1      29.165  14.677  55.020  1.00  0.00    -0.361 N 
ATOM      4  H2  UNL     1      28.979  14.952  55.984  1.00  0.00     0.162 HD
BRANCH   3   5
HETATM    5  C5  UNL     1      28.112  14.121  54.211  1.00  0.00     0.187 C 
BRANCH   5   6
HETATM    6  C4  UNL     1      27.610  12.843  54.801  1.00  0.00     0.073 A 
HETATM    7  C3  UNL     1      27.351  11.655  54.180  1.00  0.00     0.039 A 
HETATM    8  C2  UNL     1      26.909  10.779  55.143  1.00  0.00     0.065 A 
HETATM    9  C1  UNL     1      26.922  11.489  56.323  1.00  0.00     0.215 A 
HETATM   10  O3  UNL     1      27.343  12.702  56.074  1.00  0.00    -0.291 OA
BRANCH   9  11
HETATM   11  N1  UNL     1      26.533  10.960  57.604  1.00  0.00    -0.090 N 
HETATM   12  O1  UNL     1      26.534  11.701  58.582  1.00  0.00    -0.530 OA
HETATM   13  O2  UNL     1      26.167   9.647  57.727  1.00  0.00    -0.530 OA
ENDBRANCH   9  11
ENDBRANCH   5   6
ENDBRANCH   3   5
ENDBRANCH   1   3
BRANCH   1  14
HETATM   14  N3  UNL     1      31.034  16.100  54.198  1.00  0.00    -0.362 N 
ATOM     15  H3  UNL     1      30.621  16.710  53.492  1.00  0.00     0.162 HD
BRANCH  14  16
HETATM   16  C7  UNL     1      32.203  16.516  54.911  1.00  0.00     0.088 C 
HETATM   17  C8  UNL     1      32.580  17.911  54.461  1.00  0.00     0.030 C 
HETATM   18  C9  UNL     1      32.693  18.800  55.689  1.00  0.00    -0.013 C 
HETATM   19  C10 UNL     1      33.762  18.193  56.596  1.00  0.00     0.005 C 
HETATM   20  C14 UNL     1      31.361  18.861  56.392  1.00  0.00     0.005 C 
HETATM   21  C11 UNL     1      33.402  16.789  57.001  1.00  0.00     0.007 C 
HETATM   22  C12 UNL     1      32.049  16.466  56.400  1.00  0.00     0.008 C 
HETATM   23  C13 UNL     1      31.031  17.476  56.890  1.00  0.00     0.007 C 
ENDBRANCH  14  16
ENDBRANCH   1  14
TORSDOF 6
ENDMDL
