MODEL 1
REMARK VINA RESULT: -6.876467212      0.000      0.000
REMARK  5 active torsions:
REMARK  status: ('A' for Active; 'I' for Inactive)
REMARK    1  A    between atoms: C4_7  and  C5_8 
REMARK    2  A    between atoms: C5_8  and  C6_9 
REMARK    3  A    between atoms: N3_14  and  C11_15 
REMARK    4  A    between atoms: C11_15  and  C12_16 
REMARK    5  A    between atoms: C18_24  and  N5_25 
ROOT
HETATM    1  N1  UNL     1      32.852  19.496  57.078  1.00  0.00    -0.191 NA
HETATM    2  C1  UNL     1      32.370  18.545  56.580  1.00  0.00     0.104 C 
HETATM    3  C2  UNL     1      31.796  17.388  55.953  1.00  0.00     0.103 A 
HETATM    4  C3  UNL     1      32.162  17.007  54.668  1.00  0.00     0.116 A 
HETATM    5  N2  UNL     1      31.637  15.932  54.069  1.00  0.00    -0.354 N 
ATOM      6  H2  UNL     1      31.932  15.683  53.124  1.00  0.00     0.166 HD
HETATM    7  C4  UNL     1      30.705  15.163  54.716  1.00  0.00     0.084 A 
HETATM    8  N4  UNL     1      30.363  15.534  55.934  1.00  0.00    -0.331 N 
ATOM      9  H4  UNL     1      29.669  14.966  56.421  1.00  0.00     0.168 HD
HETATM   10  C18 UNL     1      30.858  16.605  56.587  1.00  0.00     0.122 A 
ENDROOT
BRANCH  10  11
HETATM   11  N5  UNL     1      30.467  16.913  57.792  1.00  0.00    -0.384 N 
ATOM     12  H52 UNL     1      30.997  16.628  58.616  1.00  0.00     0.157 HD
ATOM     13  H51 UNL     1      29.608  17.448  57.923  1.00  0.00     0.157 HD
ENDBRANCH  10  11
BRANCH   7  14
HETATM   14  C5  UNL     1      30.094  14.005  54.036  1.00  0.00     0.112 C 
BRANCH  14  15
HETATM   15  C6  UNL     1      30.833  12.720  54.129  1.00  0.00     0.230 C 
HETATM   16  C7  UNL     1      31.581  12.307  52.897  1.00  0.00     0.036 C 
HETATM   17  C8  UNL     1      30.681  11.727  51.815  1.00  0.00     0.004 C 
HETATM   18  C9  UNL     1      29.762  10.662  52.326  1.00  0.00     0.030 C 
HETATM   19  C10 UNL     1      28.998  11.269  53.514  1.00  0.00     0.273 C 
HETATM   20  N3  UNL     1      29.951  11.641  54.505  1.00  0.00     0.093 N 
BRANCH  20  21
HETATM   21  C11 UNL     1      29.410  11.747  55.833  1.00  0.00     0.277 C 
BRANCH  21  22
HETATM   22  C12 UNL     1      27.945  12.060  55.888  1.00  0.00     0.014 C 
HETATM   23  C13 UNL     1      27.274  10.871  56.578  1.00  0.00     0.006 C 
HETATM   24  C14 UNL     1      27.323  11.054  58.075  1.00  0.00     0.000 C 
HETATM   25  C15 UNL     1      26.224  12.047  58.427  1.00  0.00     0.000 C 
HETATM   26  C16 UNL     1      26.217  13.092  57.332  1.00  0.00     0.000 C 
HETATM   27  C17 UNL     1      27.626  13.266  56.748  1.00  0.00     0.006 C 
ENDBRANCH  21  22
ENDBRANCH  20  21
ENDBRANCH  14  15
ENDBRANCH   7  14
TORSDOF 5
ENDMDL
MODEL 2
REMARK VINA RESULT: -6.874093419      0.638      1.386
REMARK  5 active torsions:
REMARK  status: ('A' for Active; 'I' for Inactive)
REMARK    1  A    between atoms: C4_7  and  C5_8 
REMARK    2  A    between atoms: C5_8  and  C6_9 
REMARK    3  A    between atoms: N3_14  and  C11_15 
REMARK    4  A    between atoms: C11_15  and  C12_16 
REMARK    5  A    between atoms: C18_24  and  N5_25 
ROOT
HETATM    1  N1  UNL     1      32.852  19.647  57.415  1.00  0.00    -0.191 NA
HETATM    2  C1  UNL     1      32.398  18.739  56.818  1.00  0.00     0.104 C 
HETATM    3  C2  UNL     1      31.836  17.623  56.111  1.00  0.00     0.103 A 
HETATM    4  C3  UNL     1      31.094  16.650  56.769  1.00  0.00     0.116 A 
HETATM    5  N2  UNL     1      30.563  15.604  56.125  1.00  0.00    -0.354 N 
ATOM      6  H2  UNL     1      30.024  14.910  56.644  1.00  0.00     0.166 HD
HETATM    7  C4  UNL     1      30.739  15.460  54.774  1.00  0.00     0.084 A 
HETATM    8  N4  UNL     1      31.444  16.388  54.158  1.00  0.00    -0.331 N 
ATOM      9  H4  UNL     1      31.580  16.286  53.152  1.00  0.00     0.168 HD
HETATM   10  C18 UNL     1      32.002  17.462  54.754  1.00  0.00     0.122 A 
ENDROOT
BRANCH  10  11
HETATM   11  N5  UNL     1      32.692  18.337  54.079  1.00  0.00    -0.384 N 
ATOM     12  H52 UNL     1      33.595  18.103  53.664  1.00  0.00     0.157 HD
ATOM     13  H51 UNL     1      32.331  19.284  53.961  1.00  0.00     0.157 HD
ENDBRANCH  10  11
BRANCH   7  14
HETATM   14  C5  UNL     1      30.191  14.282  54.074  1.00  0.00     0.112 C 
BRANCH  14  15
HETATM   15  C6  UNL     1      30.997  13.036  54.151  1.00  0.00     0.230 C 
HETATM   16  C7  UNL     1      31.795  12.700  52.927  1.00  0.00     0.036 C 
HETATM   17  C8  UNL     1      30.954  12.105  51.806  1.00  0.00     0.004 C 
HETATM   18  C9  UNL     1      30.082  10.977  52.263  1.00  0.00     0.030 C 
HETATM   19  C10 UNL     1      29.259  11.508  53.448  1.00  0.00     0.273 C 
HETATM   20  N3  UNL     1      30.166  11.900  54.473  1.00  0.00     0.093 N 
BRANCH  20  21
HETATM   21  C11 UNL     1      29.588  11.938  55.790  1.00  0.00     0.277 C 
BRANCH  21  22
HETATM   22  C12 UNL     1      28.115  12.212  55.818  1.00  0.00     0.014 C 
HETATM   23  C13 UNL     1      27.457  10.975  56.434  1.00  0.00     0.006 C 
HETATM   24  C14 UNL     1      27.463  11.090  57.940  1.00  0.00     0.000 C 
HETATM   25  C15 UNL     1      26.329  12.039  58.306  1.00  0.00     0.000 C 
HETATM   26  C16 UNL     1      26.323  13.132  57.258  1.00  0.00     0.000 C 
HETATM   27  C17 UNL     1      27.741  13.368  56.723  1.00  0.00     0.006 C 
ENDBRANCH  21  22
ENDBRANCH  20  21
ENDBRANCH  14  15
ENDBRANCH   7  14
TORSDOF 5
ENDMDL
MODEL 3
REMARK VINA RESULT: -6.823423967      1.273      1.472
REMARK  5 active torsions:
REMARK  status: ('A' for Active; 'I' for Inactive)
REMARK    1  A    between atoms: C4_7  and  C5_8 
REMARK    2  A    between atoms: C5_8  and  C6_9 
REMARK    3  A    between atoms: N3_14  and  C11_15 
REMARK    4  A    between atoms: C11_15  and  C12_16 
REMARK    5  A    between atoms: C18_24  and  N5_25 
ROOT
HETATM    1  N1  UNL     1      35.045  18.691  55.972  1.00  0.00    -0.191 NA
HETATM    2  C1  UNL     1      34.254  17.877  55.663  1.00  0.00     0.104 C 
HETATM    3  C2  UNL     1      33.302  16.867  55.294  1.00  0.00     0.103 A 
HETATM    4  C3  UNL     1      33.542  15.522  55.547  1.00  0.00     0.116 A 
HETATM    5  N2  UNL     1      32.666  14.568  55.210  1.00  0.00    -0.354 N 
ATOM      6  H2  UNL     1      32.878  13.591  55.414  1.00  0.00     0.166 HD
HETATM    7  C4  UNL     1      31.487  14.896  54.593  1.00  0.00     0.084 A 
HETATM    8  N4  UNL     1      31.269  16.174  54.356  1.00  0.00    -0.331 N 
ATOM      9  H4  UNL     1      30.393  16.424  53.896  1.00  0.00     0.168 HD
HETATM   10  C18 UNL     1      32.113  17.177  54.673  1.00  0.00     0.122 A 
ENDROOT
BRANCH  10  11
HETATM   11  N5  UNL     1      31.831  18.420  54.402  1.00  0.00    -0.384 N 
ATOM     12  H52 UNL     1      32.276  18.914  53.628  1.00  0.00     0.157 HD
ATOM     13  H51 UNL     1      31.153  18.922  54.976  1.00  0.00     0.157 HD
ENDBRANCH  10  11
BRANCH   7  14
HETATM   14  C5  UNL     1      30.544  13.838  54.182  1.00  0.00     0.112 C 
BRANCH  14  15
HETATM   15  C6  UNL     1      31.061  12.445  54.215  1.00  0.00     0.230 C 
HETATM   16  C7  UNL     1      31.771  11.984  52.978  1.00  0.00     0.036 C 
HETATM   17  C8  UNL     1      30.825  11.621  51.842  1.00  0.00     0.004 C 
HETATM   18  C9  UNL     1      29.729  10.695  52.266  1.00  0.00     0.030 C 
HETATM   19  C10 UNL     1      29.035  11.353  53.470  1.00  0.00     0.273 C 
HETATM   20  N3  UNL     1      30.003  11.507  54.504  1.00  0.00     0.093 N 
BRANCH  20  21
HETATM   21  C11 UNL     1      29.442  11.626  55.823  1.00  0.00     0.277 C 
BRANCH  21  22
HETATM   22  C12 UNL     1      27.986  11.980  55.854  1.00  0.00     0.014 C 
HETATM   23  C13 UNL     1      27.278  10.833  56.578  1.00  0.00     0.006 C 
HETATM   24  C14 UNL     1      27.320  11.067  58.069  1.00  0.00     0.000 C 
HETATM   25  C15 UNL     1      26.245  12.101  58.376  1.00  0.00     0.000 C 
HETATM   26  C16 UNL     1      26.275  13.106  57.245  1.00  0.00     0.000 C 
HETATM   27  C17 UNL     1      27.692  13.223  56.669  1.00  0.00     0.006 C 
ENDBRANCH  21  22
ENDBRANCH  20  21
ENDBRANCH  14  15
ENDBRANCH   7  14
TORSDOF 5
ENDMDL
MODEL 4
REMARK VINA RESULT: -6.609541376      1.803      2.856
REMARK  5 active torsions:
REMARK  status: ('A' for Active; 'I' for Inactive)
REMARK    1  A    between atoms: C4_7  and  C5_8 
REMARK    2  A    between atoms: C5_8  and  C6_9 
REMARK    3  A    between atoms: N3_14  and  C11_15 
REMARK    4  A    between atoms: C11_15  and  C12_16 
REMARK    5  A    between atoms: C18_24  and  N5_25 
ROOT
HETATM    1  N1  UNL     1      33.664  16.106  56.546  1.00  0.00    -0.191 NA
HETATM    2  C1  UNL     1      33.003  15.370  55.908  1.00  0.00     0.104 C 
HETATM    3  C2  UNL     1      32.209  14.454  55.139  1.00  0.00     0.103 A 
HETATM    4  C3  UNL     1      32.374  13.080  55.257  1.00  0.00     0.116 A 
HETATM    5  N2  UNL     1      31.642  12.212  54.548  1.00  0.00    -0.354 N 
ATOM      6  H2  UNL     1      31.792  11.210  54.663  1.00  0.00     0.166 HD
HETATM    7  C4  UNL     1      30.692  12.663  53.668  1.00  0.00     0.084 A 
HETATM    8  N4  UNL     1      30.543  13.968  53.562  1.00  0.00    -0.331 N 
ATOM      9  H4  UNL     1      29.838  14.310  52.909  1.00  0.00     0.168 HD
HETATM   10  C18 UNL     1      31.250  14.888  54.250  1.00  0.00     0.122 A 
ENDROOT
BRANCH  10  11
HETATM   11  N5  UNL     1      31.051  16.166  54.089  1.00  0.00    -0.384 N 
ATOM     12  H52 UNL     1      31.391  16.661  53.264  1.00  0.00     0.157 HD
ATOM     13  H51 UNL     1      30.547  16.693  54.802  1.00  0.00     0.157 HD
ENDBRANCH  10  11
BRANCH   7  14
HETATM   14  C5  UNL     1      29.919  11.705  52.854  1.00  0.00     0.112 C 
BRANCH  14  15
HETATM   15  C6  UNL     1      29.710  10.357  53.443  1.00  0.00     0.230 C 
HETATM   16  C7  UNL     1      30.430   9.231  52.764  1.00  0.00     0.036 C 
HETATM   17  C8  UNL     1      29.761   8.785  51.471  1.00  0.00     0.004 C 
HETATM   18  C9  UNL     1      28.295   8.532  51.626  1.00  0.00     0.030 C 
HETATM   19  C10 UNL     1      27.689   9.807  52.235  1.00  0.00     0.273 C 
HETATM   20  N3  UNL     1      28.307  10.027  53.500  1.00  0.00     0.093 N 
BRANCH  20  21
HETATM   21  C11 UNL     1      27.536  10.844  54.398  1.00  0.00     0.277 C 
BRANCH  21  22
HETATM   22  C12 UNL     1      27.923  10.723  55.841  1.00  0.00     0.014 C 
HETATM   23  C13 UNL     1      28.128  12.150  56.355  1.00  0.00     0.006 C 
HETATM   24  C14 UNL     1      26.806  12.725  56.804  1.00  0.00     0.000 C 
HETATM   25  C15 UNL     1      26.518  12.131  58.176  1.00  0.00     0.000 C 
HETATM   26  C16 UNL     1      26.969  10.687  58.126  1.00  0.00     0.000 C 
HETATM   27  C17 UNL     1      26.827  10.130  56.704  1.00  0.00     0.006 C 
ENDBRANCH  21  22
ENDBRANCH  20  21
ENDBRANCH  14  15
ENDBRANCH   7  14
TORSDOF 5
ENDMDL
MODEL 5
REMARK VINA RESULT: -6.554264304      1.117      2.081
REMARK  5 active torsions:
REMARK  status: ('A' for Active; 'I' for Inactive)
REMARK    1  A    between atoms: C4_7  and  C5_8 
REMARK    2  A    between atoms: C5_8  and  C6_9 
REMARK    3  A    between atoms: N3_14  and  C11_15 
REMARK    4  A    between atoms: C11_15  and  C12_16 
REMARK    5  A    between atoms: C18_24  and  N5_25 
ROOT
HETATM    1  N1  UNL     1      32.743  19.919  57.329  1.00  0.00    -0.191 NA
HETATM    2  C1  UNL     1      32.310  18.969  56.786  1.00  0.00     0.104 C 
HETATM    3  C2  UNL     1      31.773  17.803  56.144  1.00  0.00     0.103 A 
HETATM    4  C3  UNL     1      31.051  16.854  56.856  1.00  0.00     0.116 A 
HETATM    5  N2  UNL     1      30.544  15.761  56.273  1.00  0.00    -0.354 N 
ATOM      6  H2  UNL     1      30.019  15.087  56.830  1.00  0.00     0.166 HD
HETATM    7  C4  UNL     1      30.727  15.543  54.932  1.00  0.00     0.084 A 
HETATM    8  N4  UNL     1      31.414  16.448  54.265  1.00  0.00    -0.331 N 
ATOM      9  H4  UNL     1      31.554  16.291  53.267  1.00  0.00     0.168 HD
HETATM   10  C18 UNL     1      31.947  17.566  54.798  1.00  0.00     0.122 A 
ENDROOT
BRANCH  10  11
HETATM   11  N5  UNL     1      32.620  18.416  54.075  1.00  0.00    -0.384 N 
ATOM     12  H52 UNL     1      32.210  18.866  53.257  1.00  0.00     0.157 HD
ATOM     13  H51 UNL     1      33.585  18.638  54.323  1.00  0.00     0.157 HD
ENDBRANCH  10  11
BRANCH   7  14
HETATM   14  C5  UNL     1      30.205  14.315  54.302  1.00  0.00     0.112 C 
BRANCH  14  15
HETATM   15  C6  UNL     1      30.864  13.042  54.692  1.00  0.00     0.230 C 
HETATM   16  C7  UNL     1      32.228  12.810  54.113  1.00  0.00     0.036 C 
HETATM   17  C8  UNL     1      32.193  12.362  52.658  1.00  0.00     0.004 C 
HETATM   18  C9  UNL     1      31.254  11.222  52.418  1.00  0.00     0.030 C 
HETATM   19  C10 UNL     1      29.886  11.653  52.971  1.00  0.00     0.273 C 
HETATM   20  N3  UNL     1      30.036  11.907  54.365  1.00  0.00     0.093 N 
BRANCH  20  21
HETATM   21  C11 UNL     1      28.810  11.826  55.113  1.00  0.00     0.277 C 
BRANCH  21  22
HETATM   22  C12 UNL     1      28.891  10.993  56.357  1.00  0.00     0.014 C 
HETATM   23  C13 UNL     1      27.925  11.623  57.363  1.00  0.00     0.006 C 
HETATM   24  C14 UNL     1      26.534  11.079  57.143  1.00  0.00     0.000 C 
HETATM   25  C15 UNL     1      26.503   9.697  57.780  1.00  0.00     0.000 C 
HETATM   26  C16 UNL     1      27.842   9.054  57.486  1.00  0.00     0.000 C 
HETATM   27  C17 UNL     1      28.405   9.572  56.156  1.00  0.00     0.006 C 
ENDBRANCH  21  22
ENDBRANCH  20  21
ENDBRANCH  14  15
ENDBRANCH   7  14
TORSDOF 5
ENDMDL
