MODEL 1
REMARK VINA RESULT: -6.421702962      0.000      0.000
REMARK  6 active torsions:
REMARK  status: ('A' for Active; 'I' for Inactive)
REMARK    1  A    between atoms: C5_8  and  C6_9 
REMARK    2  A    between atoms: C7_10  and  C8_11 
REMARK    3  A    between atoms: N3_12  and  N4_14 
REMARK    4  A    between atoms: N4_14  and  C9_16 
REMARK    5  A    between atoms: C9_16  and  N5_18 
REMARK    6  A    between atoms: N5_18  and  C10_20 
ROOT
HETATM    1  C8  UNL     1      27.980  14.648  53.493  1.00  0.00     0.107 C 
HETATM    2  N3  UNL     1      29.117  14.829  53.131  1.00  0.00    -0.310 N 
ATOM      3  H3  UNL     1      29.166  15.647  52.523  1.00  0.00     0.186 HD
ENDROOT
BRANCH   2   4
HETATM    4  N4  UNL     1      30.328  14.297  53.279  1.00  0.00    -0.277 N 
ATOM      5  H4  UNL     1      30.679  13.617  52.604  1.00  0.00     0.189 HD
BRANCH   4   6
HETATM    6  C9  UNL     1      31.129  14.691  54.395  1.00  0.00     0.186 C 
HETATM    7  S1  UNL     1      32.182  13.630  55.009  1.00  0.00    -0.040 SA
BRANCH   6   8
HETATM    8  N5  UNL     1      31.004  15.978  54.936  1.00  0.00    -0.361 N 
ATOM      9  H5  UNL     1      30.446  16.680  54.449  1.00  0.00     0.162 HD
BRANCH   8  10
HETATM   10  C10 UNL     1      31.657  16.316  56.176  1.00  0.00     0.083 C 
HETATM   11  C11 UNL     1      32.755  17.326  55.993  1.00  0.00     0.025 C 
HETATM   12  C12 UNL     1      32.254  18.730  55.802  1.00  0.00     0.002 C 
HETATM   13  C13 UNL     1      31.072  19.056  56.676  1.00  0.00     0.000 C 
HETATM   14  C14 UNL     1      30.985  18.065  57.822  1.00  0.00     0.002 C 
HETATM   15  C15 UNL     1      30.629  16.727  57.180  1.00  0.00     0.025 C 
ENDBRANCH   8  10
ENDBRANCH   6   8
ENDBRANCH   4   6
ENDBRANCH   2   4
BRANCH   1  16
HETATM   16  C7  UNL     1      27.444  13.606  54.358  1.00  0.00     0.019 C 
HETATM   17  C6  UNL     1      27.894  13.380  55.531  1.00  0.00     0.016 C 
BRANCH  17  18
HETATM   18  C5  UNL     1      27.450  12.383  56.484  1.00  0.00     0.005 A 
HETATM   19  C2  UNL     1      26.501  12.482  57.452  1.00  0.00     0.033 A 
HETATM   20  C1  UNL     1      25.645  13.621  57.853  1.00  0.00     0.070 C 
HETATM   21  N1  UNL     1      26.452  11.260  58.074  1.00  0.00    -0.303 N 
HETATM   22  N2  UNL     1      27.318  10.451  57.524  1.00  0.00    -0.307 N 
ATOM     23  H1  UNL     1      25.833  11.020  58.849  1.00  0.00     0.186 HD
HETATM   24  C3  UNL     1      27.586   9.059  57.885  1.00  0.00     0.177 C 
HETATM   25  C4  UNL     1      27.970  11.065  56.542  1.00  0.00     0.123 A 
ENDBRANCH  17  18
ENDBRANCH   1  16
TORSDOF 6
ENDMDL
MODEL 2
REMARK VINA RESULT: -6.292868918      1.303      1.889
REMARK  6 active torsions:
REMARK  status: ('A' for Active; 'I' for Inactive)
REMARK    1  A    between atoms: C5_8  and  C6_9 
REMARK    2  A    between atoms: C7_10  and  C8_11 
REMARK    3  A    between atoms: N3_12  and  N4_14 
REMARK    4  A    between atoms: N4_14  and  C9_16 
REMARK    5  A    between atoms: C9_16  and  N5_18 
REMARK    6  A    between atoms: N5_18  and  C10_20 
ROOT
HETATM    1  C8  UNL     1      27.482  14.321  54.142  1.00  0.00     0.107 C 
HETATM    2  N3  UNL     1      28.402  14.783  53.512  1.00  0.00    -0.310 N 
ATOM      3  H3  UNL     1      28.191  15.742  53.234  1.00  0.00     0.186 HD
ENDROOT
BRANCH   2   4
HETATM    4  N4  UNL     1      29.606  14.433  53.067  1.00  0.00    -0.277 N 
ATOM      5  H4  UNL     1      29.718  14.044  52.130  1.00  0.00     0.189 HD
BRANCH   4   6
HETATM    6  C9  UNL     1      30.740  14.609  53.919  1.00  0.00     0.186 C 
HETATM    7  S1  UNL     1      31.613  13.312  54.329  1.00  0.00    -0.040 SA
BRANCH   6   8
HETATM    8  N5  UNL     1      31.087  15.886  54.380  1.00  0.00    -0.361 N 
ATOM      9  H5  UNL     1      30.440  16.664  54.250  1.00  0.00     0.162 HD
BRANCH   8  10
HETATM   10  C10 UNL     1      32.352  16.109  55.035  1.00  0.00     0.083 C 
HETATM   11  C11 UNL     1      33.197  17.130  54.327  1.00  0.00     0.025 C 
HETATM   12  C12 UNL     1      32.755  18.546  54.565  1.00  0.00     0.002 C 
HETATM   13  C13 UNL     1      32.309  18.792  55.982  1.00  0.00     0.000 C 
HETATM   14  C14 UNL     1      32.844  17.701  56.892  1.00  0.00     0.002 C 
HETATM   15  C15 UNL     1      32.112  16.427  56.476  1.00  0.00     0.025 C 
ENDBRANCH   8  10
ENDBRANCH   6   8
ENDBRANCH   4   6
ENDBRANCH   2   4
BRANCH   1  16
HETATM   16  C7  UNL     1      27.342  12.997  54.731  1.00  0.00     0.019 C 
HETATM   17  C6  UNL     1      27.887  12.670  55.839  1.00  0.00     0.016 C 
BRANCH  17  18
HETATM   18  C5  UNL     1      27.824  11.396  56.527  1.00  0.00     0.005 A 
HETATM   19  C2  UNL     1      28.838  10.577  56.914  1.00  0.00     0.033 A 
HETATM   20  C1  UNL     1      30.302  10.706  56.745  1.00  0.00     0.070 C 
HETATM   21  N1  UNL     1      28.253   9.503  57.535  1.00  0.00    -0.303 N 
HETATM   22  N2  UNL     1      26.954   9.648  57.534  1.00  0.00    -0.307 N 
ATOM     23  H1  UNL     1      28.755   8.711  57.936  1.00  0.00     0.186 HD
HETATM   24  C3  UNL     1      25.959   8.732  58.094  1.00  0.00     0.177 C 
HETATM   25  C4  UNL     1      26.612  10.783  56.934  1.00  0.00     0.123 A 
ENDBRANCH  17  18
ENDBRANCH   1  16
TORSDOF 6
ENDMDL
MODEL 3
REMARK VINA RESULT: -6.200596322      1.134      1.308
REMARK  6 active torsions:
REMARK  status: ('A' for Active; 'I' for Inactive)
REMARK    1  A    between atoms: C5_8  and  C6_9 
REMARK    2  A    between atoms: C7_10  and  C8_11 
REMARK    3  A    between atoms: N3_12  and  N4_14 
REMARK    4  A    between atoms: N4_14  and  C9_16 
REMARK    5  A    between atoms: C9_16  and  N5_18 
REMARK    6  A    between atoms: N5_18  and  C10_20 
ROOT
HETATM    1  C8  UNL     1      29.482  13.155  53.536  1.00  0.00     0.107 C 
HETATM    2  N3  UNL     1      29.953  14.234  53.272  1.00  0.00    -0.310 N 
ATOM      3  H3  UNL     1      30.182  14.284  52.279  1.00  0.00     0.186 HD
ENDROOT
BRANCH   2   4
HETATM    4  N4  UNL     1      30.268  15.380  53.871  1.00  0.00    -0.277 N 
ATOM      5  H4  UNL     1      29.770  16.239  53.639  1.00  0.00     0.189 HD
BRANCH   4   6
HETATM    6  C9  UNL     1      31.314  15.389  54.845  1.00  0.00     0.186 C 
HETATM    7  S1  UNL     1      32.661  14.547  54.548  1.00  0.00    -0.040 SA
BRANCH   6   8
HETATM    8  N5  UNL     1      31.170  16.123  56.031  1.00  0.00    -0.361 N 
ATOM      9  H5  UNL     1      30.335  16.001  56.604  1.00  0.00     0.162 HD
BRANCH   8  10
HETATM   10  C10 UNL     1      32.194  17.050  56.446  1.00  0.00     0.083 C 
HETATM   11  C11 UNL     1      31.958  18.441  55.928  1.00  0.00     0.025 C 
HETATM   12  C12 UNL     1      30.891  19.188  56.678  1.00  0.00     0.002 C 
HETATM   13  C13 UNL     1      30.928  18.935  58.162  1.00  0.00     0.000 C 
HETATM   14  C14 UNL     1      32.282  18.374  58.559  1.00  0.00     0.002 C 
HETATM   15  C15 UNL     1      32.347  16.983  57.932  1.00  0.00     0.025 C 
ENDBRANCH   8  10
ENDBRANCH   6   8
ENDBRANCH   4   6
ENDBRANCH   2   4
BRANCH   1  16
HETATM   16  C7  UNL     1      29.018  12.641  54.817  1.00  0.00     0.019 C 
HETATM   17  C6  UNL     1      27.870  12.105  54.974  1.00  0.00     0.016 C 
BRANCH  17  18
HETATM   18  C5  UNL     1      27.294  11.557  56.186  1.00  0.00     0.005 A 
HETATM   19  C2  UNL     1      26.789  12.209  57.267  1.00  0.00     0.033 A 
HETATM   20  C1  UNL     1      26.682  13.655  57.561  1.00  0.00     0.070 C 
HETATM   21  N1  UNL     1      26.359  11.239  58.137  1.00  0.00    -0.303 N 
HETATM   22  N2  UNL     1      26.583  10.058  57.626  1.00  0.00    -0.307 N 
ATOM     23  H1  UNL     1      25.930  11.414  59.046  1.00  0.00     0.186 HD
HETATM   24  C3  UNL     1      26.277   8.759  58.225  1.00  0.00     0.177 C 
HETATM   25  C4  UNL     1      27.155  10.168  56.432  1.00  0.00     0.123 A 
ENDBRANCH  17  18
ENDBRANCH   1  16
TORSDOF 6
ENDMDL
MODEL 4
REMARK VINA RESULT: -6.024510816      3.200      5.840
REMARK  6 active torsions:
REMARK  status: ('A' for Active; 'I' for Inactive)
REMARK    1  A    between atoms: C5_8  and  C6_9 
REMARK    2  A    between atoms: C7_10  and  C8_11 
REMARK    3  A    between atoms: N3_12  and  N4_14 
REMARK    4  A    between atoms: N4_14  and  C9_16 
REMARK    5  A    between atoms: C9_16  and  N5_18 
REMARK    6  A    between atoms: N5_18  and  C10_20 
ROOT
HETATM    1  C8  UNL     1      28.583  14.178  53.724  1.00  0.00     0.107 C 
HETATM    2  N3  UNL     1      29.546  14.043  53.009  1.00  0.00    -0.310 N 
ATOM      3  H3  UNL     1      29.460  14.643  52.188  1.00  0.00     0.186 HD
ENDROOT
BRANCH   2   4
HETATM    4  N4  UNL     1      30.684  13.357  52.956  1.00  0.00    -0.277 N 
ATOM      5  H4  UNL     1      31.554  13.817  52.688  1.00  0.00     0.189 HD
BRANCH   4   6
HETATM    6  C9  UNL     1      30.671  11.964  53.280  1.00  0.00     0.186 C 
HETATM    7  S1  UNL     1      31.437  11.470  54.615  1.00  0.00    -0.040 SA
BRANCH   6   8
HETATM    8  N5  UNL     1      29.999  11.052  52.456  1.00  0.00    -0.361 N 
ATOM      9  H5  UNL     1      30.026  11.170  51.443  1.00  0.00     0.162 HD
BRANCH   8  10
HETATM   10  C10 UNL     1      29.270   9.948  53.029  1.00  0.00     0.083 C 
HETATM   11  C11 UNL     1      27.828   9.925  52.602  1.00  0.00     0.025 C 
HETATM   12  C12 UNL     1      27.624   9.414  51.203  1.00  0.00     0.002 C 
HETATM   13  C13 UNL     1      28.528   8.259  50.862  1.00  0.00     0.000 C 
HETATM   14  C14 UNL     1      29.068   7.629  52.133  1.00  0.00     0.002 C 
HETATM   15  C15 UNL     1      29.998   8.674  52.744  1.00  0.00     0.025 C 
ENDBRANCH   8  10
ENDBRANCH   6   8
ENDBRANCH   4   6
ENDBRANCH   2   4
BRANCH   1  16
HETATM   16  C7  UNL     1      28.277  13.526  54.989  1.00  0.00     0.019 C 
HETATM   17  C6  UNL     1      27.471  12.540  55.084  1.00  0.00     0.016 C 
BRANCH  17  18
HETATM   18  C5  UNL     1      27.087  11.808  56.274  1.00  0.00     0.005 A 
HETATM   19  C2  UNL     1      26.491  12.263  57.408  1.00  0.00     0.033 A 
HETATM   20  C1  UNL     1      26.069  13.627  57.797  1.00  0.00     0.070 C 
HETATM   21  N1  UNL     1      26.331  11.173  58.226  1.00  0.00    -0.303 N 
HETATM   22  N2  UNL     1      26.798  10.106  57.634  1.00  0.00    -0.307 N 
ATOM     23  H1  UNL     1      25.911  11.193  59.155  1.00  0.00     0.186 HD
HETATM   24  C3  UNL     1      26.821   8.740  58.157  1.00  0.00     0.177 C 
HETATM   25  C4  UNL     1      27.279  10.412  56.434  1.00  0.00     0.123 A 
ENDBRANCH  17  18
ENDBRANCH   1  16
TORSDOF 6
ENDMDL
MODEL 5
REMARK VINA RESULT: -6.019880212      2.299      7.509
REMARK  6 active torsions:
REMARK  status: ('A' for Active; 'I' for Inactive)
REMARK    1  A    between atoms: C5_8  and  C6_9 
REMARK    2  A    between atoms: C7_10  and  C8_11 
REMARK    3  A    between atoms: N3_12  and  N4_14 
REMARK    4  A    between atoms: N4_14  and  C9_16 
REMARK    5  A    between atoms: C9_16  and  N5_18 
REMARK    6  A    between atoms: N5_18  and  C10_20 
ROOT
HETATM    1  C8  UNL     1      30.717  14.677  54.426  1.00  0.00     0.107 C 
HETATM    2  N3  UNL     1      30.640  13.474  54.492  1.00  0.00    -0.310 N 
ATOM      3  H3  UNL     1      29.970  13.127  53.805  1.00  0.00     0.186 HD
ENDROOT
BRANCH   2   4
HETATM    4  N4  UNL     1      31.154  12.459  55.181  1.00  0.00    -0.277 N 
ATOM      5  H4  UNL     1      32.110  12.504  55.533  1.00  0.00     0.189 HD
BRANCH   4   6
HETATM    6  C9  UNL     1      30.348  11.303  55.422  1.00  0.00     0.186 C 
HETATM    7  S1  UNL     1      30.655   9.954  54.587  1.00  0.00    -0.040 SA
BRANCH   6   8
HETATM    8  N5  UNL     1      29.316  11.345  56.370  1.00  0.00    -0.361 N 
ATOM      9  H5  UNL     1      29.514  11.110  57.343  1.00  0.00     0.162 HD
BRANCH   8  10
HETATM   10  C10 UNL     1      27.979  11.717  55.980  1.00  0.00     0.083 C 
HETATM   11  C11 UNL     1      26.964  10.662  56.323  1.00  0.00     0.025 C 
HETATM   12  C12 UNL     1      26.597  10.633  57.780  1.00  0.00     0.002 C 
HETATM   13  C13 UNL     1      26.488  12.006  58.387  1.00  0.00     0.000 C 
HETATM   14  C14 UNL     1      26.326  13.046  57.293  1.00  0.00     0.002 C 
HETATM   15  C15 UNL     1      27.657  13.063  56.544  1.00  0.00     0.025 C 
ENDBRANCH   8  10
ENDBRANCH   6   8
ENDBRANCH   4   6
ENDBRANCH   2   4
BRANCH   1  16
HETATM   16  C7  UNL     1      31.535  15.591  55.211  1.00  0.00     0.019 C 
HETATM   17  C6  UNL     1      32.045  16.656  54.725  1.00  0.00     0.016 C 
BRANCH  17  18
HETATM   18  C5  UNL     1      32.869  17.642  55.394  1.00  0.00     0.005 A 
HETATM   19  C2  UNL     1      32.492  18.702  56.158  1.00  0.00     0.033 A 
HETATM   20  C1  UNL     1      31.147  19.195  56.529  1.00  0.00     0.070 C 
HETATM   21  N1  UNL     1      33.648  19.316  56.567  1.00  0.00    -0.303 N 
HETATM   22  N2  UNL     1      34.681  18.675  56.087  1.00  0.00    -0.307 N 
ATOM     23  H1  UNL     1      33.695  20.147  57.156  1.00  0.00     0.186 HD
HETATM   24  C3  UNL     1      36.095  18.997  56.283  1.00  0.00     0.177 C 
HETATM   25  C4  UNL     1      34.287  17.637  55.357  1.00  0.00     0.123 A 
ENDBRANCH  17  18
ENDBRANCH   1  16
TORSDOF 6
ENDMDL
