MODEL 1
REMARK VINA RESULT: -6.486543705      0.000      0.000
REMARK  6 active torsions:
REMARK  status: ('A' for Active; 'I' for Inactive)
REMARK    1  A    between atoms: C2_2  and  O1_3 
REMARK    2  A    between atoms: O1_3  and  C3_4 
REMARK    3  A    between atoms: C3_4  and  C4_6 
REMARK    4  A    between atoms: C7_11  and  N2_12 
REMARK    5  A    between atoms: N2_12  and  C8_14 
REMARK    6  A    between atoms: C8_14  and  C9_15 
ROOT
HETATM    1  C4  UNL     1      32.594  16.604  55.480  1.00  0.00     0.084 A 
HETATM    2  C5  UNL     1      31.702  17.165  56.382  1.00  0.00     0.108 A 
HETATM    3  N1  UNL     1      30.591  16.416  56.475  1.00  0.00    -0.360 N 
ATOM      4  H1  UNL     1      29.777  16.595  57.063  1.00  0.00     0.165 HD
HETATM    5  C6  UNL     1      30.773  15.374  55.630  1.00  0.00     0.104 A 
HETATM    6  C7  UNL     1      29.942  14.317  55.344  1.00  0.00     0.131 A 
HETATM    7  N3  UNL     1      30.336  13.389  54.459  1.00  0.00    -0.337 N 
ATOM      8  H3  UNL     1      29.726  12.602  54.240  1.00  0.00     0.168 HD
HETATM    9  C15 UNL     1      31.534  13.498  53.862  1.00  0.00     0.182 A 
HETATM   10  N4  UNL     1      32.360  14.522  54.126  1.00  0.00    -0.349 N 
ATOM     11  H4  UNL     1      33.265  14.583  53.658  1.00  0.00     0.166 HD
HETATM   12  C16 UNL     1      31.995  15.465  55.005  1.00  0.00     0.081 A 
ENDROOT
BRANCH   6  13
HETATM   13  N2  UNL     1      28.794  14.257  55.947  1.00  0.00    -0.374 N 
ATOM     14  H2  UNL     1      28.695  14.528  56.925  1.00  0.00     0.161 HD
BRANCH  13  15
HETATM   15  C8  UNL     1      27.664  13.790  55.179  1.00  0.00     0.126 C 
BRANCH  15  16
HETATM   16  C9  UNL     1      26.860  12.754  55.973  1.00  0.00     0.003 C 
HETATM   17  C10 UNL     1      27.602  11.427  55.802  1.00  0.00     0.006 C 
HETATM   18  C11 UNL     1      26.951  10.340  56.593  1.00  0.00     0.000 C 
HETATM   19  C12 UNL     1      26.657  10.669  58.003  1.00  0.00     0.000 C 
HETATM   20  C13 UNL     1      26.296  12.073  58.295  1.00  0.00     0.000 C 
HETATM   21  C14 UNL     1      26.982  13.093  57.443  1.00  0.00     0.006 C 
ENDBRANCH  15  16
ENDBRANCH  13  15
ENDBRANCH   6  13
BRANCH   1  22
HETATM   22  C3  UNL     1      33.908  17.099  55.092  1.00  0.00     0.297 C 
HETATM   23  O2  UNL     1      34.756  16.407  54.485  1.00  0.00    -0.259 OA
BRANCH  22  24
HETATM   24  O1  UNL     1      34.281  18.413  55.396  1.00  0.00    -0.318 OA
BRANCH  24  25
HETATM   25  C2  UNL     1      35.314  18.718  56.299  1.00  0.00     0.174 C 
HETATM   26  C1  UNL     1      34.675  19.236  57.573  1.00  0.00     0.034 C 
ENDBRANCH  24  25
ENDBRANCH  22  24
ENDBRANCH   1  22
TORSDOF 6
ENDMDL
MODEL 2
REMARK VINA RESULT: -6.366308487      0.894      1.460
REMARK  6 active torsions:
REMARK  status: ('A' for Active; 'I' for Inactive)
REMARK    1  A    between atoms: C2_2  and  O1_3 
REMARK    2  A    between atoms: O1_3  and  C3_4 
REMARK    3  A    between atoms: C3_4  and  C4_6 
REMARK    4  A    between atoms: C7_11  and  N2_12 
REMARK    5  A    between atoms: N2_12  and  C8_14 
REMARK    6  A    between atoms: C8_14  and  C9_15 
ROOT
HETATM    1  C4  UNL     1      32.769  15.541  55.226  1.00  0.00     0.084 A 
HETATM    2  C5  UNL     1      32.003  16.321  56.079  1.00  0.00     0.108 A 
HETATM    3  N1  UNL     1      30.707  15.978  55.997  1.00  0.00    -0.360 N 
ATOM      4  H1  UNL     1      29.929  16.389  56.514  1.00  0.00     0.165 HD
HETATM    5  C6  UNL     1      30.644  14.975  55.089  1.00  0.00     0.104 A 
HETATM    6  C7  UNL     1      29.558  14.267  54.634  1.00  0.00     0.131 A 
HETATM    7  N3  UNL     1      29.737  13.304  53.718  1.00  0.00    -0.337 N 
ATOM      8  H3  UNL     1      28.937  12.773  53.374  1.00  0.00     0.168 HD
HETATM    9  C15 UNL     1      30.969  13.038  53.254  1.00  0.00     0.182 A 
HETATM   10  N4  UNL     1      32.043  13.719  53.684  1.00  0.00    -0.349 N 
ATOM     11  H4  UNL     1      32.968  13.500  53.316  1.00  0.00     0.166 HD
HETATM   12  C16 UNL     1      31.897  14.687  54.599  1.00  0.00     0.081 A 
ENDROOT
BRANCH   6  13
HETATM   13  N2  UNL     1      28.388  14.560  55.113  1.00  0.00    -0.374 N 
ATOM     14  H2  UNL     1      28.201  15.470  55.535  1.00  0.00     0.161 HD
BRANCH  13  15
HETATM   15  C8  UNL     1      27.362  13.548  55.026  1.00  0.00     0.126 C 
BRANCH  15  16
HETATM   16  C9  UNL     1      27.545  12.494  56.123  1.00  0.00     0.003 C 
HETATM   17  C10 UNL     1      26.571  12.877  57.239  1.00  0.00     0.006 C 
HETATM   18  C11 UNL     1      26.604  11.877  58.349  1.00  0.00     0.000 C 
HETATM   19  C12 UNL     1      26.493  10.462  57.933  1.00  0.00     0.000 C 
HETATM   20  C13 UNL     1      27.104  10.103  56.636  1.00  0.00     0.000 C 
HETATM   21  C14 UNL     1      27.041  11.170  55.589  1.00  0.00     0.006 C 
ENDBRANCH  15  16
ENDBRANCH  13  15
ENDBRANCH   6  13
BRANCH   1  22
HETATM   22  C3  UNL     1      34.209  15.593  55.014  1.00  0.00     0.297 C 
HETATM   23  O2  UNL     1      34.926  14.574  54.883  1.00  0.00    -0.259 OA
BRANCH  22  24
HETATM   24  O1  UNL     1      34.866  16.825  54.947  1.00  0.00    -0.318 OA
BRANCH  24  25
HETATM   25  C2  UNL     1      35.548  17.381  56.043  1.00  0.00     0.174 C 
HETATM   26  C1  UNL     1      34.915  18.725  56.349  1.00  0.00     0.034 C 
ENDBRANCH  24  25
ENDBRANCH  22  24
ENDBRANCH   1  22
TORSDOF 6
ENDMDL
MODEL 3
REMARK VINA RESULT: -6.328213892      1.449      2.616
REMARK  6 active torsions:
REMARK  status: ('A' for Active; 'I' for Inactive)
REMARK    1  A    between atoms: C2_2  and  O1_3 
REMARK    2  A    between atoms: O1_3  and  C3_4 
REMARK    3  A    between atoms: C3_4  and  C4_6 
REMARK    4  A    between atoms: C7_11  and  N2_12 
REMARK    5  A    between atoms: N2_12  and  C8_14 
REMARK    6  A    between atoms: C8_14  and  C9_15 
ROOT
HETATM    1  C4  UNL     1      32.767  15.777  54.801  1.00  0.00     0.084 A 
HETATM    2  C5  UNL     1      32.150  16.556  55.768  1.00  0.00     0.108 A 
HETATM    3  N1  UNL     1      30.885  16.148  55.966  1.00  0.00    -0.360 N 
ATOM      4  H1  UNL     1      30.208  16.542  56.619  1.00  0.00     0.165 HD
HETATM    5  C6  UNL     1      30.695  15.105  55.123  1.00  0.00     0.104 A 
HETATM    6  C7  UNL     1      29.580  14.327  54.925  1.00  0.00     0.131 A 
HETATM    7  N3  UNL     1      29.621  13.335  54.023  1.00  0.00    -0.337 N 
ATOM      8  H3  UNL     1      28.799  12.752  53.868  1.00  0.00     0.168 HD
HETATM    9  C15 UNL     1      30.745  13.109  53.324  1.00  0.00     0.182 A 
HETATM   10  N4  UNL     1      31.845  13.858  53.501  1.00  0.00    -0.349 N 
ATOM     11  H4  UNL     1      32.686  13.668  52.958  1.00  0.00     0.166 HD
HETATM   12  C16 UNL     1      31.835  14.857  54.395  1.00  0.00     0.081 A 
ENDROOT
BRANCH   6  13
HETATM   13  N2  UNL     1      28.518  14.584  55.625  1.00  0.00    -0.374 N 
ATOM     14  H2  UNL     1      28.480  15.385  56.256  1.00  0.00     0.161 HD
BRANCH  13  15
HETATM   15  C8  UNL     1      27.392  13.692  55.476  1.00  0.00     0.126 C 
BRANCH  15  16
HETATM   16  C9  UNL     1      27.541  12.473  56.394  1.00  0.00     0.003 C 
HETATM   17  C10 UNL     1      26.536  12.678  57.529  1.00  0.00     0.006 C 
HETATM   18  C11 UNL     1      26.534  11.512  58.464  1.00  0.00     0.000 C 
HETATM   19  C12 UNL     1      26.432  10.184  57.823  1.00  0.00     0.000 C 
HETATM   20  C13 UNL     1      27.079  10.034  56.502  1.00  0.00     0.000 C 
HETATM   21  C14 UNL     1      27.050  11.256  55.639  1.00  0.00     0.006 C 
ENDBRANCH  15  16
ENDBRANCH  13  15
ENDBRANCH   6  13
BRANCH   1  22
HETATM   22  C3  UNL     1      34.129  15.889  54.295  1.00  0.00     0.297 C 
HETATM   23  O2  UNL     1      35.067  16.409  54.943  1.00  0.00    -0.259 OA
BRANCH  22  24
HETATM   24  O1  UNL     1      34.449  15.402  53.024  1.00  0.00    -0.318 OA
BRANCH  24  25
HETATM   25  C2  UNL     1      35.286  14.290  52.826  1.00  0.00     0.174 C 
HETATM   26  C1  UNL     1      34.876  13.628  51.526  1.00  0.00     0.034 C 
ENDBRANCH  24  25
ENDBRANCH  22  24
ENDBRANCH   1  22
TORSDOF 6
ENDMDL
MODEL 4
REMARK VINA RESULT: -6.269548423      1.171      1.641
REMARK  6 active torsions:
REMARK  status: ('A' for Active; 'I' for Inactive)
REMARK    1  A    between atoms: C2_2  and  O1_3 
REMARK    2  A    between atoms: O1_3  and  C3_4 
REMARK    3  A    between atoms: C3_4  and  C4_6 
REMARK    4  A    between atoms: C7_11  and  N2_12 
REMARK    5  A    between atoms: N2_12  and  C8_14 
REMARK    6  A    between atoms: C8_14  and  C9_15 
ROOT
HETATM    1  C4  UNL     1      32.020  17.964  56.699  1.00  0.00     0.084 A 
HETATM    2  C5  UNL     1      30.832  18.318  57.320  1.00  0.00     0.108 A 
HETATM    3  N1  UNL     1      29.902  17.367  57.137  1.00  0.00    -0.360 N 
ATOM      4  H1  UNL     1      28.943  17.370  57.485  1.00  0.00     0.165 HD
HETATM    5  C6  UNL     1      30.497  16.402  56.396  1.00  0.00     0.104 A 
HETATM    6  C7  UNL     1      29.991  15.212  55.930  1.00  0.00     0.131 A 
HETATM    7  N3  UNL     1      30.776  14.402  55.204  1.00  0.00    -0.337 N 
ATOM      8  H3  UNL     1      30.409  13.517  54.854  1.00  0.00     0.168 HD
HETATM    9  C15 UNL     1      32.045  14.755  54.940  1.00  0.00     0.182 A 
HETATM   10  N4  UNL     1      32.558  15.913  55.386  1.00  0.00    -0.349 N 
ATOM     11  H4  UNL     1      33.524  16.160  55.171  1.00  0.00     0.166 HD
HETATM   12  C16 UNL     1      31.799  16.744  56.113  1.00  0.00     0.081 A 
ENDROOT
BRANCH   6  13
HETATM   13  N2  UNL     1      28.760  14.916  56.212  1.00  0.00    -0.374 N 
ATOM     14  H2  UNL     1      28.342  15.180  57.104  1.00  0.00     0.161 HD
BRANCH  13  15
HETATM   15  C8  UNL     1      28.005  14.196  55.213  1.00  0.00     0.126 C 
BRANCH  15  16
HETATM   16  C9  UNL     1      27.120  13.128  55.867  1.00  0.00     0.003 C 
HETATM   17  C10 UNL     1      27.885  11.811  55.733  1.00  0.00     0.006 C 
HETATM   18  C11 UNL     1      27.152  10.693  56.400  1.00  0.00     0.000 C 
HETATM   19  C12 UNL     1      26.694  10.966  57.778  1.00  0.00     0.000 C 
HETATM   20  C13 UNL     1      26.293  12.358  58.079  1.00  0.00     0.000 C 
HETATM   21  C14 UNL     1      27.068  13.411  57.353  1.00  0.00     0.006 C 
ENDBRANCH  15  16
ENDBRANCH  13  15
ENDBRANCH   6  13
BRANCH   1  22
HETATM   22  C3  UNL     1      33.269  18.714  56.657  1.00  0.00     0.297 C 
HETATM   23  O2  UNL     1      33.538  19.652  57.443  1.00  0.00    -0.259 OA
BRANCH  22  24
HETATM   24  O1  UNL     1      34.245  18.402  55.706  1.00  0.00    -0.318 OA
BRANCH  24  25
HETATM   25  C2  UNL     1      35.611  18.309  56.023  1.00  0.00     0.174 C 
HETATM   26  C1  UNL     1      35.887  16.886  56.467  1.00  0.00     0.034 C 
ENDBRANCH  24  25
ENDBRANCH  22  24
ENDBRANCH   1  22
TORSDOF 6
ENDMDL
MODEL 5
REMARK VINA RESULT: -6.266420445      0.898      1.526
REMARK  6 active torsions:
REMARK  status: ('A' for Active; 'I' for Inactive)
REMARK    1  A    between atoms: C2_2  and  O1_3 
REMARK    2  A    between atoms: O1_3  and  C3_4 
REMARK    3  A    between atoms: C3_4  and  C4_6 
REMARK    4  A    between atoms: C7_11  and  N2_12 
REMARK    5  A    between atoms: N2_12  and  C8_14 
REMARK    6  A    between atoms: C8_14  and  C9_15 
ROOT
HETATM    1  C4  UNL     1      32.542  16.811  55.683  1.00  0.00     0.084 A 
HETATM    2  C5  UNL     1      31.621  17.328  56.582  1.00  0.00     0.108 A 
HETATM    3  N1  UNL     1      30.523  16.557  56.629  1.00  0.00    -0.360 N 
ATOM      4  H1  UNL     1      29.693  16.704  57.204  1.00  0.00     0.165 HD
HETATM    5  C6  UNL     1      30.742  15.544  55.757  1.00  0.00     0.104 A 
HETATM    6  C7  UNL     1      29.937  14.481  55.422  1.00  0.00     0.131 A 
HETATM    7  N3  UNL     1      30.367  13.588  54.519  1.00  0.00    -0.337 N 
ATOM      8  H3  UNL     1      29.777  12.797  54.264  1.00  0.00     0.168 HD
HETATM    9  C15 UNL     1      31.575  13.736  53.951  1.00  0.00     0.182 A 
HETATM   10  N4  UNL     1      32.376  14.767  54.263  1.00  0.00    -0.349 N 
ATOM     11  H4  UNL     1      33.289  14.859  53.817  1.00  0.00     0.166 HD
HETATM   12  C16 UNL     1      31.975  15.676  55.161  1.00  0.00     0.081 A 
ENDROOT
BRANCH   6  13
HETATM   13  N2  UNL     1      28.779  14.382  55.999  1.00  0.00    -0.374 N 
ATOM     14  H2  UNL     1      28.650  14.641  56.977  1.00  0.00     0.161 HD
BRANCH  13  15
HETATM   15  C8  UNL     1      27.680  13.890  55.201  1.00  0.00     0.126 C 
BRANCH  15  16
HETATM   16  C9  UNL     1      26.882  12.832  55.972  1.00  0.00     0.003 C 
HETATM   17  C10 UNL     1      27.643  11.518  55.790  1.00  0.00     0.006 C 
HETATM   18  C11 UNL     1      26.999  10.411  56.559  1.00  0.00     0.000 C 
HETATM   19  C12 UNL     1      26.686  10.716  57.971  1.00  0.00     0.000 C 
HETATM   20  C13 UNL     1      26.303  12.111  58.278  1.00  0.00     0.000 C 
HETATM   21  C14 UNL     1      26.984  13.152  57.448  1.00  0.00     0.006 C 
ENDBRANCH  15  16
ENDBRANCH  13  15
ENDBRANCH   6  13
BRANCH   1  22
HETATM   22  C3  UNL     1      33.854  17.342  55.338  1.00  0.00     0.297 C 
HETATM   23  O2  UNL     1      34.155  18.555  55.430  1.00  0.00    -0.259 OA
BRANCH  22  24
HETATM   24  O1  UNL     1      34.860  16.486  54.877  1.00  0.00    -0.318 OA
BRANCH  24  25
HETATM   25  C2  UNL     1      35.687  15.752  55.744  1.00  0.00     0.174 C 
HETATM   26  C1  UNL     1      35.916  14.389  55.121  1.00  0.00     0.034 C 
ENDBRANCH  24  25
ENDBRANCH  22  24
ENDBRANCH   1  22
TORSDOF 6
ENDMDL
