MODEL 1
REMARK VINA RESULT: -7.807423266      0.000      0.000
REMARK  12 active torsions:
REMARK  status: ('A' for Active; 'I' for Inactive)
REMARK    1  A    between atoms: C7_7  and  C8_8 
REMARK    2  A    between atoms: C8_8  and  C9_9 
REMARK    3  A    between atoms: C14_15  and  C15_16 
REMARK    4  A    between atoms: C17_18  and  O2_19 
REMARK    5  A    between atoms: O2_19  and  C18_20 
REMARK    6  A    between atoms: C18_20  and  C19_21 
REMARK    7  A    between atoms: C19_21  and  O3_22 
REMARK    8  A    between atoms: C19_21  and  C20_24 
REMARK    9  A    between atoms: C20_24  and  O4_25 
REMARK   10  A    between atoms: O4_25  and  C21_26 
REMARK   11  A    between atoms: C24_29  and  C25_30 
REMARK   12  A    between atoms: C25_30  and  O5_31 
ROOT
HETATM    1  C19 UNL     1      21.198   0.271  19.411  1.00  0.00     0.165 C 
ENDROOT
BRANCH   1   2
HETATM    2  C18 UNL     1      20.038   0.125  18.510  1.00  0.00     0.202 C 
BRANCH   2   3
HETATM    3  O2  UNL     1      20.180   0.224  17.174  1.00  0.00    -0.378 OA
BRANCH   3   4
HETATM    4  C17 UNL     1      19.157   0.650  16.414  1.00  0.00     0.159 C 
HETATM    5  C2  UNL     1      19.168   2.115  16.138  1.00  0.00    -0.060 C 
HETATM    6  C1  UNL     1      20.156   2.941  16.378  1.00  0.00     0.017 C 
HETATM    7  C3  UNL     1      17.909   2.615  15.544  1.00  0.00     0.037 C 
HETATM    8  C4  UNL     1      17.260   1.700  14.611  1.00  0.00     0.016 C 
HETATM    9  C5  UNL     1      17.696   0.275  14.536  1.00  0.00     0.054 C 
HETATM   10  C6  UNL     1      17.543  -0.095  13.112  1.00  0.00     0.047 C 
HETATM   11  C14 UNL     1      19.088  -0.025  15.020  1.00  0.00     0.001 C 
HETATM   12  C7  UNL     1      16.597  -0.814  12.631  1.00  0.00     0.006 C 
HETATM   13  O1  UNL     1      18.566   0.436  12.284  1.00  0.00    -0.355 OA
HETATM   14  C12 UNL     1      19.689   1.036  12.817  1.00  0.00     0.176 C 
HETATM   15  C13 UNL     1      20.155   0.484  14.121  1.00  0.00     0.040 C 
BRANCH  12  16
HETATM   16  C8  UNL     1      15.489  -1.410  13.359  1.00  0.00     0.033 C 
BRANCH  16  17
HETATM   17  C9  UNL     1      15.448  -2.931  13.215  1.00  0.00    -0.019 C 
HETATM   18  C10 UNL     1      14.024  -3.359  13.495  1.00  0.00     0.010 C 
HETATM   19  C11 UNL     1      16.425  -3.518  14.183  1.00  0.00     0.010 C 
ENDBRANCH  16  17
ENDBRANCH  12  16
BRANCH  11  20
HETATM   20  C15 UNL     1      19.261  -1.497  15.335  1.00  0.00     0.009 C 
HETATM   21  C16 UNL     1      20.123  -2.297  14.445  1.00  0.00     0.006 C 
ENDBRANCH  11  20
ENDBRANCH   3   4
ENDBRANCH   2   3
ENDBRANCH   1   2
BRANCH   1  22
HETATM   22  O3  UNL     1      21.898   1.445  19.376  1.00  0.00    -0.391 OA
ATOM     23  H3  UNL     1      22.711   1.468  18.885  1.00  0.00     0.210 HD
ENDBRANCH   1  22
BRANCH   1  24
HETATM   24  C20 UNL     1      22.133  -0.956  19.424  1.00  0.00     0.202 C 
BRANCH  24  25
HETATM   25  O4  UNL     1      21.891  -1.609  20.569  1.00  0.00    -0.382 OA
BRANCH  25  26
HETATM   26  C21 UNL     1      22.198  -2.895  20.752  1.00  0.00     0.133 C 
HETATM   27  C22 UNL     1      22.945  -3.037  22.064  1.00  0.00     0.018 C 
HETATM   28  C23 UNL     1      24.106  -2.110  22.030  1.00  0.00     0.013 C 
HETATM   29  C24 UNL     1      21.946  -2.776  23.155  1.00  0.00     0.026 C 
HETATM   30  C30 UNL     1      21.086  -3.993  23.214  1.00  0.00     0.009 C 
HETATM   31  C31 UNL     1      20.301  -4.113  21.902  1.00  0.00     0.012 C 
HETATM   32  C32 UNL     1      21.137  -3.930  20.690  1.00  0.00    -0.021 C 
HETATM   33  C33 UNL     1      21.829  -5.256  20.412  1.00  0.00     0.017 C 
HETATM   34  C34 UNL     1      20.191  -3.706  19.515  1.00  0.00     0.017 C 
BRANCH  29  35
HETATM   35  C25 UNL     1      22.552  -2.448  24.477  1.00  0.00     0.062 C 
HETATM   36  C26 UNL     1      23.725  -3.267  24.879  1.00  0.00     0.038 C 
HETATM   37  C27 UNL     1      23.632  -3.386  26.393  1.00  0.00     0.003 C 
HETATM   38  C28 UNL     1      22.422  -2.615  26.814  1.00  0.00     0.003 C 
HETATM   39  C29 UNL     1      21.513  -2.612  25.577  1.00  0.00     0.038 C 
BRANCH  35  40
HETATM   40  O5  UNL     1      22.927  -1.100  24.564  1.00  0.00    -0.389 OA
ATOM     41  H5  UNL     1      22.568  -0.679  25.336  1.00  0.00     0.210 HD
ENDBRANCH  35  40
ENDBRANCH  29  35
ENDBRANCH  25  26
ENDBRANCH  24  25
ENDBRANCH   1  24
TORSDOF 12
ENDMDL
MODEL 2
REMARK VINA RESULT: -7.109824139      1.347      1.734
REMARK  12 active torsions:
REMARK  status: ('A' for Active; 'I' for Inactive)
REMARK    1  A    between atoms: C7_7  and  C8_8 
REMARK    2  A    between atoms: C8_8  and  C9_9 
REMARK    3  A    between atoms: C14_15  and  C15_16 
REMARK    4  A    between atoms: C17_18  and  O2_19 
REMARK    5  A    between atoms: O2_19  and  C18_20 
REMARK    6  A    between atoms: C18_20  and  C19_21 
REMARK    7  A    between atoms: C19_21  and  O3_22 
REMARK    8  A    between atoms: C19_21  and  C20_24 
REMARK    9  A    between atoms: C20_24  and  O4_25 
REMARK   10  A    between atoms: O4_25  and  C21_26 
REMARK   11  A    between atoms: C24_29  and  C25_30 
REMARK   12  A    between atoms: C25_30  and  O5_31 
ROOT
HETATM    1  C19 UNL     1      20.395  -2.132  17.751  1.00  0.00     0.165 C 
ENDROOT
BRANCH   1   2
HETATM    2  C18 UNL     1      20.237  -0.691  17.475  1.00  0.00     0.202 C 
BRANCH   2   3
HETATM    3  O2  UNL     1      20.117  -0.234  16.214  1.00  0.00    -0.378 OA
BRANCH   3   4
HETATM    4  C17 UNL     1      18.992   0.385  15.821  1.00  0.00     0.159 C 
HETATM    5  C2  UNL     1      19.048   1.872  15.909  1.00  0.00    -0.060 C 
HETATM    6  C1  UNL     1      20.120   2.596  16.117  1.00  0.00     0.017 C 
HETATM    7  C3  UNL     1      17.732   2.526  15.742  1.00  0.00     0.037 C 
HETATM    8  C4  UNL     1      16.839   1.882  14.782  1.00  0.00     0.016 C 
HETATM    9  C5  UNL     1      17.150   0.514  14.274  1.00  0.00     0.054 C 
HETATM   10  C6  UNL     1      16.678   0.512  12.872  1.00  0.00     0.047 C 
HETATM   11  C14 UNL     1      18.587   0.079  14.356  1.00  0.00     0.001 C 
HETATM   12  C7  UNL     1      15.604  -0.048  12.452  1.00  0.00     0.006 C 
HETATM   13  O1  UNL     1      17.542   1.216  11.992  1.00  0.00    -0.355 OA
HETATM   14  C12 UNL     1      18.789   1.646  12.394  1.00  0.00     0.176 C 
HETATM   15  C13 UNL     1      19.477   0.778  13.394  1.00  0.00     0.040 C 
BRANCH  12  16
HETATM   16  C8  UNL     1      14.633  -0.788  13.240  1.00  0.00     0.033 C 
BRANCH  16  17
HETATM   17  C9  UNL     1      14.728  -2.297  13.015  1.00  0.00    -0.019 C 
HETATM   18  C10 UNL     1      13.336  -2.774  12.659  1.00  0.00     0.010 C 
HETATM   19  C11 UNL     1      15.246  -2.924  14.270  1.00  0.00     0.010 C 
ENDBRANCH  16  17
ENDBRANCH  12  16
BRANCH  11  20
HETATM   20  C15 UNL     1      18.718  -1.427  14.264  1.00  0.00     0.009 C 
HETATM   21  C16 UNL     1      19.435  -1.988  13.103  1.00  0.00     0.006 C 
ENDBRANCH  11  20
ENDBRANCH   3   4
ENDBRANCH   2   3
ENDBRANCH   1   2
BRANCH   1  22
HETATM   22  O3  UNL     1      20.488  -2.986  16.687  1.00  0.00    -0.391 OA
ATOM     23  H3  UNL     1      20.885  -3.837  16.828  1.00  0.00     0.210 HD
ENDBRANCH   1  22
BRANCH   1  24
HETATM   24  C20 UNL     1      19.436  -2.666  18.834  1.00  0.00     0.202 C 
BRANCH  24  25
HETATM   25  O4  UNL     1      20.192  -2.975  19.897  1.00  0.00    -0.382 OA
BRANCH  25  26
HETATM   26  C21 UNL     1      21.365  -3.603  19.796  1.00  0.00     0.133 C 
HETATM   27  C22 UNL     1      22.312  -3.043  20.840  1.00  0.00     0.018 C 
HETATM   28  C23 UNL     1      22.368  -1.569  20.660  1.00  0.00     0.013 C 
HETATM   29  C24 UNL     1      21.800  -3.508  22.173  1.00  0.00     0.026 C 
HETATM   30  C30 UNL     1      22.149  -4.955  22.257  1.00  0.00     0.009 C 
HETATM   31  C31 UNL     1      21.369  -5.720  21.181  1.00  0.00     0.012 C 
HETATM   32  C32 UNL     1      21.423  -5.085  19.842  1.00  0.00    -0.021 C 
HETATM   33  C33 UNL     1      22.739  -5.496  19.198  1.00  0.00     0.017 C 
HETATM   34  C34 UNL     1      20.331  -5.724  18.991  1.00  0.00     0.017 C 
BRANCH  29  35
HETATM   35  C25 UNL     1      22.320  -2.733  23.336  1.00  0.00     0.062 C 
HETATM   36  C26 UNL     1      23.770  -2.412  23.309  1.00  0.00     0.038 C 
HETATM   37  C27 UNL     1      24.213  -2.432  24.765  1.00  0.00     0.003 C 
HETATM   38  C28 UNL     1      23.000  -2.744  25.582  1.00  0.00     0.003 C 
HETATM   39  C29 UNL     1      22.071  -3.504  24.624  1.00  0.00     0.038 C 
BRANCH  35  40
HETATM   40  O5  UNL     1      21.623  -1.530  23.520  1.00  0.00    -0.389 OA
ATOM     41  H5  UNL     1      21.848  -1.112  24.343  1.00  0.00     0.210 HD
ENDBRANCH  35  40
ENDBRANCH  29  35
ENDBRANCH  25  26
ENDBRANCH  24  25
ENDBRANCH   1  24
TORSDOF 12
ENDMDL
MODEL 3
REMARK VINA RESULT: -7.037321569      1.275      1.426
REMARK  12 active torsions:
REMARK  status: ('A' for Active; 'I' for Inactive)
REMARK    1  A    between atoms: C7_7  and  C8_8 
REMARK    2  A    between atoms: C8_8  and  C9_9 
REMARK    3  A    between atoms: C14_15  and  C15_16 
REMARK    4  A    between atoms: C17_18  and  O2_19 
REMARK    5  A    between atoms: O2_19  and  C18_20 
REMARK    6  A    between atoms: C18_20  and  C19_21 
REMARK    7  A    between atoms: C19_21  and  O3_22 
REMARK    8  A    between atoms: C19_21  and  C20_24 
REMARK    9  A    between atoms: C20_24  and  O4_25 
REMARK   10  A    between atoms: O4_25  and  C21_26 
REMARK   11  A    between atoms: C24_29  and  C25_30 
REMARK   12  A    between atoms: C25_30  and  O5_31 
ROOT
HETATM    1  C19 UNL     1      20.119  -1.618  18.450  1.00  0.00     0.165 C 
ENDROOT
BRANCH   1   2
HETATM    2  C18 UNL     1      19.712  -0.334  17.847  1.00  0.00     0.202 C 
BRANCH   2   3
HETATM    3  O2  UNL     1      19.762  -0.145  16.514  1.00  0.00    -0.378 OA
BRANCH   3   4
HETATM    4  C17 UNL     1      18.771   0.508  15.885  1.00  0.00     0.159 C 
HETATM    5  C2  UNL     1      18.926   1.990  15.872  1.00  0.00    -0.060 C 
HETATM    6  C1  UNL     1      20.000   2.660  16.212  1.00  0.00     0.017 C 
HETATM    7  C3  UNL     1      17.713   2.709  15.428  1.00  0.00     0.037 C 
HETATM    8  C4  UNL     1      16.951   2.044  14.375  1.00  0.00     0.016 C 
HETATM    9  C5  UNL     1      17.237   0.620  14.031  1.00  0.00     0.054 C 
HETATM   10  C6  UNL     1      17.013   0.528  12.572  1.00  0.00     0.047 C 
HETATM   11  C14 UNL     1      18.601   0.104  14.398  1.00  0.00     0.001 C 
HETATM   12  C7  UNL     1      15.987   0.003  12.012  1.00  0.00     0.006 C 
HETATM   13  O1  UNL     1      18.066   1.098  11.810  1.00  0.00    -0.355 OA
HETATM   14  C12 UNL     1      19.256   1.481  12.393  1.00  0.00     0.176 C 
HETATM   15  C13 UNL     1      19.693   0.660  13.559  1.00  0.00     0.040 C 
BRANCH  12  16
HETATM   16  C8  UNL     1      14.840  -0.604  12.668  1.00  0.00     0.033 C 
BRANCH  16  17
HETATM   17  C9  UNL     1      14.985  -2.119  12.810  1.00  0.00    -0.019 C 
HETATM   18  C10 UNL     1      13.874  -2.742  11.994  1.00  0.00     0.010 C 
HETATM   19  C11 UNL     1      14.892  -2.462  14.263  1.00  0.00     0.010 C 
ENDBRANCH  16  17
ENDBRANCH  12  16
BRANCH  11  20
HETATM   20  C15 UNL     1      18.629  -1.410  14.441  1.00  0.00     0.009 C 
HETATM   21  C16 UNL     1      19.418  -2.116  13.413  1.00  0.00     0.006 C 
ENDBRANCH  11  20
ENDBRANCH   3   4
ENDBRANCH   2   3
ENDBRANCH   1   2
BRANCH   1  22
HETATM   22  O3  UNL     1      19.191  -2.310  19.180  1.00  0.00    -0.391 OA
ATOM     23  H3  UNL     1      18.413  -1.849  19.469  1.00  0.00     0.210 HD
ENDBRANCH   1  22
BRANCH   1  24
HETATM   24  C20 UNL     1      21.486  -1.565  19.161  1.00  0.00     0.202 C 
BRANCH  24  25
HETATM   25  O4  UNL     1      21.403  -2.392  20.213  1.00  0.00    -0.382 OA
BRANCH  25  26
HETATM   26  C21 UNL     1      22.386  -3.221  20.566  1.00  0.00     0.133 C 
HETATM   27  C22 UNL     1      22.749  -2.963  22.015  1.00  0.00     0.018 C 
HETATM   28  C23 UNL     1      23.064  -1.518  22.156  1.00  0.00     0.013 C 
HETATM   29  C24 UNL     1      21.591  -3.452  22.838  1.00  0.00     0.026 C 
HETATM   30  C30 UNL     1      21.677  -4.940  22.811  1.00  0.00     0.009 C 
HETATM   31  C31 UNL     1      21.448  -5.428  21.375  1.00  0.00     0.012 C 
HETATM   32  C32 UNL     1      22.235  -4.683  20.362  1.00  0.00    -0.021 C 
HETATM   33  C33 UNL     1      23.637  -5.275  20.353  1.00  0.00     0.017 C 
HETATM   34  C34 UNL     1      21.642  -5.010  18.996  1.00  0.00     0.017 C 
BRANCH  29  35
HETATM   35  C25 UNL     1      21.555  -2.914  24.228  1.00  0.00     0.062 C 
HETATM   36  C26 UNL     1      22.820  -2.320  24.731  1.00  0.00     0.038 C 
HETATM   37  C27 UNL     1      22.842  -2.625  26.222  1.00  0.00     0.003 C 
HETATM   38  C28 UNL     1      21.580  -3.365  26.530  1.00  0.00     0.003 C 
HETATM   39  C29 UNL     1      21.179  -4.021  25.202  1.00  0.00     0.038 C 
BRANCH  35  40
HETATM   40  O5  UNL     1      20.542  -1.958  24.395  1.00  0.00    -0.389 OA
ATOM     41  H5  UNL     1      20.886  -1.123  24.690  1.00  0.00     0.210 HD
ENDBRANCH  35  40
ENDBRANCH  29  35
ENDBRANCH  25  26
ENDBRANCH  24  25
ENDBRANCH   1  24
TORSDOF 12
ENDMDL
MODEL 4
REMARK VINA RESULT: -6.926177690      1.732      2.295
REMARK  12 active torsions:
REMARK  status: ('A' for Active; 'I' for Inactive)
REMARK    1  A    between atoms: C7_7  and  C8_8 
REMARK    2  A    between atoms: C8_8  and  C9_9 
REMARK    3  A    between atoms: C14_15  and  C15_16 
REMARK    4  A    between atoms: C17_18  and  O2_19 
REMARK    5  A    between atoms: O2_19  and  C18_20 
REMARK    6  A    between atoms: C18_20  and  C19_21 
REMARK    7  A    between atoms: C19_21  and  O3_22 
REMARK    8  A    between atoms: C19_21  and  C20_24 
REMARK    9  A    between atoms: C20_24  and  O4_25 
REMARK   10  A    between atoms: O4_25  and  C21_26 
REMARK   11  A    between atoms: C24_29  and  C25_30 
REMARK   12  A    between atoms: C25_30  and  O5_31 
ROOT
HETATM    1  C19 UNL     1      19.725  -1.878  18.486  1.00  0.00     0.165 C 
ENDROOT
BRANCH   1   2
HETATM    2  C18 UNL     1      19.915  -0.493  18.010  1.00  0.00     0.202 C 
BRANCH   2   3
HETATM    3  O2  UNL     1      19.974  -0.213  16.694  1.00  0.00    -0.378 OA
BRANCH   3   4
HETATM    4  C17 UNL     1      18.950   0.410  16.087  1.00  0.00     0.159 C 
HETATM    5  C2  UNL     1      19.067   1.895  16.057  1.00  0.00    -0.060 C 
HETATM    6  C1  UNL     1      20.132   2.595  16.360  1.00  0.00     0.017 C 
HETATM    7  C3  UNL     1      17.823   2.579  15.641  1.00  0.00     0.037 C 
HETATM    8  C4  UNL     1      17.049   1.885  14.617  1.00  0.00     0.016 C 
HETATM    9  C5  UNL     1      17.361   0.466  14.277  1.00  0.00     0.054 C 
HETATM   10  C6  UNL     1      17.098   0.355  12.826  1.00  0.00     0.047 C 
HETATM   11  C14 UNL     1      18.747  -0.013  14.609  1.00  0.00     0.001 C 
HETATM   12  C7  UNL     1      16.071  -0.201  12.300  1.00  0.00     0.006 C 
HETATM   13  O1  UNL     1      18.115   0.943  12.029  1.00  0.00    -0.355 OA
HETATM   14  C12 UNL     1      19.311   1.361  12.575  1.00  0.00     0.176 C 
HETATM   15  C13 UNL     1      19.801   0.563  13.735  1.00  0.00     0.040 C 
BRANCH  12  16
HETATM   16  C8  UNL     1      14.959  -0.830  12.993  1.00  0.00     0.033 C 
BRANCH  16  17
HETATM   17  C9  UNL     1      14.984  -2.354  12.873  1.00  0.00    -0.019 C 
HETATM   18  C10 UNL     1      15.248  -2.897  14.261  1.00  0.00     0.010 C 
HETATM   19  C11 UNL     1      16.055  -2.727  11.898  1.00  0.00     0.010 C 
ENDBRANCH  16  17
ENDBRANCH  12  16
BRANCH  11  20
HETATM   20  C15 UNL     1      18.815  -1.525  14.664  1.00  0.00     0.009 C 
HETATM   21  C16 UNL     1      19.562  -2.223  13.601  1.00  0.00     0.006 C 
ENDBRANCH  11  20
ENDBRANCH   3   4
ENDBRANCH   2   3
ENDBRANCH   1   2
BRANCH   1  22
HETATM   22  O3  UNL     1      18.558  -2.184  19.129  1.00  0.00    -0.391 OA
ATOM     23  H3  UNL     1      18.524  -2.078  20.072  1.00  0.00     0.210 HD
ENDBRANCH   1  22
BRANCH   1  24
HETATM   24  C20 UNL     1      20.954  -2.456  19.217  1.00  0.00     0.202 C 
BRANCH  24  25
HETATM   25  O4  UNL     1      20.498  -3.014  20.348  1.00  0.00    -0.382 OA
BRANCH  25  26
HETATM   26  C21 UNL     1      20.933  -4.188  20.807  1.00  0.00     0.133 C 
HETATM   27  C22 UNL     1      20.934  -4.152  22.323  1.00  0.00     0.018 C 
HETATM   28  C23 UNL     1      21.732  -2.973  22.750  1.00  0.00     0.013 C 
HETATM   29  C24 UNL     1      19.494  -4.142  22.750  1.00  0.00     0.026 C 
HETATM   30  C30 UNL     1      18.997  -5.530  22.525  1.00  0.00     0.009 C 
HETATM   31  C31 UNL     1      19.021  -5.831  21.021  1.00  0.00     0.012 C 
HETATM   32  C32 UNL     1      20.291  -5.448  20.358  1.00  0.00    -0.021 C 
HETATM   33  C33 UNL     1      21.289  -6.568  20.610  1.00  0.00     0.017 C 
HETATM   34  C34 UNL     1      20.038  -5.453  18.854  1.00  0.00     0.017 C 
BRANCH  29  35
HETATM   35  C25 UNL     1      19.272  -3.683  24.151  1.00  0.00     0.062 C 
HETATM   36  C26 UNL     1      19.757  -4.593  25.221  1.00  0.00     0.038 C 
HETATM   37  C27 UNL     1      18.774  -4.421  26.370  1.00  0.00     0.003 C 
HETATM   38  C28 UNL     1      17.770  -3.404  25.931  1.00  0.00     0.003 C 
HETATM   39  C29 UNL     1      17.785  -3.477  24.398  1.00  0.00     0.038 C 
BRANCH  35  40
HETATM   40  O5  UNL     1      19.832  -2.418  24.385  1.00  0.00    -0.389 OA
ATOM     41  H5  UNL     1      20.741  -2.376  24.113  1.00  0.00     0.210 HD
ENDBRANCH  35  40
ENDBRANCH  29  35
ENDBRANCH  25  26
ENDBRANCH  24  25
ENDBRANCH   1  24
TORSDOF 12
ENDMDL
MODEL 5
REMARK VINA RESULT: -6.869878748      1.077      1.284
REMARK  12 active torsions:
REMARK  status: ('A' for Active; 'I' for Inactive)
REMARK    1  A    between atoms: C7_7  and  C8_8 
REMARK    2  A    between atoms: C8_8  and  C9_9 
REMARK    3  A    between atoms: C14_15  and  C15_16 
REMARK    4  A    between atoms: C17_18  and  O2_19 
REMARK    5  A    between atoms: O2_19  and  C18_20 
REMARK    6  A    between atoms: C18_20  and  C19_21 
REMARK    7  A    between atoms: C19_21  and  O3_22 
REMARK    8  A    between atoms: C19_21  and  C20_24 
REMARK    9  A    between atoms: C20_24  and  O4_25 
REMARK   10  A    between atoms: O4_25  and  C21_26 
REMARK   11  A    between atoms: C24_29  and  C25_30 
REMARK   12  A    between atoms: C25_30  and  O5_31 
ROOT
HETATM    1  C19 UNL     1      20.973  -1.172  18.769  1.00  0.00     0.165 C 
ENDROOT
BRANCH   1   2
HETATM    2  C18 UNL     1      19.877  -0.484  18.057  1.00  0.00     0.202 C 
BRANCH   2   3
HETATM    3  O2  UNL     1      19.978  -0.188  16.747  1.00  0.00    -0.378 OA
BRANCH   3   4
HETATM    4  C17 UNL     1      18.969   0.433  16.114  1.00  0.00     0.159 C 
HETATM    5  C2  UNL     1      19.075   1.920  16.102  1.00  0.00    -0.060 C 
HETATM    6  C1  UNL     1      20.125   2.624  16.448  1.00  0.00     0.017 C 
HETATM    7  C3  UNL     1      17.841   2.599  15.653  1.00  0.00     0.037 C 
HETATM    8  C4  UNL     1      17.105   1.910  14.597  1.00  0.00     0.016 C 
HETATM    9  C5  UNL     1      17.439   0.496  14.253  1.00  0.00     0.054 C 
HETATM   10  C6  UNL     1      17.225   0.399  12.793  1.00  0.00     0.047 C 
HETATM   11  C14 UNL     1      18.818   0.025  14.625  1.00  0.00     0.001 C 
HETATM   12  C7  UNL     1      16.219  -0.159  12.228  1.00  0.00     0.006 C 
HETATM   13  O1  UNL     1      18.262   1.003  12.036  1.00  0.00    -0.355 OA
HETATM   14  C12 UNL     1      19.437   1.424  12.625  1.00  0.00     0.176 C 
HETATM   15  C13 UNL     1      19.895   0.617  13.792  1.00  0.00     0.040 C 
BRANCH  12  16
HETATM   16  C8  UNL     1      15.090  -0.804  12.879  1.00  0.00     0.033 C 
BRANCH  16  17
HETATM   17  C9  UNL     1      15.258  -2.320  12.969  1.00  0.00    -0.019 C 
HETATM   18  C10 UNL     1      14.377  -2.921  11.894  1.00  0.00     0.010 C 
HETATM   19  C11 UNL     1      14.861  -2.752  14.344  1.00  0.00     0.010 C 
ENDBRANCH  16  17
ENDBRANCH  12  16
BRANCH  11  20
HETATM   20  C15 UNL     1      18.895  -1.488  14.667  1.00  0.00     0.009 C 
HETATM   21  C16 UNL     1      19.582  -2.175  13.558  1.00  0.00     0.006 C 
ENDBRANCH  11  20
ENDBRANCH   3   4
ENDBRANCH   2   3
ENDBRANCH   1   2
BRANCH   1  22
HETATM   22  O3  UNL     1      22.256  -0.938  18.357  1.00  0.00    -0.391 OA
ATOM     23  H3  UNL     1      22.565  -1.385  17.578  1.00  0.00     0.210 HD
ENDBRANCH   1  22
BRANCH   1  24
HETATM   24  C20 UNL     1      20.710  -2.672  19.010  1.00  0.00     0.202 C 
BRANCH  24  25
HETATM   25  O4  UNL     1      20.720  -2.854  20.338  1.00  0.00    -0.382 OA
BRANCH  25  26
HETATM   26  C21 UNL     1      20.733  -4.060  20.907  1.00  0.00     0.133 C 
HETATM   27  C22 UNL     1      21.832  -4.097  21.951  1.00  0.00     0.018 C 
HETATM   28  C23 UNL     1      23.102  -3.698  21.290  1.00  0.00     0.013 C 
HETATM   29  C24 UNL     1      21.384  -3.205  23.074  1.00  0.00     0.026 C 
HETATM   30  C30 UNL     1      20.320  -3.964  23.791  1.00  0.00     0.009 C 
HETATM   31  C31 UNL     1      19.120  -4.148  22.854  1.00  0.00     0.012 C 
HETATM   32  C32 UNL     1      19.491  -4.618  21.497  1.00  0.00    -0.021 C 
HETATM   33  C33 UNL     1      19.678  -6.126  21.576  1.00  0.00     0.017 C 
HETATM   34  C34 UNL     1      18.283  -4.400  20.594  1.00  0.00     0.017 C 
BRANCH  29  35
HETATM   35  C25 UNL     1      22.480  -2.769  23.986  1.00  0.00     0.062 C 
HETATM   36  C26 UNL     1      23.641  -3.688  24.098  1.00  0.00     0.038 C 
HETATM   37  C27 UNL     1      24.131  -3.545  25.531  1.00  0.00     0.003 C 
HETATM   38  C28 UNL     1      23.248  -2.534  26.190  1.00  0.00     0.003 C 
HETATM   39  C29 UNL     1      21.936  -2.585  25.396  1.00  0.00     0.038 C 
BRANCH  35  40
HETATM   40  O5  UNL     1      22.973  -1.501  23.646  1.00  0.00    -0.389 OA
ATOM     41  H5  UNL     1      22.652  -0.825  24.231  1.00  0.00     0.210 HD
ENDBRANCH  35  40
ENDBRANCH  29  35
ENDBRANCH  25  26
ENDBRANCH  24  25
ENDBRANCH   1  24
TORSDOF 12
ENDMDL
