MODEL 1
REMARK VINA RESULT: -5.604971936      0.000      0.000
REMARK  12 active torsions:
REMARK  status: ('A' for Active; 'I' for Inactive)
REMARK    1  A    between atoms: C2_2  and  C3_3 
REMARK    2  A    between atoms: C3_3  and  C4_4 
REMARK    3  A    between atoms: C4_4  and  O1_6 
REMARK    4  A    between atoms: C4_4  and  C31_38 
REMARK    5  A    between atoms: O1_6  and  C6_7 
REMARK    6  A    between atoms: C6_7  and  C7_8 
REMARK    7  A    between atoms: C8_9  and  C9_10 
REMARK    8  A    between atoms: C9_10  and  C10_11 
REMARK    9  A    between atoms: C15_16  and  O2_17 
REMARK   10  A    between atoms: C23_26  and  O3_27 
REMARK   11  A    between atoms: C24_29  and  C26_31 
REMARK   12  A    between atoms: C28_34  and  O5_36 
ROOT
HETATM    1  C10 UNL     1      19.580  -0.152  12.805  1.00  0.00     0.014 C 
HETATM    2  C11 UNL     1      20.849   0.665  12.473  1.00  0.00     0.023 C 
HETATM    3  C12 UNL     1      20.024  -1.406  13.336  1.00  0.00    -0.061 C 
HETATM    4  C13 UNL     1      21.505  -1.790  13.021  1.00  0.00     0.038 C 
HETATM    5  C14 UNL     1      21.593  -3.304  13.009  1.00  0.00     0.037 C 
HETATM    6  C15 UNL     1      21.000  -4.016  14.153  1.00  0.00     0.130 C 
HETATM    7  C16 UNL     1      19.631  -3.503  14.580  1.00  0.00     0.005 C 
HETATM    8  C17 UNL     1      19.120  -4.134  15.795  1.00  0.00     0.022 C 
HETATM    9  C18 UNL     1      18.686  -3.864  13.459  1.00  0.00     0.022 C 
HETATM   10  C19 UNL     1      19.867  -1.989  14.655  1.00  0.00    -0.048 C 
HETATM   11  C20 UNL     1      19.974  -1.569  15.876  1.00  0.00    -0.012 C 
HETATM   12  C21 UNL     1      20.321  -0.271  16.476  1.00  0.00     0.034 C 
HETATM   13  C22 UNL     1      20.852  -0.602  17.901  1.00  0.00     0.017 C 
HETATM   14  C23 UNL     1      19.141   0.573  16.690  1.00  0.00     0.140 C 
HETATM   15  C24 UNL     1      19.080   1.820  15.856  1.00  0.00     0.038 C 
HETATM   16  C25 UNL     1      20.113   2.768  16.513  1.00  0.00     0.025 C 
HETATM   17  C27 UNL     1      19.610   1.603  14.472  1.00  0.00     0.057 C 
HETATM   18  C28 UNL     1      18.696   0.794  13.575  1.00  0.00     0.069 C 
HETATM   19  C29 UNL     1      18.135   1.878  12.636  1.00  0.00     0.047 C 
ENDROOT
BRANCH   1  20
HETATM   20  C9  UNL     1      18.918  -0.321  11.410  1.00  0.00     0.043 C 
BRANCH  20  21
HETATM   21  C8  UNL     1      18.043  -1.474  11.274  1.00  0.00    -0.027 C 
HETATM   22  C7  UNL     1      16.896  -1.495  10.610  1.00  0.00    -0.005 C 
BRANCH  22  23
HETATM   23  C6  UNL     1      16.019  -2.702  10.490  1.00  0.00     0.196 C 
BRANCH  23  24
HETATM   24  O1  UNL     1      15.826  -3.283  11.704  1.00  0.00    -0.376 OA
BRANCH  24  25
HETATM   25  C4  UNL     1      14.576  -3.899  11.895  1.00  0.00     0.067 C 
HETATM   26  C5  UNL     1      13.729  -3.375  10.730  1.00  0.00     0.047 C 
BRANCH  25  27
HETATM   27  C3  UNL     1      14.646  -5.371  11.772  1.00  0.00     0.065 C 
BRANCH  27  28
HETATM   28  C2  UNL     1      15.941  -6.003  12.100  1.00  0.00    -0.034 C 
HETATM   29  C1  UNL     1      16.093  -6.616  13.293  1.00  0.00     0.007 C 
ENDBRANCH  27  28
ENDBRANCH  25  27
BRANCH  25  30
HETATM   30  C31 UNL     1      14.010  -3.347  13.157  1.00  0.00    -0.020 C 
HETATM   31  C32 UNL     1      12.914  -4.330  13.611  1.00  0.00     0.017 C 
HETATM   32  C33 UNL     1      13.288  -2.024  12.931  1.00  0.00     0.017 C 
HETATM   33  C34 UNL     1      14.925  -3.178  14.305  1.00  0.00     0.017 C 
ENDBRANCH  25  30
ENDBRANCH  24  25
ENDBRANCH  23  24
ENDBRANCH  22  23
ENDBRANCH  20  21
ENDBRANCH   1  20
BRANCH  18  34
HETATM   34  O5  UNL     1      17.659   0.324  14.240  1.00  0.00    -0.384 OA
HETATM   35  C30 UNL     1      16.411   0.169  13.945  1.00  0.00     0.202 C 
ENDBRANCH  18  34
BRANCH  15  36
HETATM   36  C26 UNL     1      17.809   2.527  15.954  1.00  0.00     0.243 C 
HETATM   37  O4  UNL     1      17.650   3.713  15.646  1.00  0.00    -0.306 OA
ENDBRANCH  15  36
BRANCH   6  38
HETATM   38  O2  UNL     1      20.966  -5.361  13.886  1.00  0.00    -0.394 OA
ATOM     39  H2  UNL     1      20.210  -5.558  13.347  1.00  0.00     0.210 HD
ENDBRANCH   6  38
BRANCH  14  40
HETATM   40  O3  UNL     1      19.059   1.041  18.032  1.00  0.00    -0.394 OA
ATOM     41  H3  UNL     1      18.256   0.763  18.456  1.00  0.00     0.210 HD
ENDBRANCH  14  40
TORSDOF 12
ENDMDL
MODEL 2
REMARK VINA RESULT: -5.461699283      0.585      1.896
REMARK  12 active torsions:
REMARK  status: ('A' for Active; 'I' for Inactive)
REMARK    1  A    between atoms: C2_2  and  C3_3 
REMARK    2  A    between atoms: C3_3  and  C4_4 
REMARK    3  A    between atoms: C4_4  and  O1_6 
REMARK    4  A    between atoms: C4_4  and  C31_38 
REMARK    5  A    between atoms: O1_6  and  C6_7 
REMARK    6  A    between atoms: C6_7  and  C7_8 
REMARK    7  A    between atoms: C8_9  and  C9_10 
REMARK    8  A    between atoms: C9_10  and  C10_11 
REMARK    9  A    between atoms: C15_16  and  O2_17 
REMARK   10  A    between atoms: C23_26  and  O3_27 
REMARK   11  A    between atoms: C24_29  and  C26_31 
REMARK   12  A    between atoms: C28_34  and  O5_36 
ROOT
HETATM    1  C10 UNL     1      19.558  -0.201  12.855  1.00  0.00     0.014 C 
HETATM    2  C11 UNL     1      20.835   0.598  12.509  1.00  0.00     0.023 C 
HETATM    3  C12 UNL     1      19.990  -1.453  13.399  1.00  0.00    -0.061 C 
HETATM    4  C13 UNL     1      21.465  -1.857  13.084  1.00  0.00     0.038 C 
HETATM    5  C14 UNL     1      21.537  -3.372  13.090  1.00  0.00     0.037 C 
HETATM    6  C15 UNL     1      20.938  -4.064  14.244  1.00  0.00     0.130 C 
HETATM    7  C16 UNL     1      19.577  -3.531  14.669  1.00  0.00     0.005 C 
HETATM    8  C17 UNL     1      19.062  -4.142  15.893  1.00  0.00     0.022 C 
HETATM    9  C18 UNL     1      18.625  -3.895  13.554  1.00  0.00     0.022 C 
HETATM   10  C19 UNL     1      19.830  -2.019  14.725  1.00  0.00    -0.048 C 
HETATM   11  C20 UNL     1      19.945  -1.586  15.941  1.00  0.00    -0.012 C 
HETATM   12  C21 UNL     1      20.308  -0.285  16.525  1.00  0.00     0.034 C 
HETATM   13  C22 UNL     1      20.840  -0.605  17.952  1.00  0.00     0.017 C 
HETATM   14  C23 UNL     1      19.139   0.575  16.732  1.00  0.00     0.140 C 
HETATM   15  C24 UNL     1      19.089   1.813  15.884  1.00  0.00     0.038 C 
HETATM   16  C25 UNL     1      20.135   2.756  16.527  1.00  0.00     0.025 C 
HETATM   17  C27 UNL     1      19.613   1.573  14.501  1.00  0.00     0.057 C 
HETATM   18  C28 UNL     1      18.687   0.764  13.617  1.00  0.00     0.069 C 
HETATM   19  C29 UNL     1      18.135   1.844  12.667  1.00  0.00     0.047 C 
ENDROOT
BRANCH   1  20
HETATM   20  C9  UNL     1      18.890  -0.378  11.464  1.00  0.00     0.043 C 
BRANCH  20  21
HETATM   21  C8  UNL     1      18.004  -1.525  11.343  1.00  0.00    -0.027 C 
HETATM   22  C7  UNL     1      16.761  -1.490  10.884  1.00  0.00    -0.005 C 
BRANCH  22  23
HETATM   23  C6  UNL     1      15.875  -2.692  10.773  1.00  0.00     0.196 C 
BRANCH  23  24
HETATM   24  O1  UNL     1      15.705  -3.282  11.986  1.00  0.00    -0.376 OA
BRANCH  24  25
HETATM   25  C4  UNL     1      14.378  -3.368  12.444  1.00  0.00     0.067 C 
HETATM   26  C5  UNL     1      14.452  -2.832  13.878  1.00  0.00     0.047 C 
BRANCH  25  27
HETATM   27  C3  UNL     1      13.461  -2.492  11.685  1.00  0.00     0.065 C 
BRANCH  27  28
HETATM   28  C2  UNL     1      12.788  -1.417  12.446  1.00  0.00    -0.034 C 
HETATM   29  C1  UNL     1      11.465  -1.216  12.275  1.00  0.00     0.007 C 
ENDBRANCH  27  28
ENDBRANCH  25  27
BRANCH  25  30
HETATM   30  C31 UNL     1      14.036  -4.816  12.514  1.00  0.00    -0.020 C 
HETATM   31  C32 UNL     1      12.888  -4.945  13.532  1.00  0.00     0.017 C 
HETATM   32  C33 UNL     1      15.175  -5.647  13.091  1.00  0.00     0.017 C 
HETATM   33  C34 UNL     1      13.574  -5.473  11.274  1.00  0.00     0.017 C 
ENDBRANCH  25  30
ENDBRANCH  24  25
ENDBRANCH  23  24
ENDBRANCH  22  23
ENDBRANCH  20  21
ENDBRANCH   1  20
BRANCH  18  34
HETATM   34  O5  UNL     1      17.646   0.313  14.289  1.00  0.00    -0.384 OA
HETATM   35  C30 UNL     1      16.385   0.234  14.026  1.00  0.00     0.202 C 
ENDBRANCH  18  34
BRANCH  15  36
HETATM   36  C26 UNL     1      17.826   2.535  15.977  1.00  0.00     0.243 C 
HETATM   37  O4  UNL     1      17.663   3.697  15.592  1.00  0.00    -0.306 OA
ENDBRANCH  15  36
BRANCH   6  38
HETATM   38  O2  UNL     1      20.889  -5.412  13.993  1.00  0.00    -0.394 OA
ATOM     39  H2  UNL     1      21.467  -5.867  14.593  1.00  0.00     0.210 HD
ENDBRANCH   6  38
BRANCH  14  40
HETATM   40  O3  UNL     1      19.066   1.059  18.069  1.00  0.00    -0.394 OA
ATOM     41  H3  UNL     1      19.916   1.059  18.493  1.00  0.00     0.210 HD
ENDBRANCH  14  40
TORSDOF 12
ENDMDL
MODEL 3
REMARK VINA RESULT: -5.347211206      3.149      8.637
REMARK  12 active torsions:
REMARK  status: ('A' for Active; 'I' for Inactive)
REMARK    1  A    between atoms: C2_2  and  C3_3 
REMARK    2  A    between atoms: C3_3  and  C4_4 
REMARK    3  A    between atoms: C4_4  and  O1_6 
REMARK    4  A    between atoms: C4_4  and  C31_38 
REMARK    5  A    between atoms: O1_6  and  C6_7 
REMARK    6  A    between atoms: C6_7  and  C7_8 
REMARK    7  A    between atoms: C8_9  and  C9_10 
REMARK    8  A    between atoms: C9_10  and  C10_11 
REMARK    9  A    between atoms: C15_16  and  O2_17 
REMARK   10  A    between atoms: C23_26  and  O3_27 
REMARK   11  A    between atoms: C24_29  and  C26_31 
REMARK   12  A    between atoms: C28_34  and  O5_36 
ROOT
HETATM    1  C10 UNL     1      12.357  -1.994  11.472  1.00  0.00     0.014 C 
HETATM    2  C11 UNL     1      11.444  -1.028  12.259  1.00  0.00     0.023 C 
HETATM    3  C12 UNL     1      13.334  -2.485  12.397  1.00  0.00    -0.061 C 
HETATM    4  C13 UNL     1      13.520  -1.641  13.698  1.00  0.00     0.038 C 
HETATM    5  C14 UNL     1      14.946  -1.841  14.174  1.00  0.00     0.037 C 
HETATM    6  C15 UNL     1      15.432  -3.228  14.261  1.00  0.00     0.130 C 
HETATM    7  C16 UNL     1      15.075  -4.103  13.068  1.00  0.00     0.005 C 
HETATM    8  C17 UNL     1      15.452  -5.505  13.233  1.00  0.00     0.022 C 
HETATM    9  C18 UNL     1      15.873  -3.561  11.905  1.00  0.00     0.022 C 
HETATM   10  C19 UNL     1      13.576  -3.822  12.903  1.00  0.00    -0.048 C 
HETATM   11  C20 UNL     1      12.844  -4.797  13.342  1.00  0.00    -0.012 C 
HETATM   12  C21 UNL     1      11.395  -4.973  13.530  1.00  0.00     0.034 C 
HETATM   13  C22 UNL     1      11.249  -6.073  14.622  1.00  0.00     0.017 C 
HETATM   14  C23 UNL     1      10.745  -5.524  12.337  1.00  0.00     0.140 C 
HETATM   15  C24 UNL     1       9.785  -4.602  11.642  1.00  0.00     0.038 C 
HETATM   16  C25 UNL     1       8.535  -4.597  12.554  1.00  0.00     0.025 C 
HETATM   17  C27 UNL     1      10.255  -3.180  11.654  1.00  0.00     0.057 C 
HETATM   18  C28 UNL     1      11.415  -2.900  10.722  1.00  0.00     0.069 C 
HETATM   19  C29 UNL     1      10.725  -2.122   9.586  1.00  0.00     0.047 C 
ENDROOT
BRANCH   1  20
HETATM   20  C9  UNL     1      12.993  -1.058  10.408  1.00  0.00     0.043 C 
BRANCH  20  21
HETATM   21  C8  UNL     1      14.252  -0.441  10.796  1.00  0.00    -0.027 C 
HETATM   22  C7  UNL     1      14.867   0.530  10.137  1.00  0.00    -0.005 C 
BRANCH  22  23
HETATM   23  C6  UNL     1      16.164   1.142  10.565  1.00  0.00     0.196 C 
BRANCH  23  24
HETATM   24  O1  UNL     1      16.006   1.860  11.709  1.00  0.00    -0.376 OA
BRANCH  24  25
HETATM   25  C4  UNL     1      17.154   2.527  12.175  1.00  0.00     0.067 C 
HETATM   26  C5  UNL     1      18.291   1.917  11.348  1.00  0.00     0.047 C 
BRANCH  25  27
HETATM   27  C3  UNL     1      17.120   3.977  11.888  1.00  0.00     0.065 C 
BRANCH  27  28
HETATM   28  C2  UNL     1      17.825   4.429  10.670  1.00  0.00    -0.034 C 
HETATM   29  C1  UNL     1      17.108   4.909   9.632  1.00  0.00     0.007 C 
ENDBRANCH  27  28
ENDBRANCH  25  27
BRANCH  25  30
HETATM   30  C31 UNL     1      17.347   2.116  13.594  1.00  0.00    -0.020 C 
HETATM   31  C32 UNL     1      18.721   1.424  13.664  1.00  0.00     0.017 C 
HETATM   32  C33 UNL     1      16.345   1.054  14.025  1.00  0.00     0.017 C 
HETATM   33  C34 UNL     1      17.359   3.178  14.621  1.00  0.00     0.017 C 
ENDBRANCH  25  30
ENDBRANCH  24  25
ENDBRANCH  23  24
ENDBRANCH  22  23
ENDBRANCH  20  21
ENDBRANCH   1  20
BRANCH  18  34
HETATM   34  O5  UNL     1      11.873  -4.007  10.172  1.00  0.00    -0.384 OA
HETATM   35  C30 UNL     1      12.643  -4.245   9.164  1.00  0.00     0.202 C 
ENDBRANCH  18  34
BRANCH  15  36
HETATM   36  C26 UNL     1       9.311  -5.111  10.360  1.00  0.00     0.243 C 
HETATM   37  O4  UNL     1       9.500  -6.265   9.960  1.00  0.00    -0.306 OA
ENDBRANCH  15  36
BRANCH   6  38
HETATM   38  O2  UNL     1      16.786  -3.224  14.488  1.00  0.00    -0.394 OA
ATOM     39  H2  UNL     1      16.989  -3.825  15.194  1.00  0.00     0.210 HD
ENDBRANCH   6  38
BRANCH  14  40
HETATM   40  O3  UNL     1       9.969  -6.679  12.640  1.00  0.00    -0.394 OA
ATOM     41  H3  UNL     1       9.049  -6.550  12.442  1.00  0.00     0.210 HD
ENDBRANCH  14  40
TORSDOF 12
ENDMDL
MODEL 4
REMARK VINA RESULT: -5.310071312      2.299      7.559
REMARK  12 active torsions:
REMARK  status: ('A' for Active; 'I' for Inactive)
REMARK    1  A    between atoms: C2_2  and  C3_3 
REMARK    2  A    between atoms: C3_3  and  C4_4 
REMARK    3  A    between atoms: C4_4  and  O1_6 
REMARK    4  A    between atoms: C4_4  and  C31_38 
REMARK    5  A    between atoms: O1_6  and  C6_7 
REMARK    6  A    between atoms: C6_7  and  C7_8 
REMARK    7  A    between atoms: C8_9  and  C9_10 
REMARK    8  A    between atoms: C9_10  and  C10_11 
REMARK    9  A    between atoms: C15_16  and  O2_17 
REMARK   10  A    between atoms: C23_26  and  O3_27 
REMARK   11  A    between atoms: C24_29  and  C26_31 
REMARK   12  A    between atoms: C28_34  and  O5_36 
ROOT
HETATM    1  C10 UNL     1      16.712  -2.181  12.189  1.00  0.00     0.014 C 
HETATM    2  C11 UNL     1      17.020  -3.189  11.059  1.00  0.00     0.023 C 
HETATM    3  C12 UNL     1      17.298  -0.933  11.799  1.00  0.00    -0.061 C 
HETATM    4  C13 UNL     1      18.400  -1.017  10.695  1.00  0.00     0.038 C 
HETATM    5  C14 UNL     1      19.344   0.152  10.901  1.00  0.00     0.037 C 
HETATM    6  C15 UNL     1      18.733   1.481  11.066  1.00  0.00     0.130 C 
HETATM    7  C16 UNL     1      17.530   1.517  11.998  1.00  0.00     0.005 C 
HETATM    8  C17 UNL     1      16.860   2.815  12.045  1.00  0.00     0.022 C 
HETATM    9  C18 UNL     1      18.071   1.245  13.382  1.00  0.00     0.022 C 
HETATM   10  C19 UNL     1      16.689   0.344  11.479  1.00  0.00    -0.048 C 
HETATM   11  C20 UNL     1      15.671   0.740  10.783  1.00  0.00    -0.012 C 
HETATM   12  C21 UNL     1      14.656   0.040   9.979  1.00  0.00     0.034 C 
HETATM   13  C22 UNL     1      14.136   1.093   8.958  1.00  0.00     0.017 C 
HETATM   14  C23 UNL     1      13.484  -0.338  10.775  1.00  0.00     0.140 C 
HETATM   15  C24 UNL     1      13.277  -1.814  10.957  1.00  0.00     0.038 C 
HETATM   16  C25 UNL     1      12.740  -2.295   9.588  1.00  0.00     0.025 C 
HETATM   17  C27 UNL     1      14.570  -2.552  11.123  1.00  0.00     0.057 C 
HETATM   18  C28 UNL     1      15.240  -2.340  12.465  1.00  0.00     0.069 C 
HETATM   19  C29 UNL     1      14.975  -3.687  13.165  1.00  0.00     0.047 C 
ENDROOT
BRANCH   1  20
HETATM   20  C9  UNL     1      17.449  -2.807  13.404  1.00  0.00     0.043 C 
BRANCH  20  21
HETATM   21  C8  UNL     1      18.117  -1.859  14.281  1.00  0.00    -0.027 C 
HETATM   22  C7  UNL     1      19.349  -1.983  14.752  1.00  0.00    -0.005 C 
BRANCH  22  23
HETATM   23  C6  UNL     1      20.006  -0.986  15.655  1.00  0.00     0.196 C 
BRANCH  23  24
HETATM   24  O1  UNL     1      20.869  -1.600  16.507  1.00  0.00    -0.376 OA
BRANCH  24  25
HETATM   25  C4  UNL     1      20.656  -1.352  17.876  1.00  0.00     0.067 C 
HETATM   26  C5  UNL     1      21.989  -0.762  18.351  1.00  0.00     0.047 C 
BRANCH  25  27
HETATM   27  C3  UNL     1      19.608  -0.337  18.110  1.00  0.00     0.065 C 
BRANCH  27  28
HETATM   28  C2  UNL     1      20.062   0.990  18.577  1.00  0.00    -0.034 C 
HETATM   29  C1  UNL     1      19.868   2.069  17.790  1.00  0.00     0.007 C 
ENDBRANCH  27  28
ENDBRANCH  25  27
BRANCH  25  30
HETATM   30  C31 UNL     1      20.481  -2.678  18.534  1.00  0.00    -0.020 C 
HETATM   31  C32 UNL     1      19.027  -2.726  19.039  1.00  0.00     0.017 C 
HETATM   32  C33 UNL     1      21.341  -2.815  19.784  1.00  0.00     0.017 C 
HETATM   33  C34 UNL     1      20.679  -3.886  17.707  1.00  0.00     0.017 C 
ENDBRANCH  25  30
ENDBRANCH  24  25
ENDBRANCH  23  24
ENDBRANCH  22  23
ENDBRANCH  20  21
ENDBRANCH   1  20
BRANCH  18  34
HETATM   34  O5  UNL     1      14.608  -1.434  13.184  1.00  0.00    -0.384 OA
HETATM   35  C30 UNL     1      14.522  -1.206  14.451  1.00  0.00     0.202 C 
ENDBRANCH  18  34
BRANCH  15  36
HETATM   36  C26 UNL     1      12.223  -2.143  11.909  1.00  0.00     0.243 C 
HETATM   37  O4  UNL     1      11.445  -1.316  12.395  1.00  0.00    -0.306 OA
ENDBRANCH  15  36
BRANCH   6  38
HETATM   38  O2  UNL     1      19.693   2.380  11.458  1.00  0.00    -0.394 OA
ATOM     39  H2  UNL     1      19.522   3.222  11.054  1.00  0.00     0.210 HD
ENDBRANCH   6  38
BRANCH  14  40
HETATM   40  O3  UNL     1      12.271   0.118  10.185  1.00  0.00    -0.394 OA
ATOM     41  H3  UNL     1      12.425   0.572   9.365  1.00  0.00     0.210 HD
ENDBRANCH  14  40
TORSDOF 12
ENDMDL
MODEL 5
REMARK VINA RESULT: -5.309283812      1.008      1.720
REMARK  12 active torsions:
REMARK  status: ('A' for Active; 'I' for Inactive)
REMARK    1  A    between atoms: C2_2  and  C3_3 
REMARK    2  A    between atoms: C3_3  and  C4_4 
REMARK    3  A    between atoms: C4_4  and  O1_6 
REMARK    4  A    between atoms: C4_4  and  C31_38 
REMARK    5  A    between atoms: O1_6  and  C6_7 
REMARK    6  A    between atoms: C6_7  and  C7_8 
REMARK    7  A    between atoms: C8_9  and  C9_10 
REMARK    8  A    between atoms: C9_10  and  C10_11 
REMARK    9  A    between atoms: C15_16  and  O2_17 
REMARK   10  A    between atoms: C23_26  and  O3_27 
REMARK   11  A    between atoms: C24_29  and  C26_31 
REMARK   12  A    between atoms: C28_34  and  O5_36 
ROOT
HETATM    1  C10 UNL     1      19.490  -0.099  12.653  1.00  0.00     0.014 C 
HETATM    2  C11 UNL     1      20.725   0.758  12.294  1.00  0.00     0.023 C 
HETATM    3  C12 UNL     1      19.984  -1.362  13.112  1.00  0.00    -0.061 C 
HETATM    4  C13 UNL     1      21.455  -1.702  12.713  1.00  0.00     0.038 C 
HETATM    5  C14 UNL     1      21.572  -3.212  12.637  1.00  0.00     0.037 C 
HETATM    6  C15 UNL     1      21.048  -3.980  13.778  1.00  0.00     0.130 C 
HETATM    7  C16 UNL     1      19.692  -3.514  14.290  1.00  0.00     0.005 C 
HETATM    8  C17 UNL     1      19.251  -4.202  15.502  1.00  0.00     0.022 C 
HETATM    9  C18 UNL     1      18.701  -3.851  13.200  1.00  0.00     0.022 C 
HETATM   10  C19 UNL     1      19.901  -1.999  14.413  1.00  0.00    -0.048 C 
HETATM   11  C20 UNL     1      20.058  -1.624  15.643  1.00  0.00    -0.012 C 
HETATM   12  C21 UNL     1      20.408  -0.343  16.277  1.00  0.00     0.034 C 
HETATM   13  C22 UNL     1      21.014  -0.717  17.661  1.00  0.00     0.017 C 
HETATM   14  C23 UNL     1      19.224   0.467  16.580  1.00  0.00     0.140 C 
HETATM   15  C24 UNL     1      19.099   1.744  15.800  1.00  0.00     0.038 C 
HETATM   16  C25 UNL     1      20.143   2.687  16.444  1.00  0.00     0.025 C 
HETATM   17  C27 UNL     1      19.566   1.591  14.385  1.00  0.00     0.057 C 
HETATM   18  C28 UNL     1      18.626   0.798  13.501  1.00  0.00     0.069 C 
HETATM   19  C29 UNL     1      17.999   1.906  12.633  1.00  0.00     0.047 C 
ENDROOT
BRANCH   1  20
HETATM   20  C9  UNL     1      18.766  -0.227  11.286  1.00  0.00     0.043 C 
BRANCH  20  21
HETATM   21  C8  UNL     1      17.774  -1.288  11.206  1.00  0.00    -0.027 C 
HETATM   22  C7  UNL     1      16.532  -1.147  10.767  1.00  0.00    -0.005 C 
BRANCH  22  23
HETATM   23  C6  UNL     1      15.536  -2.263  10.698  1.00  0.00     0.196 C 
BRANCH  23  24
HETATM   24  O1  UNL     1      14.266  -1.783  10.770  1.00  0.00    -0.376 OA
BRANCH  24  25
HETATM   25  C4  UNL     1      13.404  -2.463  11.650  1.00  0.00     0.067 C 
HETATM   26  C5  UNL     1      13.657  -3.943  11.336  1.00  0.00     0.047 C 
BRANCH  25  27
HETATM   27  C3  UNL     1      13.754  -2.240  13.069  1.00  0.00     0.065 C 
BRANCH  27  28
HETATM   28  C2  UNL     1      14.252  -3.411  13.821  1.00  0.00    -0.034 C 
HETATM   29  C1  UNL     1      15.412  -3.313  14.503  1.00  0.00     0.007 C 
ENDBRANCH  27  28
ENDBRANCH  25  27
BRANCH  25  30
HETATM   30  C31 UNL     1      12.012  -2.138  11.231  1.00  0.00    -0.020 C 
HETATM   31  C32 UNL     1      11.616  -0.857  11.989  1.00  0.00     0.017 C 
HETATM   32  C33 UNL     1      11.014  -3.194  11.689  1.00  0.00     0.017 C 
HETATM   33  C34 UNL     1      11.771  -1.871   9.798  1.00  0.00     0.017 C 
ENDBRANCH  25  30
ENDBRANCH  24  25
ENDBRANCH  23  24
ENDBRANCH  22  23
ENDBRANCH  20  21
ENDBRANCH   1  20
BRANCH  18  34
HETATM   34  O5  UNL     1      17.631   0.281  14.194  1.00  0.00    -0.384 OA
HETATM   35  C30 UNL     1      16.353   0.235  14.016  1.00  0.00     0.202 C 
ENDBRANCH  18  34
BRANCH  15  36
HETATM   36  C26 UNL     1      17.820   2.419  15.985  1.00  0.00     0.243 C 
HETATM   37  O4  UNL     1      17.603   3.592  15.665  1.00  0.00    -0.306 OA
ENDBRANCH  15  36
BRANCH   6  38
HETATM   38  O2  UNL     1      21.028  -5.315  13.460  1.00  0.00    -0.394 OA
ATOM     39  H2  UNL     1      20.322  -5.741  13.931  1.00  0.00     0.210 HD
ENDBRANCH   6  38
BRANCH  14  40
HETATM   40  O3  UNL     1      19.197   0.881  17.942  1.00  0.00    -0.394 OA
ATOM     41  H3  UNL     1      18.310   1.005  18.257  1.00  0.00     0.210 HD
ENDBRANCH  14  40
TORSDOF 12
ENDMDL
