MODEL 1
REMARK VINA RESULT: -6.989929210      0.000      0.000
REMARK  11 active torsions:
REMARK  status: ('A' for Active; 'I' for Inactive)
REMARK    1  A    between atoms: C2_2  and  C3_3 
REMARK    2  A    between atoms: C3_3  and  O1_4 
REMARK    3  A    between atoms: C11_15  and  O4_17 
REMARK    4  A    between atoms: C13_19  and  C14_20 
REMARK    5  A    between atoms: C14_20  and  C15_21 
REMARK    6  A    between atoms: C15_21  and  C16_22 
REMARK    7  A    between atoms: C17_23  and  C19_25 
REMARK    8  A    between atoms: C19_25  and  C20_26 
REMARK    9  A    between atoms: C20_26  and  C21_27 
REMARK   10  A    between atoms: C25_31  and  C26_32 
REMARK   11  A    between atoms: C26_32  and  C27_33 
ROOT
HETATM    1  C3  UNL     1      20.104   0.755  18.110  1.00  0.00     0.144 C 
HETATM    2  C4  UNL     1      21.139   0.604  19.113  1.00  0.00     0.163 C 
HETATM    3  O2  UNL     1      21.318   1.414  19.980  1.00  0.00    -0.295 OA
HETATM    4  C5  UNL     1      21.984  -0.602  19.035  1.00  0.00     0.083 C 
HETATM    5  C6  UNL     1      21.057  -1.776  19.103  1.00  0.00     0.020 C 
HETATM    6  C7  UNL     1      19.976  -1.789  18.089  1.00  0.00    -0.001 C 
HETATM    7  C8  UNL     1      18.875  -2.683  18.672  1.00  0.00     0.019 C 
HETATM    8  C9  UNL     1      20.476  -2.293  16.755  1.00  0.00     0.099 C 
HETATM    9  C10 UNL     1      20.558  -3.735  16.606  1.00  0.00     0.168 C 
HETATM   10  O3  UNL     1      20.826  -4.449  17.538  1.00  0.00    -0.294 OA
HETATM   11  C11 UNL     1      20.291  -4.264  15.232  1.00  0.00     0.119 C 
HETATM   12  C12 UNL     1      20.359  -5.750  15.323  1.00  0.00     0.055 C 
HETATM   13  C13 UNL     1      18.882  -3.831  14.899  1.00  0.00     0.034 C 
HETATM   14  C25 UNL     1      18.583  -2.381  15.031  1.00  0.00     0.023 C 
HETATM   15  C33 UNL     1      19.658  -1.591  15.736  1.00  0.00     0.139 C 
HETATM   16  O5  UNL     1      19.223  -0.450  16.338  1.00  0.00    -0.375 OA
HETATM   17  C34 UNL     1      19.390  -0.487  17.701  1.00  0.00     0.172 C 
ENDROOT
BRANCH  13  18
HETATM   18  C14 UNL     1      18.219  -4.602  13.838  1.00  0.00     0.012 C 
BRANCH  18  19
HETATM   19  C15 UNL     1      16.851  -5.120  13.999  1.00  0.00     0.028 C 
BRANCH  19  20
HETATM   20  C16 UNL     1      15.838  -4.017  14.186  1.00  0.00    -0.024 C 
HETATM   21  C17 UNL     1      15.208  -3.423  13.175  1.00  0.00    -0.087 C 
HETATM   22  C18 UNL     1      15.419  -3.763  11.769  1.00  0.00     0.043 C 
BRANCH  21  23
HETATM   23  C19 UNL     1      14.277  -2.337  13.530  1.00  0.00     0.037 C 
BRANCH  23  24
HETATM   24  C20 UNL     1      14.922  -1.014  13.790  1.00  0.00     0.031 C 
BRANCH  24  25
HETATM   25  C21 UNL     1      15.274  -0.205  12.617  1.00  0.00    -0.024 C 
HETATM   26  C22 UNL     1      15.977   0.894  12.743  1.00  0.00    -0.091 C 
HETATM   27  C23 UNL     1      16.348   1.739  11.563  1.00  0.00     0.042 C 
HETATM   28  C24 UNL     1      16.440   1.355  14.083  1.00  0.00     0.042 C 
ENDBRANCH  24  25
ENDBRANCH  23  24
ENDBRANCH  21  23
ENDBRANCH  19  20
ENDBRANCH  18  19
ENDBRANCH  13  18
BRANCH  11  29
HETATM   29  O4  UNL     1      21.256  -3.705  14.423  1.00  0.00    -0.382 OA
ATOM     30  H4  UNL     1      20.786  -3.312  13.695  1.00  0.00     0.211 HD
ENDBRANCH  11  29
BRANCH  14  31
HETATM   31  C26 UNL     1      18.313  -1.678  13.730  1.00  0.00     0.012 C 
BRANCH  31  32
HETATM   32  C27 UNL     1      19.442  -1.203  12.913  1.00  0.00    -0.014 C 
HETATM   33  C28 UNL     1      19.086  -1.575  11.459  1.00  0.00     0.005 C 
HETATM   34  C29 UNL     1      19.229  -0.456  10.494  1.00  0.00     0.000 C 
HETATM   35  C30 UNL     1      20.657   0.045  10.577  1.00  0.00     0.000 C 
HETATM   36  C31 UNL     1      20.868   0.525  11.972  1.00  0.00     0.000 C 
HETATM   37  C32 UNL     1      19.683   0.272  12.883  1.00  0.00     0.005 C 
ENDBRANCH  31  32
ENDBRANCH  14  31
BRANCH   1  38
HETATM   38  C2  UNL     1      20.768   1.410  16.887  1.00  0.00     0.044 C 
HETATM   39  C1  UNL     1      20.134   2.761  16.617  1.00  0.00     0.009 C 
ENDBRANCH   1  38
BRANCH   1  40
HETATM   40  O1  UNL     1      19.202   1.748  18.567  1.00  0.00    -0.379 OA
ATOM     41  H1  UNL     1      19.224   1.649  19.511  1.00  0.00     0.211 HD
ENDBRANCH   1  40
TORSDOF 11
ENDMDL
MODEL 2
REMARK VINA RESULT: -6.756971695      1.100      1.853
REMARK  11 active torsions:
REMARK  status: ('A' for Active; 'I' for Inactive)
REMARK    1  A    between atoms: C2_2  and  C3_3 
REMARK    2  A    between atoms: C3_3  and  O1_4 
REMARK    3  A    between atoms: C11_15  and  O4_17 
REMARK    4  A    between atoms: C13_19  and  C14_20 
REMARK    5  A    between atoms: C14_20  and  C15_21 
REMARK    6  A    between atoms: C15_21  and  C16_22 
REMARK    7  A    between atoms: C17_23  and  C19_25 
REMARK    8  A    between atoms: C19_25  and  C20_26 
REMARK    9  A    between atoms: C20_26  and  C21_27 
REMARK   10  A    between atoms: C25_31  and  C26_32 
REMARK   11  A    between atoms: C26_32  and  C27_33 
ROOT
HETATM    1  C3  UNL     1      20.076   0.818  17.979  1.00  0.00     0.144 C 
HETATM    2  C4  UNL     1      21.186   0.676  18.901  1.00  0.00     0.163 C 
HETATM    3  O2  UNL     1      21.391   1.462  19.784  1.00  0.00    -0.295 OA
HETATM    4  C5  UNL     1      22.072  -0.487  18.717  1.00  0.00     0.083 C 
HETATM    5  C6  UNL     1      21.203  -1.702  18.803  1.00  0.00     0.020 C 
HETATM    6  C7  UNL     1      20.054  -1.727  17.866  1.00  0.00    -0.001 C 
HETATM    7  C8  UNL     1      19.036  -2.690  18.488  1.00  0.00     0.019 C 
HETATM    8  C9  UNL     1      20.479  -2.160  16.482  1.00  0.00     0.099 C 
HETATM    9  C10 UNL     1      20.611  -3.590  16.271  1.00  0.00     0.168 C 
HETATM   10  O3  UNL     1      20.974  -4.325  17.153  1.00  0.00    -0.294 OA
HETATM   11  C11 UNL     1      20.269  -4.080  14.899  1.00  0.00     0.119 C 
HETATM   12  C12 UNL     1      20.407  -5.564  14.927  1.00  0.00     0.055 C 
HETATM   13  C13 UNL     1      18.824  -3.698  14.682  1.00  0.00     0.034 C 
HETATM   14  C25 UNL     1      18.474  -2.269  14.891  1.00  0.00     0.023 C 
HETATM   15  C33 UNL     1      19.562  -1.458  15.551  1.00  0.00     0.139 C 
HETATM   16  O5  UNL     1      19.124  -0.360  16.226  1.00  0.00    -0.375 OA
HETATM   17  C34 UNL     1      19.388  -0.439  17.571  1.00  0.00     0.172 C 
ENDROOT
BRANCH  13  18
HETATM   18  C14 UNL     1      18.120  -4.459  13.640  1.00  0.00     0.012 C 
BRANCH  18  19
HETATM   19  C15 UNL     1      16.839  -5.133  13.906  1.00  0.00     0.028 C 
BRANCH  19  20
HETATM   20  C16 UNL     1      15.671  -4.178  13.874  1.00  0.00    -0.024 C 
HETATM   21  C17 UNL     1      14.485  -4.490  13.355  1.00  0.00    -0.087 C 
HETATM   22  C18 UNL     1      14.171  -5.786  12.757  1.00  0.00     0.043 C 
BRANCH  21  23
HETATM   23  C19 UNL     1      13.464  -3.428  13.369  1.00  0.00     0.037 C 
BRANCH  23  24
HETATM   24  C20 UNL     1      14.003  -2.035  13.424  1.00  0.00     0.031 C 
BRANCH  24  25
HETATM   25  C21 UNL     1      13.588  -1.120  12.353  1.00  0.00    -0.024 C 
HETATM   26  C22 UNL     1      14.287  -1.016  11.249  1.00  0.00    -0.091 C 
HETATM   27  C23 UNL     1      13.887  -0.089  10.141  1.00  0.00     0.042 C 
HETATM   28  C24 UNL     1      15.523  -1.823  11.048  1.00  0.00     0.042 C 
ENDBRANCH  24  25
ENDBRANCH  23  24
ENDBRANCH  21  23
ENDBRANCH  19  20
ENDBRANCH  18  19
ENDBRANCH  13  18
BRANCH  11  29
HETATM   29  O4  UNL     1      21.150  -3.449  14.048  1.00  0.00    -0.382 OA
ATOM     30  H4  UNL     1      20.889  -2.535  14.039  1.00  0.00     0.211 HD
ENDBRANCH  11  29
BRANCH  14  31
HETATM   31  C26 UNL     1      18.083  -1.532  13.640  1.00  0.00     0.012 C 
BRANCH  31  32
HETATM   32  C27 UNL     1      17.936  -0.067  13.676  1.00  0.00    -0.014 C 
HETATM   33  C28 UNL     1      18.247   0.415  12.244  1.00  0.00     0.005 C 
HETATM   34  C29 UNL     1      17.230   1.337  11.680  1.00  0.00     0.000 C 
HETATM   35  C30 UNL     1      17.107   2.520  12.621  1.00  0.00     0.000 C 
HETATM   36  C31 UNL     1      16.657   1.982  13.937  1.00  0.00     0.000 C 
HETATM   37  C32 UNL     1      16.573   0.469  13.974  1.00  0.00     0.005 C 
ENDBRANCH  31  32
ENDBRANCH  14  31
BRANCH   1  38
HETATM   38  C2  UNL     1      20.623   1.546  16.739  1.00  0.00     0.044 C 
HETATM   39  C1  UNL     1      19.914   2.874  16.565  1.00  0.00     0.009 C 
ENDBRANCH   1  38
BRANCH   1  40
HETATM   40  O1  UNL     1      19.168   1.752  18.536  1.00  0.00    -0.379 OA
ATOM     41  H1  UNL     1      19.602   2.587  18.406  1.00  0.00     0.211 HD
ENDBRANCH   1  40
TORSDOF 11
ENDMDL
MODEL 3
REMARK VINA RESULT: -6.554430455      2.217      4.693
REMARK  11 active torsions:
REMARK  status: ('A' for Active; 'I' for Inactive)
REMARK    1  A    between atoms: C2_2  and  C3_3 
REMARK    2  A    between atoms: C3_3  and  O1_4 
REMARK    3  A    between atoms: C11_15  and  O4_17 
REMARK    4  A    between atoms: C13_19  and  C14_20 
REMARK    5  A    between atoms: C14_20  and  C15_21 
REMARK    6  A    between atoms: C15_21  and  C16_22 
REMARK    7  A    between atoms: C17_23  and  C19_25 
REMARK    8  A    between atoms: C19_25  and  C20_26 
REMARK    9  A    between atoms: C20_26  and  C21_27 
REMARK   10  A    between atoms: C25_31  and  C26_32 
REMARK   11  A    between atoms: C26_32  and  C27_33 
ROOT
HETATM    1  C3  UNL     1      21.187  -0.368  17.735  1.00  0.00     0.144 C 
HETATM    2  C4  UNL     1      20.726   0.741  18.549  1.00  0.00     0.163 C 
HETATM    3  O2  UNL     1      21.365   1.170  19.469  1.00  0.00    -0.295 OA
HETATM    4  C5  UNL     1      19.422   1.335  18.204  1.00  0.00     0.083 C 
HETATM    5  C6  UNL     1      19.521   1.780  16.779  1.00  0.00     0.020 C 
HETATM    6  C7  UNL     1      19.924   0.729  15.813  1.00  0.00    -0.001 C 
HETATM    7  C8  UNL     1      20.505   1.477  14.609  1.00  0.00     0.019 C 
HETATM    8  C9  UNL     1      18.754  -0.149  15.432  1.00  0.00     0.099 C 
HETATM    9  C10 UNL     1      17.868   0.375  14.408  1.00  0.00     0.168 C 
HETATM   10  O3  UNL     1      17.656   1.556  14.304  1.00  0.00    -0.294 OA
HETATM   11  C11 UNL     1      17.245  -0.642  13.504  1.00  0.00     0.119 C 
HETATM   12  C12 UNL     1      16.441   0.111  12.501  1.00  0.00     0.055 C 
HETATM   13  C13 UNL     1      18.400  -1.339  12.824  1.00  0.00     0.034 C 
HETATM   14  C25 UNL     1      19.446  -1.914  13.710  1.00  0.00     0.023 C 
HETATM   15  C33 UNL     1      19.338  -1.483  15.152  1.00  0.00     0.139 C 
HETATM   16  O5  UNL     1      20.506  -1.526  15.847  1.00  0.00    -0.375 OA
HETATM   17  C34 UNL     1      20.900  -0.282  16.276  1.00  0.00     0.172 C 
ENDROOT
BRANCH  13  18
HETATM   18  C14 UNL     1      18.068  -2.031  11.570  1.00  0.00     0.012 C 
BRANCH  18  19
HETATM   19  C15 UNL     1      18.849  -1.819  10.341  1.00  0.00     0.028 C 
BRANCH  19  20
HETATM   20  C16 UNL     1      19.160  -0.362  10.101  1.00  0.00    -0.024 C 
HETATM   21  C17 UNL     1      20.368   0.167  10.282  1.00  0.00    -0.087 C 
HETATM   22  C18 UNL     1      21.533  -0.593  10.732  1.00  0.00     0.043 C 
BRANCH  21  23
HETATM   23  C19 UNL     1      20.492   1.615  10.041  1.00  0.00     0.037 C 
BRANCH  23  24
HETATM   24  C20 UNL     1      19.448   2.456  10.701  1.00  0.00     0.031 C 
BRANCH  24  25
HETATM   25  C21 UNL     1      18.683   3.364   9.838  1.00  0.00    -0.024 C 
HETATM   26  C22 UNL     1      17.634   4.004  10.295  1.00  0.00    -0.091 C 
HETATM   27  C23 UNL     1      16.835   4.935   9.435  1.00  0.00     0.042 C 
HETATM   28  C24 UNL     1      17.187   3.828  11.705  1.00  0.00     0.042 C 
ENDBRANCH  24  25
ENDBRANCH  23  24
ENDBRANCH  21  23
ENDBRANCH  19  20
ENDBRANCH  18  19
ENDBRANCH  13  18
BRANCH  11  29
HETATM   29  O4  UNL     1      16.498  -1.461  14.323  1.00  0.00    -0.382 OA
ATOM     30  H4  UNL     1      17.115  -1.840  14.940  1.00  0.00     0.211 HD
ENDBRANCH  11  29
BRANCH  14  31
HETATM   31  C26 UNL     1      19.507  -3.417  13.711  1.00  0.00     0.012 C 
BRANCH  31  32
HETATM   32  C27 UNL     1      20.747  -4.094  13.297  1.00  0.00    -0.014 C 
HETATM   33  C28 UNL     1      20.423  -4.760  11.944  1.00  0.00     0.005 C 
HETATM   34  C29 UNL     1      21.415  -4.478  10.876  1.00  0.00     0.000 C 
HETATM   35  C30 UNL     1      22.772  -4.931  11.377  1.00  0.00     0.000 C 
HETATM   36  C31 UNL     1      23.073  -4.130  12.598  1.00  0.00     0.000 C 
HETATM   37  C32 UNL     1      21.933  -3.227  13.023  1.00  0.00     0.005 C 
ENDBRANCH  31  32
ENDBRANCH  14  31
BRANCH   1  38
HETATM   38  C2  UNL     1      20.553  -1.640  18.323  1.00  0.00     0.044 C 
HETATM   39  C1  UNL     1      21.572  -2.383  19.164  1.00  0.00     0.009 C 
ENDBRANCH   1  38
BRANCH   1  40
HETATM   40  O1  UNL     1      22.570  -0.542  17.986  1.00  0.00    -0.379 OA
ATOM     41  H1  UNL     1      22.587  -1.085  18.765  1.00  0.00     0.211 HD
ENDBRANCH   1  40
TORSDOF 11
ENDMDL
MODEL 4
REMARK VINA RESULT: -6.550345824      1.469      2.479
REMARK  11 active torsions:
REMARK  status: ('A' for Active; 'I' for Inactive)
REMARK    1  A    between atoms: C2_2  and  C3_3 
REMARK    2  A    between atoms: C3_3  and  O1_4 
REMARK    3  A    between atoms: C11_15  and  O4_17 
REMARK    4  A    between atoms: C13_19  and  C14_20 
REMARK    5  A    between atoms: C14_20  and  C15_21 
REMARK    6  A    between atoms: C15_21  and  C16_22 
REMARK    7  A    between atoms: C17_23  and  C19_25 
REMARK    8  A    between atoms: C19_25  and  C20_26 
REMARK    9  A    between atoms: C20_26  and  C21_27 
REMARK   10  A    between atoms: C25_31  and  C26_32 
REMARK   11  A    between atoms: C26_32  and  C27_33 
ROOT
HETATM    1  C3  UNL     1      20.055   0.768  17.961  1.00  0.00     0.144 C 
HETATM    2  C4  UNL     1      21.147   0.657  18.908  1.00  0.00     0.163 C 
HETATM    3  O2  UNL     1      21.321   1.457  19.785  1.00  0.00    -0.295 OA
HETATM    4  C5  UNL     1      22.058  -0.492  18.757  1.00  0.00     0.083 C 
HETATM    5  C6  UNL     1      21.208  -1.722  18.840  1.00  0.00     0.020 C 
HETATM    6  C7  UNL     1      20.079  -1.778  17.881  1.00  0.00    -0.001 C 
HETATM    7  C8  UNL     1      19.065  -2.750  18.494  1.00  0.00     0.019 C 
HETATM    8  C9  UNL     1      20.540  -2.220  16.511  1.00  0.00     0.099 C 
HETATM    9  C10 UNL     1      20.701  -3.650  16.321  1.00  0.00     0.168 C 
HETATM   10  O3  UNL     1      21.058  -4.368  17.220  1.00  0.00    -0.294 OA
HETATM   11  C11 UNL     1      20.397  -4.163  14.949  1.00  0.00     0.119 C 
HETATM   12  C12 UNL     1      20.559  -5.644  14.998  1.00  0.00     0.055 C 
HETATM   13  C13 UNL     1      18.949  -3.810  14.697  1.00  0.00     0.034 C 
HETATM   14  C25 UNL     1      18.570  -2.384  14.881  1.00  0.00     0.023 C 
HETATM   15  C33 UNL     1      19.630  -1.546  15.552  1.00  0.00     0.139 C 
HETATM   16  O5  UNL     1      19.160  -0.448  16.204  1.00  0.00    -0.375 OA
HETATM   17  C34 UNL     1      19.398  -0.506  17.556  1.00  0.00     0.172 C 
ENDROOT
BRANCH  13  18
HETATM   18  C14 UNL     1      18.281  -4.596  13.651  1.00  0.00     0.012 C 
BRANCH  18  19
HETATM   19  C15 UNL     1      16.944  -5.176  13.854  1.00  0.00     0.028 C 
BRANCH  19  20
HETATM   20  C16 UNL     1      15.923  -4.617  12.893  1.00  0.00    -0.024 C 
HETATM   21  C17 UNL     1      15.060  -3.657  13.219  1.00  0.00    -0.087 C 
HETATM   22  C18 UNL     1      14.994  -3.032  14.538  1.00  0.00     0.043 C 
BRANCH  21  23
HETATM   23  C19 UNL     1      14.104  -3.253  12.173  1.00  0.00     0.037 C 
BRANCH  23  24
HETATM   24  C20 UNL     1      12.726  -2.945  12.662  1.00  0.00     0.031 C 
BRANCH  24  25
HETATM   25  C21 UNL     1      12.218  -1.592  12.407  1.00  0.00    -0.024 C 
HETATM   26  C22 UNL     1      10.974  -1.397  12.044  1.00  0.00    -0.091 C 
HETATM   27  C23 UNL     1      10.430  -0.026  11.775  1.00  0.00     0.042 C 
HETATM   28  C24 UNL     1      10.037  -2.544  11.880  1.00  0.00     0.042 C 
ENDBRANCH  24  25
ENDBRANCH  23  24
ENDBRANCH  21  23
ENDBRANCH  19  20
ENDBRANCH  18  19
ENDBRANCH  13  18
BRANCH  11  29
HETATM   29  O4  UNL     1      21.284  -3.528  14.108  1.00  0.00    -0.382 OA
ATOM     30  H4  UNL     1      20.885  -3.554  13.245  1.00  0.00     0.211 HD
ENDBRANCH  11  29
BRANCH  14  31
HETATM   31  C26 UNL     1      18.193  -1.669  13.613  1.00  0.00     0.012 C 
BRANCH  31  32
HETATM   32  C27 UNL     1      17.950  -0.218  13.642  1.00  0.00    -0.014 C 
HETATM   33  C28 UNL     1      18.253   0.281  12.214  1.00  0.00     0.005 C 
HETATM   34  C29 UNL     1      17.187   1.134  11.631  1.00  0.00     0.000 C 
HETATM   35  C30 UNL     1      16.972   2.308  12.566  1.00  0.00     0.000 C 
HETATM   36  C31 UNL     1      16.536   1.744  13.876  1.00  0.00     0.000 C 
HETATM   37  C32 UNL     1      16.550   0.229  13.915  1.00  0.00     0.005 C 
ENDBRANCH  31  32
ENDBRANCH  14  31
BRANCH   1  38
HETATM   38  C2  UNL     1      20.615   1.490  16.724  1.00  0.00     0.044 C 
HETATM   39  C1  UNL     1      19.942   2.839  16.564  1.00  0.00     0.009 C 
ENDBRANCH   1  38
BRANCH   1  40
HETATM   40  O1  UNL     1      19.120   1.693  18.487  1.00  0.00    -0.379 OA
ATOM     41  H1  UNL     1      19.658   2.436  18.735  1.00  0.00     0.211 HD
ENDBRANCH   1  40
TORSDOF 11
ENDMDL
MODEL 5
REMARK VINA RESULT: -6.495818201      1.945      5.121
REMARK  11 active torsions:
REMARK  status: ('A' for Active; 'I' for Inactive)
REMARK    1  A    between atoms: C2_2  and  C3_3 
REMARK    2  A    between atoms: C3_3  and  O1_4 
REMARK    3  A    between atoms: C11_15  and  O4_17 
REMARK    4  A    between atoms: C13_19  and  C14_20 
REMARK    5  A    between atoms: C14_20  and  C15_21 
REMARK    6  A    between atoms: C15_21  and  C16_22 
REMARK    7  A    between atoms: C17_23  and  C19_25 
REMARK    8  A    between atoms: C19_25  and  C20_26 
REMARK    9  A    between atoms: C20_26  and  C21_27 
REMARK   10  A    between atoms: C25_31  and  C26_32 
REMARK   11  A    between atoms: C26_32  and  C27_33 
ROOT
HETATM    1  C3  UNL     1      21.285  -0.398  17.941  1.00  0.00     0.144 C 
HETATM    2  C4  UNL     1      20.706   0.501  18.921  1.00  0.00     0.163 C 
HETATM    3  O2  UNL     1      21.296   0.840  19.908  1.00  0.00    -0.295 OA
HETATM    4  C5  UNL     1      19.341   0.993  18.661  1.00  0.00     0.083 C 
HETATM    5  C6  UNL     1      19.382   1.677  17.331  1.00  0.00     0.020 C 
HETATM    6  C7  UNL     1      19.897   0.854  16.210  1.00  0.00    -0.001 C 
HETATM    7  C8  UNL     1      20.383   1.853  15.155  1.00  0.00     0.019 C 
HETATM    8  C9  UNL     1      18.832  -0.074  15.672  1.00  0.00     0.099 C 
HETATM    9  C10 UNL     1      17.887   0.509  14.737  1.00  0.00     0.168 C 
HETATM   10  O3  UNL     1      17.543   1.659  14.827  1.00  0.00    -0.294 OA
HETATM   11  C11 UNL     1      17.379  -0.406  13.668  1.00  0.00     0.119 C 
HETATM   12  C12 UNL     1      16.490   0.408  12.792  1.00  0.00     0.055 C 
HETATM   13  C13 UNL     1      18.602  -0.846  12.898  1.00  0.00     0.034 C 
HETATM   14  C25 UNL     1      19.711  -1.439  13.690  1.00  0.00     0.023 C 
HETATM   15  C33 UNL     1      19.562  -1.269  15.182  1.00  0.00     0.139 C 
HETATM   16  O5  UNL     1      20.732  -1.295  15.878  1.00  0.00    -0.375 OA
HETATM   17  C34 UNL     1      20.984  -0.103  16.512  1.00  0.00     0.172 C 
ENDROOT
BRANCH  13  18
HETATM   18  C14 UNL     1      18.345  -1.352  11.542  1.00  0.00     0.012 C 
BRANCH  18  19
HETATM   19  C15 UNL     1      19.117  -0.880  10.381  1.00  0.00     0.028 C 
BRANCH  19  20
HETATM   20  C16 UNL     1      18.956   0.602  10.149  1.00  0.00    -0.024 C 
HETATM   21  C17 UNL     1      19.861   1.504  10.522  1.00  0.00    -0.087 C 
HETATM   22  C18 UNL     1      21.114   1.171  11.198  1.00  0.00     0.043 C 
BRANCH  21  23
HETATM   23  C19 UNL     1      19.530   2.914  10.254  1.00  0.00     0.037 C 
BRANCH  23  24
HETATM   24  C20 UNL     1      18.280   3.405  10.910  1.00  0.00     0.031 C 
BRANCH  24  25
HETATM   25  C21 UNL     1      17.646   4.593  10.326  1.00  0.00    -0.024 C 
HETATM   26  C22 UNL     1      16.641   4.478   9.492  1.00  0.00    -0.091 C 
HETATM   27  C23 UNL     1      15.977   5.674   8.881  1.00  0.00     0.042 C 
HETATM   28  C24 UNL     1      16.112   3.138   9.113  1.00  0.00     0.042 C 
ENDBRANCH  24  25
ENDBRANCH  23  24
ENDBRANCH  21  23
ENDBRANCH  19  20
ENDBRANCH  18  19
ENDBRANCH  13  18
BRANCH  11  29
HETATM   29  O4  UNL     1      16.735  -1.430  14.329  1.00  0.00    -0.382 OA
ATOM     30  H4  UNL     1      15.938  -1.592  13.837  1.00  0.00     0.211 HD
ENDBRANCH  11  29
BRANCH  14  31
HETATM   31  C26 UNL     1      19.943  -2.904  13.443  1.00  0.00     0.012 C 
BRANCH  31  32
HETATM   32  C27 UNL     1      19.335  -3.897  14.343  1.00  0.00    -0.014 C 
HETATM   33  C28 UNL     1      18.341  -4.693  13.471  1.00  0.00     0.005 C 
HETATM   34  C29 UNL     1      18.481  -6.166  13.583  1.00  0.00     0.000 C 
HETATM   35  C30 UNL     1      18.314  -6.535  15.045  1.00  0.00     0.000 C 
HETATM   36  C31 UNL     1      19.404  -5.846  15.792  1.00  0.00     0.000 C 
HETATM   37  C32 UNL     1      20.245  -4.930  14.926  1.00  0.00     0.005 C 
ENDBRANCH  31  32
ENDBRANCH  14  31
BRANCH   1  38
HETATM   38  C2  UNL     1      20.803  -1.813  18.301  1.00  0.00     0.044 C 
HETATM   39  C1  UNL     1      21.828  -2.499  19.182  1.00  0.00     0.009 C 
ENDBRANCH   1  38
BRANCH   1  40
HETATM   40  O1  UNL     1      22.681  -0.454  18.179  1.00  0.00    -0.379 OA
ATOM     41  H1  UNL     1      22.740  -0.623  19.112  1.00  0.00     0.211 HD
ENDBRANCH   1  40
TORSDOF 11
ENDMDL
