MODEL 1
REMARK VINA RESULT: -6.278781408      0.000      0.000
REMARK  9 active torsions:
REMARK  status: ('A' for Active; 'I' for Inactive)
REMARK    1  A    between atoms: N1_2  and  C3_4 
REMARK    2  A    between atoms: C3_4  and  C4_5 
REMARK    3  A    between atoms: N2_15  and  O1_17 
REMARK    4  A    between atoms: O1_17  and  C14_18 
REMARK    5  A    between atoms: C14_18  and  C15_19 
REMARK    6  A    between atoms: C15_19  and  C16_20 
REMARK    7  A    between atoms: C16_20  and  C17_21 
REMARK    8  A    between atoms: C17_21  and  C18_22 
REMARK    9  A    between atoms: C20_25  and  O2_26 
ROOT
HETATM    1  C4  UNL     1      15.402   1.725   8.734  1.00  0.00     0.015 C 
HETATM    2  C5  UNL     1      15.753   0.603   9.668  1.00  0.00     0.007 C 
HETATM    3  C6  UNL     1      15.767   0.882  11.115  1.00  0.00     0.015 C 
HETATM    4  C7  UNL     1      16.955   0.285  11.874  1.00  0.00    -0.005 C 
HETATM    5  C8  UNL     1      16.737  -1.207  11.630  1.00  0.00     0.021 C 
HETATM    6  C9  UNL     1      18.278   0.607  11.215  1.00  0.00    -0.041 C 
HETATM    7  C10 UNL     1      19.477   0.175  11.943  1.00  0.00    -0.000 C 
HETATM    8  C11 UNL     1      19.574  -0.278  13.292  1.00  0.00     0.042 C 
HETATM    9  C12 UNL     1      21.010  -0.798  13.559  1.00  0.00     0.029 C 
HETATM   10  C13 UNL     1      18.557  -1.130  13.924  1.00  0.00     0.032 C 
HETATM   11  N2  UNL     1      18.438  -2.388  14.092  1.00  0.00    -0.273 N 
ATOM     12  H2  UNL     1      19.190  -2.969  13.723  1.00  0.00     0.193 HD
HETATM   13  C19 UNL     1      17.871   0.116  14.251  1.00  0.00     0.077 C 
HETATM   14  C20 UNL     1      19.228   0.695  14.403  1.00  0.00     0.146 C 
HETATM   15  C21 UNL     1      16.894   0.683  13.321  1.00  0.00    -0.004 C 
HETATM   16  C22 UNL     1      15.566   0.098  13.890  1.00  0.00     0.021 C 
HETATM   17  C23 UNL     1      16.780   2.154  13.534  1.00  0.00    -0.015 C 
HETATM   18  C24 UNL     1      17.276   3.174  12.675  1.00  0.00     0.005 C 
HETATM   19  C25 UNL     1      17.888   3.030  11.363  1.00  0.00    -0.048 C 
HETATM   20  C26 UNL     1      18.375   1.991  10.597  1.00  0.00    -0.023 C 
HETATM   21  C27 UNL     1      18.938   2.253   9.282  1.00  0.00     0.009 C 
HETATM   22  C28 UNL     1      18.263   3.078   8.414  1.00  0.00    -0.017 C 
HETATM   23  C29 UNL     1      16.984   3.773   8.654  1.00  0.00    -0.026 C 
HETATM   24  C30 UNL     1      16.755   4.600   7.363  1.00  0.00     0.019 C 
HETATM   25  C31 UNL     1      17.185   4.865   9.729  1.00  0.00     0.018 C 
HETATM   26  C32 UNL     1      17.826   4.504  10.976  1.00  0.00     0.040 C 
HETATM   27  C33 UNL     1      15.771   3.089   9.038  1.00  0.00     0.019 C 
ENDROOT
BRANCH  11  28
HETATM   28  O1  UNL     1      17.413  -3.041  14.713  1.00  0.00    -0.281 OA
BRANCH  28  29
HETATM   29  C14 UNL     1      16.482  -3.844  13.950  1.00  0.00     0.201 C 
BRANCH  29  30
HETATM   30  C15 UNL     1      15.108  -3.364  14.257  1.00  0.00     0.029 C 
BRANCH  30  31
HETATM   31  C16 UNL     1      14.128  -3.435  13.170  1.00  0.00     0.003 C 
BRANCH  31  32
HETATM   32  C17 UNL     1      13.094  -2.417  13.057  1.00  0.00     0.011 C 
BRANCH  32  33
HETATM   33  C18 UNL     1      12.977  -1.630  11.809  1.00  0.00     0.086 C 
HETATM   34  S1  UNL     1      11.301  -0.823  11.900  1.00  0.00    -0.098 SA
ENDBRANCH  32  33
ENDBRANCH  31  32
ENDBRANCH  30  31
ENDBRANCH  29  30
ENDBRANCH  28  29
ENDBRANCH  11  28
BRANCH  14  35
HETATM   35  O2  UNL     1      19.586   1.958  14.339  1.00  0.00    -0.393 OA
ATOM     36  H2  UNL     1      20.142   2.346  15.003  1.00  0.00     0.210 HD
ENDBRANCH  14  35
BRANCH   1  37
HETATM   37  C3  UNL     1      15.776   1.266   7.327  1.00  0.00     0.275 C 
BRANCH  37  38
HETATM   38  N1  UNL     1      14.822   1.696   6.337  1.00  0.00     0.080 N 
HETATM   39  C1  UNL     1      15.380   1.941   5.033  1.00  0.00     0.309 C 
HETATM   40  C2  UNL     1      13.712   0.776   6.209  1.00  0.00     0.309 C 
ENDBRANCH  37  38
ENDBRANCH   1  37
TORSDOF 9
ENDMDL
MODEL 2
REMARK VINA RESULT: -6.070854499      2.722      6.740
REMARK  9 active torsions:
REMARK  status: ('A' for Active; 'I' for Inactive)
REMARK    1  A    between atoms: N1_2  and  C3_4 
REMARK    2  A    between atoms: C3_4  and  C4_5 
REMARK    3  A    between atoms: N2_15  and  O1_17 
REMARK    4  A    between atoms: O1_17  and  C14_18 
REMARK    5  A    between atoms: C14_18  and  C15_19 
REMARK    6  A    between atoms: C15_19  and  C16_20 
REMARK    7  A    between atoms: C16_20  and  C17_21 
REMARK    8  A    between atoms: C17_21  and  C18_22 
REMARK    9  A    between atoms: C20_25  and  O2_26 
ROOT
HETATM    1  C4  UNL     1      14.167  -2.971  10.716  1.00  0.00     0.015 C 
HETATM    2  C5  UNL     1      14.622  -1.544  10.619  1.00  0.00     0.007 C 
HETATM    3  C6  UNL     1      16.070  -1.272  10.668  1.00  0.00     0.015 C 
HETATM    4  C7  UNL     1      16.471  -0.082  11.544  1.00  0.00    -0.005 C 
HETATM    5  C8  UNL     1      15.747   1.060  10.835  1.00  0.00     0.021 C 
HETATM    6  C9  UNL     1      15.853  -0.150  12.923  1.00  0.00    -0.041 C 
HETATM    7  C10 UNL     1      16.282   0.888  13.868  1.00  0.00    -0.000 C 
HETATM    8  C11 UNL     1      17.378   1.793  13.745  1.00  0.00     0.042 C 
HETATM    9  C12 UNL     1      17.326   2.825  14.901  1.00  0.00     0.029 C 
HETATM   10  C13 UNL     1      17.762   2.417  12.472  1.00  0.00     0.032 C 
HETATM   11  N2  UNL     1      17.494   3.534  11.919  1.00  0.00    -0.273 N 
ATOM     12  H2  UNL     1      16.884   4.164  12.439  1.00  0.00     0.193 HD
HETATM   13  C19 UNL     1      18.556   1.214  12.245  1.00  0.00     0.077 C 
HETATM   14  C20 UNL     1      18.782   1.219  13.711  1.00  0.00     0.146 C 
HETATM   15  C21 UNL     1      17.966   0.062  11.563  1.00  0.00    -0.004 C 
HETATM   16  C22 UNL     1      18.410   0.326  10.093  1.00  0.00     0.021 C 
HETATM   17  C23 UNL     1      18.683  -1.185  11.955  1.00  0.00    -0.015 C 
HETATM   18  C24 UNL     1      18.190  -2.212  12.808  1.00  0.00     0.005 C 
HETATM   19  C25 UNL     1      16.862  -2.344  13.388  1.00  0.00    -0.048 C 
HETATM   20  C26 UNL     1      15.746  -1.544  13.517  1.00  0.00    -0.023 C 
HETATM   21  C27 UNL     1      14.559  -2.047  14.191  1.00  0.00     0.009 C 
HETATM   22  C28 UNL     1      14.091  -3.301  13.879  1.00  0.00    -0.017 C 
HETATM   23  C29 UNL     1      14.664  -4.254  12.909  1.00  0.00    -0.026 C 
HETATM   24  C30 UNL     1      13.762  -5.509  13.034  1.00  0.00     0.019 C 
HETATM   25  C31 UNL     1      16.028  -4.760  13.430  1.00  0.00     0.018 C 
HETATM   26  C32 UNL     1      17.015  -3.787  13.854  1.00  0.00     0.040 C 
HETATM   27  C33 UNL     1      14.890  -3.930  11.520  1.00  0.00     0.019 C 
ENDROOT
BRANCH  11  28
HETATM   28  O1  UNL     1      17.937   3.978  10.707  1.00  0.00    -0.281 OA
BRANCH  28  29
HETATM   29  C14 UNL     1      17.202   4.992   9.981  1.00  0.00     0.201 C 
BRANCH  29  30
HETATM   30  C15 UNL     1      16.272   4.301   9.048  1.00  0.00     0.029 C 
BRANCH  30  31
HETATM   31  C16 UNL     1      15.303   5.144   8.342  1.00  0.00     0.003 C 
BRANCH  31  32
HETATM   32  C17 UNL     1      15.514   6.582   8.264  1.00  0.00     0.011 C 
BRANCH  32  33
HETATM   33  C18 UNL     1      14.380   7.500   8.515  1.00  0.00     0.086 C 
HETATM   34  S1  UNL     1      12.867   6.415   8.504  1.00  0.00    -0.098 SA
ENDBRANCH  32  33
ENDBRANCH  31  32
ENDBRANCH  30  31
ENDBRANCH  29  30
ENDBRANCH  28  29
ENDBRANCH  11  28
BRANCH  14  35
HETATM   35  O2  UNL     1      19.128   0.216  14.485  1.00  0.00    -0.393 OA
ATOM     36  H2  UNL     1      19.731   0.337  15.209  1.00  0.00     0.210 HD
ENDBRANCH  14  35
BRANCH   1  37
HETATM   37  C3  UNL     1      12.661  -2.941  10.968  1.00  0.00     0.275 C 
BRANCH  37  38
HETATM   38  N1  UNL     1      12.121  -1.606  10.913  1.00  0.00     0.080 N 
HETATM   39  C1  UNL     1      11.208  -1.374   9.825  1.00  0.00     0.309 C 
HETATM   40  C2  UNL     1      11.484  -1.222  12.154  1.00  0.00     0.309 C 
ENDBRANCH  37  38
ENDBRANCH   1  37
TORSDOF 9
ENDMDL
MODEL 3
REMARK VINA RESULT: -6.016245890      2.170      2.983
REMARK  9 active torsions:
REMARK  status: ('A' for Active; 'I' for Inactive)
REMARK    1  A    between atoms: N1_2  and  C3_4 
REMARK    2  A    between atoms: C3_4  and  C4_5 
REMARK    3  A    between atoms: N2_15  and  O1_17 
REMARK    4  A    between atoms: O1_17  and  C14_18 
REMARK    5  A    between atoms: C14_18  and  C15_19 
REMARK    6  A    between atoms: C15_19  and  C16_20 
REMARK    7  A    between atoms: C16_20  and  C17_21 
REMARK    8  A    between atoms: C17_21  and  C18_22 
REMARK    9  A    between atoms: C20_25  and  O2_26 
ROOT
HETATM    1  C4  UNL     1      15.432   1.844   8.654  1.00  0.00     0.015 C 
HETATM    2  C5  UNL     1      15.845   0.667   9.489  1.00  0.00     0.007 C 
HETATM    3  C6  UNL     1      15.827   0.815  10.955  1.00  0.00     0.015 C 
HETATM    4  C7  UNL     1      17.045   0.228  11.675  1.00  0.00    -0.005 C 
HETATM    5  C8  UNL     1      16.924  -1.247  11.296  1.00  0.00     0.021 C 
HETATM    6  C9  UNL     1      18.350   0.689  11.067  1.00  0.00    -0.041 C 
HETATM    7  C10 UNL     1      19.567   0.270  11.772  1.00  0.00    -0.000 C 
HETATM    8  C11 UNL     1      19.680  -0.296  13.077  1.00  0.00     0.042 C 
HETATM    9  C12 UNL     1      21.144  -0.747  13.318  1.00  0.00     0.029 C 
HETATM   10  C13 UNL     1      18.713  -1.264  13.615  1.00  0.00     0.032 C 
HETATM   11  N2  UNL     1      18.674  -2.536  13.668  1.00  0.00    -0.273 N 
ATOM     12  H2  UNL     1      19.464  -3.034  13.259  1.00  0.00     0.193 HD
HETATM   13  C19 UNL     1      17.947  -0.098  14.041  1.00  0.00     0.077 C 
HETATM   14  C20 UNL     1      19.262   0.549  14.265  1.00  0.00     0.146 C 
HETATM   15  C21 UNL     1      16.944   0.488  13.151  1.00  0.00    -0.004 C 
HETATM   16  C22 UNL     1      15.652  -0.227  13.646  1.00  0.00     0.021 C 
HETATM   17  C23 UNL     1      16.735   1.924  13.493  1.00  0.00    -0.015 C 
HETATM   18  C24 UNL     1      17.173   3.046  12.735  1.00  0.00     0.005 C 
HETATM   19  C25 UNL     1      17.805   3.061  11.425  1.00  0.00    -0.048 C 
HETATM   20  C26 UNL     1      18.364   2.127  10.578  1.00  0.00    -0.023 C 
HETATM   21  C27 UNL     1      18.922   2.541   9.299  1.00  0.00     0.009 C 
HETATM   22  C28 UNL     1      18.204   3.397   8.499  1.00  0.00    -0.017 C 
HETATM   23  C29 UNL     1      16.881   3.986   8.781  1.00  0.00    -0.026 C 
HETATM   24  C30 UNL     1      16.612   4.910   7.565  1.00  0.00     0.019 C 
HETATM   25  C31 UNL     1      17.002   4.988   9.951  1.00  0.00     0.018 C 
HETATM   26  C32 UNL     1      17.653   4.556  11.171  1.00  0.00     0.040 C 
HETATM   27  C33 UNL     1      15.711   3.195   9.083  1.00  0.00     0.019 C 
ENDROOT
BRANCH  11  28
HETATM   28  O1  UNL     1      17.687  -3.306  14.213  1.00  0.00    -0.281 OA
BRANCH  28  29
HETATM   29  C14 UNL     1      17.992  -4.268  15.251  1.00  0.00     0.201 C 
BRANCH  29  30
HETATM   30  C15 UNL     1      19.363  -3.979  15.751  1.00  0.00     0.029 C 
BRANCH  30  31
HETATM   31  C16 UNL     1      19.460  -3.312  17.052  1.00  0.00     0.003 C 
BRANCH  31  32
HETATM   32  C17 UNL     1      19.806  -1.900  17.119  1.00  0.00     0.011 C 
BRANCH  32  33
HETATM   33  C18 UNL     1      19.976  -1.252  18.440  1.00  0.00     0.086 C 
HETATM   34  S1  UNL     1      19.705   0.563  18.126  1.00  0.00    -0.098 SA
ENDBRANCH  32  33
ENDBRANCH  31  32
ENDBRANCH  30  31
ENDBRANCH  29  30
ENDBRANCH  28  29
ENDBRANCH  11  28
BRANCH  14  35
HETATM   35  O2  UNL     1      19.540   1.832  14.319  1.00  0.00    -0.393 OA
ATOM     36  H2  UNL     1      19.564   2.297  15.147  1.00  0.00     0.210 HD
ENDBRANCH  14  35
BRANCH   1  37
HETATM   37  C3  UNL     1      15.848   1.538   7.217  1.00  0.00     0.275 C 
BRANCH  37  38
HETATM   38  N1  UNL     1      14.983   2.166   6.249  1.00  0.00     0.080 N 
HETATM   39  C1  UNL     1      15.572   2.345   4.948  1.00  0.00     0.309 C 
HETATM   40  C2  UNL     1      13.725   1.466   6.105  1.00  0.00     0.309 C 
ENDBRANCH  37  38
ENDBRANCH   1  37
TORSDOF 9
ENDMDL
MODEL 4
REMARK VINA RESULT: -5.888818298      3.368      5.952
REMARK  9 active torsions:
REMARK  status: ('A' for Active; 'I' for Inactive)
REMARK    1  A    between atoms: N1_2  and  C3_4 
REMARK    2  A    between atoms: C3_4  and  C4_5 
REMARK    3  A    between atoms: N2_15  and  O1_17 
REMARK    4  A    between atoms: O1_17  and  C14_18 
REMARK    5  A    between atoms: C14_18  and  C15_19 
REMARK    6  A    between atoms: C15_19  and  C16_20 
REMARK    7  A    between atoms: C16_20  and  C17_21 
REMARK    8  A    between atoms: C17_21  and  C18_22 
REMARK    9  A    between atoms: C20_25  and  O2_26 
ROOT
HETATM    1  C4  UNL     1      13.506  -1.628  12.574  1.00  0.00     0.015 C 
HETATM    2  C5  UNL     1      14.828  -1.521  13.276  1.00  0.00     0.007 C 
HETATM    3  C6  UNL     1      15.455  -0.192  13.379  1.00  0.00     0.015 C 
HETATM    4  C7  UNL     1      16.960  -0.166  13.096  1.00  0.00    -0.005 C 
HETATM    5  C8  UNL     1      17.480  -1.078  14.207  1.00  0.00     0.021 C 
HETATM    6  C9  UNL     1      17.315  -0.870  11.806  1.00  0.00    -0.041 C 
HETATM    7  C10 UNL     1      18.722  -0.788  11.398  1.00  0.00    -0.000 C 
HETATM    8  C11 UNL     1      19.742   0.066  11.916  1.00  0.00     0.042 C 
HETATM    9  C12 UNL     1      21.109  -0.335  11.304  1.00  0.00     0.029 C 
HETATM   10  C13 UNL     1      19.857   0.400  13.342  1.00  0.00     0.032 C 
HETATM   11  N2  UNL     1      20.536  -0.078  14.309  1.00  0.00    -0.273 N 
ATOM     12  H2  UNL     1      21.146  -0.865  14.092  1.00  0.00     0.193 HD
HETATM   13  C19 UNL     1      18.915   1.476  13.056  1.00  0.00     0.077 C 
HETATM   14  C20 UNL     1      19.584   1.563  11.736  1.00  0.00     0.146 C 
HETATM   15  C21 UNL     1      17.475   1.243  13.173  1.00  0.00    -0.004 C 
HETATM   16  C22 UNL     1      17.209   1.738  14.626  1.00  0.00     0.021 C 
HETATM   17  C23 UNL     1      16.731   2.200  12.306  1.00  0.00    -0.015 C 
HETATM   18  C24 UNL     1      16.061   1.894  11.088  1.00  0.00     0.005 C 
HETATM   19  C25 UNL     1      15.847   0.590  10.478  1.00  0.00    -0.048 C 
HETATM   20  C26 UNL     1      16.316  -0.692  10.675  1.00  0.00    -0.023 C 
HETATM   21  C27 UNL     1      15.853  -1.779   9.826  1.00  0.00     0.009 C 
HETATM   22  C28 UNL     1      14.509  -1.903   9.568  1.00  0.00    -0.017 C 
HETATM   23  C29 UNL     1      13.421  -1.034  10.055  1.00  0.00    -0.026 C 
HETATM   24  C30 UNL     1      12.146  -1.615   9.392  1.00  0.00     0.019 C 
HETATM   25  C31 UNL     1      13.542   0.361   9.400  1.00  0.00     0.018 C 
HETATM   26  C32 UNL     1      14.818   1.043   9.449  1.00  0.00     0.040 C 
HETATM   27  C33 UNL     1      13.186  -0.770  11.456  1.00  0.00     0.019 C 
ENDROOT
BRANCH  11  28
HETATM   28  O1  UNL     1      20.535   0.351  15.605  1.00  0.00    -0.281 OA
BRANCH  28  29
HETATM   29  C14 UNL     1      19.922  -0.449  16.645  1.00  0.00     0.201 C 
BRANCH  29  30
HETATM   30  C15 UNL     1      19.833   0.389  17.871  1.00  0.00     0.029 C 
BRANCH  30  31
HETATM   31  C16 UNL     1      21.070   0.569  18.635  1.00  0.00     0.003 C 
BRANCH  31  32
HETATM   32  C17 UNL     1      22.066  -0.492  18.663  1.00  0.00     0.011 C 
BRANCH  32  33
HETATM   33  C18 UNL     1      22.071  -1.460  19.782  1.00  0.00     0.086 C 
HETATM   34  S1  UNL     1      21.474  -3.061  19.041  1.00  0.00    -0.098 SA
ENDBRANCH  32  33
ENDBRANCH  31  32
ENDBRANCH  30  31
ENDBRANCH  29  30
ENDBRANCH  28  29
ENDBRANCH  11  28
BRANCH  14  35
HETATM   35  O2  UNL     1      19.116   2.070  10.617  1.00  0.00    -0.393 OA
ATOM     36  H2  UNL     1      19.264   2.979  10.388  1.00  0.00     0.210 HD
ENDBRANCH  14  35
BRANCH   1  37
HETATM   37  C3  UNL     1      13.252  -3.113  12.326  1.00  0.00     0.275 C 
BRANCH  37  38
HETATM   38  N1  UNL     1      12.119  -3.608  13.066  1.00  0.00     0.080 N 
HETATM   39  C1  UNL     1      10.859  -3.491  12.380  1.00  0.00     0.309 C 
HETATM   40  C2  UNL     1      12.299  -4.979  13.491  1.00  0.00     0.309 C 
ENDBRANCH  37  38
ENDBRANCH   1  37
TORSDOF 9
ENDMDL
MODEL 5
REMARK VINA RESULT: -5.748122842      2.349      6.389
REMARK  9 active torsions:
REMARK  status: ('A' for Active; 'I' for Inactive)
REMARK    1  A    between atoms: N1_2  and  C3_4 
REMARK    2  A    between atoms: C3_4  and  C4_5 
REMARK    3  A    between atoms: N2_15  and  O1_17 
REMARK    4  A    between atoms: O1_17  and  C14_18 
REMARK    5  A    between atoms: C14_18  and  C15_19 
REMARK    6  A    between atoms: C15_19  and  C16_20 
REMARK    7  A    between atoms: C16_20  and  C17_21 
REMARK    8  A    between atoms: C17_21  and  C18_22 
REMARK    9  A    between atoms: C20_25  and  O2_26 
ROOT
HETATM    1  C4  UNL     1      14.002  -2.628  10.718  1.00  0.00     0.015 C 
HETATM    2  C5  UNL     1      14.480  -1.207  10.650  1.00  0.00     0.007 C 
HETATM    3  C6  UNL     1      15.933  -0.962  10.659  1.00  0.00     0.015 C 
HETATM    4  C7  UNL     1      16.386   0.192  11.560  1.00  0.00    -0.005 C 
HETATM    5  C8  UNL     1      15.660   1.369  10.911  1.00  0.00     0.021 C 
HETATM    6  C9  UNL     1      15.812   0.090  12.955  1.00  0.00    -0.041 C 
HETATM    7  C10 UNL     1      16.290   1.090  13.917  1.00  0.00    -0.000 C 
HETATM    8  C11 UNL     1      17.399   1.979  13.787  1.00  0.00     0.042 C 
HETATM    9  C12 UNL     1      17.404   2.973  14.977  1.00  0.00     0.029 C 
HETATM   10  C13 UNL     1      17.753   2.636  12.522  1.00  0.00     0.032 C 
HETATM   11  N2  UNL     1      17.488   3.775  12.014  1.00  0.00    -0.273 N 
ATOM     12  H2  UNL     1      16.907   4.399  12.574  1.00  0.00     0.193 HD
HETATM   13  C19 UNL     1      18.516   1.428  12.231  1.00  0.00     0.077 C 
HETATM   14  C20 UNL     1      18.790   1.381  13.688  1.00  0.00     0.146 C 
HETATM   15  C21 UNL     1      17.883   0.308  11.533  1.00  0.00    -0.004 C 
HETATM   16  C22 UNL     1      18.283   0.612  10.058  1.00  0.00     0.021 C 
HETATM   17  C23 UNL     1      18.588  -0.963  11.862  1.00  0.00    -0.015 C 
HETATM   18  C24 UNL     1      18.104  -2.008  12.698  1.00  0.00     0.005 C 
HETATM   19  C25 UNL     1      16.793  -2.135  13.316  1.00  0.00    -0.048 C 
HETATM   20  C26 UNL     1      15.698  -1.320  13.508  1.00  0.00    -0.023 C 
HETATM   21  C27 UNL     1      14.524  -1.823  14.205  1.00  0.00     0.009 C 
HETATM   22  C28 UNL     1      14.022  -3.058  13.869  1.00  0.00    -0.017 C 
HETATM   23  C29 UNL     1      14.546  -3.989  12.851  1.00  0.00    -0.026 C 
HETATM   24  C30 UNL     1      13.625  -5.231  12.966  1.00  0.00     0.019 C 
HETATM   25  C31 UNL     1      15.917  -4.536  13.310  1.00  0.00     0.018 C 
HETATM   26  C32 UNL     1      16.934  -3.595  13.731  1.00  0.00     0.040 C 
HETATM   27  C33 UNL     1      14.732  -3.624  11.466  1.00  0.00     0.019 C 
ENDROOT
BRANCH  11  28
HETATM   28  O1  UNL     1      17.899   4.250  10.803  1.00  0.00    -0.281 OA
BRANCH  28  29
HETATM   29  C14 UNL     1      16.939   4.763   9.849  1.00  0.00     0.201 C 
BRANCH  29  30
HETATM   30  C15 UNL     1      17.072   3.970   8.597  1.00  0.00     0.029 C 
BRANCH  30  31
HETATM   31  C16 UNL     1      15.826   3.584   7.929  1.00  0.00     0.003 C 
BRANCH  31  32
HETATM   32  C17 UNL     1      14.673   4.470   7.976  1.00  0.00     0.011 C 
BRANCH  32  33
HETATM   33  C18 UNL     1      13.342   3.959   7.577  1.00  0.00     0.086 C 
HETATM   34  S1  UNL     1      13.387   2.138   7.966  1.00  0.00    -0.098 SA
ENDBRANCH  32  33
ENDBRANCH  31  32
ENDBRANCH  30  31
ENDBRANCH  29  30
ENDBRANCH  28  29
ENDBRANCH  11  28
BRANCH  14  35
HETATM   35  O2  UNL     1      19.142   0.348  14.418  1.00  0.00    -0.393 OA
ATOM     36  H2  UNL     1      19.957  -0.114  14.260  1.00  0.00     0.210 HD
ENDBRANCH  14  35
BRANCH   1  37
HETATM   37  C3  UNL     1      12.505  -2.580  11.019  1.00  0.00     0.275 C 
BRANCH  37  38
HETATM   38  N1  UNL     1      11.948  -1.264  10.825  1.00  0.00     0.080 N 
HETATM   39  C1  UNL     1      11.128  -1.130   9.651  1.00  0.00     0.309 C 
HETATM   40  C2  UNL     1      11.199  -0.812  11.978  1.00  0.00     0.309 C 
ENDBRANCH  37  38
ENDBRANCH   1  37
TORSDOF 9
ENDMDL
