MODEL 1
REMARK VINA RESULT: -7.141728694      0.000      0.000
REMARK  11 active torsions:
REMARK  status: ('A' for Active; 'I' for Inactive)
REMARK    1  A    between atoms: N1_2  and  C2_4 
REMARK    2  A    between atoms: C2_4  and  C4_6 
REMARK       I    between atoms: C4_6  and  N2_8 
REMARK    3  A    between atoms: N2_8  and  C5_10 
REMARK    4  A    between atoms: C5_10  and  C6_11 
REMARK    5  A    between atoms: C5_10  and  C23_35 
REMARK       I    between atoms: C6_11  and  N3_13 
REMARK    6  A    between atoms: N3_13  and  C7_15 
REMARK    7  A    between atoms: C7_15  and  C8_16 
REMARK    8  A    between atoms: C7_15  and  C12_20 
REMARK    9  A    between atoms: C8_16  and  C9_17 
REMARK       I    between atoms: C12_20  and  N4_22 
REMARK   10  A    between atoms: C16_26  and  O4_27 
REMARK   11  A    between atoms: C18_30  and  C19_31 
ROOT
HETATM    1  C7  UNL     1     -38.602  56.184   3.317  1.00  0.00     0.177 C 
ENDROOT
BRANCH   1   2
HETATM    2  N3  UNL     1     -39.499  57.338   2.908  1.00  0.00    -0.346 N 
HETATM    3  C6  UNL     1     -39.088  58.651   2.959  1.00  0.00     0.241 C 
HETATM    4  O2  UNL     1     -37.888  58.856   3.395  1.00  0.00    -0.271 OA
ATOM      5  H3  UNL     1     -40.444  57.133   2.583  1.00  0.00     0.163 HD
BRANCH   3   6
HETATM    6  C5  UNL     1     -39.802  59.885   2.598  1.00  0.00     0.180 C 
BRANCH   6   7
HETATM    7  N2  UNL     1     -40.709  59.619   1.487  1.00  0.00    -0.346 N 
HETATM    8  C4  UNL     1     -42.120  59.544   1.666  1.00  0.00     0.240 C 
HETATM    9  O1  UNL     1     -42.659  59.698   2.785  1.00  0.00    -0.271 OA
ATOM     10  H2  UNL     1     -40.322  59.482   0.554  1.00  0.00     0.163 HD
BRANCH   8  11
HETATM   11  C2  UNL     1     -42.987  59.278   0.499  1.00  0.00     0.165 C 
HETATM   12  C3  UNL     1     -44.176  58.412   0.876  1.00  0.00     0.042 C 
BRANCH  11  13
HETATM   13  N1  UNL     1     -42.354  58.725  -0.643  1.00  0.00    -0.414 N 
HETATM   14  C1  UNL     1     -42.830  59.179  -1.915  1.00  0.00     0.140 C 
ATOM     15  H1  UNL     1     -41.600  58.042  -0.563  1.00  0.00     0.153 HD
ENDBRANCH  11  13
ENDBRANCH   8  11
ENDBRANCH   6   7
BRANCH   6  16
HETATM   16  C23 UNL     1     -38.965  61.093   2.360  1.00  0.00     0.009 C 
HETATM   17  C24 UNL     1     -38.451  61.035   0.902  1.00  0.00     0.012 C 
HETATM   18  C25 UNL     1     -39.894  62.321   2.363  1.00  0.00     0.012 C 
ENDBRANCH   6  16
ENDBRANCH   3   6
ENDBRANCH   1   2
BRANCH   1  19
HETATM   19  C8  UNL     1     -39.268  55.049   2.632  1.00  0.00     0.038 C 
BRANCH  19  20
HETATM   20  C9  UNL     1     -38.572  54.239   1.627  1.00  0.00    -0.020 C 
HETATM   21  C10 UNL     1     -37.590  53.331   2.429  1.00  0.00     0.009 C 
HETATM   22  C11 UNL     1     -39.593  53.240   1.024  1.00  0.00     0.009 C 
ENDBRANCH  19  20
ENDBRANCH   1  19
BRANCH   1  23
HETATM   23  C12 UNL     1     -38.723  56.140   4.827  1.00  0.00     0.243 C 
HETATM   24  O3  UNL     1     -39.901  55.992   5.206  1.00  0.00    -0.271 OA
HETATM   25  N4  UNL     1     -37.659  56.260   5.703  1.00  0.00    -0.345 N 
HETATM   26  C13 UNL     1     -36.392  56.412   4.928  1.00  0.00     0.126 C 
HETATM   27  C18 UNL     1     -37.662  56.273   7.105  1.00  0.00     0.097 C 
HETATM   28  C14 UNL     1     -35.163  56.290   5.784  1.00  0.00     0.022 C 
HETATM   29  C15 UNL     1     -34.962  57.435   6.719  1.00  0.00     0.033 C 
HETATM   30  C16 UNL     1     -36.197  58.305   6.835  1.00  0.00     0.120 C 
HETATM   31  C17 UNL     1     -37.219  57.629   7.694  1.00  0.00     0.057 C 
BRANCH  30  32
HETATM   32  O4  UNL     1     -35.782  59.447   7.563  1.00  0.00    -0.396 OA
ATOM     33  H4  UNL     1     -35.647  59.141   8.453  1.00  0.00     0.210 HD
ENDBRANCH  30  32
BRANCH  27  34
HETATM   34  C19 UNL     1     -38.813  55.855   7.936  1.00  0.00    -0.031 C 
HETATM   35  C20 UNL     1     -39.382  54.504   7.698  1.00  0.00     0.016 C 
HETATM   36  C21 UNL     1     -38.235  55.721   9.408  1.00  0.00     0.016 C 
HETATM   37  C22 UNL     1     -39.909  56.859   8.152  1.00  0.00     0.016 C 
ENDBRANCH  27  34
ENDBRANCH   1  23
TORSDOF 11
ENDMDL
MODEL 2
REMARK VINA RESULT: -7.138326930      0.786      1.060
REMARK  11 active torsions:
REMARK  status: ('A' for Active; 'I' for Inactive)
REMARK    1  A    between atoms: N1_2  and  C2_4 
REMARK    2  A    between atoms: C2_4  and  C4_6 
REMARK       I    between atoms: C4_6  and  N2_8 
REMARK    3  A    between atoms: N2_8  and  C5_10 
REMARK    4  A    between atoms: C5_10  and  C6_11 
REMARK    5  A    between atoms: C5_10  and  C23_35 
REMARK       I    between atoms: C6_11  and  N3_13 
REMARK    6  A    between atoms: N3_13  and  C7_15 
REMARK    7  A    between atoms: C7_15  and  C8_16 
REMARK    8  A    between atoms: C7_15  and  C12_20 
REMARK    9  A    between atoms: C8_16  and  C9_17 
REMARK       I    between atoms: C12_20  and  N4_22 
REMARK   10  A    between atoms: C16_26  and  O4_27 
REMARK   11  A    between atoms: C18_30  and  C19_31 
ROOT
HETATM    1  C7  UNL     1     -38.721  56.090   3.385  1.00  0.00     0.177 C 
ENDROOT
BRANCH   1   2
HETATM    2  N3  UNL     1     -39.755  57.131   2.997  1.00  0.00    -0.346 N 
HETATM    3  C6  UNL     1     -39.507  58.484   3.065  1.00  0.00     0.241 C 
HETATM    4  O2  UNL     1     -38.338  58.828   3.499  1.00  0.00    -0.271 OA
ATOM      5  H3  UNL     1     -40.670  56.816   2.673  1.00  0.00     0.163 HD
BRANCH   3   6
HETATM    6  C5  UNL     1     -40.369  59.626   2.725  1.00  0.00     0.180 C 
BRANCH   6   7
HETATM    7  N2  UNL     1     -41.297  59.241   1.666  1.00  0.00    -0.346 N 
HETATM    8  C4  UNL     1     -42.592  58.724   1.950  1.00  0.00     0.240 C 
HETATM    9  O1  UNL     1     -43.005  58.567   3.120  1.00  0.00    -0.271 OA
ATOM     10  H2  UNL     1     -41.008  59.346   0.694  1.00  0.00     0.163 HD
BRANCH   8  11
HETATM   11  C2  UNL     1     -43.489  58.358   0.833  1.00  0.00     0.165 C 
HETATM   12  C3  UNL     1     -43.587  59.475  -0.190  1.00  0.00     0.042 C 
BRANCH  11  13
HETATM   13  N1  UNL     1     -44.796  57.937   1.187  1.00  0.00    -0.414 N 
HETATM   14  C1  UNL     1     -45.857  58.858   0.913  1.00  0.00     0.140 C 
ATOM     15  H1  UNL     1     -44.970  57.026   1.612  1.00  0.00     0.153 HD
ENDBRANCH  11  13
ENDBRANCH   8  11
ENDBRANCH   6   7
BRANCH   6  16
HETATM   16  C23 UNL     1     -39.682  60.912   2.427  1.00  0.00     0.009 C 
HETATM   17  C24 UNL     1     -38.961  60.762   1.066  1.00  0.00     0.012 C 
HETATM   18  C25 UNL     1     -40.763  61.972   2.142  1.00  0.00     0.012 C 
ENDBRANCH   6  16
ENDBRANCH   3   6
ENDBRANCH   1   2
BRANCH   1  19
HETATM   19  C8  UNL     1     -39.280  54.878   2.739  1.00  0.00     0.038 C 
BRANCH  19  20
HETATM   20  C9  UNL     1     -38.578  54.191   1.649  1.00  0.00    -0.020 C 
HETATM   21  C10 UNL     1     -37.531  53.267   2.345  1.00  0.00     0.009 C 
HETATM   22  C11 UNL     1     -39.570  53.197   0.991  1.00  0.00     0.009 C 
ENDBRANCH  19  20
ENDBRANCH   1  19
BRANCH   1  23
HETATM   23  C12 UNL     1     -38.783  56.057   4.899  1.00  0.00     0.243 C 
HETATM   24  O3  UNL     1     -39.939  55.873   5.325  1.00  0.00    -0.271 OA
HETATM   25  N4  UNL     1     -37.690  56.220   5.732  1.00  0.00    -0.345 N 
HETATM   26  C13 UNL     1     -36.460  56.408   4.907  1.00  0.00     0.126 C 
HETATM   27  C18 UNL     1     -37.640  56.246   7.133  1.00  0.00     0.097 C 
HETATM   28  C14 UNL     1     -35.196  56.334   5.716  1.00  0.00     0.022 C 
HETATM   29  C15 UNL     1     -34.997  57.495   6.633  1.00  0.00     0.033 C 
HETATM   30  C16 UNL     1     -36.255  58.324   6.789  1.00  0.00     0.120 C 
HETATM   31  C17 UNL     1     -37.221  57.622   7.693  1.00  0.00     0.057 C 
BRANCH  30  32
HETATM   32  O4  UNL     1     -35.851  59.486   7.492  1.00  0.00    -0.396 OA
ATOM     33  H4  UNL     1     -36.581  60.091   7.415  1.00  0.00     0.210 HD
ENDBRANCH  30  32
BRANCH  27  34
HETATM   34  C19 UNL     1     -38.743  55.798   8.011  1.00  0.00    -0.031 C 
HETATM   35  C20 UNL     1     -39.276  54.428   7.805  1.00  0.00     0.016 C 
HETATM   36  C21 UNL     1     -38.104  55.696   9.461  1.00  0.00     0.016 C 
HETATM   37  C22 UNL     1     -39.863  56.768   8.263  1.00  0.00     0.016 C 
ENDBRANCH  27  34
ENDBRANCH   1  23
TORSDOF 11
ENDMDL
MODEL 3
REMARK VINA RESULT: -7.120793444      2.853      6.794
REMARK  11 active torsions:
REMARK  status: ('A' for Active; 'I' for Inactive)
REMARK    1  A    between atoms: N1_2  and  C2_4 
REMARK    2  A    between atoms: C2_4  and  C4_6 
REMARK       I    between atoms: C4_6  and  N2_8 
REMARK    3  A    between atoms: N2_8  and  C5_10 
REMARK    4  A    between atoms: C5_10  and  C6_11 
REMARK    5  A    between atoms: C5_10  and  C23_35 
REMARK       I    between atoms: C6_11  and  N3_13 
REMARK    6  A    between atoms: N3_13  and  C7_15 
REMARK    7  A    between atoms: C7_15  and  C8_16 
REMARK    8  A    between atoms: C7_15  and  C12_20 
REMARK    9  A    between atoms: C8_16  and  C9_17 
REMARK       I    between atoms: C12_20  and  N4_22 
REMARK   10  A    between atoms: C16_26  and  O4_27 
REMARK   11  A    between atoms: C18_30  and  C19_31 
ROOT
HETATM    1  C7  UNL     1     -37.115  57.404   4.497  1.00  0.00     0.177 C 
ENDROOT
BRANCH   1   2
HETATM    2  N3  UNL     1     -37.291  55.909   4.301  1.00  0.00    -0.346 N 
HETATM    3  C6  UNL     1     -38.011  55.378   3.254  1.00  0.00     0.241 C 
HETATM    4  O2  UNL     1     -38.552  56.230   2.445  1.00  0.00    -0.271 OA
ATOM      5  H3  UNL     1     -36.859  55.272   4.971  1.00  0.00     0.163 HD
BRANCH   3   6
HETATM    6  C5  UNL     1     -38.277  53.975   2.898  1.00  0.00     0.180 C 
BRANCH   6   7
HETATM    7  N2  UNL     1     -37.694  53.682   1.593  1.00  0.00    -0.346 N 
HETATM    8  C4  UNL     1     -36.417  53.066   1.459  1.00  0.00     0.240 C 
HETATM    9  O1  UNL     1     -35.724  52.747   2.451  1.00  0.00    -0.271 OA
ATOM     10  H2  UNL     1     -38.217  53.924   0.752  1.00  0.00     0.163 HD
BRANCH   8  11
HETATM   11  C2  UNL     1     -35.884  52.788   0.109  1.00  0.00     0.165 C 
HETATM   12  C3  UNL     1     -37.000  52.616  -0.905  1.00  0.00     0.042 C 
BRANCH  11  13
HETATM   13  N1  UNL     1     -34.984  51.697   0.000  1.00  0.00    -0.414 N 
HETATM   14  C1  UNL     1     -33.631  52.020  -0.339  1.00  0.00     0.140 C 
ATOM     15  H1  UNL     1     -35.285  50.734   0.155  1.00  0.00     0.153 HD
ENDBRANCH  11  13
ENDBRANCH   8  11
ENDBRANCH   6   7
BRANCH   6  16
HETATM   16  C23 UNL     1     -39.692  53.523   2.994  1.00  0.00     0.009 C 
HETATM   17  C24 UNL     1     -40.031  52.746   1.700  1.00  0.00     0.012 C 
HETATM   18  C25 UNL     1     -39.770  52.442   4.090  1.00  0.00     0.012 C 
ENDBRANCH   6  16
ENDBRANCH   3   6
ENDBRANCH   1   2
BRANCH   1  19
HETATM   19  C8  UNL     1     -36.041  57.433   5.519  1.00  0.00     0.038 C 
BRANCH  19  20
HETATM   20  C9  UNL     1     -35.374  56.207   5.972  1.00  0.00    -0.020 C 
HETATM   21  C10 UNL     1     -33.855  56.559   6.041  1.00  0.00     0.009 C 
HETATM   22  C11 UNL     1     -35.767  55.966   7.452  1.00  0.00     0.009 C 
ENDBRANCH  19  20
ENDBRANCH   1  19
BRANCH   1  23
HETATM   23  C12 UNL     1     -38.462  57.867   5.015  1.00  0.00     0.243 C 
HETATM   24  O3  UNL     1     -38.783  57.303   6.078  1.00  0.00    -0.271 OA
HETATM   25  N4  UNL     1     -39.264  58.804   4.387  1.00  0.00    -0.345 N 
HETATM   26  C13 UNL     1     -38.584  59.289   3.150  1.00  0.00     0.126 C 
HETATM   27  C18 UNL     1     -40.533  59.273   4.754  1.00  0.00     0.097 C 
HETATM   28  C14 UNL     1     -39.257  60.489   2.544  1.00  0.00     0.022 C 
HETATM   29  C15 UNL     1     -40.587  60.192   1.935  1.00  0.00     0.033 C 
HETATM   30  C16 UNL     1     -41.113  58.830   2.342  1.00  0.00     0.120 C 
HETATM   31  C17 UNL     1     -41.633  58.881   3.745  1.00  0.00     0.057 C 
BRANCH  30  32
HETATM   32  O4  UNL     1     -42.247  58.608   1.523  1.00  0.00    -0.396 OA
ATOM     33  H4  UNL     1     -42.006  58.943   0.666  1.00  0.00     0.210 HD
ENDBRANCH  30  32
BRANCH  27  34
HETATM   34  C19 UNL     1     -41.143  59.059   6.084  1.00  0.00    -0.031 C 
HETATM   35  C20 UNL     1     -40.428  59.599   7.268  1.00  0.00     0.016 C 
HETATM   36  C21 UNL     1     -42.476  59.922   6.074  1.00  0.00     0.016 C 
HETATM   37  C22 UNL     1     -41.694  57.692   6.380  1.00  0.00     0.016 C 
ENDBRANCH  27  34
ENDBRANCH   1  23
TORSDOF 11
ENDMDL
MODEL 4
REMARK VINA RESULT: -7.048921819      1.679      3.381
REMARK  11 active torsions:
REMARK  status: ('A' for Active; 'I' for Inactive)
REMARK    1  A    between atoms: N1_2  and  C2_4 
REMARK    2  A    between atoms: C2_4  and  C4_6 
REMARK       I    between atoms: C4_6  and  N2_8 
REMARK    3  A    between atoms: N2_8  and  C5_10 
REMARK    4  A    between atoms: C5_10  and  C6_11 
REMARK    5  A    between atoms: C5_10  and  C23_35 
REMARK       I    between atoms: C6_11  and  N3_13 
REMARK    6  A    between atoms: N3_13  and  C7_15 
REMARK    7  A    between atoms: C7_15  and  C8_16 
REMARK    8  A    between atoms: C7_15  and  C12_20 
REMARK    9  A    between atoms: C8_16  and  C9_17 
REMARK       I    between atoms: C12_20  and  N4_22 
REMARK   10  A    between atoms: C16_26  and  O4_27 
REMARK   11  A    between atoms: C18_30  and  C19_31 
ROOT
HETATM    1  C7  UNL     1     -38.532  56.080   3.283  1.00  0.00     0.177 C 
ENDROOT
BRANCH   1   2
HETATM    2  N3  UNL     1     -39.413  57.202   2.764  1.00  0.00    -0.346 N 
HETATM    3  C6  UNL     1     -39.011  58.519   2.761  1.00  0.00     0.241 C 
HETATM    4  O2  UNL     1     -37.835  58.757   3.246  1.00  0.00    -0.271 OA
ATOM      5  H3  UNL     1     -40.339  56.972   2.404  1.00  0.00     0.163 HD
BRANCH   3   6
HETATM    6  C5  UNL     1     -39.711  59.725   2.295  1.00  0.00     0.180 C 
BRANCH   6   7
HETATM    7  N2  UNL     1     -39.062  60.912   2.843  1.00  0.00    -0.346 N 
HETATM    8  C4  UNL     1     -38.117  61.668   2.095  1.00  0.00     0.240 C 
HETATM    9  O1  UNL     1     -37.787  61.356   0.929  1.00  0.00    -0.271 OA
ATOM     10  H2  UNL     1     -39.294  61.208   3.791  1.00  0.00     0.163 HD
BRANCH   8  11
HETATM   11  C2  UNL     1     -37.499  62.864   2.704  1.00  0.00     0.165 C 
HETATM   12  C3  UNL     1     -38.413  64.072   2.609  1.00  0.00     0.042 C 
BRANCH  11  13
HETATM   13  N1  UNL     1     -36.210  63.219   2.228  1.00  0.00    -0.414 N 
HETATM   14  C1  UNL     1     -35.319  63.803   3.184  1.00  0.00     0.140 C 
ATOM     15  H1  UNL     1     -35.934  63.067   1.258  1.00  0.00     0.153 HD
ENDBRANCH  11  13
ENDBRANCH   8  11
ENDBRANCH   6   7
BRANCH   6  16
HETATM   16  C23 UNL     1     -41.187  59.754   2.489  1.00  0.00     0.009 C 
HETATM   17  C24 UNL     1     -41.572  61.164   2.996  1.00  0.00     0.012 C 
HETATM   18  C25 UNL     1     -41.849  59.681   1.101  1.00  0.00     0.012 C 
ENDBRANCH   6  16
ENDBRANCH   3   6
ENDBRANCH   1   2
BRANCH   1  19
HETATM   19  C8  UNL     1     -39.171  54.900   2.650  1.00  0.00     0.038 C 
BRANCH  19  20
HETATM   20  C9  UNL     1     -38.503  54.140   1.588  1.00  0.00    -0.020 C 
HETATM   21  C10 UNL     1     -37.484  53.211   2.318  1.00  0.00     0.009 C 
HETATM   22  C11 UNL     1     -39.536  53.154   0.983  1.00  0.00     0.009 C 
ENDBRANCH  19  20
ENDBRANCH   1  19
BRANCH   1  23
HETATM   23  C12 UNL     1     -38.713  56.136   4.788  1.00  0.00     0.243 C 
HETATM   24  O3  UNL     1     -39.904  56.008   5.129  1.00  0.00    -0.271 OA
HETATM   25  N4  UNL     1     -37.684  56.318   5.695  1.00  0.00    -0.345 N 
HETATM   26  C13 UNL     1     -36.388  56.425   4.961  1.00  0.00     0.126 C 
HETATM   27  C18 UNL     1     -37.743  56.423   7.091  1.00  0.00     0.097 C 
HETATM   28  C14 UNL     1     -35.194  56.364   5.871  1.00  0.00     0.022 C 
HETATM   29  C15 UNL     1     -35.032  57.570   6.735  1.00  0.00     0.033 C 
HETATM   30  C16 UNL     1     -36.272  58.440   6.744  1.00  0.00     0.120 C 
HETATM   31  C17 UNL     1     -37.326  57.818   7.605  1.00  0.00     0.057 C 
BRANCH  30  32
HETATM   32  O4  UNL     1     -35.888  59.630   7.411  1.00  0.00    -0.396 OA
ATOM     33  H4  UNL     1     -36.683  60.147   7.477  1.00  0.00     0.210 HD
ENDBRANCH  30  32
BRANCH  27  34
HETATM   34  C19 UNL     1     -38.924  56.056   7.902  1.00  0.00    -0.031 C 
HETATM   35  C20 UNL     1     -39.429  54.664   7.795  1.00  0.00     0.016 C 
HETATM   36  C21 UNL     1     -38.429  56.119   9.409  1.00  0.00     0.016 C 
HETATM   37  C22 UNL     1     -40.067  57.031   7.938  1.00  0.00     0.016 C 
ENDBRANCH  27  34
ENDBRANCH   1  23
TORSDOF 11
ENDMDL
MODEL 5
REMARK VINA RESULT: -6.799515993      1.879      2.474
REMARK  11 active torsions:
REMARK  status: ('A' for Active; 'I' for Inactive)
REMARK    1  A    between atoms: N1_2  and  C2_4 
REMARK    2  A    between atoms: C2_4  and  C4_6 
REMARK       I    between atoms: C4_6  and  N2_8 
REMARK    3  A    between atoms: N2_8  and  C5_10 
REMARK    4  A    between atoms: C5_10  and  C6_11 
REMARK    5  A    between atoms: C5_10  and  C23_35 
REMARK       I    between atoms: C6_11  and  N3_13 
REMARK    6  A    between atoms: N3_13  and  C7_15 
REMARK    7  A    between atoms: C7_15  and  C8_16 
REMARK    8  A    between atoms: C7_15  and  C12_20 
REMARK    9  A    between atoms: C8_16  and  C9_17 
REMARK       I    between atoms: C12_20  and  N4_22 
REMARK   10  A    between atoms: C16_26  and  O4_27 
REMARK   11  A    between atoms: C18_30  and  C19_31 
ROOT
HETATM    1  C7  UNL     1     -38.885  56.023   3.394  1.00  0.00     0.177 C 
ENDROOT
BRANCH   1   2
HETATM    2  N3  UNL     1     -40.107  56.844   3.024  1.00  0.00    -0.346 N 
HETATM    3  C6  UNL     1     -40.108  58.221   3.041  1.00  0.00     0.241 C 
HETATM    4  O2  UNL     1     -39.006  58.787   3.411  1.00  0.00    -0.271 OA
ATOM      5  H3  UNL     1     -40.961  56.357   2.752  1.00  0.00     0.163 HD
BRANCH   3   6
HETATM    6  C5  UNL     1     -41.178  59.175   2.708  1.00  0.00     0.180 C 
BRANCH   6   7
HETATM    7  N2  UNL     1     -42.477  58.567   2.978  1.00  0.00    -0.346 N 
HETATM    8  C4  UNL     1     -43.375  59.106   3.942  1.00  0.00     0.240 C 
HETATM    9  O1  UNL     1     -43.100  60.126   4.613  1.00  0.00    -0.271 OA
ATOM     10  H2  UNL     1     -42.749  57.732   2.460  1.00  0.00     0.163 HD
BRANCH   8  11
HETATM   11  C2  UNL     1     -44.680  58.449   4.165  1.00  0.00     0.165 C 
HETATM   12  C3  UNL     1     -45.670  59.389   4.828  1.00  0.00     0.042 C 
BRANCH  11  13
HETATM   13  N1  UNL     1     -44.655  57.223   4.877  1.00  0.00    -0.414 N 
HETATM   14  C1  UNL     1     -44.783  57.312   6.300  1.00  0.00     0.140 C 
ATOM     15  H1  UNL     1     -44.551  56.326   4.401  1.00  0.00     0.153 HD
ENDBRANCH  11  13
ENDBRANCH   8  11
ENDBRANCH   6   7
BRANCH   6  16
HETATM   16  C23 UNL     1     -41.119  59.793   1.355  1.00  0.00     0.009 C 
HETATM   17  C24 UNL     1     -42.344  59.296   0.552  1.00  0.00     0.012 C 
HETATM   18  C25 UNL     1     -41.384  61.303   1.513  1.00  0.00     0.012 C 
ENDBRANCH   6  16
ENDBRANCH   3   6
ENDBRANCH   1   2
BRANCH   1  19
HETATM   19  C8  UNL     1     -39.224  54.716   2.780  1.00  0.00     0.038 C 
BRANCH  19  20
HETATM   20  C9  UNL     1     -38.452  54.167   1.660  1.00  0.00    -0.020 C 
HETATM   21  C10 UNL     1     -37.411  53.200   2.305  1.00  0.00     0.009 C 
HETATM   22  C11 UNL     1     -39.381  53.225   0.852  1.00  0.00     0.009 C 
ENDBRANCH  19  20
ENDBRANCH   1  19
BRANCH   1  23
HETATM   23  C12 UNL     1     -38.900  56.006   4.910  1.00  0.00     0.243 C 
HETATM   24  O3  UNL     1     -40.034  55.779   5.373  1.00  0.00    -0.271 OA
HETATM   25  N4  UNL     1     -37.790  56.224   5.707  1.00  0.00    -0.345 N 
HETATM   26  C13 UNL     1     -36.595  56.453   4.842  1.00  0.00     0.126 C 
HETATM   27  C18 UNL     1     -37.699  56.270   7.105  1.00  0.00     0.097 C 
HETATM   28  C14 UNL     1     -35.305  56.442   5.613  1.00  0.00     0.022 C 
HETATM   29  C15 UNL     1     -35.127  57.621   6.510  1.00  0.00     0.033 C 
HETATM   30  C16 UNL     1     -36.414  58.399   6.697  1.00  0.00     0.120 C 
HETATM   31  C17 UNL     1     -37.321  57.668   7.637  1.00  0.00     0.057 C 
BRANCH  30  32
HETATM   32  O4  UNL     1     -36.038  59.585   7.374  1.00  0.00    -0.396 OA
ATOM     33  H4  UNL     1     -36.669  59.681   8.079  1.00  0.00     0.210 HD
ENDBRANCH  30  32
BRANCH  27  34
HETATM   34  C19 UNL     1     -38.755  55.786   8.022  1.00  0.00    -0.031 C 
HETATM   35  C20 UNL     1     -39.258  54.403   7.827  1.00  0.00     0.016 C 
HETATM   36  C21 UNL     1     -38.058  55.693   9.445  1.00  0.00     0.016 C 
HETATM   37  C22 UNL     1     -39.890  56.724   8.323  1.00  0.00     0.016 C 
ENDBRANCH  27  34
ENDBRANCH   1  23
TORSDOF 11
ENDMDL
