MODEL 1
REMARK VINA RESULT: -7.766696726      0.000      0.000
REMARK  10 active torsions:
REMARK  status: ('A' for Active; 'I' for Inactive)
REMARK    1  A    between atoms: O1_2  and  C2_3 
REMARK    2  A    between atoms: C2_3  and  C3_5 
REMARK    3  A    between atoms: C3_5  and  C5_7 
REMARK    4  A    between atoms: C5_7  and  C6_8 
REMARK    5  A    between atoms: C6_8  and  C7_9 
REMARK    6  A    between atoms: C7_9  and  C8_10 
REMARK    7  A    between atoms: C8_10  and  C9_11 
REMARK    8  A    between atoms: C9_11  and  C10_12 
REMARK    9  A    between atoms: C19_27  and  C20_28 
REMARK   10  A    between atoms: C20_28  and  C21_29 
ROOT
HETATM    1  C10 UNL     1     -38.349  55.958   4.342  1.00  0.00     0.079 C 
HETATM    2  C11 UNL     1     -37.064  56.753   4.185  1.00  0.00     0.014 C 
HETATM    3  C12 UNL     1     -36.827  57.658   5.373  1.00  0.00     0.002 C 
HETATM    4  C13 UNL     1     -35.402  57.801   5.779  1.00  0.00     0.020 C 
HETATM    5  C14 UNL     1     -35.195  57.244   7.186  1.00  0.00     0.122 C 
HETATM    6  N1  UNL     1     -35.994  56.049   7.339  1.00  0.00    -0.359 N 
ATOM      7  H1  UNL     1     -36.091  55.475   6.502  1.00  0.00     0.162 HD
HETATM    8  C15 UNL     1     -36.652  55.572   8.477  1.00  0.00     0.240 C 
HETATM    9  O3  UNL     1     -36.354  54.372   8.838  1.00  0.00    -0.271 OA
HETATM   10  C16 UNL     1     -37.647  56.239   9.339  1.00  0.00     0.172 C 
HETATM   11  C17 UNL     1     -37.651  57.721   9.316  1.00  0.00     0.042 C 
HETATM   12  N2  UNL     1     -38.967  55.631   9.205  1.00  0.00    -0.346 N 
ATOM     13  H2  UNL     1     -39.281  55.080  10.004  1.00  0.00     0.163 HD
HETATM   14  C18 UNL     1     -39.849  55.698   8.143  1.00  0.00     0.242 C 
HETATM   15  O4  UNL     1     -40.228  54.601   7.595  1.00  0.00    -0.271 OA
HETATM   16  C19 UNL     1     -40.447  56.942   7.524  1.00  0.00     0.191 C 
HETATM   17  N3  UNL     1     -40.959  56.658   6.229  1.00  0.00    -0.320 N 
ATOM     18  H3  UNL     1     -41.724  55.998   6.090  1.00  0.00     0.181 HD
HETATM   19  N4  UNL     1     -40.368  57.320   5.165  1.00  0.00    -0.273 N 
ATOM     20  H4  UNL     1     -40.527  58.327   5.120  1.00  0.00     0.189 HD
HETATM   21  C24 UNL     1     -39.569  56.768   4.128  1.00  0.00     0.239 C 
HETATM   22  O5  UNL     1     -39.938  56.992   2.915  1.00  0.00    -0.271 OA
ENDROOT
BRANCH   1  23
HETATM   23  C9  UNL     1     -38.249  54.742   3.510  1.00  0.00     0.014 C 
BRANCH  23  24
HETATM   24  C8  UNL     1     -39.289  53.695   3.676  1.00  0.00     0.001 C 
BRANCH  24  25
HETATM   25  C7  UNL     1     -39.689  53.108   2.324  1.00  0.00     0.000 C 
BRANCH  25  26
HETATM   26  C6  UNL     1     -39.041  53.781   1.157  1.00  0.00     0.001 C 
BRANCH  26  27
HETATM   27  C5  UNL     1     -38.271  52.856   0.280  1.00  0.00     0.014 C 
BRANCH  27  28
HETATM   28  C3  UNL     1     -36.843  53.195   0.116  1.00  0.00     0.081 C 
HETATM   29  C4  UNL     1     -36.452  52.932  -1.348  1.00  0.00     0.020 C 
BRANCH  28  30
HETATM   30  C2  UNL     1     -35.897  52.493   0.971  1.00  0.00     0.262 C 
HETATM   31  O2  UNL     1     -35.950  52.507   2.203  1.00  0.00    -0.265 OA
BRANCH  30  32
HETATM   32  O1  UNL     1     -34.850  51.740   0.411  1.00  0.00    -0.326 OA
HETATM   33  C1  UNL     1     -33.504  52.092   0.572  1.00  0.00     0.213 C 
ENDBRANCH  30  32
ENDBRANCH  28  30
ENDBRANCH  27  28
ENDBRANCH  26  27
ENDBRANCH  25  26
ENDBRANCH  24  25
ENDBRANCH  23  24
ENDBRANCH   1  23
BRANCH  16  34
HETATM   34  C20 UNL     1     -41.537  57.470   8.408  1.00  0.00     0.040 C 
BRANCH  34  35
HETATM   35  C21 UNL     1     -41.621  58.927   8.619  1.00  0.00    -0.020 C 
HETATM   36  C22 UNL     1     -42.847  59.394   7.782  1.00  0.00     0.009 C 
HETATM   37  C23 UNL     1     -40.489  59.738   7.983  1.00  0.00     0.009 C 
ENDBRANCH  34  35
ENDBRANCH  16  34
TORSDOF 10
ENDMDL
MODEL 2
REMARK VINA RESULT: -7.638626320      1.246      1.560
REMARK  10 active torsions:
REMARK  status: ('A' for Active; 'I' for Inactive)
REMARK    1  A    between atoms: O1_2  and  C2_3 
REMARK    2  A    between atoms: C2_3  and  C3_5 
REMARK    3  A    between atoms: C3_5  and  C5_7 
REMARK    4  A    between atoms: C5_7  and  C6_8 
REMARK    5  A    between atoms: C6_8  and  C7_9 
REMARK    6  A    between atoms: C7_9  and  C8_10 
REMARK    7  A    between atoms: C8_10  and  C9_11 
REMARK    8  A    between atoms: C9_11  and  C10_12 
REMARK    9  A    between atoms: C19_27  and  C20_28 
REMARK   10  A    between atoms: C20_28  and  C21_29 
ROOT
HETATM    1  C10 UNL     1     -38.803  55.720   4.487  1.00  0.00     0.079 C 
HETATM    2  C11 UNL     1     -37.309  55.687   4.209  1.00  0.00     0.014 C 
HETATM    3  C12 UNL     1     -36.578  56.748   4.999  1.00  0.00     0.002 C 
HETATM    4  C13 UNL     1     -35.235  56.346   5.498  1.00  0.00     0.020 C 
HETATM    5  C14 UNL     1     -35.217  56.343   7.026  1.00  0.00     0.122 C 
HETATM    6  N1  UNL     1     -36.479  55.828   7.508  1.00  0.00    -0.359 N 
ATOM      7  H1  UNL     1     -36.903  55.098   6.936  1.00  0.00     0.162 HD
HETATM    8  C15 UNL     1     -37.198  56.194   8.650  1.00  0.00     0.240 C 
HETATM    9  O3  UNL     1     -37.489  55.238   9.462  1.00  0.00    -0.271 OA
HETATM   10  C16 UNL     1     -37.681  57.523   9.073  1.00  0.00     0.172 C 
HETATM   11  C17 UNL     1     -36.973  58.694   8.505  1.00  0.00     0.042 C 
HETATM   12  N2  UNL     1     -39.137  57.610   9.010  1.00  0.00    -0.346 N 
ATOM     13  H2  UNL     1     -39.617  57.626   9.910  1.00  0.00     0.163 HD
HETATM   14  C18 UNL     1     -39.954  57.673   7.897  1.00  0.00     0.242 C 
HETATM   15  O4  UNL     1     -40.855  56.770   7.750  1.00  0.00    -0.271 OA
HETATM   16  C19 UNL     1     -39.924  58.707   6.793  1.00  0.00     0.191 C 
HETATM   17  N3  UNL     1     -40.603  58.227   5.642  1.00  0.00    -0.320 N 
ATOM     18  H3  UNL     1     -41.600  58.010   5.661  1.00  0.00     0.181 HD
HETATM   19  N4  UNL     1     -39.849  58.069   4.491  1.00  0.00    -0.273 N 
ATOM     20  H4  UNL     1     -39.506  58.926   4.058  1.00  0.00     0.189 HD
HETATM   21  C24 UNL     1     -39.494  56.857   3.840  1.00  0.00     0.239 C 
HETATM   22  O5  UNL     1     -39.799  56.744   2.593  1.00  0.00    -0.271 OA
ENDROOT
BRANCH   1  23
HETATM   23  C9  UNL     1     -39.364  54.389   4.182  1.00  0.00     0.014 C 
BRANCH  23  24
HETATM   24  C8  UNL     1     -38.673  53.557   3.164  1.00  0.00     0.001 C 
BRANCH  24  25
HETATM   25  C7  UNL     1     -39.627  53.180   2.033  1.00  0.00     0.000 C 
BRANCH  25  26
HETATM   26  C6  UNL     1     -39.157  53.603   0.678  1.00  0.00     0.001 C 
BRANCH  26  27
HETATM   27  C5  UNL     1     -38.197  52.653   0.051  1.00  0.00     0.014 C 
BRANCH  27  28
HETATM   28  C3  UNL     1     -36.808  53.146  -0.055  1.00  0.00     0.081 C 
HETATM   29  C4  UNL     1     -36.366  53.024  -1.523  1.00  0.00     0.020 C 
BRANCH  28  30
HETATM   30  C2  UNL     1     -35.812  52.486   0.776  1.00  0.00     0.262 C 
HETATM   31  O2  UNL     1     -35.826  52.510   2.008  1.00  0.00    -0.265 OA
BRANCH  30  32
HETATM   32  O1  UNL     1     -34.756  51.765   0.189  1.00  0.00    -0.326 OA
HETATM   33  C1  UNL     1     -33.412  52.079   0.425  1.00  0.00     0.213 C 
ENDBRANCH  30  32
ENDBRANCH  28  30
ENDBRANCH  27  28
ENDBRANCH  26  27
ENDBRANCH  25  26
ENDBRANCH  24  25
ENDBRANCH  23  24
ENDBRANCH   1  23
BRANCH  16  34
HETATM   34  C20 UNL     1     -40.555  59.979   7.277  1.00  0.00     0.040 C 
BRANCH  34  35
HETATM   35  C21 UNL     1     -39.923  61.258   6.904  1.00  0.00    -0.020 C 
HETATM   36  C22 UNL     1     -40.812  61.839   5.766  1.00  0.00     0.009 C 
HETATM   37  C23 UNL     1     -38.570  61.129   6.201  1.00  0.00     0.009 C 
ENDBRANCH  34  35
ENDBRANCH  16  34
TORSDOF 10
ENDMDL
MODEL 3
REMARK VINA RESULT: -7.600473415      4.033      6.261
REMARK  10 active torsions:
REMARK  status: ('A' for Active; 'I' for Inactive)
REMARK    1  A    between atoms: O1_2  and  C2_3 
REMARK    2  A    between atoms: C2_3  and  C3_5 
REMARK    3  A    between atoms: C3_5  and  C5_7 
REMARK    4  A    between atoms: C5_7  and  C6_8 
REMARK    5  A    between atoms: C6_8  and  C7_9 
REMARK    6  A    between atoms: C7_9  and  C8_10 
REMARK    7  A    between atoms: C8_10  and  C9_11 
REMARK    8  A    between atoms: C9_11  and  C10_12 
REMARK    9  A    between atoms: C19_27  and  C20_28 
REMARK   10  A    between atoms: C20_28  and  C21_29 
ROOT
HETATM    1  C10 UNL     1     -37.834  58.717   4.774  1.00  0.00     0.079 C 
HETATM    2  C11 UNL     1     -38.904  58.360   5.792  1.00  0.00     0.014 C 
HETATM    3  C12 UNL     1     -40.065  59.327   5.734  1.00  0.00     0.002 C 
HETATM    4  C13 UNL     1     -41.403  58.717   5.960  1.00  0.00     0.020 C 
HETATM    5  C14 UNL     1     -42.269  58.861   4.710  1.00  0.00     0.122 C 
HETATM    6  N1  UNL     1     -41.442  58.657   3.542  1.00  0.00    -0.359 N 
ATOM      7  H1  UNL     1     -40.693  57.973   3.647  1.00  0.00     0.162 HD
HETATM    8  C15 UNL     1     -41.527  59.268   2.287  1.00  0.00     0.240 C 
HETATM    9  O3  UNL     1     -41.634  58.473   1.280  1.00  0.00    -0.271 OA
HETATM   10  C16 UNL     1     -41.514  60.702   1.935  1.00  0.00     0.172 C 
HETATM   11  C17 UNL     1     -41.911  61.647   3.005  1.00  0.00     0.042 C 
HETATM   12  N2  UNL     1     -40.290  61.069   1.229  1.00  0.00    -0.346 N 
ATOM     13  H2  UNL     1     -40.399  61.269   0.234  1.00  0.00     0.163 HD
HETATM   14  C18 UNL     1     -39.005  61.184   1.723  1.00  0.00     0.242 C 
HETATM   15  O4  UNL     1     -38.082  60.468   1.192  1.00  0.00    -0.271 OA
HETATM   16  C19 UNL     1     -38.530  62.078   2.848  1.00  0.00     0.191 C 
HETATM   17  N3  UNL     1     -37.276  61.633   3.343  1.00  0.00    -0.320 N 
ATOM     18  H3  UNL     1     -36.443  61.621   2.755  1.00  0.00     0.181 HD
HETATM   19  N4  UNL     1     -37.238  61.215   4.664  1.00  0.00    -0.273 N 
ATOM     20  H4  UNL     1     -37.374  61.941   5.367  1.00  0.00     0.189 HD
HETATM   21  C24 UNL     1     -37.031  59.899   5.158  1.00  0.00     0.239 C 
HETATM   22  O5  UNL     1     -36.073  59.728   6.001  1.00  0.00    -0.271 OA
ENDROOT
BRANCH   1  23
HETATM   23  C9  UNL     1     -37.054  57.500   4.472  1.00  0.00     0.014 C 
BRANCH  23  24
HETATM   24  C8  UNL     1     -37.738  56.186   4.584  1.00  0.00     0.001 C 
BRANCH  24  25
HETATM   25  C7  UNL     1     -38.540  55.882   3.322  1.00  0.00     0.000 C 
BRANCH  25  26
HETATM   26  C6  UNL     1     -38.923  54.444   3.180  1.00  0.00     0.001 C 
BRANCH  26  27
HETATM   27  C5  UNL     1     -37.848  53.589   2.603  1.00  0.00     0.014 C 
BRANCH  27  28
HETATM   28  C3  UNL     1     -37.791  53.570   1.126  1.00  0.00     0.081 C 
HETATM   29  C4  UNL     1     -39.188  53.205   0.597  1.00  0.00     0.020 C 
BRANCH  28  30
HETATM   30  C2  UNL     1     -36.825  52.669   0.517  1.00  0.00     0.262 C 
HETATM   31  O2  UNL     1     -35.959  52.065   1.153  1.00  0.00    -0.265 OA
BRANCH  30  32
HETATM   32  O1  UNL     1     -36.840  52.438  -0.871  1.00  0.00    -0.326 OA
HETATM   33  C1  UNL     1     -35.999  53.126  -1.754  1.00  0.00     0.213 C 
ENDBRANCH  30  32
ENDBRANCH  28  30
ENDBRANCH  27  28
ENDBRANCH  26  27
ENDBRANCH  25  26
ENDBRANCH  24  25
ENDBRANCH  23  24
ENDBRANCH   1  23
BRANCH  16  34
HETATM   34  C20 UNL     1     -38.422  63.491   2.356  1.00  0.00     0.040 C 
BRANCH  34  35
HETATM   35  C21 UNL     1     -38.841  64.579   3.260  1.00  0.00    -0.020 C 
HETATM   36  C22 UNL     1     -40.261  64.993   2.774  1.00  0.00     0.009 C 
HETATM   37  C23 UNL     1     -38.067  65.888   3.097  1.00  0.00     0.009 C 
ENDBRANCH  34  35
ENDBRANCH  16  34
TORSDOF 10
ENDMDL
MODEL 4
REMARK VINA RESULT: -7.563222439      2.550      4.770
REMARK  10 active torsions:
REMARK  status: ('A' for Active; 'I' for Inactive)
REMARK    1  A    between atoms: O1_2  and  C2_3 
REMARK    2  A    between atoms: C2_3  and  C3_5 
REMARK    3  A    between atoms: C3_5  and  C5_7 
REMARK    4  A    between atoms: C5_7  and  C6_8 
REMARK    5  A    between atoms: C6_8  and  C7_9 
REMARK    6  A    between atoms: C7_9  and  C8_10 
REMARK    7  A    between atoms: C8_10  and  C9_11 
REMARK    8  A    between atoms: C9_11  and  C10_12 
REMARK    9  A    between atoms: C19_27  and  C20_28 
REMARK   10  A    between atoms: C20_28  and  C21_29 
ROOT
HETATM    1  C10 UNL     1     -38.700  56.101   4.495  1.00  0.00     0.079 C 
HETATM    2  C11 UNL     1     -39.155  55.408   5.769  1.00  0.00     0.014 C 
HETATM    3  C12 UNL     1     -39.549  56.409   6.831  1.00  0.00     0.002 C 
HETATM    4  C13 UNL     1     -40.707  56.006   7.674  1.00  0.00     0.020 C 
HETATM    5  C14 UNL     1     -41.870  56.975   7.475  1.00  0.00     0.122 C 
HETATM    6  N1  UNL     1     -41.939  57.342   6.078  1.00  0.00    -0.359 N 
ATOM      7  H1  UNL     1     -41.681  56.610   5.418  1.00  0.00     0.162 HD
HETATM    8  C15 UNL     1     -42.310  58.564   5.509  1.00  0.00     0.240 C 
HETATM    9  O3  UNL     1     -43.266  58.516   4.647  1.00  0.00    -0.271 OA
HETATM   10  C16 UNL     1     -41.769  59.917   5.745  1.00  0.00     0.172 C 
HETATM   11  C17 UNL     1     -41.073  60.133   7.035  1.00  0.00     0.042 C 
HETATM   12  N2  UNL     1     -41.046  60.416   4.579  1.00  0.00    -0.346 N 
ATOM     13  H2  UNL     1     -41.510  61.162   4.060  1.00  0.00     0.163 HD
HETATM   14  C18 UNL     1     -39.820  60.018   4.083  1.00  0.00     0.242 C 
HETATM   15  O4  UNL     1     -39.760  59.594   2.873  1.00  0.00    -0.271 OA
HETATM   16  C19 UNL     1     -38.492  60.020   4.808  1.00  0.00     0.191 C 
HETATM   17  N3  UNL     1     -37.561  59.174   4.147  1.00  0.00    -0.320 N 
ATOM     18  H3  UNL     1     -37.250  59.365   3.194  1.00  0.00     0.181 HD
HETATM   19  N4  UNL     1     -37.097  58.079   4.857  1.00  0.00    -0.273 N 
ATOM     20  H4  UNL     1     -36.499  58.284   5.657  1.00  0.00     0.189 HD
HETATM   21  C24 UNL     1     -37.353  56.704   4.606  1.00  0.00     0.239 C 
HETATM   22  O5  UNL     1     -36.334  55.929   4.465  1.00  0.00    -0.271 OA
ENDROOT
BRANCH   1  23
HETATM   23  C9  UNL     1     -38.878  55.167   3.366  1.00  0.00     0.014 C 
BRANCH  23  24
HETATM   24  C8  UNL     1     -39.338  53.787   3.667  1.00  0.00     0.001 C 
BRANCH  24  25
HETATM   25  C7  UNL     1     -39.712  53.047   2.386  1.00  0.00     0.000 C 
BRANCH  25  26
HETATM   26  C6  UNL     1     -39.216  53.708   1.139  1.00  0.00     0.001 C 
BRANCH  26  27
HETATM   27  C5  UNL     1     -38.400  52.816   0.270  1.00  0.00     0.014 C 
BRANCH  27  28
HETATM   28  C3  UNL     1     -36.978  53.196   0.144  1.00  0.00     0.081 C 
HETATM   29  C4  UNL     1     -36.531  52.914  -1.300  1.00  0.00     0.020 C 
BRANCH  28  30
HETATM   30  C2  UNL     1     -36.040  52.543   1.045  1.00  0.00     0.262 C 
HETATM   31  O2  UNL     1     -36.134  52.582   2.274  1.00  0.00    -0.265 OA
BRANCH  30  32
HETATM   32  O1  UNL     1     -34.951  51.812   0.536  1.00  0.00    -0.326 OA
HETATM   33  C1  UNL     1     -33.624  52.222   0.713  1.00  0.00     0.213 C 
ENDBRANCH  30  32
ENDBRANCH  28  30
ENDBRANCH  27  28
ENDBRANCH  26  27
ENDBRANCH  25  26
ENDBRANCH  24  25
ENDBRANCH  23  24
ENDBRANCH   1  23
BRANCH  16  34
HETATM   34  C20 UNL     1     -37.960  61.420   4.882  1.00  0.00     0.040 C 
BRANCH  34  35
HETATM   35  C21 UNL     1     -37.112  61.904   3.776  1.00  0.00    -0.020 C 
HETATM   36  C22 UNL     1     -36.105  62.892   4.432  1.00  0.00     0.009 C 
HETATM   37  C23 UNL     1     -37.821  62.811   2.768  1.00  0.00     0.009 C 
ENDBRANCH  34  35
ENDBRANCH  16  34
TORSDOF 10
ENDMDL
MODEL 5
REMARK VINA RESULT: -7.559652491      3.122      5.318
REMARK  10 active torsions:
REMARK  status: ('A' for Active; 'I' for Inactive)
REMARK    1  A    between atoms: O1_2  and  C2_3 
REMARK    2  A    between atoms: C2_3  and  C3_5 
REMARK    3  A    between atoms: C3_5  and  C5_7 
REMARK    4  A    between atoms: C5_7  and  C6_8 
REMARK    5  A    between atoms: C6_8  and  C7_9 
REMARK    6  A    between atoms: C7_9  and  C8_10 
REMARK    7  A    between atoms: C8_10  and  C9_11 
REMARK    8  A    between atoms: C9_11  and  C10_12 
REMARK    9  A    between atoms: C19_27  and  C20_28 
REMARK   10  A    between atoms: C20_28  and  C21_29 
ROOT
HETATM    1  C10 UNL     1     -39.043  56.919   4.565  1.00  0.00     0.079 C 
HETATM    2  C11 UNL     1     -39.405  56.840   6.039  1.00  0.00     0.014 C 
HETATM    3  C12 UNL     1     -40.059  58.117   6.515  1.00  0.00     0.002 C 
HETATM    4  C13 UNL     1     -41.146  57.932   7.514  1.00  0.00     0.020 C 
HETATM    5  C14 UNL     1     -42.478  58.416   6.943  1.00  0.00     0.122 C 
HETATM    6  N1  UNL     1     -42.550  58.047   5.547  1.00  0.00    -0.359 N 
ATOM      7  H1  UNL     1     -42.108  57.161   5.303  1.00  0.00     0.162 HD
HETATM    8  C15 UNL     1     -43.144  58.738   4.486  1.00  0.00     0.240 C 
HETATM    9  O3  UNL     1     -44.021  58.082   3.808  1.00  0.00    -0.271 OA
HETATM   10  C16 UNL     1     -42.916  60.118   4.016  1.00  0.00     0.172 C 
HETATM   11  C17 UNL     1     -42.351  61.066   5.004  1.00  0.00     0.042 C 
HETATM   12  N2  UNL     1     -42.257  60.140   2.714  1.00  0.00    -0.346 N 
ATOM     13  H2  UNL     1     -42.842  60.429   1.929  1.00  0.00     0.163 HD
HETATM   14  C18 UNL     1     -40.950  59.823   2.399  1.00  0.00     0.242 C 
HETATM   15  O4  UNL     1     -40.738  58.896   1.536  1.00  0.00    -0.271 OA
HETATM   16  C19 UNL     1     -39.692  60.453   2.957  1.00  0.00     0.191 C 
HETATM   17  N3  UNL     1     -38.570  59.613   2.727  1.00  0.00    -0.320 N 
ATOM     18  H3  UNL     1     -38.257  59.386   1.783  1.00  0.00     0.181 HD
HETATM   19  N4  UNL     1     -37.920  59.117   3.846  1.00  0.00    -0.273 N 
ATOM     20  H4  UNL     1     -37.422  59.801   4.415  1.00  0.00     0.189 HD
HETATM   21  C24 UNL     1     -37.864  57.771   4.297  1.00  0.00     0.239 C 
HETATM   22  O5  UNL     1     -36.697  57.259   4.485  1.00  0.00    -0.271 OA
ENDROOT
BRANCH   1  23
HETATM   23  C9  UNL     1     -38.959  55.545   4.031  1.00  0.00     0.014 C 
BRANCH  23  24
HETATM   24  C8  UNL     1     -38.961  55.366   2.557  1.00  0.00     0.001 C 
BRANCH  24  25
HETATM   25  C7  UNL     1     -39.336  53.934   2.184  1.00  0.00     0.000 C 
BRANCH  25  26
HETATM   26  C6  UNL     1     -39.327  53.671   0.712  1.00  0.00     0.001 C 
BRANCH  26  27
HETATM   27  C5  UNL     1     -38.336  52.641   0.292  1.00  0.00     0.014 C 
BRANCH  27  28
HETATM   28  C3  UNL     1     -36.947  53.127   0.163  1.00  0.00     0.081 C 
HETATM   29  C4  UNL     1     -36.502  52.927  -1.296  1.00  0.00     0.020 C 
BRANCH  28  30
HETATM   30  C2  UNL     1     -35.952  52.511   1.029  1.00  0.00     0.262 C 
HETATM   31  O2  UNL     1     -35.984  52.577   2.260  1.00  0.00    -0.265 OA
BRANCH  30  32
HETATM   32  O1  UNL     1     -34.877  51.789   0.481  1.00  0.00    -0.326 OA
HETATM   33  C1  UNL     1     -33.548  52.217   0.598  1.00  0.00     0.213 C 
ENDBRANCH  30  32
ENDBRANCH  28  30
ENDBRANCH  27  28
ENDBRANCH  26  27
ENDBRANCH  25  26
ENDBRANCH  24  25
ENDBRANCH  23  24
ENDBRANCH   1  23
BRANCH  16  34
HETATM   34  C20 UNL     1     -39.476  61.794   2.322  1.00  0.00     0.040 C 
BRANCH  34  35
HETATM   35  C21 UNL     1     -39.645  62.997   3.158  1.00  0.00    -0.020 C 
HETATM   36  C22 UNL     1     -41.001  63.619   2.714  1.00  0.00     0.009 C 
HETATM   37  C23 UNL     1     -38.670  64.138   2.855  1.00  0.00     0.009 C 
ENDBRANCH  34  35
ENDBRANCH  16  34
TORSDOF 10
ENDMDL
