MODEL 1
REMARK VINA RESULT: -6.888456626      0.000      0.000
REMARK  12 active torsions:
REMARK  status: ('A' for Active; 'I' for Inactive)
REMARK    1  A    between atoms: C2_2  and  C4_4 
REMARK    2  A    between atoms: C4_4  and  N1_5 
REMARK    3  A    between atoms: C4_4  and  C10_14 
REMARK       I    between atoms: N1_5  and  C5_7 
REMARK    4  A    between atoms: C5_7  and  C6_9 
REMARK       I    between atoms: C10_14  and  N2_16 
REMARK    5  A    between atoms: C12_18  and  N3_19 
REMARK    6  A    between atoms: N3_19  and  C13_22 
REMARK    7  A    between atoms: C13_22  and  C14_23 
REMARK    8  A    between atoms: C14_23  and  C15_24 
REMARK    9  A    between atoms: C14_23  and  C23_35 
REMARK       I    between atoms: C15_24  and  N4_26 
REMARK   10  A    between atoms: N4_26  and  C16_28 
REMARK   11  A    between atoms: C16_28  and  C19_31 
REMARK   12  A    between atoms: C23_35  and  O5_37 
ROOT
HETATM    1  N3  UNL     1     -40.963  60.624   4.200  1.00  0.00    -0.067 N 
ATOM      2  H31 UNL     1     -41.560  61.275   4.710  1.00  0.00     0.277 HD
ATOM      3  H32 UNL     1     -41.654  60.226   3.565  1.00  0.00     0.277 HD
ENDROOT
BRANCH   1   4
HETATM    4  C12 UNL     1     -40.428  59.602   5.092  1.00  0.00     0.221 C 
HETATM    5  C11 UNL     1     -41.300  58.439   5.405  1.00  0.00     0.160 C 
HETATM    6  N2  UNL     1     -40.101  57.632   5.423  1.00  0.00    -0.346 N 
HETATM    7  C10 UNL     1     -39.680  56.461   6.068  1.00  0.00     0.243 C 
HETATM    8  C25 UNL     1     -39.529  58.575   4.489  1.00  0.00     0.160 C 
HETATM    9  O3  UNL     1     -40.515  55.908   6.865  1.00  0.00    -0.271 OA
BRANCH   7  10
HETATM   10  C4  UNL     1     -38.340  55.864   5.862  1.00  0.00     0.180 C 
BRANCH  10  11
HETATM   11  C2  UNL     1     -37.211  56.716   6.385  1.00  0.00     0.009 C 
HETATM   12  C1  UNL     1     -36.161  56.975   5.324  1.00  0.00     0.012 C 
HETATM   13  C3  UNL     1     -36.503  55.945   7.497  1.00  0.00     0.012 C 
ENDBRANCH  10  11
BRANCH  10  14
HETATM   14  N1  UNL     1     -38.118  55.533   4.464  1.00  0.00    -0.345 N 
HETATM   15  C5  UNL     1     -38.827  54.558   3.763  1.00  0.00     0.247 C 
HETATM   16  O1  UNL     1     -39.724  53.900   4.342  1.00  0.00    -0.271 OA
ATOM     17  H1  UNL     1     -37.395  56.049   3.961  1.00  0.00     0.163 HD
BRANCH  15  18
HETATM   18  C6  UNL     1     -38.556  54.272   2.352  1.00  0.00     0.213 C 
HETATM   19  C7  UNL     1     -39.646  53.537   1.633  1.00  0.00     0.043 C 
HETATM   20  C8  UNL     1     -38.896  53.070   0.379  1.00  0.00     0.029 C 
HETATM   21  C9  UNL     1     -37.448  53.205   0.843  1.00  0.00     0.168 C 
HETATM   22  O2  UNL     1     -37.480  53.363   2.222  1.00  0.00    -0.376 OA
ENDBRANCH  15  18
ENDBRANCH  10  14
ENDBRANCH   7  10
ENDBRANCH   1   4
BRANCH   1  23
HETATM   23  C13 UNL     1     -39.962  61.312   3.486  1.00  0.00     0.249 C 
BRANCH  23  24
HETATM   24  C14 UNL     1     -40.009  61.414   2.015  1.00  0.00     0.132 C 
BRANCH  24  25
HETATM   25  C15 UNL     1     -41.071  60.431   1.552  1.00  0.00     0.226 C 
HETATM   26  O4  UNL     1     -40.853  59.213   1.638  1.00  0.00    -0.273 OA
HETATM   27  N4  UNL     1     -42.295  60.894   1.029  1.00  0.00    -0.351 N 
ATOM     28  H4  UNL     1     -42.471  61.896   0.960  1.00  0.00     0.163 HD
BRANCH  27  29
HETATM   29  C16 UNL     1     -43.298  59.958   0.593  1.00  0.00     0.032 C 
HETATM   30  C17 UNL     1     -42.658  59.030  -0.441  1.00  0.00     0.039 C 
HETATM   31  C18 UNL     1     -43.818  59.118   1.727  1.00  0.00     0.039 C 
BRANCH  29  32
HETATM   32  C19 UNL     1     -44.419  60.738  -0.069  1.00  0.00    -0.027 C 
HETATM   33  C20 UNL     1     -44.175  60.888  -1.547  1.00  0.00     0.017 C 
HETATM   34  C21 UNL     1     -44.540  62.096   0.570  1.00  0.00     0.017 C 
HETATM   35  C22 UNL     1     -45.714  60.013   0.140  1.00  0.00     0.017 C 
ENDBRANCH  29  32
ENDBRANCH  27  29
ENDBRANCH  24  25
BRANCH  24  36
HETATM   36  C23 UNL     1     -38.751  61.129   1.278  1.00  0.00     0.128 C 
HETATM   37  C24 UNL     1     -37.684  62.148   1.527  1.00  0.00     0.040 C 
BRANCH  36  38
HETATM   38  O5  UNL     1     -38.227  59.861   1.626  1.00  0.00    -0.395 OA
ATOM     39  H5  UNL     1     -38.057  59.334   0.854  1.00  0.00     0.210 HD
ENDBRANCH  36  38
ENDBRANCH  24  36
ENDBRANCH  23  24
ENDBRANCH   1  23
TORSDOF 12
ENDMDL
MODEL 2
REMARK VINA RESULT: -6.577324686      2.753      7.746
REMARK  12 active torsions:
REMARK  status: ('A' for Active; 'I' for Inactive)
REMARK    1  A    between atoms: C2_2  and  C4_4 
REMARK    2  A    between atoms: C4_4  and  N1_5 
REMARK    3  A    between atoms: C4_4  and  C10_14 
REMARK       I    between atoms: N1_5  and  C5_7 
REMARK    4  A    between atoms: C5_7  and  C6_9 
REMARK       I    between atoms: C10_14  and  N2_16 
REMARK    5  A    between atoms: C12_18  and  N3_19 
REMARK    6  A    between atoms: N3_19  and  C13_22 
REMARK    7  A    between atoms: C13_22  and  C14_23 
REMARK    8  A    between atoms: C14_23  and  C15_24 
REMARK    9  A    between atoms: C14_23  and  C23_35 
REMARK       I    between atoms: C15_24  and  N4_26 
REMARK   10  A    between atoms: N4_26  and  C16_28 
REMARK   11  A    between atoms: C16_28  and  C19_31 
REMARK   12  A    between atoms: C23_35  and  O5_37 
ROOT
HETATM    1  N3  UNL     1     -36.341  59.046   6.559  1.00  0.00    -0.067 N 
ATOM      2  H31 UNL     1     -36.941  58.405   7.079  1.00  0.00     0.277 HD
ATOM      3  H32 UNL     1     -35.666  59.273   7.290  1.00  0.00     0.277 HD
ENDROOT
BRANCH   1   4
HETATM    4  C12 UNL     1     -37.081  60.233   6.149  1.00  0.00     0.221 C 
HETATM    5  C11 UNL     1     -36.662  61.538   6.728  1.00  0.00     0.160 C 
HETATM    6  N2  UNL     1     -37.002  62.134   5.455  1.00  0.00    -0.346 N 
HETATM    7  C10 UNL     1     -37.441  63.389   5.011  1.00  0.00     0.243 C 
HETATM    8  C25 UNL     1     -36.698  60.858   4.848  1.00  0.00     0.160 C 
HETATM    9  O3  UNL     1     -37.611  64.290   5.904  1.00  0.00    -0.271 OA
BRANCH   7  10
HETATM   10  C4  UNL     1     -37.706  63.693   3.586  1.00  0.00     0.180 C 
BRANCH  10  11
HETATM   11  C2  UNL     1     -37.991  65.149   3.320  1.00  0.00     0.009 C 
HETATM   12  C1  UNL     1     -39.370  65.357   2.731  1.00  0.00     0.012 C 
HETATM   13  C3  UNL     1     -37.004  65.647   2.266  1.00  0.00     0.012 C 
ENDBRANCH  10  11
BRANCH  10  14
HETATM   14  N1  UNL     1     -38.779  62.864   3.060  1.00  0.00    -0.345 N 
HETATM   15  C5  UNL     1     -38.635  61.967   2.003  1.00  0.00     0.247 C 
HETATM   16  O1  UNL     1     -37.522  61.837   1.439  1.00  0.00    -0.271 OA
ATOM     17  H1  UNL     1     -39.699  62.943   3.495  1.00  0.00     0.163 HD
BRANCH  15  18
HETATM   18  C6  UNL     1     -39.757  61.158   1.520  1.00  0.00     0.213 C 
HETATM   19  C7  UNL     1     -41.105  61.798   1.655  1.00  0.00     0.043 C 
HETATM   20  C8  UNL     1     -42.020  60.582   1.453  1.00  0.00     0.029 C 
HETATM   21  C9  UNL     1     -41.043  59.441   1.721  1.00  0.00     0.168 C 
HETATM   22  O2  UNL     1     -39.922  60.001   2.317  1.00  0.00    -0.376 OA
ENDBRANCH  15  18
ENDBRANCH  10  14
ENDBRANCH   7  10
ENDBRANCH   1   4
BRANCH   1  23
HETATM   23  C13 UNL     1     -35.714  58.386   5.484  1.00  0.00     0.249 C 
BRANCH  23  24
HETATM   24  C14 UNL     1     -35.732  56.914   5.377  1.00  0.00     0.132 C 
BRANCH  24  25
HETATM   25  C15 UNL     1     -37.147  56.533   4.976  1.00  0.00     0.226 C 
HETATM   26  O4  UNL     1     -38.107  57.152   5.460  1.00  0.00    -0.273 OA
HETATM   27  N4  UNL     1     -37.374  55.485   4.061  1.00  0.00    -0.351 N 
ATOM     28  H4  UNL     1     -36.582  54.977   3.665  1.00  0.00     0.163 HD
BRANCH  27  29
HETATM   29  C16 UNL     1     -38.716  55.128   3.684  1.00  0.00     0.032 C 
HETATM   30  C17 UNL     1     -39.496  54.814   4.962  1.00  0.00     0.039 C 
HETATM   31  C18 UNL     1     -39.416  56.246   2.963  1.00  0.00     0.039 C 
BRANCH  29  32
HETATM   32  C19 UNL     1     -38.651  53.878   2.826  1.00  0.00    -0.027 C 
HETATM   33  C20 UNL     1     -37.227  53.440   2.614  1.00  0.00     0.017 C 
HETATM   34  C21 UNL     1     -39.309  54.139   1.497  1.00  0.00     0.017 C 
HETATM   35  C22 UNL     1     -39.403  52.774   3.505  1.00  0.00     0.017 C 
ENDBRANCH  29  32
ENDBRANCH  27  29
ENDBRANCH  24  25
BRANCH  24  36
HETATM   36  C23 UNL     1     -35.365  56.145   6.593  1.00  0.00     0.128 C 
HETATM   37  C24 UNL     1     -33.957  56.391   7.037  1.00  0.00     0.040 C 
BRANCH  36  38
HETATM   38  O5  UNL     1     -36.219  56.456   7.677  1.00  0.00    -0.395 OA
ATOM     39  H5  UNL     1     -36.415  55.683   8.195  1.00  0.00     0.210 HD
ENDBRANCH  36  38
ENDBRANCH  24  36
ENDBRANCH  23  24
ENDBRANCH   1  23
TORSDOF 12
ENDMDL
MODEL 3
REMARK VINA RESULT: -6.512279651      1.936      2.822
REMARK  12 active torsions:
REMARK  status: ('A' for Active; 'I' for Inactive)
REMARK    1  A    between atoms: C2_2  and  C4_4 
REMARK    2  A    between atoms: C4_4  and  N1_5 
REMARK    3  A    between atoms: C4_4  and  C10_14 
REMARK       I    between atoms: N1_5  and  C5_7 
REMARK    4  A    between atoms: C5_7  and  C6_9 
REMARK       I    between atoms: C10_14  and  N2_16 
REMARK    5  A    between atoms: C12_18  and  N3_19 
REMARK    6  A    between atoms: N3_19  and  C13_22 
REMARK    7  A    between atoms: C13_22  and  C14_23 
REMARK    8  A    between atoms: C14_23  and  C15_24 
REMARK    9  A    between atoms: C14_23  and  C23_35 
REMARK       I    between atoms: C15_24  and  N4_26 
REMARK   10  A    between atoms: N4_26  and  C16_28 
REMARK   11  A    between atoms: C16_28  and  C19_31 
REMARK   12  A    between atoms: C23_35  and  O5_37 
ROOT
HETATM    1  N3  UNL     1     -37.462  60.394   4.319  1.00  0.00    -0.067 N 
ATOM      2  H31 UNL     1     -36.549  60.712   3.992  1.00  0.00     0.277 HD
ATOM      3  H32 UNL     1     -37.531  60.938   5.178  1.00  0.00     0.277 HD
ENDROOT
BRANCH   1   4
HETATM    4  C12 UNL     1     -37.442  58.966   4.608  1.00  0.00     0.221 C 
HETATM    5  C11 UNL     1     -37.506  58.553   6.036  1.00  0.00     0.160 C 
HETATM    6  N2  UNL     1     -38.287  57.417   5.601  1.00  0.00    -0.346 N 
HETATM    7  C10 UNL     1     -38.504  56.108   6.052  1.00  0.00     0.243 C 
HETATM    8  C25 UNL     1     -38.735  58.229   4.493  1.00  0.00     0.160 C 
HETATM    9  O3  UNL     1     -37.882  55.751   7.113  1.00  0.00    -0.271 OA
BRANCH   7  10
HETATM   10  C4  UNL     1     -39.401  55.155   5.358  1.00  0.00     0.180 C 
BRANCH  10  11
HETATM   11  C2  UNL     1     -39.957  54.081   6.259  1.00  0.00     0.009 C 
HETATM   12  C1  UNL     1     -40.477  52.897   5.472  1.00  0.00     0.012 C 
HETATM   13  C3  UNL     1     -41.162  54.654   7.002  1.00  0.00     0.012 C 
ENDBRANCH  10  11
BRANCH  10  14
HETATM   14  N1  UNL     1     -38.748  54.559   4.204  1.00  0.00    -0.345 N 
HETATM   15  C5  UNL     1     -38.985  54.935   2.883  1.00  0.00     0.247 C 
HETATM   16  O1  UNL     1     -39.810  55.845   2.630  1.00  0.00    -0.271 OA
ATOM     17  H1  UNL     1     -38.070  53.815   4.373  1.00  0.00     0.163 HD
BRANCH  15  18
HETATM   18  C6  UNL     1     -38.291  54.295   1.762  1.00  0.00     0.213 C 
HETATM   19  C7  UNL     1     -39.174  53.529   0.825  1.00  0.00     0.043 C 
HETATM   20  C8  UNL     1     -38.131  52.700   0.063  1.00  0.00     0.029 C 
HETATM   21  C9  UNL     1     -36.943  52.788   1.017  1.00  0.00     0.168 C 
HETATM   22  O2  UNL     1     -37.430  53.273   2.224  1.00  0.00    -0.376 OA
ENDBRANCH  15  18
ENDBRANCH  10  14
ENDBRANCH   7  10
ENDBRANCH   1   4
BRANCH   1  23
HETATM   23  C13 UNL     1     -38.475  60.760   3.410  1.00  0.00     0.249 C 
BRANCH  23  24
HETATM   24  C14 UNL     1     -38.863  62.172   3.229  1.00  0.00     0.132 C 
BRANCH  24  25
HETATM   25  C15 UNL     1     -40.329  62.164   2.827  1.00  0.00     0.226 C 
HETATM   26  O4  UNL     1     -40.944  63.238   2.743  1.00  0.00    -0.273 OA
HETATM   27  N4  UNL     1     -40.988  60.950   2.551  1.00  0.00    -0.351 N 
ATOM     28  H4  UNL     1     -40.479  60.068   2.621  1.00  0.00     0.163 HD
BRANCH  27  29
HETATM   29  C16 UNL     1     -42.377  60.948   2.171  1.00  0.00     0.032 C 
HETATM   30  C17 UNL     1     -43.196  61.412   3.376  1.00  0.00     0.039 C 
HETATM   31  C18 UNL     1     -42.649  61.881   1.024  1.00  0.00     0.039 C 
BRANCH  29  32
HETATM   32  C19 UNL     1     -42.771  59.524   1.824  1.00  0.00    -0.027 C 
HETATM   33  C20 UNL     1     -42.714  59.293   0.338  1.00  0.00     0.017 C 
HETATM   34  C21 UNL     1     -44.161  59.243   2.332  1.00  0.00     0.017 C 
HETATM   35  C22 UNL     1     -41.831  58.574   2.501  1.00  0.00     0.017 C 
ENDBRANCH  29  32
ENDBRANCH  27  29
ENDBRANCH  24  25
BRANCH  24  36
HETATM   36  C23 UNL     1     -38.105  62.957   2.222  1.00  0.00     0.128 C 
HETATM   37  C24 UNL     1     -37.533  64.223   2.779  1.00  0.00     0.040 C 
BRANCH  36  38
HETATM   38  O5  UNL     1     -37.036  62.203   1.681  1.00  0.00    -0.395 OA
ATOM     39  H5  UNL     1     -36.334  62.768   1.379  1.00  0.00     0.210 HD
ENDBRANCH  36  38
ENDBRANCH  24  36
ENDBRANCH  23  24
ENDBRANCH   1  23
TORSDOF 12
ENDMDL
MODEL 4
REMARK VINA RESULT: -6.385292881      3.179      5.587
REMARK  12 active torsions:
REMARK  status: ('A' for Active; 'I' for Inactive)
REMARK    1  A    between atoms: C2_2  and  C4_4 
REMARK    2  A    between atoms: C4_4  and  N1_5 
REMARK    3  A    between atoms: C4_4  and  C10_14 
REMARK       I    between atoms: N1_5  and  C5_7 
REMARK    4  A    between atoms: C5_7  and  C6_9 
REMARK       I    between atoms: C10_14  and  N2_16 
REMARK    5  A    between atoms: C12_18  and  N3_19 
REMARK    6  A    between atoms: N3_19  and  C13_22 
REMARK    7  A    between atoms: C13_22  and  C14_23 
REMARK    8  A    between atoms: C14_23  and  C15_24 
REMARK    9  A    between atoms: C14_23  and  C23_35 
REMARK       I    between atoms: C15_24  and  N4_26 
REMARK   10  A    between atoms: N4_26  and  C16_28 
REMARK   11  A    between atoms: C16_28  and  C19_31 
REMARK   12  A    between atoms: C23_35  and  O5_37 
ROOT
HETATM    1  N3  UNL     1     -38.159  61.930   4.874  1.00  0.00    -0.067 N 
ATOM      2  H31 UNL     1     -38.000  62.628   5.602  1.00  0.00     0.277 HD
ATOM      3  H32 UNL     1     -38.993  62.327   4.441  1.00  0.00     0.277 HD
ENDROOT
BRANCH   1   4
HETATM    4  C12 UNL     1     -38.449  60.627   5.459  1.00  0.00     0.221 C 
HETATM    5  C11 UNL     1     -39.697  59.942   5.028  1.00  0.00     0.160 C 
HETATM    6  N2  UNL     1     -38.972  58.697   5.143  1.00  0.00    -0.346 N 
HETATM    7  C10 UNL     1     -39.294  57.361   5.421  1.00  0.00     0.243 C 
HETATM    8  C25 UNL     1     -37.769  59.443   4.855  1.00  0.00     0.160 C 
HETATM    9  O3  UNL     1     -40.527  57.099   5.645  1.00  0.00    -0.271 OA
BRANCH   7  10
HETATM   10  C4  UNL     1     -38.283  56.279   5.464  1.00  0.00     0.180 C 
BRANCH  10  11
HETATM   11  C2  UNL     1     -37.017  56.662   6.186  1.00  0.00     0.009 C 
HETATM   12  C1  UNL     1     -35.781  56.269   5.405  1.00  0.00     0.012 C 
HETATM   13  C3  UNL     1     -36.954  55.876   7.494  1.00  0.00     0.012 C 
ENDBRANCH  10  11
BRANCH  10  14
HETATM   14  N1  UNL     1     -37.977  55.791   4.129  1.00  0.00    -0.345 N 
HETATM   15  C5  UNL     1     -38.688  54.785   3.475  1.00  0.00     0.247 C 
HETATM   16  O1  UNL     1     -39.664  54.240   4.042  1.00  0.00    -0.271 OA
ATOM     17  H1  UNL     1     -37.188  56.212   3.637  1.00  0.00     0.163 HD
BRANCH  15  18
HETATM   18  C6  UNL     1     -38.328  54.338   2.127  1.00  0.00     0.213 C 
HETATM   19  C7  UNL     1     -39.432  53.672   1.365  1.00  0.00     0.043 C 
HETATM   20  C8  UNL     1     -38.636  53.004   0.235  1.00  0.00     0.029 C 
HETATM   21  C9  UNL     1     -37.231  53.011   0.832  1.00  0.00     0.168 C 
HETATM   22  O2  UNL     1     -37.368  53.301   2.182  1.00  0.00    -0.376 OA
ENDBRANCH  15  18
ENDBRANCH  10  14
ENDBRANCH   7  10
ENDBRANCH   1   4
BRANCH   1  23
HETATM   23  C13 UNL     1     -37.085  61.901   3.963  1.00  0.00     0.249 C 
BRANCH  23  24
HETATM   24  C14 UNL     1     -37.212  62.490   2.616  1.00  0.00     0.132 C 
BRANCH  24  25
HETATM   25  C15 UNL     1     -37.163  63.997   2.803  1.00  0.00     0.226 C 
HETATM   26  O4  UNL     1     -37.993  64.547   3.542  1.00  0.00    -0.273 OA
HETATM   27  N4  UNL     1     -36.184  64.769   2.144  1.00  0.00    -0.351 N 
ATOM     28  H4  UNL     1     -35.503  64.313   1.537  1.00  0.00     0.163 HD
BRANCH  27  29
HETATM   29  C16 UNL     1     -36.142  66.196   2.326  1.00  0.00     0.032 C 
HETATM   30  C17 UNL     1     -37.458  66.775   1.805  1.00  0.00     0.039 C 
HETATM   31  C18 UNL     1     -35.994  66.577   3.772  1.00  0.00     0.039 C 
BRANCH  29  32
HETATM   32  C19 UNL     1     -34.997  66.746   1.495  1.00  0.00    -0.027 C 
HETATM   33  C20 UNL     1     -34.395  67.964   2.141  1.00  0.00     0.017 C 
HETATM   34  C21 UNL     1     -35.490  67.089   0.114  1.00  0.00     0.017 C 
HETATM   35  C22 UNL     1     -33.938  65.694   1.359  1.00  0.00     0.017 C 
ENDBRANCH  29  32
ENDBRANCH  27  29
ENDBRANCH  24  25
BRANCH  24  36
HETATM   36  C23 UNL     1     -38.433  62.152   1.843  1.00  0.00     0.128 C 
HETATM   37  C24 UNL     1     -38.532  60.695   1.513  1.00  0.00     0.040 C 
BRANCH  36  38
HETATM   38  O5  UNL     1     -39.606  62.513   2.549  1.00  0.00    -0.395 OA
ATOM     39  H5  UNL     1     -39.801  63.437   2.442  1.00  0.00     0.210 HD
ENDBRANCH  36  38
ENDBRANCH  24  36
ENDBRANCH  23  24
ENDBRANCH   1  23
TORSDOF 12
ENDMDL
MODEL 5
REMARK VINA RESULT: -6.286335700      2.354      3.535
REMARK  12 active torsions:
REMARK  status: ('A' for Active; 'I' for Inactive)
REMARK    1  A    between atoms: C2_2  and  C4_4 
REMARK    2  A    between atoms: C4_4  and  N1_5 
REMARK    3  A    between atoms: C4_4  and  C10_14 
REMARK       I    between atoms: N1_5  and  C5_7 
REMARK    4  A    between atoms: C5_7  and  C6_9 
REMARK       I    between atoms: C10_14  and  N2_16 
REMARK    5  A    between atoms: C12_18  and  N3_19 
REMARK    6  A    between atoms: N3_19  and  C13_22 
REMARK    7  A    between atoms: C13_22  and  C14_23 
REMARK    8  A    between atoms: C14_23  and  C15_24 
REMARK    9  A    between atoms: C14_23  and  C23_35 
REMARK       I    between atoms: C15_24  and  N4_26 
REMARK   10  A    between atoms: N4_26  and  C16_28 
REMARK   11  A    between atoms: C16_28  and  C19_31 
REMARK   12  A    between atoms: C23_35  and  O5_37 
ROOT
HETATM    1  N3  UNL     1     -36.142  61.908   4.920  1.00  0.00    -0.067 N 
ATOM      2  H31 UNL     1     -35.955  61.554   3.982  1.00  0.00     0.277 HD
ATOM      3  H32 UNL     1     -35.266  62.401   5.090  1.00  0.00     0.277 HD
ENDROOT
BRANCH   1   4
HETATM    4  C12 UNL     1     -36.314  60.812   5.865  1.00  0.00     0.221 C 
HETATM    5  C11 UNL     1     -37.687  60.552   6.373  1.00  0.00     0.160 C 
HETATM    6  N2  UNL     1     -37.346  59.147   6.373  1.00  0.00    -0.346 N 
HETATM    7  C10 UNL     1     -37.734  58.012   7.099  1.00  0.00     0.243 C 
HETATM    8  C25 UNL     1     -36.424  59.436   5.299  1.00  0.00     0.160 C 
HETATM    9  O3  UNL     1     -38.608  58.186   8.019  1.00  0.00    -0.271 OA
BRANCH   7  10
HETATM   10  C4  UNL     1     -37.180  56.662   6.843  1.00  0.00     0.180 C 
BRANCH  10  11
HETATM   11  C2  UNL     1     -35.682  56.585   6.986  1.00  0.00     0.009 C 
HETATM   12  C1  UNL     1     -35.014  56.138   5.703  1.00  0.00     0.012 C 
HETATM   13  C3  UNL     1     -35.353  55.516   8.026  1.00  0.00     0.012 C 
ENDBRANCH  10  11
BRANCH  10  14
HETATM   14  N1  UNL     1     -37.590  56.162   5.541  1.00  0.00    -0.345 N 
HETATM   15  C5  UNL     1     -38.733  55.395   5.315  1.00  0.00     0.247 C 
HETATM   16  O1  UNL     1     -39.484  55.095   6.274  1.00  0.00    -0.271 OA
ATOM     17  H1  UNL     1     -37.003  56.387   4.738  1.00  0.00     0.163 HD
BRANCH  15  18
HETATM   18  C6  UNL     1     -39.092  54.922   3.976  1.00  0.00     0.213 C 
HETATM   19  C7  UNL     1     -39.583  53.508   3.914  1.00  0.00     0.043 C 
HETATM   20  C8  UNL     1     -39.474  53.233   2.408  1.00  0.00     0.029 C 
HETATM   21  C9  UNL     1     -38.512  54.339   1.984  1.00  0.00     0.168 C 
HETATM   22  O2  UNL     1     -37.950  54.851   3.145  1.00  0.00    -0.376 OA
ENDBRANCH  15  18
ENDBRANCH  10  14
ENDBRANCH   7  10
ENDBRANCH   1   4
BRANCH   1  23
HETATM   23  C13 UNL     1     -37.229  62.805   4.910  1.00  0.00     0.249 C 
BRANCH  23  24
HETATM   24  C14 UNL     1     -37.905  63.170   3.650  1.00  0.00     0.132 C 
BRANCH  24  25
HETATM   25  C15 UNL     1     -38.345  61.865   3.007  1.00  0.00     0.226 C 
HETATM   26  O4  UNL     1     -37.624  61.333   2.150  1.00  0.00    -0.273 OA
HETATM   27  N4  UNL     1     -39.562  61.259   3.380  1.00  0.00    -0.351 N 
ATOM     28  H4  UNL     1     -40.153  61.699   4.086  1.00  0.00     0.163 HD
BRANCH  27  29
HETATM   29  C16 UNL     1     -39.974  60.023   2.769  1.00  0.00     0.032 C 
HETATM   30  C17 UNL     1     -40.474  60.338   1.359  1.00  0.00     0.039 C 
HETATM   31  C18 UNL     1     -38.840  59.041   2.662  1.00  0.00     0.039 C 
BRANCH  29  32
HETATM   32  C19 UNL     1     -41.119  59.450   3.583  1.00  0.00    -0.027 C 
HETATM   33  C20 UNL     1     -42.086  58.701   2.706  1.00  0.00     0.017 C 
HETATM   34  C21 UNL     1     -41.836  60.560   4.305  1.00  0.00     0.017 C 
HETATM   35  C22 UNL     1     -40.569  58.510   4.613  1.00  0.00     0.017 C 
ENDBRANCH  29  32
ENDBRANCH  27  29
ENDBRANCH  24  25
BRANCH  24  36
HETATM   36  C23 UNL     1     -37.113  63.939   2.657  1.00  0.00     0.128 C 
HETATM   37  C24 UNL     1     -36.921  65.371   3.045  1.00  0.00     0.040 C 
BRANCH  36  38
HETATM   38  O5  UNL     1     -35.831  63.368   2.468  1.00  0.00    -0.395 OA
ATOM     39  H5  UNL     1     -35.697  62.624   3.043  1.00  0.00     0.210 HD
ENDBRANCH  36  38
ENDBRANCH  24  36
ENDBRANCH  23  24
ENDBRANCH   1  23
TORSDOF 12
ENDMDL
