MODEL 1
REMARK VINA RESULT: -6.085836211      0.000      0.000
REMARK  11 active torsions:
REMARK  status: ('A' for Active; 'I' for Inactive)
REMARK    1  A    between atoms: C2_2  and  N1_3 
REMARK    2  A    between atoms: C2_2  and  C8_12 
REMARK       I    between atoms: N1_3  and  C3_5 
REMARK    3  A    between atoms: C3_5  and  O2_7 
REMARK    4  A    between atoms: O2_7  and  C4_8 
REMARK       I    between atoms: C8_12  and  N2_14 
REMARK    5  A    between atoms: N2_14  and  C9_16 
REMARK    6  A    between atoms: C9_16  and  C11_18 
REMARK       I    between atoms: C11_18  and  N3_20 
REMARK    7  A    between atoms: N3_20  and  C12_22 
REMARK    8  A    between atoms: C12_22  and  C13_23 
REMARK    9  A    between atoms: C12_22  and  C14_25 
REMARK       I    between atoms: C14_25  and  N4_27 
REMARK   10  A    between atoms: C18_31  and  C19_32 
REMARK   11  A    between atoms: C19_32  and  N5_34 
ROOT
HETATM    1  C11 UNL     1     -35.187  55.996   8.470  1.00  0.00     0.240 C 
HETATM    2  O4  UNL     1     -35.177  54.746   8.499  1.00  0.00    -0.271 OA
HETATM    3  N3  UNL     1     -35.389  56.706   9.678  1.00  0.00    -0.345 N 
ATOM      4  H3  UNL     1     -35.401  57.725   9.677  1.00  0.00     0.163 HD
ENDROOT
BRANCH   1   5
HETATM    5  C9  UNL     1     -34.987  56.686   7.177  1.00  0.00     0.172 C 
HETATM    6  C10 UNL     1     -33.936  55.933   6.409  1.00  0.00     0.042 C 
BRANCH   5   7
HETATM    7  N2  UNL     1     -36.212  56.651   6.402  1.00  0.00    -0.346 N 
HETATM    8  C8  UNL     1     -36.561  57.697   5.493  1.00  0.00     0.240 C 
HETATM    9  O3  UNL     1     -35.756  58.661   5.388  1.00  0.00    -0.271 OA
ATOM     10  H2  UNL     1     -36.843  55.857   6.509  1.00  0.00     0.163 HD
BRANCH   8  11
HETATM   11  C2  UNL     1     -37.795  57.687   4.699  1.00  0.00     0.174 C 
HETATM   12  C1  UNL     1     -38.031  58.978   3.946  1.00  0.00     0.042 C 
BRANCH  11  13
HETATM   13  N1  UNL     1     -37.764  56.603   3.754  1.00  0.00    -0.324 N 
HETATM   14  C3  UNL     1     -38.874  56.223   2.959  1.00  0.00     0.362 C 
HETATM   15  O1  UNL     1     -39.991  56.830   3.034  1.00  0.00    -0.238 OA
ATOM     16  H1  UNL     1     -36.894  56.080   3.650  1.00  0.00     0.165 HD
BRANCH  14  17
HETATM   17  O2  UNL     1     -38.808  55.181   2.066  1.00  0.00    -0.294 OA
BRANCH  17  18
HETATM   18  C4  UNL     1     -38.865  53.818   2.359  1.00  0.00     0.061 C 
HETATM   19  C5  UNL     1     -39.503  53.531   3.704  1.00  0.00     0.046 C 
HETATM   20  C6  UNL     1     -39.697  53.124   1.311  1.00  0.00     0.046 C 
HETATM   21  C7  UNL     1     -37.473  53.254   2.322  1.00  0.00     0.046 C 
ENDBRANCH  17  18
ENDBRANCH  14  17
ENDBRANCH  11  13
ENDBRANCH   8  11
ENDBRANCH   5   7
ENDBRANCH   1   5
BRANCH   3  22
HETATM   22  C12 UNL     1     -35.586  55.956  10.951  1.00  0.00     0.186 C 
BRANCH  22  23
HETATM   23  C13 UNL     1     -35.038  56.961  11.991  1.00  0.00     0.120 C 
HETATM   24  S1  UNL     1     -34.514  58.511  11.303  1.00  0.00    -0.095 SA
ENDBRANCH  22  23
BRANCH  22  25
HETATM   25  C14 UNL     1     -37.034  55.807  11.199  1.00  0.00     0.243 C 
HETATM   26  O5  UNL     1     -37.654  56.872  11.445  1.00  0.00    -0.271 OA
HETATM   27  N4  UNL     1     -37.731  54.591  11.174  1.00  0.00    -0.344 N 
HETATM   28  C15 UNL     1     -39.180  54.554  11.490  1.00  0.00     0.126 C 
HETATM   29  C18 UNL     1     -37.428  53.240  10.851  1.00  0.00     0.109 C 
HETATM   30  C16 UNL     1     -39.746  53.541  10.526  1.00  0.00     0.022 C 
HETATM   31  C17 UNL     1     -38.556  52.786   9.985  1.00  0.00     0.029 C 
BRANCH  29  32
HETATM   32  C19 UNL     1     -36.989  52.303  11.895  1.00  0.00     0.097 C 
HETATM   33  C20 UNL     1     -37.575  50.912  11.829  1.00  0.00     0.034 C 
BRANCH  32  34
HETATM   34  N5  UNL     1     -35.556  52.271  11.904  1.00  0.00    -0.415 N 
HETATM   35  C21 UNL     1     -34.848  52.877  12.927  1.00  0.00     0.143 C 
HETATM   36  C22 UNL     1     -34.849  51.768  10.826  1.00  0.00     0.143 C 
ENDBRANCH  32  34
ENDBRANCH  29  32
ENDBRANCH  22  25
ENDBRANCH   3  22
TORSDOF 11
ENDMDL
MODEL 2
REMARK VINA RESULT: -6.082461352      3.500      5.253
REMARK  11 active torsions:
REMARK  status: ('A' for Active; 'I' for Inactive)
REMARK    1  A    between atoms: C2_2  and  N1_3 
REMARK    2  A    between atoms: C2_2  and  C8_12 
REMARK       I    between atoms: N1_3  and  C3_5 
REMARK    3  A    between atoms: C3_5  and  O2_7 
REMARK    4  A    between atoms: O2_7  and  C4_8 
REMARK       I    between atoms: C8_12  and  N2_14 
REMARK    5  A    between atoms: N2_14  and  C9_16 
REMARK    6  A    between atoms: C9_16  and  C11_18 
REMARK       I    between atoms: C11_18  and  N3_20 
REMARK    7  A    between atoms: N3_20  and  C12_22 
REMARK    8  A    between atoms: C12_22  and  C13_23 
REMARK    9  A    between atoms: C12_22  and  C14_25 
REMARK       I    between atoms: C14_25  and  N4_27 
REMARK   10  A    between atoms: C18_31  and  C19_32 
REMARK   11  A    between atoms: C19_32  and  N5_34 
ROOT
HETATM    1  C11 UNL     1     -38.558  56.092   5.872  1.00  0.00     0.240 C 
HETATM    2  O4  UNL     1     -37.859  56.079   6.909  1.00  0.00    -0.271 OA
HETATM    3  N3  UNL     1     -39.954  55.889   5.987  1.00  0.00    -0.345 N 
ATOM      4  H3  UNL     1     -40.542  55.897   5.154  1.00  0.00     0.163 HD
ENDROOT
BRANCH   1   5
HETATM    5  C9  UNL     1     -37.901  56.321   4.567  1.00  0.00     0.172 C 
HETATM    6  C10 UNL     1     -36.505  56.813   4.832  1.00  0.00     0.042 C 
BRANCH   5   7
HETATM    7  N2  UNL     1     -37.799  55.072   3.838  1.00  0.00    -0.346 N 
HETATM    8  C8  UNL     1     -38.732  54.715   2.816  1.00  0.00     0.240 C 
HETATM    9  O3  UNL     1     -39.656  55.535   2.568  1.00  0.00    -0.271 OA
ATOM     10  H2  UNL     1     -37.040  54.428   4.062  1.00  0.00     0.163 HD
BRANCH   8  11
HETATM   11  C2  UNL     1     -38.652  53.456   2.066  1.00  0.00     0.174 C 
HETATM   12  C1  UNL     1     -39.187  53.568   0.654  1.00  0.00     0.042 C 
BRANCH  11  13
HETATM   13  N1  UNL     1     -37.287  53.005   2.005  1.00  0.00    -0.324 N 
HETATM   14  C3  UNL     1     -36.714  52.390   0.863  1.00  0.00     0.362 C 
HETATM   15  O1  UNL     1     -37.386  52.196  -0.201  1.00  0.00    -0.238 OA
ATOM     16  H1  UNL     1     -36.700  53.135   2.828  1.00  0.00     0.165 HD
BRANCH  14  17
HETATM   17  O2  UNL     1     -35.406  51.971   0.841  1.00  0.00    -0.294 OA
BRANCH  17  18
HETATM   18  C4  UNL     1     -34.378  52.467   0.039  1.00  0.00     0.061 C 
HETATM   19  C5  UNL     1     -33.199  52.978   0.841  1.00  0.00     0.046 C 
HETATM   20  C6  UNL     1     -33.869  51.360  -0.850  1.00  0.00     0.046 C 
HETATM   21  C7  UNL     1     -34.925  53.567  -0.826  1.00  0.00     0.046 C 
ENDBRANCH  17  18
ENDBRANCH  14  17
ENDBRANCH  11  13
ENDBRANCH   8  11
ENDBRANCH   5   7
ENDBRANCH   1   5
BRANCH   3  22
HETATM   22  C12 UNL     1     -40.560  55.663   7.329  1.00  0.00     0.186 C 
BRANCH  22  23
HETATM   23  C13 UNL     1     -41.136  57.062   7.650  1.00  0.00     0.120 C 
HETATM   24  S1  UNL     1     -40.349  57.880   9.014  1.00  0.00    -0.095 SA
ENDBRANCH  22  23
BRANCH  22  25
HETATM   25  C14 UNL     1     -41.700  54.735   7.189  1.00  0.00     0.243 C 
HETATM   26  O5  UNL     1     -42.735  55.224   6.670  1.00  0.00    -0.271 OA
HETATM   27  N4  UNL     1     -41.694  53.391   7.585  1.00  0.00    -0.344 N 
HETATM   28  C15 UNL     1     -42.917  52.565   7.443  1.00  0.00     0.126 C 
HETATM   29  C18 UNL     1     -40.733  52.475   8.095  1.00  0.00     0.109 C 
HETATM   30  C16 UNL     1     -42.407  51.213   7.011  1.00  0.00     0.022 C 
HETATM   31  C17 UNL     1     -40.924  51.228   7.296  1.00  0.00     0.029 C 
BRANCH  29  32
HETATM   32  C19 UNL     1     -40.563  52.302   9.545  1.00  0.00     0.097 C 
HETATM   33  C20 UNL     1     -40.016  50.968   9.996  1.00  0.00     0.034 C 
BRANCH  32  34
HETATM   34  N5  UNL     1     -39.775  53.390  10.043  1.00  0.00    -0.415 N 
HETATM   35  C21 UNL     1     -40.352  54.369  10.834  1.00  0.00     0.143 C 
HETATM   36  C22 UNL     1     -38.467  53.568   9.630  1.00  0.00     0.143 C 
ENDBRANCH  32  34
ENDBRANCH  29  32
ENDBRANCH  22  25
ENDBRANCH   3  22
TORSDOF 11
ENDMDL
MODEL 3
REMARK VINA RESULT: -6.061730484      5.452      8.926
REMARK  11 active torsions:
REMARK  status: ('A' for Active; 'I' for Inactive)
REMARK    1  A    between atoms: C2_2  and  N1_3 
REMARK    2  A    between atoms: C2_2  and  C8_12 
REMARK       I    between atoms: N1_3  and  C3_5 
REMARK    3  A    between atoms: C3_5  and  O2_7 
REMARK    4  A    between atoms: O2_7  and  C4_8 
REMARK       I    between atoms: C8_12  and  N2_14 
REMARK    5  A    between atoms: N2_14  and  C9_16 
REMARK    6  A    between atoms: C9_16  and  C11_18 
REMARK       I    between atoms: C11_18  and  N3_20 
REMARK    7  A    between atoms: N3_20  and  C12_22 
REMARK    8  A    between atoms: C12_22  and  C13_23 
REMARK    9  A    between atoms: C12_22  and  C14_25 
REMARK       I    between atoms: C14_25  and  N4_27 
REMARK   10  A    between atoms: C18_31  and  C19_32 
REMARK   11  A    between atoms: C19_32  and  N5_34 
ROOT
HETATM    1  C11 UNL     1     -38.897  56.980   4.107  1.00  0.00     0.240 C 
HETATM    2  O4  UNL     1     -39.747  56.511   4.896  1.00  0.00    -0.271 OA
HETATM    3  N3  UNL     1     -39.178  58.200   3.446  1.00  0.00    -0.345 N 
ATOM      4  H3  UNL     1     -38.499  58.600   2.800  1.00  0.00     0.163 HD
ENDROOT
BRANCH   1   5
HETATM    5  C9  UNL     1     -37.633  56.244   3.893  1.00  0.00     0.172 C 
HETATM    6  C10 UNL     1     -36.825  56.335   5.158  1.00  0.00     0.042 C 
BRANCH   5   7
HETATM    7  N2  UNL     1     -37.911  54.842   3.646  1.00  0.00    -0.346 N 
HETATM    8  C8  UNL     1     -38.421  54.382   2.393  1.00  0.00     0.240 C 
HETATM    9  O3  UNL     1     -38.622  55.248   1.501  1.00  0.00    -0.271 OA
ATOM     10  H2  UNL     1     -37.738  54.165   4.389  1.00  0.00     0.163 HD
BRANCH   8  11
HETATM   11  C2  UNL     1     -38.713  52.970   2.120  1.00  0.00     0.174 C 
HETATM   12  C1  UNL     1     -40.082  52.750   1.512  1.00  0.00     0.042 C 
BRANCH  11  13
HETATM   13  N1  UNL     1     -37.722  52.426   1.229  1.00  0.00    -0.324 N 
HETATM   14  C3  UNL     1     -36.337  52.384   1.527  1.00  0.00     0.362 C 
HETATM   15  O1  UNL     1     -35.874  52.836   2.624  1.00  0.00    -0.238 OA
ATOM     16  H1  UNL     1     -38.035  52.048   0.335  1.00  0.00     0.165 HD
BRANCH  14  17
HETATM   17  O2  UNL     1     -35.419  51.857   0.651  1.00  0.00    -0.294 OA
BRANCH  17  18
HETATM   18  C4  UNL     1     -34.508  52.562  -0.135  1.00  0.00     0.061 C 
HETATM   19  C5  UNL     1     -33.357  53.136   0.666  1.00  0.00     0.046 C 
HETATM   20  C6  UNL     1     -33.918  51.628  -1.161  1.00  0.00     0.046 C 
HETATM   21  C7  UNL     1     -35.234  53.667  -0.849  1.00  0.00     0.046 C 
ENDBRANCH  17  18
ENDBRANCH  14  17
ENDBRANCH  11  13
ENDBRANCH   8  11
ENDBRANCH   5   7
ENDBRANCH   1   5
BRANCH   3  22
HETATM   22  C12 UNL     1     -40.470  58.897   3.701  1.00  0.00     0.186 C 
BRANCH  22  23
HETATM   23  C13 UNL     1     -39.994  60.186   4.411  1.00  0.00     0.120 C 
HETATM   24  S1  UNL     1     -39.793  60.020   6.167  1.00  0.00    -0.095 SA
ENDBRANCH  22  23
BRANCH  22  25
HETATM   25  C14 UNL     1     -41.061  59.296   2.409  1.00  0.00     0.243 C 
HETATM   26  O5  UNL     1     -40.239  59.548   1.492  1.00  0.00    -0.271 OA
HETATM   27  N4  UNL     1     -42.436  59.403   2.154  1.00  0.00    -0.344 N 
HETATM   28  C15 UNL     1     -42.916  59.864   0.828  1.00  0.00     0.126 C 
HETATM   29  C18 UNL     1     -43.636  59.121   2.861  1.00  0.00     0.109 C 
HETATM   30  C16 UNL     1     -44.132  59.015   0.556  1.00  0.00     0.022 C 
HETATM   31  C17 UNL     1     -44.500  58.396   1.883  1.00  0.00     0.029 C 
BRANCH  29  32
HETATM   32  C19 UNL     1     -44.292  60.162   3.664  1.00  0.00     0.097 C 
HETATM   33  C20 UNL     1     -45.799  60.098   3.734  1.00  0.00     0.034 C 
BRANCH  32  34
HETATM   34  N5  UNL     1     -43.704  60.166   4.971  1.00  0.00    -0.415 N 
HETATM   35  C21 UNL     1     -43.575  58.987   5.686  1.00  0.00     0.143 C 
HETATM   36  C22 UNL     1     -43.388  61.355   5.606  1.00  0.00     0.143 C 
ENDBRANCH  32  34
ENDBRANCH  29  32
ENDBRANCH  22  25
ENDBRANCH   3  22
TORSDOF 11
ENDMDL
MODEL 4
REMARK VINA RESULT: -6.006562762      4.241      6.145
REMARK  11 active torsions:
REMARK  status: ('A' for Active; 'I' for Inactive)
REMARK    1  A    between atoms: C2_2  and  N1_3 
REMARK    2  A    between atoms: C2_2  and  C8_12 
REMARK       I    between atoms: N1_3  and  C3_5 
REMARK    3  A    between atoms: C3_5  and  O2_7 
REMARK    4  A    between atoms: O2_7  and  C4_8 
REMARK       I    between atoms: C8_12  and  N2_14 
REMARK    5  A    between atoms: N2_14  and  C9_16 
REMARK    6  A    between atoms: C9_16  and  C11_18 
REMARK       I    between atoms: C11_18  and  N3_20 
REMARK    7  A    between atoms: N3_20  and  C12_22 
REMARK    8  A    between atoms: C12_22  and  C13_23 
REMARK    9  A    between atoms: C12_22  and  C14_25 
REMARK       I    between atoms: C14_25  and  N4_27 
REMARK   10  A    between atoms: C18_31  and  C19_32 
REMARK   11  A    between atoms: C19_32  and  N5_34 
ROOT
HETATM    1  C11 UNL     1     -39.557  54.062   4.339  1.00  0.00     0.240 C 
HETATM    2  O4  UNL     1     -39.972  52.883   4.305  1.00  0.00    -0.271 OA
HETATM    3  N3  UNL     1     -39.659  54.787   5.551  1.00  0.00    -0.345 N 
ATOM      4  H3  UNL     1     -39.325  55.749   5.602  1.00  0.00     0.163 HD
ENDROOT
BRANCH   1   5
HETATM    5  C9  UNL     1     -38.974  54.654   3.117  1.00  0.00     0.172 C 
HETATM    6  C10 UNL     1     -39.308  53.752   1.961  1.00  0.00     0.042 C 
BRANCH   5   7
HETATM    7  N2  UNL     1     -39.576  55.947   2.856  1.00  0.00    -0.346 N 
HETATM    8  C8  UNL     1     -38.966  57.166   3.286  1.00  0.00     0.240 C 
HETATM    9  O3  UNL     1     -37.873  57.075   3.906  1.00  0.00    -0.271 OA
ATOM     10  H2  UNL     1     -40.462  55.988   2.352  1.00  0.00     0.163 HD
BRANCH   8  11
HETATM   11  C2  UNL     1     -39.556  58.486   3.037  1.00  0.00     0.174 C 
HETATM   12  C1  UNL     1     -38.609  59.442   2.344  1.00  0.00     0.042 C 
BRANCH  11  13
HETATM   13  N1  UNL     1     -40.743  58.352   2.235  1.00  0.00    -0.324 N 
HETATM   14  C3  UNL     1     -42.031  58.759   2.664  1.00  0.00     0.362 C 
HETATM   15  O1  UNL     1     -42.221  59.279   3.811  1.00  0.00    -0.238 OA
ATOM     16  H1  UNL     1     -40.652  57.942   1.305  1.00  0.00     0.165 HD
BRANCH  14  17
HETATM   17  O2  UNL     1     -43.143  58.615   1.871  1.00  0.00    -0.294 OA
BRANCH  17  18
HETATM   18  C4  UNL     1     -43.513  59.416   0.790  1.00  0.00     0.061 C 
HETATM   19  C5  UNL     1     -43.080  60.860   0.951  1.00  0.00     0.046 C 
HETATM   20  C6  UNL     1     -42.857  58.889  -0.461  1.00  0.00     0.046 C 
HETATM   21  C7  UNL     1     -45.004  59.345   0.621  1.00  0.00     0.046 C 
ENDBRANCH  17  18
ENDBRANCH  14  17
ENDBRANCH  11  13
ENDBRANCH   8  11
ENDBRANCH   5   7
ENDBRANCH   1   5
BRANCH   3  22
HETATM   22  C12 UNL     1     -40.256  54.138   6.752  1.00  0.00     0.186 C 
BRANCH  22  23
HETATM   23  C13 UNL     1     -39.415  54.759   7.892  1.00  0.00     0.120 C 
HETATM   24  S1  UNL     1     -38.229  55.963   7.351  1.00  0.00    -0.095 SA
ENDBRANCH  22  23
BRANCH  22  25
HETATM   25  C14 UNL     1     -41.643  54.615   6.914  1.00  0.00     0.243 C 
HETATM   26  O5  UNL     1     -41.822  55.841   6.702  1.00  0.00    -0.271 OA
HETATM   27  N4  UNL     1     -42.733  53.810   7.274  1.00  0.00    -0.344 N 
HETATM   28  C15 UNL     1     -44.077  54.410   7.457  1.00  0.00     0.126 C 
HETATM   29  C18 UNL     1     -42.956  52.423   7.491  1.00  0.00     0.109 C 
HETATM   30  C16 UNL     1     -45.024  53.386   6.883  1.00  0.00     0.022 C 
HETATM   31  C17 UNL     1     -44.219  52.115   6.756  1.00  0.00     0.029 C 
BRANCH  29  32
HETATM   32  C19 UNL     1     -42.827  51.848   8.837  1.00  0.00     0.097 C 
HETATM   33  C20 UNL     1     -43.570  50.555   9.082  1.00  0.00     0.034 C 
BRANCH  32  34
HETATM   34  N5  UNL     1     -41.434  51.721   9.146  1.00  0.00    -0.415 N 
HETATM   35  C21 UNL     1     -40.625  50.877   8.405  1.00  0.00     0.143 C 
HETATM   36  C22 UNL     1     -40.898  52.320  10.273  1.00  0.00     0.143 C 
ENDBRANCH  32  34
ENDBRANCH  29  32
ENDBRANCH  22  25
ENDBRANCH   3  22
TORSDOF 11
ENDMDL
MODEL 5
REMARK VINA RESULT: -5.881745333      5.262     10.106
REMARK  11 active torsions:
REMARK  status: ('A' for Active; 'I' for Inactive)
REMARK    1  A    between atoms: C2_2  and  N1_3 
REMARK    2  A    between atoms: C2_2  and  C8_12 
REMARK       I    between atoms: N1_3  and  C3_5 
REMARK    3  A    between atoms: C3_5  and  O2_7 
REMARK    4  A    between atoms: O2_7  and  C4_8 
REMARK       I    between atoms: C8_12  and  N2_14 
REMARK    5  A    between atoms: N2_14  and  C9_16 
REMARK    6  A    between atoms: C9_16  and  C11_18 
REMARK       I    between atoms: C11_18  and  N3_20 
REMARK    7  A    between atoms: N3_20  and  C12_22 
REMARK    8  A    between atoms: C12_22  and  C13_23 
REMARK    9  A    between atoms: C12_22  and  C14_25 
REMARK       I    between atoms: C14_25  and  N4_27 
REMARK   10  A    between atoms: C18_31  and  C19_32 
REMARK   11  A    between atoms: C19_32  and  N5_34 
ROOT
HETATM    1  C11 UNL     1     -40.629  59.984   5.119  1.00  0.00     0.240 C 
HETATM    2  O4  UNL     1     -41.658  60.536   5.569  1.00  0.00    -0.271 OA
HETATM    3  N3  UNL     1     -40.420  59.967   3.719  1.00  0.00    -0.345 N 
ATOM      4  H3  UNL     1     -39.588  59.523   3.332  1.00  0.00     0.163 HD
ENDROOT
BRANCH   1   5
HETATM    5  C9  UNL     1     -39.671  59.373   6.065  1.00  0.00     0.172 C 
HETATM    6  C10 UNL     1     -40.455  58.812   7.219  1.00  0.00     0.042 C 
BRANCH   5   7
HETATM    7  N2  UNL     1     -38.978  58.271   5.425  1.00  0.00    -0.346 N 
HETATM    8  C8  UNL     1     -37.555  58.248   5.293  1.00  0.00     0.240 C 
HETATM    9  O3  UNL     1     -36.918  59.230   5.760  1.00  0.00    -0.271 OA
ATOM     10  H2  UNL     1     -39.522  57.491   5.057  1.00  0.00     0.163 HD
BRANCH   8  11
HETATM   11  C2  UNL     1     -36.831  57.147   4.648  1.00  0.00     0.174 C 
HETATM   12  C1  UNL     1     -35.651  56.653   5.459  1.00  0.00     0.042 C 
BRANCH  11  13
HETATM   13  N1  UNL     1     -37.721  56.042   4.413  1.00  0.00    -0.324 N 
HETATM   14  C3  UNL     1     -38.625  55.981   3.323  1.00  0.00     0.362 C 
HETATM   15  O1  UNL     1     -38.707  56.921   2.468  1.00  0.00    -0.238 OA
ATOM     16  H1  UNL     1     -37.700  55.259   5.066  1.00  0.00     0.165 HD
BRANCH  14  17
HETATM   17  O2  UNL     1     -39.462  54.909   3.130  1.00  0.00    -0.294 OA
BRANCH  17  18
HETATM   18  C4  UNL     1     -39.129  53.672   2.579  1.00  0.00     0.061 C 
HETATM   19  C5  UNL     1     -37.633  53.467   2.452  1.00  0.00     0.046 C 
HETATM   20  C6  UNL     1     -39.657  52.577   3.471  1.00  0.00     0.046 C 
HETATM   21  C7  UNL     1     -39.778  53.550   1.229  1.00  0.00     0.046 C 
ENDBRANCH  17  18
ENDBRANCH  14  17
ENDBRANCH  11  13
ENDBRANCH   8  11
ENDBRANCH   5   7
ENDBRANCH   1   5
BRANCH   3  22
HETATM   22  C12 UNL     1     -41.421  60.600   2.815  1.00  0.00     0.186 C 
BRANCH  22  23
HETATM   23  C13 UNL     1     -40.508  61.334   1.805  1.00  0.00     0.120 C 
HETATM   24  S1  UNL     1     -38.844  60.719   1.746  1.00  0.00    -0.095 SA
ENDBRANCH  22  23
BRANCH  22  25
HETATM   25  C14 UNL     1     -42.136  59.540   2.077  1.00  0.00     0.243 C 
HETATM   26  O5  UNL     1     -41.525  58.447   1.971  1.00  0.00    -0.271 OA
HETATM   27  N4  UNL     1     -43.411  59.677   1.511  1.00  0.00    -0.344 N 
HETATM   28  C15 UNL     1     -44.013  58.557   0.745  1.00  0.00     0.126 C 
HETATM   29  C18 UNL     1     -44.427  60.671   1.497  1.00  0.00     0.109 C 
HETATM   30  C16 UNL     1     -45.472  58.587   1.125  1.00  0.00     0.022 C 
HETATM   31  C17 UNL     1     -45.695  59.932   1.774  1.00  0.00     0.029 C 
BRANCH  29  32
HETATM   32  C19 UNL     1     -44.477  61.673   0.425  1.00  0.00     0.097 C 
HETATM   33  C20 UNL     1     -45.518  61.451  -0.647  1.00  0.00     0.034 C 
BRANCH  32  34
HETATM   34  N5  UNL     1     -44.604  62.971   1.021  1.00  0.00    -0.415 N 
HETATM   35  C21 UNL     1     -43.686  63.404   1.961  1.00  0.00     0.143 C 
HETATM   36  C22 UNL     1     -45.719  63.756   0.783  1.00  0.00     0.143 C 
ENDBRANCH  32  34
ENDBRANCH  29  32
ENDBRANCH  22  25
ENDBRANCH   3  22
TORSDOF 11
ENDMDL
