MODEL 1
REMARK VINA RESULT: -6.810188776      0.000      0.000
REMARK  12 active torsions:
REMARK  status: ('A' for Active; 'I' for Inactive)
REMARK    1  A    between atoms: C2_2  and  C3_3 
REMARK    2  A    between atoms: C3_3  and  C4_4 
REMARK    3  A    between atoms: C4_4  and  C5_5 
REMARK    4  A    between atoms: N1_8  and  C7_9 
REMARK    5  A    between atoms: C7_9  and  C8_10 
REMARK    6  A    between atoms: C8_10  and  N2_11 
REMARK    7  A    between atoms: N2_11  and  S1_13 
REMARK    8  A    between atoms: S1_13  and  C9_16 
REMARK    9  A    between atoms: C9_16  and  C10_17 
REMARK   10  A    between atoms: C15_22  and  O4_23 
REMARK   11  A    between atoms: C16_25  and  O5_26 
REMARK   12  A    between atoms: C23_34  and  O6_35 
ROOT
HETATM    1  S1  UNL     1     -39.131  57.250   3.429  1.00  0.00     0.227 S 
HETATM    2  O2  UNL     1     -40.307  57.779   4.194  1.00  0.00    -0.206 OA
HETATM    3  O3  UNL     1     -38.918  58.154   2.255  1.00  0.00    -0.206 OA
ENDROOT
BRANCH   1   4
HETATM    4  N2  UNL     1     -39.712  55.684   2.883  1.00  0.00    -0.318 N 
ATOM      5  H2  UNL     1     -40.182  55.521   1.992  1.00  0.00     0.172 HD
BRANCH   4   6
HETATM    6  C8  UNL     1     -39.442  54.668   3.848  1.00  0.00     0.151 C 
BRANCH   6   7
HETATM    7  C7  UNL     1     -39.445  53.310   3.194  1.00  0.00     0.146 C 
BRANCH   7   8
HETATM    8  N1  UNL     1     -38.303  53.238   2.308  1.00  0.00    -0.348 N 
HETATM    9  C6  UNL     1     -38.396  53.022   0.876  1.00  0.00     0.226 C 
HETATM   10  C5  UNL     1     -37.067  53.392   0.366  1.00  0.00     0.108 C 
HETATM   11  O1  UNL     1     -39.436  52.612   0.337  1.00  0.00    -0.273 OA
HETATM   12  C23 UNL     1     -36.181  52.806   1.463  1.00  0.00     0.149 C 
HETATM   13  C22 UNL     1     -36.917  53.368   2.689  1.00  0.00     0.158 C 
BRANCH  10  14
HETATM   14  C4  UNL     1     -36.699  52.921  -0.981  1.00  0.00     0.017 C 
BRANCH  14  15
HETATM   15  C3  UNL     1     -35.321  53.379  -1.362  1.00  0.00     0.001 C 
BRANCH  15  16
HETATM   16  C2  UNL     1     -34.297  52.271  -1.086  1.00  0.00    -0.005 C 
HETATM   17  C1  UNL     1     -33.153  52.963  -0.333  1.00  0.00     0.005 C 
ENDBRANCH  15  16
ENDBRANCH  14  15
ENDBRANCH  10  14
BRANCH  12  18
HETATM   18  O6  UNL     1     -36.308  51.420   1.537  1.00  0.00    -0.393 OA
ATOM     19  H6  UNL     1     -37.169  51.135   1.254  1.00  0.00     0.210 HD
ENDBRANCH  12  18
ENDBRANCH   7   8
ENDBRANCH   6   7
ENDBRANCH   4   6
ENDBRANCH   1   4
BRANCH   1  20
HETATM   20  C9  UNL     1     -37.698  57.054   4.422  1.00  0.00     0.173 C 
BRANCH  20  21
HETATM   21  C10 UNL     1     -37.414  58.086   5.430  1.00  0.00    -0.014 A 
HETATM   22  C11 UNL     1     -37.340  59.449   4.722  1.00  0.00     0.018 C 
HETATM   23  C12 UNL     1     -38.005  58.102   6.781  1.00  0.00     0.029 A 
HETATM   24  C13 UNL     1     -39.165  57.312   7.135  1.00  0.00    -0.022 C 
HETATM   25  C17 UNL     1     -36.721  57.686   7.421  1.00  0.00    -0.000 A 
HETATM   26  C14 UNL     1     -39.100  56.095   7.647  1.00  0.00     0.003 C 
HETATM   27  C15 UNL     1     -37.811  55.450   7.899  1.00  0.00     0.170 C 
HETATM   28  C16 UNL     1     -36.698  56.422   8.177  1.00  0.00     0.160 C 
HETATM   29  C18 UNL     1     -36.212  58.815   8.338  1.00  0.00     0.019 C 
HETATM   30  C19 UNL     1     -36.056  57.765   6.101  1.00  0.00    -0.028 A 
HETATM   31  C20 UNL     1     -35.379  56.552   5.574  1.00  0.00     0.016 C 
HETATM   32  C21 UNL     1     -35.059  58.927   5.949  1.00  0.00     0.016 C 
BRANCH  27  33
HETATM   33  O4  UNL     1     -37.987  54.611   9.031  1.00  0.00    -0.389 OA
ATOM     34  H4  UNL     1     -37.274  54.805   9.629  1.00  0.00     0.210 HD
ENDBRANCH  27  33
BRANCH  28  35
HETATM   35  O5  UNL     1     -35.502  55.710   8.060  1.00  0.00    -0.392 OA
ATOM     36  H5  UNL     1     -34.857  56.315   7.713  1.00  0.00     0.210 HD
ENDBRANCH  28  35
ENDBRANCH  20  21
ENDBRANCH   1  20
TORSDOF 12
ENDMDL
MODEL 2
REMARK VINA RESULT: -6.488258074      3.328      6.331
REMARK  12 active torsions:
REMARK  status: ('A' for Active; 'I' for Inactive)
REMARK    1  A    between atoms: C2_2  and  C3_3 
REMARK    2  A    between atoms: C3_3  and  C4_4 
REMARK    3  A    between atoms: C4_4  and  C5_5 
REMARK    4  A    between atoms: N1_8  and  C7_9 
REMARK    5  A    between atoms: C7_9  and  C8_10 
REMARK    6  A    between atoms: C8_10  and  N2_11 
REMARK    7  A    between atoms: N2_11  and  S1_13 
REMARK    8  A    between atoms: S1_13  and  C9_16 
REMARK    9  A    between atoms: C9_16  and  C10_17 
REMARK   10  A    between atoms: C15_22  and  O4_23 
REMARK   11  A    between atoms: C16_25  and  O5_26 
REMARK   12  A    between atoms: C23_34  and  O6_35 
ROOT
HETATM    1  S1  UNL     1     -39.290  59.600   6.813  1.00  0.00     0.227 S 
HETATM    2  O2  UNL     1     -39.642  60.941   7.382  1.00  0.00    -0.206 OA
HETATM    3  O3  UNL     1     -40.327  58.628   7.282  1.00  0.00    -0.206 OA
ENDROOT
BRANCH   1   4
HETATM    4  N2  UNL     1     -37.750  59.255   7.587  1.00  0.00    -0.318 N 
ATOM      5  H2  UNL     1     -36.962  59.904   7.619  1.00  0.00     0.172 HD
BRANCH   4   6
HETATM    6  C8  UNL     1     -37.743  57.952   8.166  1.00  0.00     0.151 C 
BRANCH   6   7
HETATM    7  C7  UNL     1     -36.829  57.039   7.390  1.00  0.00     0.146 C 
BRANCH   7   8
HETATM    8  N1  UNL     1     -37.629  56.328   6.416  1.00  0.00    -0.348 N 
HETATM    9  C6  UNL     1     -37.386  56.358   4.986  1.00  0.00     0.226 C 
HETATM   10  C5  UNL     1     -38.176  55.235   4.460  1.00  0.00     0.108 C 
HETATM   11  O1  UNL     1     -36.647  57.204   4.459  1.00  0.00    -0.273 OA
HETATM   12  C23 UNL     1     -39.435  55.361   5.316  1.00  0.00     0.149 C 
HETATM   13  C22 UNL     1     -38.772  55.491   6.695  1.00  0.00     0.158 C 
BRANCH  10  14
HETATM   14  C4  UNL     1     -38.465  55.221   3.014  1.00  0.00     0.017 C 
BRANCH  14  15
HETATM   15  C3  UNL     1     -38.259  53.854   2.429  1.00  0.00     0.001 C 
BRANCH  15  16
HETATM   16  C2  UNL     1     -39.079  53.698   1.142  1.00  0.00    -0.005 C 
HETATM   17  C1  UNL     1     -40.135  52.633   1.470  1.00  0.00     0.005 C 
ENDBRANCH  15  16
ENDBRANCH  14  15
ENDBRANCH  10  14
BRANCH  12  18
HETATM   18  O6  UNL     1     -40.089  56.570   5.086  1.00  0.00    -0.393 OA
ATOM     19  H6  UNL     1     -40.821  56.461   4.490  1.00  0.00     0.210 HD
ENDBRANCH  12  18
ENDBRANCH   7   8
ENDBRANCH   6   7
ENDBRANCH   4   6
ENDBRANCH   1   4
BRANCH   1  20
HETATM   20  C9  UNL     1     -39.100  59.624   5.068  1.00  0.00     0.173 C 
BRANCH  20  21
HETATM   21  C10 UNL     1     -40.128  60.314   4.274  1.00  0.00    -0.014 A 
HETATM   22  C11 UNL     1     -41.510  59.835   4.749  1.00  0.00     0.018 C 
HETATM   23  C12 UNL     1     -40.047  61.732   3.878  1.00  0.00     0.029 A 
HETATM   24  C13 UNL     1     -39.134  62.666   4.502  1.00  0.00    -0.022 C 
HETATM   25  C17 UNL     1     -39.745  61.387   2.457  1.00  0.00    -0.000 A 
HETATM   26  C14 UNL     1     -37.916  62.919   4.054  1.00  0.00     0.003 C 
HETATM   27  C15 UNL     1     -37.398  62.250   2.859  1.00  0.00     0.170 C 
HETATM   28  C16 UNL     1     -38.470  61.850   1.884  1.00  0.00     0.160 C 
HETATM   29  C18 UNL     1     -40.894  61.874   1.553  1.00  0.00     0.019 C 
HETATM   30  C19 UNL     1     -39.928  59.955   2.782  1.00  0.00    -0.028 A 
HETATM   31  C20 UNL     1     -38.804  59.019   2.518  1.00  0.00     0.016 C 
HETATM   32  C21 UNL     1     -41.188  59.311   2.179  1.00  0.00     0.016 C 
BRANCH  27  33
HETATM   33  O4  UNL     1     -36.515  63.166   2.229  1.00  0.00    -0.389 OA
ATOM     34  H4  UNL     1     -35.637  62.820   2.339  1.00  0.00     0.210 HD
ENDBRANCH  27  33
BRANCH  28  35
HETATM   35  O5  UNL     1     -37.886  60.949   0.991  1.00  0.00    -0.392 OA
ATOM     36  H5  UNL     1     -37.673  60.169   1.489  1.00  0.00     0.210 HD
ENDBRANCH  28  35
ENDBRANCH  20  21
ENDBRANCH   1  20
TORSDOF 12
ENDMDL
MODEL 3
REMARK VINA RESULT: -6.431911165      3.152      6.214
REMARK  12 active torsions:
REMARK  status: ('A' for Active; 'I' for Inactive)
REMARK    1  A    between atoms: C2_2  and  C3_3 
REMARK    2  A    between atoms: C3_3  and  C4_4 
REMARK    3  A    between atoms: C4_4  and  C5_5 
REMARK    4  A    between atoms: N1_8  and  C7_9 
REMARK    5  A    between atoms: C7_9  and  C8_10 
REMARK    6  A    between atoms: C8_10  and  N2_11 
REMARK    7  A    between atoms: N2_11  and  S1_13 
REMARK    8  A    between atoms: S1_13  and  C9_16 
REMARK    9  A    between atoms: C9_16  and  C10_17 
REMARK   10  A    between atoms: C15_22  and  O4_23 
REMARK   11  A    between atoms: C16_25  and  O5_26 
REMARK   12  A    between atoms: C23_34  and  O6_35 
ROOT
HETATM    1  S1  UNL     1     -39.048  59.849   6.553  1.00  0.00     0.227 S 
HETATM    2  O2  UNL     1     -38.638  60.690   7.724  1.00  0.00    -0.206 OA
HETATM    3  O3  UNL     1     -40.142  58.938   7.017  1.00  0.00    -0.206 OA
ENDROOT
BRANCH   1   4
HETATM    4  N2  UNL     1     -37.591  58.921   6.228  1.00  0.00    -0.318 N 
ATOM      5  H2  UNL     1     -37.147  58.847   5.312  1.00  0.00     0.172 HD
BRANCH   4   6
HETATM    6  C8  UNL     1     -37.110  58.284   7.410  1.00  0.00     0.151 C 
BRANCH   6   7
HETATM    7  C7  UNL     1     -36.569  56.916   7.085  1.00  0.00     0.146 C 
BRANCH   7   8
HETATM    8  N1  UNL     1     -37.615  56.168   6.420  1.00  0.00    -0.348 N 
HETATM    9  C6  UNL     1     -37.652  55.915   4.992  1.00  0.00     0.226 C 
HETATM   10  C5  UNL     1     -38.646  54.842   4.840  1.00  0.00     0.108 C 
HETATM   11  O1  UNL     1     -36.944  56.545   4.191  1.00  0.00    -0.273 OA
HETATM   12  C23 UNL     1     -39.693  55.292   5.856  1.00  0.00     0.149 C 
HETATM   13  C22 UNL     1     -38.764  55.562   7.050  1.00  0.00     0.158 C 
BRANCH  10  14
HETATM   14  C4  UNL     1     -39.210  54.620   3.496  1.00  0.00     0.017 C 
BRANCH  14  15
HETATM   15  C3  UNL     1     -39.199  53.163   3.133  1.00  0.00     0.001 C 
BRANCH  15  16
HETATM   16  C2  UNL     1     -39.934  52.940   1.805  1.00  0.00    -0.005 C 
HETATM   17  C1  UNL     1     -38.913  53.303   0.719  1.00  0.00     0.005 C 
ENDBRANCH  15  16
ENDBRANCH  14  15
ENDBRANCH  10  14
BRANCH  12  18
HETATM   18  O6  UNL     1     -40.246  56.523   5.509  1.00  0.00    -0.393 OA
ATOM     19  H6  UNL     1     -39.619  57.228   5.617  1.00  0.00     0.210 HD
ENDBRANCH  12  18
ENDBRANCH   7   8
ENDBRANCH   6   7
ENDBRANCH   4   6
ENDBRANCH   1   4
BRANCH   1  20
HETATM   20  C9  UNL     1     -39.488  60.801   5.145  1.00  0.00     0.173 C 
BRANCH  20  21
HETATM   21  C10 UNL     1     -38.528  60.867   4.033  1.00  0.00    -0.014 A 
HETATM   22  C11 UNL     1     -37.164  61.300   4.594  1.00  0.00     0.018 C 
HETATM   23  C12 UNL     1     -38.482  59.891   2.928  1.00  0.00     0.029 A 
HETATM   24  C13 UNL     1     -39.136  58.602   2.996  1.00  0.00    -0.022 C 
HETATM   25  C17 UNL     1     -39.070  60.862   1.957  1.00  0.00    -0.000 A 
HETATM   26  C14 UNL     1     -40.367  58.376   2.570  1.00  0.00     0.003 C 
HETATM   27  C15 UNL     1     -41.171  59.448   1.982  1.00  0.00     0.170 C 
HETATM   28  C16 UNL     1     -40.349  60.517   1.315  1.00  0.00     0.160 C 
HETATM   29  C18 UNL     1     -38.038  61.178   0.856  1.00  0.00     0.019 C 
HETATM   30  C19 UNL     1     -39.031  61.908   3.004  1.00  0.00    -0.028 A 
HETATM   31  C20 UNL     1     -40.301  62.583   3.379  1.00  0.00     0.016 C 
HETATM   32  C21 UNL     1     -37.994  63.020   2.768  1.00  0.00     0.016 C 
BRANCH  27  33
HETATM   33  O4  UNL     1     -42.016  58.842   1.015  1.00  0.00    -0.389 OA
ATOM     34  H4  UNL     1     -41.804  59.240   0.179  1.00  0.00     0.210 HD
ENDBRANCH  27  33
BRANCH  28  35
HETATM   35  O5  UNL     1     -41.196  61.607   1.110  1.00  0.00    -0.392 OA
ATOM     36  H5  UNL     1     -42.084  61.268   1.105  1.00  0.00     0.210 HD
ENDBRANCH  28  35
ENDBRANCH  20  21
ENDBRANCH   1  20
TORSDOF 12
ENDMDL
MODEL 4
REMARK VINA RESULT: -6.429067614      3.891      6.701
REMARK  12 active torsions:
REMARK  status: ('A' for Active; 'I' for Inactive)
REMARK    1  A    between atoms: C2_2  and  C3_3 
REMARK    2  A    between atoms: C3_3  and  C4_4 
REMARK    3  A    between atoms: C4_4  and  C5_5 
REMARK    4  A    between atoms: N1_8  and  C7_9 
REMARK    5  A    between atoms: C7_9  and  C8_10 
REMARK    6  A    between atoms: C8_10  and  N2_11 
REMARK    7  A    between atoms: N2_11  and  S1_13 
REMARK    8  A    between atoms: S1_13  and  C9_16 
REMARK    9  A    between atoms: C9_16  and  C10_17 
REMARK   10  A    between atoms: C15_22  and  O4_23 
REMARK   11  A    between atoms: C16_25  and  O5_26 
REMARK   12  A    between atoms: C23_34  and  O6_35 
ROOT
HETATM    1  S1  UNL     1     -37.676  60.837   4.772  1.00  0.00     0.227 S 
HETATM    2  O2  UNL     1     -37.320  59.830   3.720  1.00  0.00    -0.206 OA
HETATM    3  O3  UNL     1     -36.860  62.065   4.509  1.00  0.00    -0.206 OA
ENDROOT
BRANCH   1   4
HETATM    4  N2  UNL     1     -37.124  60.053   6.245  1.00  0.00    -0.318 N 
ATOM      5  H2  UNL     1     -36.258  60.285   6.732  1.00  0.00     0.172 HD
BRANCH   4   6
HETATM    6  C8  UNL     1     -38.043  59.050   6.672  1.00  0.00     0.151 C 
BRANCH   6   7
HETATM    7  C7  UNL     1     -37.459  57.678   6.457  1.00  0.00     0.146 C 
BRANCH   7   8
HETATM    8  N1  UNL     1     -38.160  57.060   5.352  1.00  0.00    -0.348 N 
HETATM    9  C6  UNL     1     -37.599  56.017   4.514  1.00  0.00     0.226 C 
HETATM   10  C5  UNL     1     -38.760  55.459   3.805  1.00  0.00     0.108 C 
HETATM   11  O1  UNL     1     -36.385  55.761   4.502  1.00  0.00    -0.273 OA
HETATM   12  C23 UNL     1     -39.542  56.737   3.511  1.00  0.00     0.149 C 
HETATM   13  C22 UNL     1     -39.500  57.368   4.911  1.00  0.00     0.158 C 
BRANCH  10  14
HETATM   14  C4  UNL     1     -38.500  54.655   2.596  1.00  0.00     0.017 C 
BRANCH  14  15
HETATM   15  C3  UNL     1     -39.430  53.481   2.510  1.00  0.00     0.001 C 
BRANCH  15  16
HETATM   16  C2  UNL     1     -39.794  53.197   1.047  1.00  0.00    -0.005 C 
HETATM   17  C1  UNL     1     -38.449  53.099   0.314  1.00  0.00     0.005 C 
ENDBRANCH  15  16
ENDBRANCH  14  15
ENDBRANCH  10  14
BRANCH  12  18
HETATM   18  O6  UNL     1     -38.826  57.594   2.678  1.00  0.00    -0.393 OA
ATOM     19  H6  UNL     1     -39.162  57.577   1.790  1.00  0.00     0.210 HD
ENDBRANCH  12  18
ENDBRANCH   7   8
ENDBRANCH   6   7
ENDBRANCH   4   6
ENDBRANCH   1   4
BRANCH   1  20
HETATM   20  C9  UNL     1     -39.400  61.155   4.862  1.00  0.00     0.173 C 
BRANCH  20  21
HETATM   21  C10 UNL     1     -39.908  62.374   4.216  1.00  0.00    -0.014 A 
HETATM   22  C11 UNL     1     -39.421  63.589   5.021  1.00  0.00     0.018 C 
HETATM   23  C12 UNL     1     -39.977  62.563   2.755  1.00  0.00     0.029 A 
HETATM   24  C13 UNL     1     -39.250  61.726   1.824  1.00  0.00    -0.022 C 
HETATM   25  C17 UNL     1     -41.462  62.409   2.737  1.00  0.00    -0.000 A 
HETATM   26  C14 UNL     1     -39.748  60.633   1.271  1.00  0.00     0.003 C 
HETATM   27  C15 UNL     1     -41.109  60.187   1.574  1.00  0.00     0.170 C 
HETATM   28  C16 UNL     1     -42.038  61.309   1.945  1.00  0.00     0.160 C 
HETATM   29  C18 UNL     1     -42.112  63.731   2.285  1.00  0.00     0.019 C 
HETATM   30  C19 UNL     1     -41.455  62.327   4.214  1.00  0.00    -0.028 A 
HETATM   31  C20 UNL     1     -42.037  61.121   4.860  1.00  0.00     0.016 C 
HETATM   32  C21 UNL     1     -42.061  63.545   4.932  1.00  0.00     0.016 C 
BRANCH  27  33
HETATM   33  O4  UNL     1     -41.598  59.547   0.404  1.00  0.00    -0.389 OA
ATOM     34  H4  UNL     1     -40.863  59.087   0.016  1.00  0.00     0.210 HD
ENDBRANCH  27  33
BRANCH  28  35
HETATM   35  O5  UNL     1     -43.167  60.723   2.522  1.00  0.00    -0.392 OA
ATOM     36  H5  UNL     1     -43.102  60.868   3.459  1.00  0.00     0.210 HD
ENDBRANCH  28  35
ENDBRANCH  20  21
ENDBRANCH   1  20
TORSDOF 12
ENDMDL
MODEL 5
REMARK VINA RESULT: -6.406387466      4.692      7.380
REMARK  12 active torsions:
REMARK  status: ('A' for Active; 'I' for Inactive)
REMARK    1  A    between atoms: C2_2  and  C3_3 
REMARK    2  A    between atoms: C3_3  and  C4_4 
REMARK    3  A    between atoms: C4_4  and  C5_5 
REMARK    4  A    between atoms: N1_8  and  C7_9 
REMARK    5  A    between atoms: C7_9  and  C8_10 
REMARK    6  A    between atoms: C8_10  and  N2_11 
REMARK    7  A    between atoms: N2_11  and  S1_13 
REMARK    8  A    between atoms: S1_13  and  C9_16 
REMARK    9  A    between atoms: C9_16  and  C10_17 
REMARK   10  A    between atoms: C15_22  and  O4_23 
REMARK   11  A    between atoms: C16_25  and  O5_26 
REMARK   12  A    between atoms: C23_34  and  O6_35 
ROOT
HETATM    1  S1  UNL     1     -39.292  63.325   4.186  1.00  0.00     0.227 S 
HETATM    2  O2  UNL     1     -38.499  63.338   2.914  1.00  0.00    -0.206 OA
HETATM    3  O3  UNL     1     -39.306  64.723   4.720  1.00  0.00    -0.206 OA
ENDROOT
BRANCH   1   4
HETATM    4  N2  UNL     1     -38.318  62.295   5.225  1.00  0.00    -0.318 N 
ATOM      5  H2  UNL     1     -37.975  62.565   6.147  1.00  0.00     0.172 HD
BRANCH   4   6
HETATM    6  C8  UNL     1     -38.068  61.031   4.612  1.00  0.00     0.151 C 
BRANCH   6   7
HETATM    7  C7  UNL     1     -38.711  59.926   5.410  1.00  0.00     0.146 C 
BRANCH   7   8
HETATM    8  N1  UNL     1     -38.117  58.672   4.998  1.00  0.00    -0.348 N 
HETATM    9  C6  UNL     1     -38.878  57.482   4.666  1.00  0.00     0.226 C 
HETATM   10  C5  UNL     1     -37.913  56.619   3.968  1.00  0.00     0.108 C 
HETATM   11  O1  UNL     1     -40.074  57.358   4.968  1.00  0.00    -0.273 OA
HETATM   12  C23 UNL     1     -36.663  56.868   4.809  1.00  0.00     0.149 C 
HETATM   13  C22 UNL     1     -36.707  58.403   4.849  1.00  0.00     0.158 C 
BRANCH  10  14
HETATM   14  C4  UNL     1     -38.245  55.188   3.843  1.00  0.00     0.017 C 
BRANCH  14  15
HETATM   15  C3  UNL     1     -39.010  54.912   2.581  1.00  0.00     0.001 C 
BRANCH  15  16
HETATM   16  C2  UNL     1     -39.396  53.429   2.507  1.00  0.00    -0.005 C 
HETATM   17  C1  UNL     1     -39.791  53.194   1.043  1.00  0.00     0.005 C 
ENDBRANCH  15  16
ENDBRANCH  14  15
ENDBRANCH  10  14
BRANCH  12  18
HETATM   18  O6  UNL     1     -36.840  56.441   6.124  1.00  0.00    -0.393 OA
ATOM     19  H6  UNL     1     -36.018  56.169   6.514  1.00  0.00     0.210 HD
ENDBRANCH  12  18
ENDBRANCH   7   8
ENDBRANCH   6   7
ENDBRANCH   4   6
ENDBRANCH   1   4
BRANCH   1  20
HETATM   20  C9  UNL     1     -40.897  62.642   3.987  1.00  0.00     0.173 C 
BRANCH  20  21
HETATM   21  C10 UNL     1     -41.542  62.777   2.672  1.00  0.00    -0.014 A 
HETATM   22  C11 UNL     1     -41.623  64.272   2.322  1.00  0.00     0.018 C 
HETATM   23  C12 UNL     1     -41.294  61.869   1.537  1.00  0.00     0.029 A 
HETATM   24  C13 UNL     1     -40.158  60.974   1.486  1.00  0.00    -0.022 C 
HETATM   25  C17 UNL     1     -42.627  61.212   1.683  1.00  0.00    -0.000 A 
HETATM   26  C14 UNL     1     -40.183  59.725   1.920  1.00  0.00     0.003 C 
HETATM   27  C15 UNL     1     -41.400  59.150   2.494  1.00  0.00     0.170 C 
HETATM   28  C16 UNL     1     -42.664  59.766   1.961  1.00  0.00     0.160 C 
HETATM   29  C18 UNL     1     -43.480  61.493   0.431  1.00  0.00     0.019 C 
HETATM   30  C19 UNL     1     -42.966  62.176   2.754  1.00  0.00    -0.028 A 
HETATM   31  C20 UNL     1     -43.337  61.647   4.093  1.00  0.00     0.016 C 
HETATM   32  C21 UNL     1     -44.041  63.210   2.377  1.00  0.00     0.016 C 
BRANCH  27  33
HETATM   33  O4  UNL     1     -41.389  57.766   2.175  1.00  0.00    -0.389 OA
ATOM     34  H4  UNL     1     -40.948  57.683   1.338  1.00  0.00     0.210 HD
ENDBRANCH  27  33
BRANCH  28  35
HETATM   35  O5  UNL     1     -43.695  59.377   2.818  1.00  0.00    -0.392 OA
ATOM     36  H5  UNL     1     -44.413  59.982   2.674  1.00  0.00     0.210 HD
ENDBRANCH  28  35
ENDBRANCH  20  21
ENDBRANCH   1  20
TORSDOF 12
ENDMDL
