MODEL 1
REMARK VINA RESULT: -5.452278020      0.000      0.000
REMARK  2 active torsions:
REMARK  status: ('A' for Active; 'I' for Inactive)
REMARK    1  A    between atoms: C2_2  and  C4_4 
REMARK    2  A    between atoms: C4_4  and  O1_5 
ROOT
HETATM    1  C4  UNL     1      15.097   2.212  15.046  1.00  0.00     0.106 C 
HETATM    2  C5  UNL     1      16.221   3.221  15.000  1.00  0.00     0.046 C 
HETATM    3  C6  UNL     1      16.496   3.487  13.521  1.00  0.00     0.033 C 
HETATM    4  C7  UNL     1      16.932   2.217  12.868  1.00  0.00     0.272 C 
HETATM    5  N1  UNL     1      16.060   1.109  13.079  1.00  0.00     0.087 N 
HETATM    6  C8  UNL     1      16.697  -0.112  12.634  1.00  0.00     0.310 C 
HETATM    7  C9  UNL     1      15.670   0.918  14.453  1.00  0.00     0.314 C 
ENDROOT
BRANCH   1   8
HETATM    8  C2  UNL     1      14.639   1.913  16.402  1.00  0.00    -0.058 C 
HETATM    9  C1  UNL     1      13.986   2.833  17.090  1.00  0.00     0.017 C 
HETATM   10  C3  UNL     1      14.899   0.591  17.007  1.00  0.00     0.046 C 
ENDBRANCH   1   8
BRANCH   1  11
HETATM   11  O1  UNL     1      14.062   2.589  14.193  1.00  0.00    -0.384 OA
ATOM     12  H1  UNL     1      13.842   1.919  13.556  1.00  0.00     0.211 HD
ENDBRANCH   1  11
TORSDOF 2
ENDMDL
MODEL 2
REMARK VINA RESULT: -5.416527479      1.815      3.521
REMARK  2 active torsions:
REMARK  status: ('A' for Active; 'I' for Inactive)
REMARK    1  A    between atoms: C2_2  and  C4_4 
REMARK    2  A    between atoms: C4_4  and  O1_5 
ROOT
HETATM    1  C4  UNL     1      15.408   3.043  14.674  1.00  0.00     0.106 C 
HETATM    2  C5  UNL     1      16.725   2.479  15.153  1.00  0.00     0.046 C 
HETATM    3  C6  UNL     1      16.537   0.965  15.234  1.00  0.00     0.033 C 
HETATM    4  C7  UNL     1      15.465   0.657  16.227  1.00  0.00     0.272 C 
HETATM    5  N1  UNL     1      14.242   1.358  16.019  1.00  0.00     0.087 N 
HETATM    6  C8  UNL     1      13.376   1.190  17.167  1.00  0.00     0.310 C 
HETATM    7  C9  UNL     1      14.400   2.773  15.799  1.00  0.00     0.314 C 
ENDROOT
BRANCH   1   8
HETATM    8  C2  UNL     1      15.442   4.488  14.449  1.00  0.00    -0.058 C 
HETATM    9  C1  UNL     1      14.349   5.114  14.049  1.00  0.00     0.017 C 
HETATM   10  C3  UNL     1      16.688   5.251  14.665  1.00  0.00     0.046 C 
ENDBRANCH   1   8
BRANCH   1  11
HETATM   11  O1  UNL     1      14.940   2.331  13.572  1.00  0.00    -0.384 OA
ATOM     12  H1  UNL     1      14.881   1.396  13.732  1.00  0.00     0.211 HD
ENDBRANCH   1  11
TORSDOF 2
ENDMDL
MODEL 3
REMARK VINA RESULT: -5.396796087      0.090      1.035
REMARK  2 active torsions:
REMARK  status: ('A' for Active; 'I' for Inactive)
REMARK    1  A    between atoms: C2_2  and  C4_4 
REMARK    2  A    between atoms: C4_4  and  O1_5 
ROOT
HETATM    1  C4  UNL     1      15.133   2.150  15.003  1.00  0.00     0.106 C 
HETATM    2  C5  UNL     1      16.249   3.168  14.963  1.00  0.00     0.046 C 
HETATM    3  C6  UNL     1      16.510   3.457  13.486  1.00  0.00     0.033 C 
HETATM    4  C7  UNL     1      16.951   2.199  12.811  1.00  0.00     0.272 C 
HETATM    5  N1  UNL     1      16.088   1.082  13.014  1.00  0.00     0.087 N 
HETATM    6  C8  UNL     1      16.731  -0.127  12.546  1.00  0.00     0.310 C 
HETATM    7  C9  UNL     1      15.710   0.869  14.387  1.00  0.00     0.314 C 
ENDROOT
BRANCH   1   8
HETATM    8  C2  UNL     1      14.687   1.829  16.358  1.00  0.00    -0.058 C 
HETATM    9  C1  UNL     1      14.929   0.630  16.859  1.00  0.00     0.017 C 
HETATM   10  C3  UNL     1      13.972   2.834  17.171  1.00  0.00     0.046 C 
ENDBRANCH   1   8
BRANCH   1  11
HETATM   11  O1  UNL     1      14.089   2.532  14.163  1.00  0.00    -0.384 OA
ATOM     12  H1  UNL     1      14.288   3.307  13.651  1.00  0.00     0.211 HD
ENDBRANCH   1  11
TORSDOF 2
ENDMDL
MODEL 4
REMARK VINA RESULT: -5.309631564      1.522      2.322
REMARK  2 active torsions:
REMARK  status: ('A' for Active; 'I' for Inactive)
REMARK    1  A    between atoms: C2_2  and  C4_4 
REMARK    2  A    between atoms: C4_4  and  O1_5 
ROOT
HETATM    1  C4  UNL     1      15.797   2.219  15.065  1.00  0.00     0.106 C 
HETATM    2  C5  UNL     1      15.500   0.797  15.482  1.00  0.00     0.046 C 
HETATM    3  C6  UNL     1      16.603  -0.066  14.873  1.00  0.00     0.033 C 
HETATM    4  C7  UNL     1      16.546   0.045  13.384  1.00  0.00     0.272 C 
HETATM    5  N1  UNL     1      16.549   1.381  12.887  1.00  0.00     0.087 N 
HETATM    6  C8  UNL     1      16.231   1.382  11.475  1.00  0.00     0.310 C 
HETATM    7  C9  UNL     1      15.612   2.258  13.543  1.00  0.00     0.314 C 
ENDROOT
BRANCH   1   8
HETATM    8  C2  UNL     1      14.881   3.199  15.648  1.00  0.00    -0.058 C 
HETATM    9  C1  UNL     1      14.780   4.402  15.108  1.00  0.00     0.017 C 
HETATM   10  C3  UNL     1      14.068   2.855  16.832  1.00  0.00     0.046 C 
ENDBRANCH   1   8
BRANCH   1  11
HETATM   11  O1  UNL     1      17.137   2.526  15.288  1.00  0.00    -0.384 OA
ATOM     12  H1  UNL     1      17.371   2.527  16.209  1.00  0.00     0.211 HD
ENDBRANCH   1  11
TORSDOF 2
ENDMDL
MODEL 5
REMARK VINA RESULT: -5.284911800      1.681      2.317
REMARK  2 active torsions:
REMARK  status: ('A' for Active; 'I' for Inactive)
REMARK    1  A    between atoms: C2_2  and  C4_4 
REMARK    2  A    between atoms: C4_4  and  O1_5 
ROOT
HETATM    1  C4  UNL     1      15.111   2.994  14.932  1.00  0.00     0.106 C 
HETATM    2  C5  UNL     1      14.862   4.446  15.266  1.00  0.00     0.046 C 
HETATM    3  C6  UNL     1      14.564   5.144  13.940  1.00  0.00     0.033 C 
HETATM    4  C7  UNL     1      15.756   5.029  13.047  1.00  0.00     0.272 C 
HETATM    5  N1  UNL     1      16.246   3.701  12.877  1.00  0.00     0.087 N 
HETATM    6  C8  UNL     1      17.535   3.732  12.219  1.00  0.00     0.310 C 
HETATM    7  C9  UNL     1      16.404   2.967  14.107  1.00  0.00     0.314 C 
ENDROOT
BRANCH   1   8
HETATM    8  C2  UNL     1      15.320   2.154  16.111  1.00  0.00    -0.058 C 
HETATM    9  C1  UNL     1      16.455   1.490  16.248  1.00  0.00     0.017 C 
HETATM   10  C3  UNL     1      14.275   2.043  17.148  1.00  0.00     0.046 C 
ENDBRANCH   1   8
BRANCH   1  11
HETATM   11  O1  UNL     1      14.117   2.507  14.086  1.00  0.00    -0.384 OA
ATOM     12  H1  UNL     1      13.314   2.284  14.545  1.00  0.00     0.211 HD
ENDBRANCH   1  11
TORSDOF 2
ENDMDL
