MODEL 1
REMARK VINA RESULT: -5.370837693      0.000      0.000
REMARK  2 active torsions:
REMARK  status: ('A' for Active; 'I' for Inactive)
REMARK    1  A    between atoms: N1_3  and  C3_5 
REMARK    2  A    between atoms: C6_8  and  O1_9 
ROOT
HETATM    1  C1  UNL     1      15.167   4.972  13.689  1.00  0.00     0.037 C 
HETATM    2  C2  UNL     1      14.780   4.406  14.684  1.00  0.00    -0.005 C 
HETATM    3  N1  UNL     1      14.332   3.773  15.843  1.00  0.00    -0.345 N 
ATOM      4  H1  UNL     1      13.534   4.174  16.336  1.00  0.00     0.170 HD
ENDROOT
BRANCH   3   5
HETATM    5  C3  UNL     1      14.935   2.587  16.379  1.00  0.00     0.101 C 
HETATM    6  C4  UNL     1      14.331   2.068  17.666  1.00  0.00     0.012 C 
HETATM    7  C5  UNL     1      15.133   0.824  17.913  1.00  0.00     0.039 C 
HETATM    8  C9  UNL     1      13.202   1.545  16.785  1.00  0.00     0.016 C 
HETATM    9  C6  UNL     1      15.187   0.269  16.473  1.00  0.00     0.127 C 
HETATM   10  C8  UNL     1      14.347   1.297  15.796  1.00  0.00     0.039 C 
BRANCH   9  11
HETATM   11  O1  UNL     1      16.481   0.377  16.037  1.00  0.00    -0.390 OA
HETATM   12  C7  UNL     1      16.668  -0.034  14.724  1.00  0.00     0.202 C 
ENDBRANCH   9  11
ENDBRANCH   3   5
TORSDOF 2
ENDMDL
MODEL 2
REMARK VINA RESULT: -5.269948898      2.429      4.066
REMARK  2 active torsions:
REMARK  status: ('A' for Active; 'I' for Inactive)
REMARK    1  A    between atoms: N1_3  and  C3_5 
REMARK    2  A    between atoms: C6_8  and  O1_9 
ROOT
HETATM    1  C1  UNL     1      16.710  -0.806  11.678  1.00  0.00     0.037 C 
HETATM    2  C2  UNL     1      16.728  -0.251  12.751  1.00  0.00    -0.005 C 
HETATM    3  N1  UNL     1      16.755   0.369  14.001  1.00  0.00    -0.345 N 
ATOM      4  H1  UNL     1      17.542   0.176  14.620  1.00  0.00     0.170 HD
ENDROOT
BRANCH   3   5
HETATM    5  C3  UNL     1      15.734   1.264  14.460  1.00  0.00     0.101 C 
HETATM    6  C4  UNL     1      15.150   0.951  15.821  1.00  0.00     0.012 C 
HETATM    7  C5  UNL     1      14.182   2.080  16.017  1.00  0.00     0.039 C 
HETATM    8  C9  UNL     1      16.440   1.542  16.378  1.00  0.00     0.016 C 
HETATM    9  C6  UNL     1      15.040   3.245  15.479  1.00  0.00     0.127 C 
HETATM   10  C8  UNL     1      16.293   2.494  15.185  1.00  0.00     0.039 C 
BRANCH   9  11
HETATM   11  O1  UNL     1      14.474   3.669  14.307  1.00  0.00    -0.390 OA
HETATM   12  C7  UNL     1      14.564   5.040  14.103  1.00  0.00     0.202 C 
ENDBRANCH   9  11
ENDBRANCH   3   5
TORSDOF 2
ENDMDL
MODEL 3
REMARK VINA RESULT: -5.254567442      2.330      3.689
REMARK  2 active torsions:
REMARK  status: ('A' for Active; 'I' for Inactive)
REMARK    1  A    between atoms: N1_3  and  C3_5 
REMARK    2  A    between atoms: C6_8  and  O1_9 
ROOT
HETATM    1  C1  UNL     1      16.947  -0.116  11.469  1.00  0.00     0.037 C 
HETATM    2  C2  UNL     1      16.318   0.727  12.062  1.00  0.00    -0.005 C 
HETATM    3  N1  UNL     1      15.602   1.718  12.736  1.00  0.00    -0.345 N 
ATOM      4  H1  UNL     1      15.227   2.497  12.194  1.00  0.00     0.170 HD
ENDROOT
BRANCH   3   5
HETATM    5  C3  UNL     1      15.365   1.698  14.149  1.00  0.00     0.101 C 
HETATM    6  C4  UNL     1      16.537   2.102  15.018  1.00  0.00     0.012 C 
HETATM    7  C5  UNL     1      15.949   2.030  16.396  1.00  0.00     0.039 C 
HETATM    8  C9  UNL     1      16.197   3.530  14.604  1.00  0.00     0.016 C 
HETATM    9  C6  UNL     1      14.572   2.670  16.117  1.00  0.00     0.127 C 
HETATM   10  C8  UNL     1      14.759   3.004  14.676  1.00  0.00     0.039 C 
BRANCH   9  11
HETATM   11  O1  UNL     1      13.627   1.688  16.241  1.00  0.00    -0.390 OA
HETATM   12  C7  UNL     1      13.712   0.971  17.427  1.00  0.00     0.202 C 
ENDBRANCH   9  11
ENDBRANCH   3   5
TORSDOF 2
ENDMDL
MODEL 4
REMARK VINA RESULT: -5.124566291      2.356      3.734
REMARK  2 active torsions:
REMARK  status: ('A' for Active; 'I' for Inactive)
REMARK    1  A    between atoms: N1_3  and  C3_5 
REMARK    2  A    between atoms: C6_8  and  O1_9 
ROOT
HETATM    1  C1  UNL     1      16.988  -0.299  11.004  1.00  0.00     0.037 C 
HETATM    2  C2  UNL     1      16.323   0.296  11.817  1.00  0.00    -0.005 C 
HETATM    3  N1  UNL     1      15.548   0.998  12.741  1.00  0.00    -0.345 N 
ATOM      4  H1  UNL     1      14.615   1.301  12.459  1.00  0.00     0.170 HD
ENDROOT
BRANCH   3   5
HETATM    5  C3  UNL     1      15.993   1.317  14.065  1.00  0.00     0.101 C 
HETATM    6  C4  UNL     1      16.659   2.667  14.227  1.00  0.00     0.012 C 
HETATM    7  C5  UNL     1      16.942   2.706  15.699  1.00  0.00     0.039 C 
HETATM    8  C9  UNL     1      15.246   3.237  14.163  1.00  0.00     0.016 C 
HETATM    9  C6  UNL     1      15.618   2.111  16.227  1.00  0.00     0.127 C 
HETATM   10  C8  UNL     1      14.900   1.955  14.930  1.00  0.00     0.039 C 
BRANCH   9  11
HETATM   11  O1  UNL     1      15.898   0.876  16.747  1.00  0.00    -0.390 OA
HETATM   12  C7  UNL     1      14.873   0.345  17.518  1.00  0.00     0.202 C 
ENDBRANCH   9  11
ENDBRANCH   3   5
TORSDOF 2
ENDMDL
MODEL 5
REMARK VINA RESULT: -5.087701904      3.897      5.899
REMARK  2 active torsions:
REMARK  status: ('A' for Active; 'I' for Inactive)
REMARK    1  A    between atoms: N1_3  and  C3_5 
REMARK    2  A    between atoms: C6_8  and  O1_9 
ROOT
HETATM    1  C1  UNL     1      16.179   1.172  15.796  1.00  0.00     0.037 C 
HETATM    2  C2  UNL     1      16.110   0.673  14.698  1.00  0.00    -0.005 C 
HETATM    3  N1  UNL     1      16.017   0.081  13.439  1.00  0.00    -0.345 N 
ATOM      4  H1  UNL     1      15.098  -0.218  13.112  1.00  0.00     0.170 HD
ENDROOT
BRANCH   3   5
HETATM    5  C3  UNL     1      17.144  -0.130  12.579  1.00  0.00     0.101 C 
HETATM    6  C4  UNL     1      17.075  -1.355  11.693  1.00  0.00     0.012 C 
HETATM    7  C5  UNL     1      18.346  -1.249  10.905  1.00  0.00     0.039 C 
HETATM    8  C9  UNL     1      16.108  -0.537  10.843  1.00  0.00     0.016 C 
HETATM    9  C6  UNL     1      18.337   0.268  10.613  1.00  0.00     0.127 C 
HETATM   10  C8  UNL     1      17.033   0.618  11.246  1.00  0.00     0.039 C 
BRANCH   9  11
HETATM   11  O1  UNL     1      19.358   0.833  11.328  1.00  0.00    -0.390 OA
HETATM   12  C7  UNL     1      19.685   2.120  10.922  1.00  0.00     0.202 C 
ENDBRANCH   9  11
ENDBRANCH   3   5
TORSDOF 2
ENDMDL
