MODEL 1
REMARK VINA RESULT: -5.308736416      0.000      0.000
REMARK  1 active torsions:
REMARK  status: ('A' for Active; 'I' for Inactive)
REMARK    1  A    between atoms: N1_4  and  C4_5 
ROOT
HETATM    1  C1  UNL     1      15.963   4.858  13.271  1.00  0.00     0.029 C 
HETATM    2  C2  UNL     1      16.085   4.744  14.778  1.00  0.00     0.032 C 
HETATM    3  C3  UNL     1      14.853   4.039  15.269  1.00  0.00     0.273 C 
HETATM    4  N1  UNL     1      15.138   2.709  15.796  1.00  0.00     0.094 N 
HETATM    5  C7  UNL     1      15.074   1.687  14.786  1.00  0.00     0.300 C 
HETATM    6  C8  UNL     1      16.336   1.500  14.009  1.00  0.00     0.262 C 
HETATM    7  N2  UNL     1      17.010   2.713  13.655  1.00  0.00    -0.073 N 
ATOM      8  H21 UNL     1      17.962   2.513  13.349  1.00  0.00     0.277 HD
ATOM      9  H22 UNL     1      17.205   3.266  14.489  1.00  0.00     0.277 HD
HETATM   10  C9  UNL     1      16.329   3.513  12.675  1.00  0.00     0.232 C 
ENDROOT
BRANCH   4  11
HETATM   11  C4  UNL     1      14.039   2.427  16.720  1.00  0.00     0.223 A 
HETATM   12  C5  UNL     1      13.738   1.045  17.139  1.00  0.00     0.038 A 
HETATM   13  C6  UNL     1      14.519   1.888  18.070  1.00  0.00     0.038 A 
ENDBRANCH   4  11
TORSDOF 1
ENDMDL
MODEL 2
REMARK VINA RESULT: -5.206553521      1.213      2.429
REMARK  1 active torsions:
REMARK  status: ('A' for Active; 'I' for Inactive)
REMARK    1  A    between atoms: N1_4  and  C4_5 
ROOT
HETATM    1  C1  UNL     1      17.188   1.636  12.378  1.00  0.00     0.029 C 
HETATM    2  C2  UNL     1      15.934   0.953  12.886  1.00  0.00     0.032 C 
HETATM    3  C3  UNL     1      16.068   0.838  14.378  1.00  0.00     0.273 C 
HETATM    4  N1  UNL     1      15.118   1.681  15.095  1.00  0.00     0.094 N 
HETATM    5  C7  UNL     1      15.633   2.999  15.354  1.00  0.00     0.300 C 
HETATM    6  C8  UNL     1      15.444   3.972  14.237  1.00  0.00     0.262 C 
HETATM    7  N2  UNL     1      15.674   3.438  12.929  1.00  0.00    -0.073 N 
ATOM      8  H21 UNL     1      15.300   4.067  12.218  1.00  0.00     0.277 HD
ATOM      9  H22 UNL     1      15.083   2.623  12.770  1.00  0.00     0.277 HD
HETATM   10  C9  UNL     1      17.046   3.122  12.643  1.00  0.00     0.232 C 
ENDROOT
BRANCH   4  11
HETATM   11  C4  UNL     1      14.965   1.047  16.405  1.00  0.00     0.223 A 
HETATM   12  C5  UNL     1      14.624   1.845  17.597  1.00  0.00     0.038 A 
HETATM   13  C6  UNL     1      13.529   1.107  16.932  1.00  0.00     0.038 A 
ENDBRANCH   4  11
TORSDOF 1
ENDMDL
MODEL 3
REMARK VINA RESULT: -5.064546180      1.840      3.197
REMARK  1 active torsions:
REMARK  status: ('A' for Active; 'I' for Inactive)
REMARK    1  A    between atoms: N1_4  and  C4_5 
ROOT
HETATM    1  C1  UNL     1      17.659   0.370  11.536  1.00  0.00     0.029 C 
HETATM    2  C2  UNL     1      16.363  -0.065  12.191  1.00  0.00     0.032 C 
HETATM    3  C3  UNL     1      16.539   0.103  13.673  1.00  0.00     0.273 C 
HETATM    4  N1  UNL     1      15.704   1.164  14.223  1.00  0.00     0.094 N 
HETATM    5  C7  UNL     1      16.354   2.447  14.205  1.00  0.00     0.300 C 
HETATM    6  C8  UNL     1      16.222   3.195  12.920  1.00  0.00     0.262 C 
HETATM    7  N2  UNL     1      16.351   2.392  11.740  1.00  0.00    -0.073 N 
ATOM      8  H21 UNL     1      16.015   2.904  10.924  1.00  0.00     0.277 HD
ATOM      9  H22 UNL     1      15.677   1.627  11.757  1.00  0.00     0.277 HD
HETATM   10  C9  UNL     1      17.673   1.886  11.502  1.00  0.00     0.232 C 
ENDROOT
BRANCH   4  11
HETATM   11  C4  UNL     1      15.537   0.820  15.635  1.00  0.00     0.223 A 
HETATM   12  C5  UNL     1      15.273   1.864  16.643  1.00  0.00     0.038 A 
HETATM   13  C6  UNL     1      14.119   1.083  16.149  1.00  0.00     0.038 A 
ENDBRANCH   4  11
TORSDOF 1
ENDMDL
MODEL 4
REMARK VINA RESULT: -5.021106468      1.532      3.815
REMARK  1 active torsions:
REMARK  status: ('A' for Active; 'I' for Inactive)
REMARK    1  A    between atoms: N1_4  and  C4_5 
ROOT
HETATM    1  C1  UNL     1      15.429   0.727  16.239  1.00  0.00     0.029 C 
HETATM    2  C2  UNL     1      14.390   1.734  15.789  1.00  0.00     0.032 C 
HETATM    3  C3  UNL     1      15.090   3.054  15.635  1.00  0.00     0.273 C 
HETATM    4  N1  UNL     1      15.171   3.490  14.246  1.00  0.00     0.094 N 
HETATM    5  C7  UNL     1      16.355   3.014  13.583  1.00  0.00     0.300 C 
HETATM    6  C8  UNL     1      16.236   1.643  13.003  1.00  0.00     0.262 C 
HETATM    7  N2  UNL     1      15.536   0.701  13.824  1.00  0.00    -0.073 N 
ATOM      8  H21 UNL     1      15.282  -0.123  13.279  1.00  0.00     0.277 HD
ATOM      9  H22 UNL     1      14.607   1.053  14.053  1.00  0.00     0.277 HD
HETATM   10  C9  UNL     1      16.232   0.315  15.019  1.00  0.00     0.232 C 
ENDROOT
BRANCH   4  11
HETATM   11  C4  UNL     1      15.309   4.945  14.315  1.00  0.00     0.223 A 
HETATM   12  C5  UNL     1      15.464   5.750  13.089  1.00  0.00     0.038 A 
HETATM   13  C6  UNL     1      14.119   5.686  13.701  1.00  0.00     0.038 A 
ENDBRANCH   4  11
TORSDOF 1
ENDMDL
MODEL 5
REMARK VINA RESULT: -5.018856975      1.396      3.919
REMARK  1 active torsions:
REMARK  status: ('A' for Active; 'I' for Inactive)
REMARK    1  A    between atoms: N1_4  and  C4_5 
ROOT
HETATM    1  C1  UNL     1      14.612   1.206  17.432  1.00  0.00     0.029 C 
HETATM    2  C2  UNL     1      13.687   2.180  16.729  1.00  0.00     0.032 C 
HETATM    3  C3  UNL     1      14.500   3.398  16.394  1.00  0.00     0.273 C 
HETATM    4  N1  UNL     1      14.703   3.563  14.959  1.00  0.00     0.094 N 
HETATM    5  C7  UNL     1      15.885   2.893  14.486  1.00  0.00     0.300 C 
HETATM    6  C8  UNL     1      15.692   1.450  14.155  1.00  0.00     0.262 C 
HETATM    7  N2  UNL     1      14.868   0.726  15.076  1.00  0.00    -0.073 N 
ATOM      8  H21 UNL     1      14.584  -0.167  14.672  1.00  0.00     0.277 HD
ATOM      9  H22 UNL     1      13.958   1.176  15.167  1.00  0.00     0.277 HD
HETATM   10  C9  UNL     1      15.454   0.522  16.372  1.00  0.00     0.232 C 
ENDROOT
BRANCH   4  11
HETATM   11  C4  UNL     1      14.953   4.992  14.775  1.00  0.00     0.223 A 
HETATM   12  C5  UNL     1      15.466   5.512  13.494  1.00  0.00     0.038 A 
HETATM   13  C6  UNL     1      14.015   5.634  13.750  1.00  0.00     0.038 A 
ENDBRANCH   4  11
TORSDOF 1
ENDMDL
