MODEL 1
REMARK VINA RESULT: -8.094342022      0.000      0.000
REMARK  10 active torsions:
REMARK  status: ('A' for Active; 'I' for Inactive)
REMARK    1  A    between atoms: O1_2  and  C2_3 
REMARK    2  A    between atoms: C5_6  and  N1_7 
REMARK    3  A    between atoms: C7_12  and  O3_13 
REMARK    4  A    between atoms: C8_15  and  C9_16 
REMARK    5  A    between atoms: N3_17  and  C10_19 
REMARK    6  A    between atoms: C13_22  and  S1_23 
REMARK    7  A    between atoms: S1_23  and  N4_26 
REMARK    8  A    between atoms: N4_26  and  C14_27 
REMARK    9  A    between atoms: N4_26  and  C17_30 
REMARK   10  A    between atoms: C22_35  and  N5_36 
ROOT
HETATM    1  N1  UNL     1      23.984  44.547  -2.072  1.00  0.00    -0.249 N 
HETATM    2  C6  UNL     1      24.474  43.873  -3.121  1.00  0.00     0.334 A 
HETATM    3  O2  UNL     1      24.529  42.603  -2.974  1.00  0.00    -0.246 OA
HETATM    4  N2  UNL     1      24.885  44.434  -4.248  1.00  0.00    -0.288 N 
ATOM      5  H2  UNL     1      25.249  43.861  -5.010  1.00  0.00     0.172 HD
HETATM    6  C7  UNL     1      24.816  45.760  -4.370  1.00  0.00     0.159 A 
HETATM    7  C8  UNL     1      24.315  46.559  -3.326  1.00  0.00     0.074 A 
HETATM    8  C22 UNL     1      23.907  45.913  -2.187  1.00  0.00     0.126 A 
ENDROOT
BRANCH   7   9
HETATM    9  C9  UNL     1      24.251  48.004  -3.487  1.00  0.00     0.108 C 
HETATM   10  N3  UNL     1      23.540  48.494  -4.418  1.00  0.00    -0.365 N 
ATOM     11  H3  UNL     1      23.032  47.854  -5.029  1.00  0.00     0.165 HD
BRANCH  10  12
HETATM   12  C10 UNL     1      23.415  49.903  -4.654  1.00  0.00     0.032 A 
HETATM   13  C11 UNL     1      24.391  50.610  -5.331  1.00  0.00     0.031 A 
HETATM   14  C12 UNL     1      24.275  51.965  -5.560  1.00  0.00     0.027 A 
HETATM   15  C13 UNL     1      23.176  52.674  -5.120  1.00  0.00     0.079 A 
HETATM   16  C20 UNL     1      22.205  51.964  -4.445  1.00  0.00     0.027 A 
HETATM   17  C21 UNL     1      22.314  50.605  -4.212  1.00  0.00     0.031 A 
BRANCH  15  18
HETATM   18  S1  UNL     1      23.026  54.409  -5.412  1.00  0.00     0.261 S 
HETATM   19  O4  UNL     1      22.299  55.067  -4.281  1.00  0.00    -0.200 OA
HETATM   20  O5  UNL     1      24.456  54.941  -5.334  1.00  0.00    -0.200 OA
BRANCH  18  21
HETATM   21  N4  UNL     1      22.431  54.769  -6.932  1.00  0.00    -0.299 N 
BRANCH  21  22
HETATM   22  C14 UNL     1      23.328  55.269  -7.902  1.00  0.00     0.088 C 
HETATM   23  C15 UNL     1      22.697  56.182  -8.919  1.00  0.00     0.032 C 
HETATM   24  C16 UNL     1      24.007  54.114  -8.613  1.00  0.00     0.032 C 
ENDBRANCH  21  22
BRANCH  21  25
HETATM   25  C17 UNL     1      21.128  54.439  -7.297  1.00  0.00     0.088 C 
HETATM   26  C18 UNL     1      20.943  52.985  -7.729  1.00  0.00     0.032 C 
HETATM   27  C19 UNL     1      20.055  54.721  -6.277  1.00  0.00     0.032 C 
ENDBRANCH  21  25
ENDBRANCH  18  21
ENDBRANCH  15  18
ENDBRANCH  10  12
ENDBRANCH   7   9
BRANCH   6  28
HETATM   28  O3  UNL     1      25.228  46.399  -5.519  1.00  0.00    -0.345 OA
ATOM     29  H3  UNL     1      24.614  46.630  -6.205  1.00  0.00     0.219 HD
ENDBRANCH   6  28
BRANCH   8  30
HETATM   30  N5  UNL     1      23.440  46.556  -1.191  1.00  0.00    -0.384 N 
ATOM     31  H52 UNL     1      22.453  46.805  -1.135  1.00  0.00     0.157 HD
ATOM     32  H51 UNL     1      24.095  46.810  -0.452  1.00  0.00     0.157 HD
ENDBRANCH   8  30
BRANCH   1  33
HETATM   33  C5  UNL     1      23.554  43.895  -0.882  1.00  0.00     0.045 A 
HETATM   34  C4  UNL     1      22.523  42.977  -0.901  1.00  0.00     0.033 A 
HETATM   35  C3  UNL     1      22.112  42.350   0.257  1.00  0.00     0.039 A 
HETATM   36  C2  UNL     1      22.697  42.598   1.481  1.00  0.00     0.068 A 
HETATM   37  C24 UNL     1      23.729  43.516   1.504  1.00  0.00     0.039 A 
HETATM   38  C23 UNL     1      24.138  44.143   0.345  1.00  0.00     0.033 A 
BRANCH  36  39
HETATM   39  O1  UNL     1      22.278  41.963   2.645  1.00  0.00    -0.356 OA
HETATM   40  C1  UNL     1      23.248  41.398   3.507  1.00  0.00     0.210 C 
ENDBRANCH  36  39
ENDBRANCH   1  33
TORSDOF 10
ENDMDL
MODEL 2
REMARK VINA RESULT: -8.046446383      1.014      1.821
REMARK  10 active torsions:
REMARK  status: ('A' for Active; 'I' for Inactive)
REMARK    1  A    between atoms: O1_2  and  C2_3 
REMARK    2  A    between atoms: C5_6  and  N1_7 
REMARK    3  A    between atoms: C7_12  and  O3_13 
REMARK    4  A    between atoms: C8_15  and  C9_16 
REMARK    5  A    between atoms: N3_17  and  C10_19 
REMARK    6  A    between atoms: C13_22  and  S1_23 
REMARK    7  A    between atoms: S1_23  and  N4_26 
REMARK    8  A    between atoms: N4_26  and  C14_27 
REMARK    9  A    between atoms: N4_26  and  C17_30 
REMARK   10  A    between atoms: C22_35  and  N5_36 
ROOT
HETATM    1  N1  UNL     1      23.984  44.532  -1.947  1.00  0.00    -0.249 N 
HETATM    2  C6  UNL     1      24.468  43.815  -2.970  1.00  0.00     0.334 A 
HETATM    3  O2  UNL     1      24.518  42.552  -2.773  1.00  0.00    -0.246 OA
HETATM    4  N2  UNL     1      24.877  44.330  -4.120  1.00  0.00    -0.288 N 
ATOM      5  H2  UNL     1      25.236  43.726  -4.860  1.00  0.00     0.172 HD
HETATM    6  C7  UNL     1      24.813  45.650  -4.294  1.00  0.00     0.159 A 
HETATM    7  C8  UNL     1      24.319  46.492  -3.280  1.00  0.00     0.074 A 
HETATM    8  C22 UNL     1      23.912  45.892  -2.115  1.00  0.00     0.126 A 
ENDROOT
BRANCH   7   9
HETATM    9  C9  UNL     1      24.260  47.929  -3.498  1.00  0.00     0.108 C 
HETATM   10  N3  UNL     1      23.639  48.380  -4.510  1.00  0.00    -0.365 N 
ATOM     11  H3  UNL     1      23.197  47.713  -5.144  1.00  0.00     0.165 HD
BRANCH  10  12
HETATM   12  C10 UNL     1      23.527  49.778  -4.807  1.00  0.00     0.032 A 
HETATM   13  C11 UNL     1      22.840  50.639  -3.973  1.00  0.00     0.031 A 
HETATM   14  C12 UNL     1      22.730  51.985  -4.255  1.00  0.00     0.027 A 
HETATM   15  C13 UNL     1      23.303  52.529  -5.387  1.00  0.00     0.079 A 
HETATM   16  C20 UNL     1      23.987  51.665  -6.216  1.00  0.00     0.027 A 
HETATM   17  C21 UNL     1      24.101  50.314  -5.940  1.00  0.00     0.031 A 
BRANCH  15  18
HETATM   18  S1  UNL     1      23.162  54.251  -5.750  1.00  0.00     0.261 S 
HETATM   19  O4  UNL     1      23.852  55.064  -4.701  1.00  0.00    -0.200 OA
HETATM   20  O5  UNL     1      23.990  54.449  -7.020  1.00  0.00    -0.200 OA
BRANCH  18  21
HETATM   21  N4  UNL     1      21.594  54.724  -6.086  1.00  0.00    -0.299 N 
BRANCH  21  22
HETATM   22  C14 UNL     1      20.693  53.755  -6.581  1.00  0.00     0.088 C 
HETATM   23  C15 UNL     1      21.001  53.276  -7.974  1.00  0.00     0.032 C 
HETATM   24  C16 UNL     1      19.279  54.302  -6.535  1.00  0.00     0.032 C 
ENDBRANCH  21  22
BRANCH  21  25
HETATM   25  C17 UNL     1      21.131  55.991  -5.741  1.00  0.00     0.088 C 
HETATM   26  C18 UNL     1      21.133  56.276  -4.240  1.00  0.00     0.032 C 
HETATM   27  C19 UNL     1      21.821  57.158  -6.398  1.00  0.00     0.032 C 
ENDBRANCH  21  25
ENDBRANCH  18  21
ENDBRANCH  15  18
ENDBRANCH  10  12
ENDBRANCH   7   9
BRANCH   6  28
HETATM   28  O3  UNL     1      25.224  46.242  -5.468  1.00  0.00    -0.345 OA
ATOM     29  H3  UNL     1      24.607  46.669  -6.049  1.00  0.00     0.219 HD
ENDBRANCH   6  28
BRANCH   8  30
HETATM   30  N5  UNL     1      23.451  46.576  -1.143  1.00  0.00    -0.384 N 
ATOM     31  H52 UNL     1      23.781  47.522  -0.956  1.00  0.00     0.157 HD
ATOM     32  H51 UNL     1      22.738  46.136  -0.561  1.00  0.00     0.157 HD
ENDBRANCH   8  30
BRANCH   1  33
HETATM   33  C5  UNL     1      23.555  43.929  -0.730  1.00  0.00     0.045 A 
HETATM   34  C4  UNL     1      22.508  43.030  -0.708  1.00  0.00     0.033 A 
HETATM   35  C3  UNL     1      22.098  42.450   0.475  1.00  0.00     0.039 A 
HETATM   36  C2  UNL     1      22.700  42.730   1.684  1.00  0.00     0.068 A 
HETATM   37  C24 UNL     1      23.749  43.629   1.665  1.00  0.00     0.039 A 
HETATM   38  C23 UNL     1      24.157  44.208   0.480  1.00  0.00     0.033 A 
BRANCH  36  39
HETATM   39  O1  UNL     1      22.283  42.142   2.873  1.00  0.00    -0.356 OA
HETATM   40  C1  UNL     1      23.103  41.162   3.481  1.00  0.00     0.210 C 
ENDBRANCH  36  39
ENDBRANCH   1  33
TORSDOF 10
ENDMDL
MODEL 3
REMARK VINA RESULT: -8.038660517      3.000     11.193
REMARK  10 active torsions:
REMARK  status: ('A' for Active; 'I' for Inactive)
REMARK    1  A    between atoms: O1_2  and  C2_3 
REMARK    2  A    between atoms: C5_6  and  N1_7 
REMARK    3  A    between atoms: C7_12  and  O3_13 
REMARK    4  A    between atoms: C8_15  and  C9_16 
REMARK    5  A    between atoms: N3_17  and  C10_19 
REMARK    6  A    between atoms: C13_22  and  S1_23 
REMARK    7  A    between atoms: S1_23  and  N4_26 
REMARK    8  A    between atoms: N4_26  and  C14_27 
REMARK    9  A    between atoms: N4_26  and  C17_30 
REMARK   10  A    between atoms: C22_35  and  N5_36 
ROOT
HETATM    1  N1  UNL     1      21.928  53.035  -6.283  1.00  0.00    -0.249 N 
HETATM    2  C6  UNL     1      22.788  52.972  -7.308  1.00  0.00     0.334 A 
HETATM    3  O2  UNL     1      22.707  53.938  -8.144  1.00  0.00    -0.246 OA
HETATM    4  N2  UNL     1      23.674  52.004  -7.488  1.00  0.00    -0.288 N 
ATOM      5  H2  UNL     1      24.300  52.017  -8.293  1.00  0.00     0.172 HD
HETATM    6  C7  UNL     1      23.733  51.012  -6.599  1.00  0.00     0.159 A 
HETATM    7  C8  UNL     1      22.873  50.984  -5.485  1.00  0.00     0.074 A 
HETATM    8  C22 UNL     1      21.981  52.018  -5.361  1.00  0.00     0.126 A 
ENDROOT
BRANCH   7   9
HETATM    9  C9  UNL     1      22.960  49.889  -4.532  1.00  0.00     0.108 C 
HETATM   10  N3  UNL     1      24.083  49.606  -4.010  1.00  0.00    -0.365 N 
ATOM     11  H3  UNL     1      24.896  50.161  -4.279  1.00  0.00     0.165 HD
BRANCH  10  12
HETATM   12  C10 UNL     1      24.266  48.545  -3.062  1.00  0.00     0.032 A 
HETATM   13  C11 UNL     1      24.284  47.222  -3.456  1.00  0.00     0.031 A 
HETATM   14  C12 UNL     1      24.459  46.198  -2.548  1.00  0.00     0.027 A 
HETATM   15  C13 UNL     1      24.623  46.456  -1.202  1.00  0.00     0.079 A 
HETATM   16  C20 UNL     1      24.603  47.780  -0.813  1.00  0.00     0.027 A 
HETATM   17  C21 UNL     1      24.428  48.811  -1.719  1.00  0.00     0.031 A 
BRANCH  15  18
HETATM   18  S1  UNL     1      24.847  45.149  -0.037  1.00  0.00     0.261 S 
HETATM   19  O4  UNL     1      25.477  43.963  -0.698  1.00  0.00    -0.200 OA
HETATM   20  O5  UNL     1      25.902  45.673   0.937  1.00  0.00    -0.200 OA
BRANCH  18  21
HETATM   21  N4  UNL     1      23.466  44.810   0.842  1.00  0.00    -0.299 N 
BRANCH  21  22
HETATM   22  C14 UNL     1      23.081  45.711   1.860  1.00  0.00     0.088 C 
HETATM   23  C15 UNL     1      23.466  45.278   3.249  1.00  0.00     0.032 C 
HETATM   24  C16 UNL     1      21.584  45.942   1.799  1.00  0.00     0.032 C 
ENDBRANCH  21  22
BRANCH  21  25
HETATM   25  C17 UNL     1      22.620  43.763   0.486  1.00  0.00     0.088 C 
HETATM   26  C18 UNL     1      22.617  43.434  -1.006  1.00  0.00     0.032 C 
HETATM   27  C19 UNL     1      22.827  42.458   1.211  1.00  0.00     0.032 C 
ENDBRANCH  21  25
ENDBRANCH  18  21
ENDBRANCH  15  18
ENDBRANCH  10  12
ENDBRANCH   7   9
BRANCH   6  28
HETATM   28  O3  UNL     1      24.633  49.979  -6.734  1.00  0.00    -0.345 OA
ATOM     29  H3  UNL     1      25.323  50.005  -7.385  1.00  0.00     0.219 HD
ENDBRANCH   6  28
BRANCH   8  30
HETATM   30  N5  UNL     1      21.164  52.076  -4.384  1.00  0.00    -0.384 N 
ATOM     31  H52 UNL     1      21.109  52.900  -3.786  1.00  0.00     0.157 HD
ATOM     32  H51 UNL     1      20.569  51.263  -4.225  1.00  0.00     0.157 HD
ENDBRANCH   8  30
BRANCH   1  33
HETATM   33  C5  UNL     1      20.995  54.099  -6.135  1.00  0.00     0.045 A 
HETATM   34  C4  UNL     1      21.288  55.204  -5.361  1.00  0.00     0.033 A 
HETATM   35  C3  UNL     1      20.378  56.232  -5.222  1.00  0.00     0.039 A 
HETATM   36  C2  UNL     1      19.144  56.216  -5.837  1.00  0.00     0.068 A 
HETATM   37  C24 UNL     1      18.848  55.111  -6.612  1.00  0.00     0.039 A 
HETATM   38  C23 UNL     1      19.759  54.084  -6.749  1.00  0.00     0.033 A 
BRANCH  36  39
HETATM   39  O1  UNL     1      18.231  57.255  -5.693  1.00  0.00    -0.356 OA
HETATM   40  C1  UNL     1      17.168  57.371  -6.621  1.00  0.00     0.210 C 
ENDBRANCH  36  39
ENDBRANCH   1  33
TORSDOF 10
ENDMDL
MODEL 4
REMARK VINA RESULT: -7.943079180      2.884      4.588
REMARK  10 active torsions:
REMARK  status: ('A' for Active; 'I' for Inactive)
REMARK    1  A    between atoms: O1_2  and  C2_3 
REMARK    2  A    between atoms: C5_6  and  N1_7 
REMARK    3  A    between atoms: C7_12  and  O3_13 
REMARK    4  A    between atoms: C8_15  and  C9_16 
REMARK    5  A    between atoms: N3_17  and  C10_19 
REMARK    6  A    between atoms: C13_22  and  S1_23 
REMARK    7  A    between atoms: S1_23  and  N4_26 
REMARK    8  A    between atoms: N4_26  and  C14_27 
REMARK    9  A    between atoms: N4_26  and  C17_30 
REMARK   10  A    between atoms: C22_35  and  N5_36 
ROOT
HETATM    1  N1  UNL     1      23.703  44.104   2.386  1.00  0.00    -0.249 N 
HETATM    2  C6  UNL     1      24.067  44.810   3.464  1.00  0.00     0.334 A 
HETATM    3  O2  UNL     1      23.873  44.226   4.586  1.00  0.00    -0.246 OA
HETATM    4  N2  UNL     1      24.592  46.025   3.425  1.00  0.00    -0.288 N 
ATOM      5  H2  UNL     1      24.847  46.508   4.287  1.00  0.00     0.172 HD
HETATM    6  C7  UNL     1      24.781  46.608   2.240  1.00  0.00     0.159 A 
HETATM    7  C8  UNL     1      24.432  45.950   1.046  1.00  0.00     0.074 A 
HETATM    8  C22 UNL     1      23.894  44.694   1.160  1.00  0.00     0.126 A 
ENDROOT
BRANCH   7   9
HETATM    9  C9  UNL     1      24.650  46.610  -0.232  1.00  0.00     0.108 C 
HETATM   10  N3  UNL     1      24.123  47.746  -0.443  1.00  0.00    -0.365 N 
ATOM     11  H3  UNL     1      23.559  48.164   0.297  1.00  0.00     0.165 HD
BRANCH  10  12
HETATM   12  C10 UNL     1      24.282  48.472  -1.670  1.00  0.00     0.032 A 
HETATM   13  C11 UNL     1      24.674  49.796  -1.679  1.00  0.00     0.031 A 
HETATM   14  C12 UNL     1      24.827  50.498  -2.856  1.00  0.00     0.027 A 
HETATM   15  C13 UNL     1      24.593  49.904  -4.080  1.00  0.00     0.079 A 
HETATM   16  C20 UNL     1      24.201  48.581  -4.066  1.00  0.00     0.027 A 
HETATM   17  C21 UNL     1      24.045  47.872  -2.889  1.00  0.00     0.031 A 
BRANCH  15  18
HETATM   18  S1  UNL     1      24.788  50.800  -5.588  1.00  0.00     0.261 S 
HETATM   19  O4  UNL     1      26.214  51.217  -5.767  1.00  0.00    -0.200 OA
HETATM   20  O5  UNL     1      24.530  49.770  -6.688  1.00  0.00    -0.200 OA
BRANCH  18  21
HETATM   21  N4  UNL     1      23.670  52.029  -5.770  1.00  0.00    -0.299 N 
BRANCH  21  22
HETATM   22  C14 UNL     1      22.305  51.682  -5.886  1.00  0.00     0.088 C 
HETATM   23  C15 UNL     1      21.546  52.487  -6.908  1.00  0.00     0.032 C 
HETATM   24  C16 UNL     1      21.628  51.812  -4.536  1.00  0.00     0.032 C 
ENDBRANCH  21  22
BRANCH  21  25
HETATM   25  C17 UNL     1      24.038  53.366  -5.647  1.00  0.00     0.088 C 
HETATM   26  C18 UNL     1      24.711  53.717  -4.321  1.00  0.00     0.032 C 
HETATM   27  C19 UNL     1      24.923  53.919  -6.735  1.00  0.00     0.032 C 
ENDBRANCH  21  25
ENDBRANCH  18  21
ENDBRANCH  15  18
ENDBRANCH  10  12
ENDBRANCH   7   9
BRANCH   6  28
HETATM   28  O3  UNL     1      25.322  47.869   2.138  1.00  0.00    -0.345 OA
ATOM     29  H3  UNL     1      25.579  48.232   1.298  1.00  0.00     0.219 HD
ENDBRANCH   6  28
BRANCH   8  30
HETATM   30  N5  UNL     1      23.549  44.024   0.132  1.00  0.00    -0.384 N 
ATOM     31  H52 UNL     1      23.393  43.018   0.182  1.00  0.00     0.157 HD
ATOM     32  H51 UNL     1      23.437  44.537  -0.742  1.00  0.00     0.157 HD
ENDBRANCH   8  30
BRANCH   1  33
HETATM   33  C5  UNL     1      23.143  42.799   2.482  1.00  0.00     0.045 A 
HETATM   34  C4  UNL     1      22.176  42.369   1.596  1.00  0.00     0.033 A 
HETATM   35  C3  UNL     1      21.638  41.102   1.695  1.00  0.00     0.039 A 
HETATM   36  C2  UNL     1      22.028  40.207   2.669  1.00  0.00     0.068 A 
HETATM   37  C24 UNL     1      22.996  40.635   3.557  1.00  0.00     0.039 A 
HETATM   38  C23 UNL     1      23.533  41.902   3.456  1.00  0.00     0.033 A 
BRANCH  36  39
HETATM   39  O1  UNL     1      21.482  38.932   2.765  1.00  0.00    -0.356 OA
HETATM   40  C1  UNL     1      21.662  38.025   1.693  1.00  0.00     0.210 C 
ENDBRANCH  36  39
ENDBRANCH   1  33
TORSDOF 10
ENDMDL
MODEL 5
REMARK VINA RESULT: -7.939548554      2.895      4.656
REMARK  10 active torsions:
REMARK  status: ('A' for Active; 'I' for Inactive)
REMARK    1  A    between atoms: O1_2  and  C2_3 
REMARK    2  A    between atoms: C5_6  and  N1_7 
REMARK    3  A    between atoms: C7_12  and  O3_13 
REMARK    4  A    between atoms: C8_15  and  C9_16 
REMARK    5  A    between atoms: N3_17  and  C10_19 
REMARK    6  A    between atoms: C13_22  and  S1_23 
REMARK    7  A    between atoms: S1_23  and  N4_26 
REMARK    8  A    between atoms: N4_26  and  C14_27 
REMARK    9  A    between atoms: N4_26  and  C17_30 
REMARK   10  A    between atoms: C22_35  and  N5_36 
ROOT
HETATM    1  N1  UNL     1      23.703  44.098   2.417  1.00  0.00    -0.249 N 
HETATM    2  C6  UNL     1      24.073  44.797   3.498  1.00  0.00     0.334 A 
HETATM    3  O2  UNL     1      23.878  44.209   4.617  1.00  0.00    -0.246 OA
HETATM    4  N2  UNL     1      24.604  46.009   3.463  1.00  0.00    -0.288 N 
ATOM      5  H2  UNL     1      24.864  46.487   4.326  1.00  0.00     0.172 HD
HETATM    6  C7  UNL     1      24.794  46.595   2.280  1.00  0.00     0.159 A 
HETATM    7  C8  UNL     1      24.439  45.945   1.083  1.00  0.00     0.074 A 
HETATM    8  C22 UNL     1      23.894  44.691   1.193  1.00  0.00     0.126 A 
ENDROOT
BRANCH   7   9
HETATM    9  C9  UNL     1      24.658  46.609  -0.193  1.00  0.00     0.108 C 
HETATM   10  N3  UNL     1      24.117  47.738  -0.407  1.00  0.00    -0.365 N 
ATOM     11  H3  UNL     1      23.540  48.147   0.328  1.00  0.00     0.165 HD
BRANCH  10  12
HETATM   12  C10 UNL     1      24.275  48.466  -1.632  1.00  0.00     0.032 A 
HETATM   13  C11 UNL     1      24.042  47.874  -2.858  1.00  0.00     0.031 A 
HETATM   14  C12 UNL     1      24.194  48.571  -4.039  1.00  0.00     0.027 A 
HETATM   15  C13 UNL     1      24.586  49.894  -4.044  1.00  0.00     0.079 A 
HETATM   16  C20 UNL     1      24.818  50.481  -2.817  1.00  0.00     0.027 A 
HETATM   17  C21 UNL     1      24.669  49.788  -1.630  1.00  0.00     0.031 A 
BRANCH  15  18
HETATM   18  S1  UNL     1      24.782  50.788  -5.554  1.00  0.00     0.261 S 
HETATM   19  O4  UNL     1      26.207  51.205  -5.733  1.00  0.00    -0.200 OA
HETATM   20  O5  UNL     1      24.523  49.757  -6.652  1.00  0.00    -0.200 OA
BRANCH  18  21
HETATM   21  N4  UNL     1      23.663  52.018  -5.737  1.00  0.00    -0.299 N 
BRANCH  21  22
HETATM   22  C14 UNL     1      22.301  51.670  -5.876  1.00  0.00     0.088 C 
HETATM   23  C15 UNL     1      21.566  52.451  -6.932  1.00  0.00     0.032 C 
HETATM   24  C16 UNL     1      21.594  51.832  -4.544  1.00  0.00     0.032 C 
ENDBRANCH  21  22
BRANCH  21  25
HETATM   25  C17 UNL     1      24.027  53.354  -5.595  1.00  0.00     0.088 C 
HETATM   26  C18 UNL     1      24.708  53.685  -4.267  1.00  0.00     0.032 C 
HETATM   27  C19 UNL     1      24.902  53.929  -6.679  1.00  0.00     0.032 C 
ENDBRANCH  21  25
ENDBRANCH  18  21
ENDBRANCH  15  18
ENDBRANCH  10  12
ENDBRANCH   7   9
BRANCH   6  28
HETATM   28  O3  UNL     1      25.342  47.855   2.181  1.00  0.00    -0.345 OA
ATOM     29  H3  UNL     1      24.800  48.634   2.200  1.00  0.00     0.219 HD
ENDBRANCH   6  28
BRANCH   8  30
HETATM   30  N5  UNL     1      23.544  44.028   0.163  1.00  0.00    -0.384 N 
ATOM     31  H52 UNL     1      22.858  43.276   0.224  1.00  0.00     0.157 HD
ATOM     32  H51 UNL     1      23.979  44.280  -0.724  1.00  0.00     0.157 HD
ENDBRANCH   8  30
BRANCH   1  33
HETATM   33  C5  UNL     1      23.136  42.796   2.508  1.00  0.00     0.045 A 
HETATM   34  C4  UNL     1      23.521  41.916   3.501  1.00  0.00     0.033 A 
HETATM   35  C3  UNL     1      22.966  40.656   3.584  1.00  0.00     0.039 A 
HETATM   36  C2  UNL     1      22.012  40.207   2.695  1.00  0.00     0.068 A 
HETATM   37  C24 UNL     1      21.625  41.084   1.701  1.00  0.00     0.039 A 
HETATM   38  C23 UNL     1      22.180  42.345   1.620  1.00  0.00     0.033 A 
BRANCH  36  39
HETATM   39  O1  UNL     1      21.458  38.934   2.784  1.00  0.00    -0.356 OA
HETATM   40  C1  UNL     1      21.628  38.033   1.705  1.00  0.00     0.210 C 
ENDBRANCH  36  39
ENDBRANCH   1  33
TORSDOF 10
ENDMDL
