MODEL 1
REMARK VINA RESULT: -9.150270360      0.000      0.000
REMARK  11 active torsions:
REMARK  status: ('A' for Active; 'I' for Inactive)
REMARK    1  A    between atoms: C2_2  and  C3_3 
REMARK    2  A    between atoms: C2_2  and  O4_19 
REMARK    3  A    between atoms: C4_4  and  C5_5 
REMARK    4  A    between atoms: C5_5  and  O1_6 
REMARK    5  A    between atoms: C5_5  and  C6_8 
REMARK    6  A    between atoms: C9_12  and  O3_13 
REMARK    7  A    between atoms: O4_19  and  C14_20 
REMARK    8  A    between atoms: C14_20  and  C15_21 
REMARK    9  A    between atoms: C14_20  and  C23_35 
REMARK   10  A    between atoms: C15_21  and  C16_22 
REMARK   11  A    between atoms: C23_35  and  C24_37 
ROOT
HETATM    1  C14 UNL     1      24.829  45.313  -0.720  1.00  0.00     0.199 C 
ENDROOT
BRANCH   1   2
HETATM    2  O4  UNL     1      25.949  46.220  -0.700  1.00  0.00    -0.369 OA
BRANCH   2   3
HETATM    3  C2  UNL     1      25.628  47.316   0.091  1.00  0.00     0.141 C 
HETATM    4  C1  UNL     1      26.856  48.203   0.175  1.00  0.00     0.044 C 
BRANCH   3   5
HETATM    5  C3  UNL     1      24.528  48.096  -0.496  1.00  0.00     0.003 C 
HETATM    6  C4  UNL     1      24.756  48.857  -1.569  1.00  0.00     0.004 C 
BRANCH   6   7
HETATM    7  C5  UNL     1      23.710  49.680  -2.233  1.00  0.00     0.152 C 
BRANCH   7   8
HETATM    8  O1  UNL     1      23.758  50.950  -1.611  1.00  0.00    -0.391 OA
ATOM      9  H1  UNL     1      22.880  51.309  -1.676  1.00  0.00     0.210 HD
ENDBRANCH   7   8
BRANCH   7  10
HETATM   10  C6  UNL     1      23.985  49.840  -3.689  1.00  0.00     0.095 C 
HETATM   11  C7  UNL     1      23.978  48.541  -4.399  1.00  0.00     0.137 C 
HETATM   12  O2  UNL     1      23.642  47.513  -3.853  1.00  0.00    -0.297 OA
HETATM   13  C8  UNL     1      24.395  48.489  -5.822  1.00  0.00     0.110 C 
HETATM   14  C9  UNL     1      24.232  49.896  -6.387  1.00  0.00     0.126 C 
HETATM   15  C10 UNL     1      22.933  50.434  -5.806  1.00  0.00     0.041 C 
HETATM   16  C11 UNL     1      23.103  50.862  -4.355  1.00  0.00    -0.032 C 
HETATM   17  C12 UNL     1      23.752  52.232  -4.390  1.00  0.00     0.016 C 
HETATM   18  C13 UNL     1      21.742  50.969  -3.735  1.00  0.00     0.016 C 
BRANCH  14  19
HETATM   19  O3  UNL     1      24.099  49.841  -7.768  1.00  0.00    -0.395 OA
ATOM     20  H3  UNL     1      24.786  50.350  -8.181  1.00  0.00     0.210 HD
ENDBRANCH  14  19
ENDBRANCH   7  10
ENDBRANCH   6   7
ENDBRANCH   3   5
ENDBRANCH   2   3
ENDBRANCH   1   2
BRANCH   1  21
HETATM   21  C15 UNL     1      25.101  44.496   0.528  1.00  0.00     0.141 C 
BRANCH  21  22
HETATM   22  C16 UNL     1      24.111  44.159   1.489  1.00  0.00     0.349 C 
HETATM   23  N1  UNL     1      23.310  42.973   1.395  1.00  0.00     0.004 N 
HETATM   24  C17 UNL     1      22.771  43.067   2.789  1.00  0.00     0.244 C 
ATOM     25  H12 UNL     1      22.640  42.911   0.629  1.00  0.00     0.285 HD
ATOM     26  H11 UNL     1      23.772  42.106   1.120  1.00  0.00     0.285 HD
HETATM   27  C18 UNL     1      21.786  42.062   3.117  1.00  0.00     0.061 C 
HETATM   28  C19 UNL     1      24.069  43.016   3.487  1.00  0.00     0.302 C 
HETATM   29  C20 UNL     1      22.332  44.502   2.761  1.00  0.00     0.102 C 
HETATM   30  O5  UNL     1      24.384  42.345   4.499  1.00  0.00    -0.262 OA
HETATM   31  O6  UNL     1      24.835  43.894   2.736  1.00  0.00    -0.256 OA
HETATM   32  C21 UNL     1      22.592  45.216   4.062  1.00  0.00     0.049 C 
HETATM   33  C22 UNL     1      20.862  44.655   2.451  1.00  0.00     0.049 C 
HETATM   34  O7  UNL     1      23.128  45.106   1.777  1.00  0.00    -0.319 OA
ENDBRANCH  21  22
ENDBRANCH   1  21
BRANCH   1  35
HETATM   35  C23 UNL     1      24.930  44.546  -1.946  1.00  0.00     0.159 C 
HETATM   36  O8  UNL     1      25.655  44.981  -2.875  1.00  0.00    -0.295 OA
BRANCH  35  37
HETATM   37  C24 UNL     1      24.234  43.269  -2.213  1.00  0.00     0.050 C 
HETATM   38  C25 UNL     1      24.274  42.758  -3.598  1.00  0.00     0.017 C 
HETATM   39  C26 UNL     1      22.759  43.448  -1.811  1.00  0.00     0.017 C 
ENDBRANCH  35  37
ENDBRANCH   1  35
TORSDOF 11
ENDMDL
MODEL 2
REMARK VINA RESULT: -8.916319193      1.057      1.552
REMARK  11 active torsions:
REMARK  status: ('A' for Active; 'I' for Inactive)
REMARK    1  A    between atoms: C2_2  and  C3_3 
REMARK    2  A    between atoms: C2_2  and  O4_19 
REMARK    3  A    between atoms: C4_4  and  C5_5 
REMARK    4  A    between atoms: C5_5  and  O1_6 
REMARK    5  A    between atoms: C5_5  and  C6_8 
REMARK    6  A    between atoms: C9_12  and  O3_13 
REMARK    7  A    between atoms: O4_19  and  C14_20 
REMARK    8  A    between atoms: C14_20  and  C15_21 
REMARK    9  A    between atoms: C14_20  and  C23_35 
REMARK   10  A    between atoms: C15_21  and  C16_22 
REMARK   11  A    between atoms: C23_35  and  C24_37 
ROOT
HETATM    1  C14 UNL     1      24.653  45.499  -0.925  1.00  0.00     0.199 C 
ENDROOT
BRANCH   1   2
HETATM    2  O4  UNL     1      25.779  46.395  -0.839  1.00  0.00    -0.369 OA
BRANCH   2   3
HETATM    3  C2  UNL     1      25.451  47.452   0.002  1.00  0.00     0.141 C 
HETATM    4  C1  UNL     1      26.696  48.299   0.188  1.00  0.00     0.044 C 
BRANCH   3   5
HETATM    5  C3  UNL     1      24.398  48.294  -0.582  1.00  0.00     0.003 C 
HETATM    6  C4  UNL     1      24.675  49.069  -1.633  1.00  0.00     0.004 C 
BRANCH   6   7
HETATM    7  C5  UNL     1      23.678  49.953  -2.293  1.00  0.00     0.152 C 
BRANCH   7   8
HETATM    8  O1  UNL     1      23.818  51.223  -1.685  1.00  0.00    -0.391 OA
ATOM      9  H1  UNL     1      22.955  51.461  -1.369  1.00  0.00     0.210 HD
ENDBRANCH   7   8
BRANCH   7  10
HETATM   10  C6  UNL     1      23.944  50.081  -3.754  1.00  0.00     0.095 C 
HETATM   11  C7  UNL     1      23.948  48.765  -4.432  1.00  0.00     0.137 C 
HETATM   12  O2  UNL     1      23.626  47.747  -3.860  1.00  0.00    -0.297 OA
HETATM   13  C8  UNL     1      24.358  48.683  -5.856  1.00  0.00     0.110 C 
HETATM   14  C9  UNL     1      24.176  50.073  -6.454  1.00  0.00     0.126 C 
HETATM   15  C10 UNL     1      22.875  50.611  -5.879  1.00  0.00     0.041 C 
HETATM   16  C11 UNL     1      23.048  51.076  -4.440  1.00  0.00    -0.032 C 
HETATM   17  C12 UNL     1      23.681  52.452  -4.512  1.00  0.00     0.016 C 
HETATM   18  C13 UNL     1      21.688  51.184  -3.815  1.00  0.00     0.016 C 
BRANCH  14  19
HETATM   19  O3  UNL     1      24.037  49.983  -7.832  1.00  0.00    -0.395 OA
ATOM     20  H3  UNL     1      23.299  50.507  -8.119  1.00  0.00     0.210 HD
ENDBRANCH  14  19
ENDBRANCH   7  10
ENDBRANCH   6   7
ENDBRANCH   3   5
ENDBRANCH   2   3
ENDBRANCH   1   2
BRANCH   1  21
HETATM   21  C15 UNL     1      24.967  44.537   0.204  1.00  0.00     0.141 C 
BRANCH  21  22
HETATM   22  C16 UNL     1      24.023  44.118   1.178  1.00  0.00     0.349 C 
HETATM   23  N1  UNL     1      22.787  44.808   1.409  1.00  0.00     0.004 N 
HETATM   24  C17 UNL     1      22.186  43.725   2.251  1.00  0.00     0.244 C 
ATOM     25  H12 UNL     1      22.832  45.747   1.803  1.00  0.00     0.285 HD
ATOM     26  H11 UNL     1      22.260  45.127   0.596  1.00  0.00     0.285 HD
HETATM   27  C18 UNL     1      20.896  44.053   2.814  1.00  0.00     0.061 C 
HETATM   28  C19 UNL     1      22.246  42.656   1.237  1.00  0.00     0.302 C 
HETATM   29  C20 UNL     1      23.335  43.514   3.194  1.00  0.00     0.102 C 
HETATM   30  O5  UNL     1      21.360  41.821   0.931  1.00  0.00    -0.262 OA
HETATM   31  O6  UNL     1      23.522  42.818   0.721  1.00  0.00    -0.256 OA
HETATM   32  C21 UNL     1      23.543  42.064   3.544  1.00  0.00     0.049 C 
HETATM   33  C22 UNL     1      23.168  44.270   4.491  1.00  0.00     0.049 C 
HETATM   34  O7  UNL     1      24.467  43.950   2.490  1.00  0.00    -0.319 OA
ENDBRANCH  21  22
ENDBRANCH   1  21
BRANCH   1  35
HETATM   35  C23 UNL     1      24.702  44.886  -2.238  1.00  0.00     0.159 C 
HETATM   36  O8  UNL     1      25.630  45.205  -3.021  1.00  0.00    -0.295 OA
BRANCH  35  37
HETATM   37  C24 UNL     1      23.729  43.899  -2.755  1.00  0.00     0.050 C 
HETATM   38  C25 UNL     1      24.098  42.474  -2.651  1.00  0.00     0.017 C 
HETATM   39  C26 UNL     1      23.480  44.224  -4.239  1.00  0.00     0.017 C 
ENDBRANCH  35  37
ENDBRANCH   1  35
TORSDOF 11
ENDMDL
MODEL 3
REMARK VINA RESULT: -8.890329963      1.288      1.788
REMARK  11 active torsions:
REMARK  status: ('A' for Active; 'I' for Inactive)
REMARK    1  A    between atoms: C2_2  and  C3_3 
REMARK    2  A    between atoms: C2_2  and  O4_19 
REMARK    3  A    between atoms: C4_4  and  C5_5 
REMARK    4  A    between atoms: C5_5  and  O1_6 
REMARK    5  A    between atoms: C5_5  and  C6_8 
REMARK    6  A    between atoms: C9_12  and  O3_13 
REMARK    7  A    between atoms: O4_19  and  C14_20 
REMARK    8  A    between atoms: C14_20  and  C15_21 
REMARK    9  A    between atoms: C14_20  and  C23_35 
REMARK   10  A    between atoms: C15_21  and  C16_22 
REMARK   11  A    between atoms: C23_35  and  C24_37 
ROOT
HETATM    1  C14 UNL     1      24.100  45.926  -1.128  1.00  0.00     0.199 C 
ENDROOT
BRANCH   1   2
HETATM    2  O4  UNL     1      24.906  46.223   0.030  1.00  0.00    -0.369 OA
BRANCH   2   3
HETATM    3  C2  UNL     1      24.970  47.602   0.193  1.00  0.00     0.141 C 
HETATM    4  C1  UNL     1      26.313  48.070  -0.336  1.00  0.00     0.044 C 
BRANCH   3   5
HETATM    5  C3  UNL     1      23.909  48.280  -0.565  1.00  0.00     0.003 C 
HETATM    6  C4  UNL     1      24.230  49.200  -1.477  1.00  0.00     0.004 C 
BRANCH   6   7
HETATM    7  C5  UNL     1      23.229  49.938  -2.293  1.00  0.00     0.152 C 
BRANCH   7   8
HETATM    8  O1  UNL     1      23.119  51.222  -1.709  1.00  0.00    -0.391 OA
ATOM      9  H1  UNL     1      22.503  51.704  -2.247  1.00  0.00     0.210 HD
ENDBRANCH   7   8
BRANCH   7  10
HETATM   10  C6  UNL     1      23.678  50.083  -3.707  1.00  0.00     0.095 C 
HETATM   11  C7  UNL     1      23.744  48.778  -4.402  1.00  0.00     0.137 C 
HETATM   12  O2  UNL     1      23.336  47.758  -3.893  1.00  0.00    -0.297 OA
HETATM   13  C8  UNL     1      24.327  48.710  -5.765  1.00  0.00     0.110 C 
HETATM   14  C9  UNL     1      24.246  50.112  -6.357  1.00  0.00     0.126 C 
HETATM   15  C10 UNL     1      22.892  50.666  -5.939  1.00  0.00     0.041 C 
HETATM   16  C11 UNL     1      22.892  51.106  -4.482  1.00  0.00    -0.032 C 
HETATM   17  C12 UNL     1      23.553  52.470  -4.450  1.00  0.00     0.016 C 
HETATM   18  C13 UNL     1      21.467  51.230  -4.029  1.00  0.00     0.016 C 
BRANCH  14  19
HETATM   19  O3  UNL     1      24.279  50.046  -7.743  1.00  0.00    -0.395 OA
ATOM     20  H3  UNL     1      24.208  50.918  -8.112  1.00  0.00     0.210 HD
ENDBRANCH  14  19
ENDBRANCH   7  10
ENDBRANCH   6   7
ENDBRANCH   3   5
ENDBRANCH   2   3
ENDBRANCH   1   2
BRANCH   1  21
HETATM   21  C15 UNL     1      23.008  45.079  -0.505  1.00  0.00     0.141 C 
BRANCH  21  22
HETATM   22  C16 UNL     1      23.046  44.583   0.825  1.00  0.00     0.349 C 
HETATM   23  N1  UNL     1      24.272  44.318   1.520  1.00  0.00     0.004 N 
HETATM   24  C17 UNL     1      23.630  44.160   2.864  1.00  0.00     0.244 C 
ATOM     25  H12 UNL     1      24.857  43.555   1.179  1.00  0.00     0.285 HD
ATOM     26  H11 UNL     1      25.027  44.997   1.429  1.00  0.00     0.285 HD
HETATM   27  C18 UNL     1      24.539  43.769   3.917  1.00  0.00     0.061 C 
HETATM   28  C19 UNL     1      23.028  45.505   2.934  1.00  0.00     0.302 C 
HETATM   29  C20 UNL     1      22.542  43.200   2.479  1.00  0.00     0.102 C 
HETATM   30  O5  UNL     1      23.019  46.305   3.900  1.00  0.00    -0.262 OA
HETATM   31  O6  UNL     1      22.485  45.644   1.666  1.00  0.00    -0.256 OA
HETATM   32  C21 UNL     1      21.242  43.480   3.186  1.00  0.00     0.049 C 
HETATM   33  C22 UNL     1      22.908  41.762   2.763  1.00  0.00     0.049 C 
HETATM   34  O7  UNL     1      22.337  43.415   1.108  1.00  0.00    -0.319 OA
ENDBRANCH  21  22
ENDBRANCH   1  21
BRANCH   1  35
HETATM   35  C23 UNL     1      24.944  45.193  -2.051  1.00  0.00     0.159 C 
HETATM   36  O8  UNL     1      26.144  44.987  -1.742  1.00  0.00    -0.295 OA
BRANCH  35  37
HETATM   37  C24 UNL     1      24.513  44.657  -3.360  1.00  0.00     0.050 C 
HETATM   38  C25 UNL     1      24.412  43.189  -3.486  1.00  0.00     0.017 C 
HETATM   39  C26 UNL     1      25.506  45.164  -4.422  1.00  0.00     0.017 C 
ENDBRANCH  35  37
ENDBRANCH   1  35
TORSDOF 11
ENDMDL
MODEL 4
REMARK VINA RESULT: -8.816771046      1.640      2.227
REMARK  11 active torsions:
REMARK  status: ('A' for Active; 'I' for Inactive)
REMARK    1  A    between atoms: C2_2  and  C3_3 
REMARK    2  A    between atoms: C2_2  and  O4_19 
REMARK    3  A    between atoms: C4_4  and  C5_5 
REMARK    4  A    between atoms: C5_5  and  O1_6 
REMARK    5  A    between atoms: C5_5  and  C6_8 
REMARK    6  A    between atoms: C9_12  and  O3_13 
REMARK    7  A    between atoms: O4_19  and  C14_20 
REMARK    8  A    between atoms: C14_20  and  C15_21 
REMARK    9  A    between atoms: C14_20  and  C23_35 
REMARK   10  A    between atoms: C15_21  and  C16_22 
REMARK   11  A    between atoms: C23_35  and  C24_37 
ROOT
HETATM    1  C14 UNL     1      23.637  45.774  -1.543  1.00  0.00     0.199 C 
ENDROOT
BRANCH   1   2
HETATM    2  O4  UNL     1      24.639  46.587  -0.901  1.00  0.00    -0.369 OA
BRANCH   2   3
HETATM    3  C2  UNL     1      24.049  47.765  -0.458  1.00  0.00     0.141 C 
HETATM    4  C1  UNL     1      24.558  48.039   0.945  1.00  0.00     0.044 C 
BRANCH   3   5
HETATM    5  C3  UNL     1      24.411  48.901  -1.316  1.00  0.00     0.003 C 
HETATM    6  C4  UNL     1      23.504  49.844  -1.584  1.00  0.00     0.004 C 
BRANCH   6   7
HETATM    7  C5  UNL     1      23.776  51.029  -2.441  1.00  0.00     0.152 C 
BRANCH   7   8
HETATM    8  O1  UNL     1      24.940  51.636  -1.913  1.00  0.00    -0.391 OA
ATOM      9  H1  UNL     1      24.641  52.375  -1.398  1.00  0.00     0.210 HD
ENDBRANCH   7   8
BRANCH   7  10
HETATM   10  C6  UNL     1      24.032  50.632  -3.855  1.00  0.00     0.095 C 
HETATM   11  C7  UNL     1      22.792  50.204  -4.542  1.00  0.00     0.137 C 
HETATM   12  O2  UNL     1      21.702  50.315  -4.027  1.00  0.00    -0.297 OA
HETATM   13  C8  UNL     1      22.882  49.619  -5.903  1.00  0.00     0.110 C 
HETATM   14  C9  UNL     1      24.204  50.084  -6.504  1.00  0.00     0.126 C 
HETATM   15  C10 UNL     1      24.362  51.539  -6.093  1.00  0.00     0.041 C 
HETATM   16  C11 UNL     1      24.792  51.668  -4.638  1.00  0.00    -0.032 C 
HETATM   17  C12 UNL     1      26.287  51.412  -4.613  1.00  0.00     0.016 C 
HETATM   18  C13 UNL     1      24.518  53.073  -4.190  1.00  0.00     0.016 C 
BRANCH  14  19
HETATM   19  O3  UNL     1      24.141  50.028  -7.889  1.00  0.00    -0.395 OA
ATOM     20  H3  UNL     1      23.427  50.568  -8.204  1.00  0.00     0.210 HD
ENDBRANCH  14  19
ENDBRANCH   7  10
ENDBRANCH   6   7
ENDBRANCH   3   5
ENDBRANCH   2   3
ENDBRANCH   1   2
BRANCH   1  21
HETATM   21  C15 UNL     1      23.835  44.455  -0.820  1.00  0.00     0.141 C 
BRANCH  21  22
HETATM   22  C16 UNL     1      23.271  44.150   0.446  1.00  0.00     0.349 C 
HETATM   23  N1  UNL     1      21.987  44.636   0.863  1.00  0.00     0.004 N 
HETATM   24  C17 UNL     1      21.882  43.732   2.051  1.00  0.00     0.244 C 
ATOM     25  H12 UNL     1      21.886  45.639   1.018  1.00  0.00     0.285 HD
ATOM     26  H11 UNL     1      21.228  44.620   0.182  1.00  0.00     0.285 HD
HETATM   27  C18 UNL     1      20.714  43.957   2.871  1.00  0.00     0.061 C 
HETATM   28  C19 UNL     1      21.975  42.457   1.315  1.00  0.00     0.302 C 
HETATM   29  C20 UNL     1      23.230  44.001   2.655  1.00  0.00     0.102 C 
HETATM   30  O5  UNL     1      21.280  41.423   1.457  1.00  0.00    -0.262 OA
HETATM   31  O6  UNL     1      23.020  42.706   0.438  1.00  0.00    -0.256 OA
HETATM   32  C21 UNL     1      23.866  42.765   3.234  1.00  0.00     0.049 C 
HETATM   33  C22 UNL     1      23.179  45.037   3.753  1.00  0.00     0.049 C 
HETATM   34  O7  UNL     1      24.029  44.430   1.585  1.00  0.00    -0.319 OA
ENDBRANCH  21  22
ENDBRANCH   1  21
BRANCH   1  35
HETATM   35  C23 UNL     1      23.979  45.718  -2.951  1.00  0.00     0.159 C 
HETATM   36  O8  UNL     1      23.404  46.502  -3.746  1.00  0.00    -0.295 OA
BRANCH  35  37
HETATM   37  C24 UNL     1      24.964  44.793  -3.553  1.00  0.00     0.050 C 
HETATM   38  C25 UNL     1      25.723  45.287  -4.719  1.00  0.00     0.017 C 
HETATM   39  C26 UNL     1      24.210  43.519  -3.976  1.00  0.00     0.017 C 
ENDBRANCH  35  37
ENDBRANCH   1  35
TORSDOF 11
ENDMDL
MODEL 5
REMARK VINA RESULT: -8.698091965      1.855      3.830
REMARK  11 active torsions:
REMARK  status: ('A' for Active; 'I' for Inactive)
REMARK    1  A    between atoms: C2_2  and  C3_3 
REMARK    2  A    between atoms: C2_2  and  O4_19 
REMARK    3  A    between atoms: C4_4  and  C5_5 
REMARK    4  A    between atoms: C5_5  and  O1_6 
REMARK    5  A    between atoms: C5_5  and  C6_8 
REMARK    6  A    between atoms: C9_12  and  O3_13 
REMARK    7  A    between atoms: O4_19  and  C14_20 
REMARK    8  A    between atoms: C14_20  and  C15_21 
REMARK    9  A    between atoms: C14_20  and  C23_35 
REMARK   10  A    between atoms: C15_21  and  C16_22 
REMARK   11  A    between atoms: C23_35  and  C24_37 
ROOT
HETATM    1  C14 UNL     1      23.921  44.185  -0.798  1.00  0.00     0.199 C 
ENDROOT
BRANCH   1   2
HETATM    2  O4  UNL     1      24.621  43.474  -1.839  1.00  0.00    -0.369 OA
BRANCH   2   3
HETATM    3  C2  UNL     1      24.572  44.225  -3.008  1.00  0.00     0.141 C 
HETATM    4  C1  UNL     1      23.725  43.466  -4.012  1.00  0.00     0.044 C 
BRANCH   3   5
HETATM    5  C3  UNL     1      23.955  45.538  -2.775  1.00  0.00     0.003 C 
HETATM    6  C4  UNL     1      24.482  46.628  -3.339  1.00  0.00     0.004 C 
BRANCH   6   7
HETATM    7  C5  UNL     1      23.930  47.997  -3.162  1.00  0.00     0.152 C 
BRANCH   7   8
HETATM    8  O1  UNL     1      24.611  48.554  -2.054  1.00  0.00    -0.391 OA
ATOM      9  H1  UNL     1      25.112  49.285  -2.393  1.00  0.00     0.210 HD
ENDBRANCH   7   8
BRANCH   7  10
HETATM   10  C6  UNL     1      24.180  48.845  -4.363  1.00  0.00     0.095 C 
HETATM   11  C7  UNL     1      23.352  48.426  -5.517  1.00  0.00     0.137 C 
HETATM   12  O2  UNL     1      22.486  47.586  -5.415  1.00  0.00    -0.297 OA
HETATM   13  C8  UNL     1      23.587  49.049  -6.843  1.00  0.00     0.110 C 
HETATM   14  C9  UNL     1      24.288  50.380  -6.594  1.00  0.00     0.126 C 
HETATM   15  C10 UNL     1      23.612  50.988  -5.375  1.00  0.00     0.041 C 
HETATM   16  C11 UNL     1      24.072  50.320  -4.086  1.00  0.00    -0.032 C 
HETATM   17  C12 UNL     1      25.418  50.932  -3.748  1.00  0.00     0.016 C 
HETATM   18  C13 UNL     1      23.086  50.653  -3.006  1.00  0.00     0.016 C 
BRANCH  14  19
HETATM   19  O3  UNL     1      24.087  51.232  -7.671  1.00  0.00    -0.395 OA
ATOM     20  H3  UNL     1      23.810  52.086  -7.362  1.00  0.00     0.210 HD
ENDBRANCH  14  19
ENDBRANCH   7  10
ENDBRANCH   6   7
ENDBRANCH   3   5
ENDBRANCH   2   3
ENDBRANCH   1   2
BRANCH   1  21
HETATM   21  C15 UNL     1      25.071  44.545   0.123  1.00  0.00     0.141 C 
BRANCH  21  22
HETATM   22  C16 UNL     1      25.263  45.833   0.689  1.00  0.00     0.349 C 
HETATM   23  N1  UNL     1      24.446  46.962   0.347  1.00  0.00     0.004 N 
HETATM   24  C17 UNL     1      24.939  47.826   1.466  1.00  0.00     0.244 C 
ATOM     25  H12 UNL     1      24.512  47.328  -0.602  1.00  0.00     0.285 HD
ATOM     26  H11 UNL     1      23.440  46.814   0.267  1.00  0.00     0.285 HD
HETATM   27  C18 UNL     1      24.419  49.174   1.453  1.00  0.00     0.061 C 
HETATM   28  C19 UNL     1      24.532  46.938   2.571  1.00  0.00     0.302 C 
HETATM   29  C20 UNL     1      26.414  47.637   1.258  1.00  0.00     0.102 C 
HETATM   30  O5  UNL     1      23.956  47.242   3.643  1.00  0.00    -0.262 OA
HETATM   31  O6  UNL     1      24.950  45.698   2.114  1.00  0.00    -0.256 OA
HETATM   32  C21 UNL     1      27.177  47.538   2.554  1.00  0.00     0.049 C 
HETATM   33  C22 UNL     1      27.036  48.755   0.455  1.00  0.00     0.049 C 
HETATM   34  O7  UNL     1      26.533  46.405   0.598  1.00  0.00    -0.319 OA
ENDBRANCH  21  22
ENDBRANCH   1  21
BRANCH   1  35
HETATM   35  C23 UNL     1      22.981  43.251  -0.210  1.00  0.00     0.159 C 
HETATM   36  O8  UNL     1      22.269  42.549  -0.969  1.00  0.00    -0.295 OA
BRANCH  35  37
HETATM   37  C24 UNL     1      22.773  43.049   1.241  1.00  0.00     0.050 C 
HETATM   38  C25 UNL     1      22.166  41.771   1.661  1.00  0.00     0.017 C 
HETATM   39  C26 UNL     1      21.879  44.195   1.748  1.00  0.00     0.017 C 
ENDBRANCH  35  37
ENDBRANCH   1  35
TORSDOF 11
ENDMDL
