MODEL 1
REMARK VINA RESULT: -8.995679584      0.000      0.000
REMARK  10 active torsions:
REMARK  status: ('A' for Active; 'I' for Inactive)
REMARK    1  A    between atoms: C2_2  and  C3_3 
REMARK    2  A    between atoms: N1_4  and  N2_6 
REMARK    3  A    between atoms: N2_6  and  C4_8 
REMARK    4  A    between atoms: C4_8  and  C5_9 
REMARK    5  A    between atoms: C5_9  and  O1_10 
REMARK    6  A    between atoms: C5_9  and  C6_12 
REMARK    7  A    between atoms: C5_9  and  C12_18 
REMARK    8  A    between atoms: C15_21  and  O2_22 
REMARK    9  A    between atoms: O2_22  and  C16_23 
REMARK   10  A    between atoms: C23_31  and  O4_32 
ROOT
HETATM    1  C12 UNL     1      23.697  43.982   1.197  1.00  0.00     0.061 C 
HETATM    2  C13 UNL     1      23.374  45.446   1.237  1.00  0.00     0.031 C 
HETATM    3  C14 UNL     1      24.497  45.734   0.212  1.00  0.00     0.076 C 
HETATM    4  C15 UNL     1      25.682  46.220   0.957  1.00  0.00     0.166 C 
HETATM    5  C18 UNL     1      26.174  47.553   0.505  1.00  0.00    -0.057 C 
HETATM    6  C19 UNL     1      27.459  47.637   0.282  1.00  0.00     0.017 C 
HETATM    7  C20 UNL     1      25.438  48.818   0.260  1.00  0.00     0.070 C 
HETATM    8  C21 UNL     1      25.258  48.778  -1.216  1.00  0.00     0.160 A 
HETATM    9  O3  UNL     1      24.139  48.741  -1.936  1.00  0.00    -0.369 OA
HETATM   10  C22 UNL     1      24.922  47.468  -1.647  1.00  0.00     0.214 A 
HETATM   11  C23 UNL     1      24.018  46.561  -0.921  1.00  0.00     0.207 C 
HETATM   12  O5  UNL     1      23.438  45.791  -1.964  1.00  0.00    -0.316 OA
HETATM   13  C24 UNL     1      24.027  44.639  -2.275  1.00  0.00     0.161 C 
HETATM   14  C25 UNL     1      25.330  44.644  -3.018  1.00  0.00     0.078 C 
HETATM   15  C26 UNL     1      23.050  43.954  -3.266  1.00  0.00     0.078 C 
HETATM   16  O6  UNL     1      24.125  43.814  -1.225  1.00  0.00    -0.349 OA
HETATM   17  C27 UNL     1      24.514  44.236  -0.013  1.00  0.00     0.149 C 
ENDROOT
BRANCH   1  18
HETATM   18  C5  UNL     1      22.692  42.982   1.434  1.00  0.00     0.124 C 
BRANCH  18  19
HETATM   19  C4  UNL     1      21.319  43.603   1.492  1.00  0.00     0.123 C 
BRANCH  19  20
HETATM   20  N2  UNL     1      20.643  43.620   2.725  1.00  0.00    -0.313 N 
ATOM     21  H2  UNL     1      20.321  42.755   3.159  1.00  0.00     0.185 HD
BRANCH  20  22
HETATM   22  N1  UNL     1      20.422  44.873   3.345  1.00  0.00    -0.312 N 
HETATM   23  C3  UNL     1      21.189  45.386   4.232  1.00  0.00     0.106 C 
ATOM     24  H1  UNL     1      19.597  45.403   3.066  1.00  0.00     0.186 HD
BRANCH  23  25
HETATM   25  C2  UNL     1      20.842  46.678   4.783  1.00  0.00     0.008 C 
HETATM   26  C1  UNL     1      21.170  47.788   4.156  1.00  0.00     0.013 C 
ENDBRANCH  23  25
ENDBRANCH  20  22
ENDBRANCH  19  20
ENDBRANCH  18  19
BRANCH  18  27
HETATM   27  O1  UNL     1      22.657  42.319   0.120  1.00  0.00    -0.379 OA
ATOM     28  H1  UNL     1      23.502  41.885   0.106  1.00  0.00     0.211 HD
ENDBRANCH  18  27
BRANCH  18  29
HETATM   29  C6  UNL     1      22.739  41.879   2.329  1.00  0.00    -0.018 A 
HETATM   30  C7  UNL     1      21.971  40.751   1.962  1.00  0.00     0.010 A 
HETATM   31  C8  UNL     1      21.903  39.617   2.703  1.00  0.00     0.001 A 
HETATM   32  C9  UNL     1      22.601  39.517   3.882  1.00  0.00     0.000 A 
HETATM   33  C10 UNL     1      23.358  40.567   4.289  1.00  0.00     0.001 A 
HETATM   34  C11 UNL     1      23.408  41.716   3.508  1.00  0.00     0.010 A 
ENDBRANCH  18  29
ENDBRANCH   1  18
BRANCH   4  35
HETATM   35  O2  UNL     1      25.484  46.434   2.327  1.00  0.00    -0.381 OA
BRANCH  35  36
HETATM   36  C16 UNL     1      26.468  45.995   3.160  1.00  0.00     0.164 C 
HETATM   37  C17 UNL     1      26.124  44.533   3.492  1.00  0.00     0.033 C 
ENDBRANCH  35  36
ENDBRANCH   4  35
BRANCH  11  38
HETATM   38  O4  UNL     1      22.842  47.216  -0.429  1.00  0.00    -0.362 OA
ATOM     39  H4  UNL     1      22.143  46.584  -0.548  1.00  0.00     0.213 HD
ENDBRANCH  11  38
TORSDOF 10
ENDMDL
MODEL 2
REMARK VINA RESULT: -8.815477215      1.990      5.549
REMARK  10 active torsions:
REMARK  status: ('A' for Active; 'I' for Inactive)
REMARK    1  A    between atoms: C2_2  and  C3_3 
REMARK    2  A    between atoms: N1_4  and  N2_6 
REMARK    3  A    between atoms: N2_6  and  C4_8 
REMARK    4  A    between atoms: C4_8  and  C5_9 
REMARK    5  A    between atoms: C5_9  and  O1_10 
REMARK    6  A    between atoms: C5_9  and  C6_12 
REMARK    7  A    between atoms: C5_9  and  C12_18 
REMARK    8  A    between atoms: C15_21  and  O2_22 
REMARK    9  A    between atoms: O2_22  and  C16_23 
REMARK   10  A    between atoms: C23_31  and  O4_32 
ROOT
HETATM    1  C12 UNL     1      24.359  46.648  -0.317  1.00  0.00     0.061 C 
HETATM    2  C13 UNL     1      25.629  47.165   0.291  1.00  0.00     0.031 C 
HETATM    3  C14 UNL     1      24.855  48.337   0.941  1.00  0.00     0.076 C 
HETATM    4  C15 UNL     1      25.050  49.538   0.098  1.00  0.00     0.166 C 
HETATM    5  C18 UNL     1      25.622  50.704   0.832  1.00  0.00    -0.057 C 
HETATM    6  C19 UNL     1      25.006  51.843   0.655  1.00  0.00     0.017 C 
HETATM    7  C20 UNL     1      26.789  50.788   1.745  1.00  0.00     0.070 C 
HETATM    8  C21 UNL     1      26.132  50.723   3.077  1.00  0.00     0.160 A 
HETATM    9  O3  UNL     1      26.258  49.816   4.043  1.00  0.00    -0.369 OA
HETATM   10  C22 UNL     1      25.085  49.764   3.075  1.00  0.00     0.214 A 
HETATM   11  C23 UNL     1      25.150  48.464   2.389  1.00  0.00     0.207 C 
HETATM   12  O5  UNL     1      24.327  47.637   3.198  1.00  0.00    -0.316 OA
HETATM   13  C24 UNL     1      23.045  47.530   2.860  1.00  0.00     0.161 C 
HETATM   14  C25 UNL     1      22.111  48.679   3.103  1.00  0.00     0.078 C 
HETATM   15  C26 UNL     1      22.487  46.413   3.779  1.00  0.00     0.078 C 
HETATM   16  O6  UNL     1      22.880  47.091   1.606  1.00  0.00    -0.349 OA
HETATM   17  C27 UNL     1      23.607  47.558   0.579  1.00  0.00     0.149 C 
ENDROOT
BRANCH   1  18
HETATM   18  C5  UNL     1      24.165  45.248  -0.579  1.00  0.00     0.124 C 
BRANCH  18  19
HETATM   19  C4  UNL     1      24.790  44.407   0.505  1.00  0.00     0.123 C 
BRANCH  19  20
HETATM   20  N2  UNL     1      24.073  44.210   1.699  1.00  0.00    -0.313 N 
ATOM     21  H2  UNL     1      24.129  44.885   2.462  1.00  0.00     0.185 HD
BRANCH  20  22
HETATM   22  N1  UNL     1      23.273  43.049   1.811  1.00  0.00    -0.312 N 
HETATM   23  C3  UNL     1      23.205  42.316   2.858  1.00  0.00     0.106 C 
ATOM     24  H1  UNL     1      22.713  42.777   1.004  1.00  0.00     0.186 HD
BRANCH  23  25
HETATM   25  C2  UNL     1      22.342  41.154   2.835  1.00  0.00     0.008 C 
HETATM   26  C1  UNL     1      21.808  40.733   1.709  1.00  0.00     0.013 C 
ENDBRANCH  23  25
ENDBRANCH  20  22
ENDBRANCH  19  20
ENDBRANCH  18  19
BRANCH  18  27
HETATM   27  O1  UNL     1      22.733  45.112  -0.264  1.00  0.00    -0.379 OA
ATOM     28  H1  UNL     1      22.345  45.158  -1.130  1.00  0.00     0.211 HD
ENDBRANCH  18  27
BRANCH  18  29
HETATM   29  C6  UNL     1      24.270  44.559  -1.817  1.00  0.00    -0.018 A 
HETATM   30  C7  UNL     1      24.864  45.281  -2.877  1.00  0.00     0.010 A 
HETATM   31  C8  UNL     1      25.039  44.774  -4.124  1.00  0.00     0.001 A 
HETATM   32  C9  UNL     1      24.631  43.495  -4.414  1.00  0.00     0.000 A 
HETATM   33  C10 UNL     1      24.054  42.750  -3.438  1.00  0.00     0.001 A 
HETATM   34  C11 UNL     1      23.888  43.297  -2.170  1.00  0.00     0.010 A 
ENDBRANCH  18  29
ENDBRANCH   1  18
BRANCH   4  35
HETATM   35  O2  UNL     1      25.957  49.390  -0.960  1.00  0.00    -0.381 OA
BRANCH  35  36
HETATM   36  C16 UNL     1      25.670  50.065  -2.108  1.00  0.00     0.164 C 
HETATM   37  C17 UNL     1      24.495  49.315  -2.759  1.00  0.00     0.033 C 
ENDBRANCH  35  36
ENDBRANCH   4  35
BRANCH  11  38
HETATM   38  O4  UNL     1      26.406  47.797   2.569  1.00  0.00    -0.362 OA
ATOM     39  H4  UNL     1      26.417  47.541   3.484  1.00  0.00     0.213 HD
ENDBRANCH  11  38
TORSDOF 10
ENDMDL
MODEL 3
REMARK VINA RESULT: -8.804116546      1.819      3.582
REMARK  10 active torsions:
REMARK  status: ('A' for Active; 'I' for Inactive)
REMARK    1  A    between atoms: C2_2  and  C3_3 
REMARK    2  A    between atoms: N1_4  and  N2_6 
REMARK    3  A    between atoms: N2_6  and  C4_8 
REMARK    4  A    between atoms: C4_8  and  C5_9 
REMARK    5  A    between atoms: C5_9  and  O1_10 
REMARK    6  A    between atoms: C5_9  and  C6_12 
REMARK    7  A    between atoms: C5_9  and  C12_18 
REMARK    8  A    between atoms: C15_21  and  O2_22 
REMARK    9  A    between atoms: O2_22  and  C16_23 
REMARK   10  A    between atoms: C23_31  and  O4_32 
ROOT
HETATM    1  C12 UNL     1      22.554  44.621   1.622  1.00  0.00     0.061 C 
HETATM    2  C13 UNL     1      23.966  45.127   1.628  1.00  0.00     0.031 C 
HETATM    3  C14 UNL     1      23.532  46.380   0.830  1.00  0.00     0.076 C 
HETATM    4  C15 UNL     1      23.870  46.156  -0.594  1.00  0.00     0.166 C 
HETATM    5  C18 UNL     1      24.752  47.207  -1.178  1.00  0.00    -0.057 C 
HETATM    6  C19 UNL     1      24.368  47.695  -2.327  1.00  0.00     0.017 C 
HETATM    7  C20 UNL     1      26.011  47.802  -0.663  1.00  0.00     0.070 C 
HETATM    8  C21 UNL     1      25.515  49.060  -0.045  1.00  0.00     0.160 A 
HETATM    9  O3  UNL     1      25.564  49.461   1.224  1.00  0.00    -0.369 OA
HETATM   10  C22 UNL     1      24.300  48.834   0.653  1.00  0.00     0.214 A 
HETATM   11  C23 UNL     1      24.015  47.634   1.456  1.00  0.00     0.207 C 
HETATM   12  O5  UNL     1      23.140  48.126   2.461  1.00  0.00    -0.316 OA
HETATM   13  C24 UNL     1      21.832  48.042   2.229  1.00  0.00     0.161 C 
HETATM   14  C25 UNL     1      21.191  48.964   1.234  1.00  0.00     0.078 C 
HETATM   15  C26 UNL     1      21.169  48.444   3.571  1.00  0.00     0.078 C 
HETATM   16  O6  UNL     1      21.434  46.787   1.983  1.00  0.00    -0.349 OA
HETATM   17  C27 UNL     1      22.116  45.963   1.173  1.00  0.00     0.149 C 
ENDROOT
BRANCH   1  18
HETATM   18  C5  UNL     1      22.046  43.795   2.685  1.00  0.00     0.124 C 
BRANCH  18  19
HETATM   19  C4  UNL     1      22.196  44.483   4.018  1.00  0.00     0.123 C 
BRANCH  19  20
HETATM   20  N2  UNL     1      21.097  45.194   4.533  1.00  0.00    -0.313 N 
ATOM     21  H2  UNL     1      20.248  45.319   3.982  1.00  0.00     0.185 HD
BRANCH  20  22
HETATM   22  N1  UNL     1      21.204  45.732   5.838  1.00  0.00    -0.312 N 
HETATM   23  C3  UNL     1      20.268  46.366   6.437  1.00  0.00     0.106 C 
ATOM     24  H1  UNL     1      22.086  45.605   6.333  1.00  0.00     0.186 HD
BRANCH  23  25
HETATM   25  C2  UNL     1      20.515  46.862   7.774  1.00  0.00     0.008 C 
HETATM   26  C1  UNL     1      20.761  48.138   7.985  1.00  0.00     0.013 C 
ENDBRANCH  23  25
ENDBRANCH  20  22
ENDBRANCH  19  20
ENDBRANCH  18  19
BRANCH  18  27
HETATM   27  O1  UNL     1      20.598  43.921   2.453  1.00  0.00    -0.379 OA
ATOM     28  H1  UNL     1      20.471  43.322   1.726  1.00  0.00     0.211 HD
ENDBRANCH  18  27
BRANCH  18  29
HETATM   29  C6  UNL     1      22.204  42.395   2.867  1.00  0.00    -0.018 A 
HETATM   30  C7  UNL     1      21.551  41.571   1.923  1.00  0.00     0.010 A 
HETATM   31  C8  UNL     1      21.598  40.215   1.951  1.00  0.00     0.001 A 
HETATM   32  C9  UNL     1      22.305  39.568   2.935  1.00  0.00     0.000 A 
HETATM   33  C10 UNL     1      22.954  40.304   3.872  1.00  0.00     0.001 A 
HETATM   34  C11 UNL     1      22.888  41.692   3.816  1.00  0.00     0.010 A 
ENDBRANCH  18  29
ENDBRANCH   1  18
BRANCH   4  35
HETATM   35  O2  UNL     1      24.597  44.987  -0.863  1.00  0.00    -0.381 OA
BRANCH  35  36
HETATM   36  C16 UNL     1      24.238  44.290  -1.977  1.00  0.00     0.164 C 
HETATM   37  C17 UNL     1      23.647  42.962  -1.475  1.00  0.00     0.033 C 
ENDBRANCH  35  36
ENDBRANCH   4  35
BRANCH  11  38
HETATM   38  O4  UNL     1      25.118  47.234   2.279  1.00  0.00    -0.362 OA
ATOM     39  H4  UNL     1      25.453  48.042   2.649  1.00  0.00     0.213 HD
ENDBRANCH  11  38
TORSDOF 10
ENDMDL
MODEL 4
REMARK VINA RESULT: -8.412906793      1.778      5.150
REMARK  10 active torsions:
REMARK  status: ('A' for Active; 'I' for Inactive)
REMARK    1  A    between atoms: C2_2  and  C3_3 
REMARK    2  A    between atoms: N1_4  and  N2_6 
REMARK    3  A    between atoms: N2_6  and  C4_8 
REMARK    4  A    between atoms: C4_8  and  C5_9 
REMARK    5  A    between atoms: C5_9  and  O1_10 
REMARK    6  A    between atoms: C5_9  and  C6_12 
REMARK    7  A    between atoms: C5_9  and  C12_18 
REMARK    8  A    between atoms: C15_21  and  O2_22 
REMARK    9  A    between atoms: O2_22  and  C16_23 
REMARK   10  A    between atoms: C23_31  and  O4_32 
ROOT
HETATM    1  C12 UNL     1      22.347  46.698   2.837  1.00  0.00     0.061 C 
HETATM    2  C13 UNL     1      22.329  46.142   1.445  1.00  0.00     0.031 C 
HETATM    3  C14 UNL     1      23.774  46.644   1.213  1.00  0.00     0.076 C 
HETATM    4  C15 UNL     1      23.702  47.912   0.451  1.00  0.00     0.166 C 
HETATM    5  C18 UNL     1      24.472  47.893  -0.826  1.00  0.00    -0.057 C 
HETATM    6  C19 UNL     1      25.257  48.918  -1.029  1.00  0.00     0.017 C 
HETATM    7  C20 UNL     1      24.499  46.890  -1.919  1.00  0.00     0.070 C 
HETATM    8  C21 UNL     1      25.721  46.113  -1.582  1.00  0.00     0.160 A 
HETATM    9  O3  UNL     1      25.851  44.826  -1.269  1.00  0.00    -0.369 OA
HETATM   10  C22 UNL     1      25.806  45.890  -0.182  1.00  0.00     0.214 A 
HETATM   11  C23 UNL     1      24.655  45.577   0.680  1.00  0.00     0.207 C 
HETATM   12  O5  UNL     1      25.232  44.773   1.698  1.00  0.00    -0.316 OA
HETATM   13  C24 UNL     1      25.644  45.387   2.804  1.00  0.00     0.161 C 
HETATM   14  C25 UNL     1      26.890  46.222   2.773  1.00  0.00     0.078 C 
HETATM   15  C26 UNL     1      26.006  44.238   3.781  1.00  0.00     0.078 C 
HETATM   16  O6  UNL     1      24.666  46.081   3.400  1.00  0.00    -0.349 OA
HETATM   17  C27 UNL     1      23.815  46.857   2.713  1.00  0.00     0.149 C 
ENDROOT
BRANCH   1  18
HETATM   18  C5  UNL     1      21.572  46.106   3.895  1.00  0.00     0.124 C 
BRANCH  18  19
HETATM   19  C4  UNL     1      20.401  45.337   3.338  1.00  0.00     0.123 C 
BRANCH  19  20
HETATM   20  N2  UNL     1      20.397  43.937   3.467  1.00  0.00    -0.313 N 
ATOM     21  H2  UNL     1      20.062  43.490   4.320  1.00  0.00     0.185 HD
BRANCH  20  22
HETATM   22  N1  UNL     1      20.869  43.167   2.378  1.00  0.00    -0.312 N 
HETATM   23  C3  UNL     1      21.598  42.121   2.495  1.00  0.00     0.106 C 
ATOM     24  H1  UNL     1      20.612  43.464   1.438  1.00  0.00     0.186 HD
BRANCH  23  25
HETATM   25  C2  UNL     1      22.012  41.427   1.294  1.00  0.00     0.008 C 
HETATM   26  C1  UNL     1      22.014  42.039   0.129  1.00  0.00     0.013 C 
ENDBRANCH  23  25
ENDBRANCH  20  22
ENDBRANCH  19  20
ENDBRANCH  18  19
BRANCH  18  27
HETATM   27  O1  UNL     1      22.470  45.014   4.306  1.00  0.00    -0.379 OA
ATOM     28  H1  UNL     1      23.320  45.433   4.234  1.00  0.00     0.211 HD
ENDBRANCH  18  27
BRANCH  18  29
HETATM   29  C6  UNL     1      21.199  46.678   5.141  1.00  0.00    -0.018 A 
HETATM   30  C7  UNL     1      21.277  48.087   5.223  1.00  0.00     0.010 A 
HETATM   31  C8  UNL     1      20.959  48.791   6.339  1.00  0.00     0.001 A 
HETATM   32  C9  UNL     1      20.536  48.140   7.472  1.00  0.00     0.000 A 
HETATM   33  C10 UNL     1      20.441  46.787   7.456  1.00  0.00     0.001 A 
HETATM   34  C11 UNL     1      20.773  46.092   6.298  1.00  0.00     0.010 A 
ENDBRANCH  18  29
ENDBRANCH   1  18
BRANCH   4  35
HETATM   35  O2  UNL     1      22.422  48.277   0.011  1.00  0.00    -0.381 OA
BRANCH  35  36
HETATM   36  C16 UNL     1      22.022  49.548   0.293  1.00  0.00     0.164 C 
HETATM   37  C17 UNL     1      20.785  49.413   1.198  1.00  0.00     0.033 C 
ENDBRANCH  35  36
ENDBRANCH   4  35
BRANCH  11  38
HETATM   38  O4  UNL     1      23.763  44.618   0.099  1.00  0.00    -0.362 OA
ATOM     39  H4  UNL     1      23.686  44.877  -0.812  1.00  0.00     0.213 HD
ENDBRANCH  11  38
TORSDOF 10
ENDMDL
MODEL 5
REMARK VINA RESULT: -8.412894457      1.422      1.762
REMARK  10 active torsions:
REMARK  status: ('A' for Active; 'I' for Inactive)
REMARK    1  A    between atoms: C2_2  and  C3_3 
REMARK    2  A    between atoms: N1_4  and  N2_6 
REMARK    3  A    between atoms: N2_6  and  C4_8 
REMARK    4  A    between atoms: C4_8  and  C5_9 
REMARK    5  A    between atoms: C5_9  and  O1_10 
REMARK    6  A    between atoms: C5_9  and  C6_12 
REMARK    7  A    between atoms: C5_9  and  C12_18 
REMARK    8  A    between atoms: C15_21  and  O2_22 
REMARK    9  A    between atoms: O2_22  and  C16_23 
REMARK   10  A    between atoms: C23_31  and  O4_32 
ROOT
HETATM    1  C12 UNL     1      23.797  45.147   2.348  1.00  0.00     0.061 C 
HETATM    2  C13 UNL     1      23.487  46.545   1.906  1.00  0.00     0.031 C 
HETATM    3  C14 UNL     1      24.527  46.428   0.766  1.00  0.00     0.076 C 
HETATM    4  C15 UNL     1      25.770  47.100   1.210  1.00  0.00     0.166 C 
HETATM    5  C18 UNL     1      26.233  48.180   0.292  1.00  0.00    -0.057 C 
HETATM    6  C19 UNL     1      27.496  48.141  -0.038  1.00  0.00     0.017 C 
HETATM    7  C20 UNL     1      25.487  49.309  -0.319  1.00  0.00     0.070 C 
HETATM    8  C21 UNL     1      25.191  48.771  -1.674  1.00  0.00     0.160 A 
HETATM    9  O3  UNL     1      24.018  48.526  -2.254  1.00  0.00    -0.369 OA
HETATM   10  C22 UNL     1      24.814  47.404  -1.602  1.00  0.00     0.214 A 
HETATM   11  C23 UNL     1      23.965  46.832  -0.545  1.00  0.00     0.207 C 
HETATM   12  O5  UNL     1      23.300  45.771  -1.214  1.00  0.00    -0.316 OA
HETATM   13  C24 UNL     1      23.854  44.563  -1.152  1.00  0.00     0.161 C 
HETATM   14  C25 UNL     1      25.094  44.270  -1.943  1.00  0.00     0.078 C 
HETATM   15  C26 UNL     1      22.799  43.612  -1.772  1.00  0.00     0.078 C 
HETATM   16  O6  UNL     1      24.031  44.144   0.108  1.00  0.00    -0.349 OA
HETATM   17  C27 UNL     1      24.518  44.943   1.070  1.00  0.00     0.149 C 
ENDROOT
BRANCH   1  18
HETATM   18  C5  UNL     1      22.808  44.322   2.988  1.00  0.00     0.124 C 
BRANCH  18  19
HETATM   19  C4  UNL     1      22.287  44.981   4.240  1.00  0.00     0.123 C 
BRANCH  19  20
HETATM   20  N2  UNL     1      20.942  45.389   4.274  1.00  0.00    -0.313 N 
ATOM     21  H2  UNL     1      20.187  44.704   4.320  1.00  0.00     0.185 HD
BRANCH  20  22
HETATM   22  N1  UNL     1      20.666  46.776   4.241  1.00  0.00    -0.312 N 
HETATM   23  C3  UNL     1      20.880  47.579   5.214  1.00  0.00     0.106 C 
ATOM     24  H1  UNL     1      20.271  47.162   3.384  1.00  0.00     0.186 HD
BRANCH  23  25
HETATM   25  C2  UNL     1      20.551  48.978   5.043  1.00  0.00     0.008 C 
HETATM   26  C1  UNL     1      20.635  49.818   6.052  1.00  0.00     0.013 C 
ENDBRANCH  23  25
ENDBRANCH  20  22
ENDBRANCH  19  20
ENDBRANCH  18  19
BRANCH  18  27
HETATM   27  O1  UNL     1      21.672  44.504   2.069  1.00  0.00    -0.379 OA
ATOM     28  H1  UNL     1      22.044  45.095   1.425  1.00  0.00     0.211 HD
ENDBRANCH  18  27
BRANCH  18  29
HETATM   29  C6  UNL     1      22.822  42.913   3.178  1.00  0.00    -0.018 A 
HETATM   30  C7  UNL     1      21.913  42.174   2.389  1.00  0.00     0.010 A 
HETATM   31  C8  UNL     1      21.796  40.823   2.447  1.00  0.00     0.001 A 
HETATM   32  C9  UNL     1      22.584  40.097   3.306  1.00  0.00     0.000 A 
HETATM   33  C10 UNL     1      23.478  40.750   4.091  1.00  0.00     0.001 A 
HETATM   34  C11 UNL     1      23.575  42.134   4.009  1.00  0.00     0.010 A 
ENDBRANCH  18  29
ENDBRANCH   1  18
BRANCH   4  35
HETATM   35  O2  UNL     1      25.683  47.777   2.434  1.00  0.00    -0.381 OA
BRANCH  35  36
HETATM   36  C16 UNL     1      26.851  47.971   3.107  1.00  0.00     0.164 C 
HETATM   37  C17 UNL     1      26.920  49.476   3.415  1.00  0.00     0.033 C 
ENDBRANCH  35  36
ENDBRANCH   4  35
BRANCH  11  38
HETATM   38  O4  UNL     1      22.836  47.654  -0.225  1.00  0.00    -0.362 OA
ATOM     39  H4  UNL     1      22.194  47.460  -0.897  1.00  0.00     0.213 HD
ENDBRANCH  11  38
TORSDOF 10
ENDMDL
