MODEL 1
REMARK VINA RESULT: -8.130679441      0.000      0.000
REMARK  12 active torsions:
REMARK  status: ('A' for Active; 'I' for Inactive)
REMARK    1  A    between atoms: C2_2  and  O1_3 
REMARK    2  A    between atoms: C2_2  and  C3_5 
REMARK    3  A    between atoms: C7_11  and  C8_12 
REMARK    4  A    between atoms: C8_12  and  O4_13 
REMARK    5  A    between atoms: C13_20  and  O5_21 
REMARK    6  A    between atoms: O5_21  and  C14_22 
REMARK    7  A    between atoms: C14_22  and  C15_23 
REMARK    8  A    between atoms: C15_23  and  C16_24 
REMARK    9  A    between atoms: C16_24  and  O6_25 
REMARK   10  A    between atoms: O6_25  and  C17_26 
REMARK   11  A    between atoms: C17_26  and  C18_27 
REMARK   12  A    between atoms: C26_35  and  O7_36 
ROOT
HETATM    1  C3  UNL     1      24.765  48.142   1.375  1.00  0.00     0.111 C 
HETATM    2  C4  UNL     1      24.804  49.374   0.496  1.00  0.00     0.051 C 
HETATM    3  O2  UNL     1      23.657  47.391   0.882  1.00  0.00    -0.364 OA
HETATM    4  C5  UNL     1      23.534  46.146   1.463  1.00  0.00     0.188 C 
HETATM    5  C6  UNL     1      24.817  45.364   1.562  1.00  0.00     0.188 C 
HETATM    6  O3  UNL     1      25.802  46.165   2.062  1.00  0.00    -0.368 OA
HETATM    7  C7  UNL     1      25.924  47.250   1.203  1.00  0.00     0.182 C 
HETATM    8  C9  UNL     1      24.472  44.239   2.547  1.00  0.00    -0.011 A 
HETATM    9  C10 UNL     1      25.125  43.920   3.677  1.00  0.00     0.060 A 
HETATM   10  S1  UNL     1      24.198  42.620   4.311  1.00  0.00    -0.112 SA
HETATM   11  C11 UNL     1      22.996  42.540   3.081  1.00  0.00     0.060 A 
HETATM   12  C12 UNL     1      23.352  43.521   2.222  1.00  0.00    -0.011 A 
HETATM   13  C13 UNL     1      22.653  43.888   0.893  1.00  0.00     0.187 C 
HETATM   14  C26 UNL     1      22.540  45.353   0.680  1.00  0.00     0.183 C 
ENDROOT
BRANCH  13  15
HETATM   15  O5  UNL     1      23.263  43.209  -0.110  1.00  0.00    -0.377 OA
BRANCH  15  16
HETATM   16  C14 UNL     1      22.896  43.158  -1.367  1.00  0.00     0.188 C 
BRANCH  16  17
HETATM   17  C15 UNL     1      23.790  43.624  -2.490  1.00  0.00     0.038 A 
HETATM   18  C24 UNL     1      23.377  43.577  -3.865  1.00  0.00    -0.012 A 
HETATM   19  C25 UNL     1      24.219  42.604  -3.511  1.00  0.00    -0.012 A 
BRANCH  17  20
HETATM   20  C16 UNL     1      24.992  44.410  -1.997  1.00  0.00     0.187 C 
BRANCH  20  21
HETATM   21  O6  UNL     1      25.156  45.641  -2.447  1.00  0.00    -0.385 OA
BRANCH  21  22
HETATM   22  C17 UNL     1      24.282  46.643  -2.271  1.00  0.00     0.206 C 
BRANCH  22  23
HETATM   23  C18 UNL     1      24.297  47.636  -3.399  1.00  0.00    -0.035 A 
HETATM   24  C19 UNL     1      24.429  48.983  -3.217  1.00  0.00     0.009 A 
HETATM   25  C20 UNL     1      24.440  49.861  -4.279  1.00  0.00     0.001 A 
HETATM   26  C21 UNL     1      24.315  49.397  -5.552  1.00  0.00     0.000 A 
HETATM   27  C22 UNL     1      24.182  48.042  -5.757  1.00  0.00     0.001 A 
HETATM   28  C23 UNL     1      24.173  47.173  -4.689  1.00  0.00     0.009 A 
ENDBRANCH  22  23
ENDBRANCH  21  22
ENDBRANCH  20  21
ENDBRANCH  17  20
ENDBRANCH  16  17
ENDBRANCH  15  16
ENDBRANCH  13  15
BRANCH  14  29
HETATM   29  O7  UNL     1      21.220  45.750   1.012  1.00  0.00    -0.390 OA
ATOM     30  H7  UNL     1      21.070  45.653   1.945  1.00  0.00     0.210 HD
ENDBRANCH  14  29
BRANCH   1  31
HETATM   31  C2  UNL     1      24.368  48.526   2.759  1.00  0.00     0.151 C 
HETATM   32  C1  UNL     1      24.969  49.818   3.271  1.00  0.00     0.042 C 
BRANCH  31  33
HETATM   33  O1  UNL     1      22.968  48.812   2.718  1.00  0.00    -0.393 OA
ATOM     34  H1  UNL     1      22.569  47.957   2.822  1.00  0.00     0.210 HD
ENDBRANCH  31  33
ENDBRANCH   1  31
BRANCH   7  35
HETATM   35  C8  UNL     1      27.292  47.782   1.158  1.00  0.00     0.199 C 
BRANCH  35  36
HETATM   36  O4  UNL     1      28.176  47.197   0.271  1.00  0.00    -0.398 OA
ATOM     37  H4  UNL     1      28.289  46.254   0.320  1.00  0.00     0.209 HD
ENDBRANCH  35  36
ENDBRANCH   7  35
TORSDOF 12
ENDMDL
MODEL 2
REMARK VINA RESULT: -8.080396349      2.619      6.731
REMARK  12 active torsions:
REMARK  status: ('A' for Active; 'I' for Inactive)
REMARK    1  A    between atoms: C2_2  and  O1_3 
REMARK    2  A    between atoms: C2_2  and  C3_5 
REMARK    3  A    between atoms: C7_11  and  C8_12 
REMARK    4  A    between atoms: C8_12  and  O4_13 
REMARK    5  A    between atoms: C13_20  and  O5_21 
REMARK    6  A    between atoms: O5_21  and  C14_22 
REMARK    7  A    between atoms: C14_22  and  C15_23 
REMARK    8  A    between atoms: C15_23  and  C16_24 
REMARK    9  A    between atoms: C16_24  and  O6_25 
REMARK   10  A    between atoms: O6_25  and  C17_26 
REMARK   11  A    between atoms: C17_26  and  C18_27 
REMARK   12  A    between atoms: C26_35  and  O7_36 
ROOT
HETATM    1  C3  UNL     1      25.108  49.397  -0.091  1.00  0.00     0.111 C 
HETATM    2  C4  UNL     1      25.181  50.537   0.903  1.00  0.00     0.051 C 
HETATM    3  O2  UNL     1      25.200  48.222   0.712  1.00  0.00    -0.364 OA
HETATM    4  C5  UNL     1      25.008  47.055   0.004  1.00  0.00     0.188 C 
HETATM    5  C6  UNL     1      23.832  47.071  -0.937  1.00  0.00     0.188 C 
HETATM    6  O3  UNL     1      23.851  48.221  -1.670  1.00  0.00    -0.368 OA
HETATM    7  C7  UNL     1      23.808  49.281  -0.772  1.00  0.00     0.182 C 
HETATM    8  C9  UNL     1      24.076  45.847  -1.830  1.00  0.00    -0.011 A 
HETATM    9  C10 UNL     1      24.129  45.820  -3.173  1.00  0.00     0.060 A 
HETATM   10  S1  UNL     1      24.475  44.172  -3.517  1.00  0.00    -0.112 SA
HETATM   11  C11 UNL     1      24.536  43.582  -1.900  1.00  0.00     0.060 A 
HETATM   12  C12 UNL     1      24.288  44.678  -1.150  1.00  0.00    -0.011 A 
HETATM   13  C13 UNL     1      24.174  44.740   0.391  1.00  0.00     0.187 C 
HETATM   14  C26 UNL     1      24.839  45.932   0.975  1.00  0.00     0.183 C 
ENDROOT
BRANCH  13  15
HETATM   15  O5  UNL     1      22.870  44.589   0.728  1.00  0.00    -0.377 OA
BRANCH  15  16
HETATM   16  C14 UNL     1      22.168  45.350   1.531  1.00  0.00     0.188 C 
BRANCH  16  17
HETATM   17  C15 UNL     1      21.804  44.928   2.933  1.00  0.00     0.038 A 
HETATM   18  C24 UNL     1      20.537  44.323   3.243  1.00  0.00    -0.012 A 
HETATM   19  C25 UNL     1      20.630  45.610   3.585  1.00  0.00    -0.012 A 
BRANCH  17  20
HETATM   20  C16 UNL     1      22.995  44.920   3.874  1.00  0.00     0.187 C 
BRANCH  20  21
HETATM   21  O6  UNL     1      23.439  43.753   4.303  1.00  0.00    -0.385 OA
BRANCH  21  22
HETATM   22  C17 UNL     1      24.055  42.839   3.537  1.00  0.00     0.206 C 
BRANCH  22  23
HETATM   23  C18 UNL     1      23.232  41.599   3.332  1.00  0.00    -0.035 A 
HETATM   24  C19 UNL     1      22.431  41.397   2.244  1.00  0.00     0.009 A 
HETATM   25  C20 UNL     1      21.691  40.244   2.092  1.00  0.00     0.001 A 
HETATM   26  C21 UNL     1      21.743  39.267   3.039  1.00  0.00     0.000 A 
HETATM   27  C22 UNL     1      22.545  39.452   4.143  1.00  0.00     0.001 A 
HETATM   28  C23 UNL     1      23.281  40.607   4.285  1.00  0.00     0.009 A 
ENDBRANCH  22  23
ENDBRANCH  21  22
ENDBRANCH  20  21
ENDBRANCH  17  20
ENDBRANCH  16  17
ENDBRANCH  15  16
ENDBRANCH  13  15
BRANCH  14  29
HETATM   29  O7  UNL     1      26.097  45.532   1.490  1.00  0.00    -0.390 OA
ATOM     30  H7  UNL     1      26.417  44.767   1.025  1.00  0.00     0.210 HD
ENDBRANCH  14  29
BRANCH   1  31
HETATM   31  C2  UNL     1      26.345  49.377  -0.922  1.00  0.00     0.151 C 
HETATM   32  C1  UNL     1      26.600  50.627  -1.737  1.00  0.00     0.042 C 
BRANCH  31  33
HETATM   33  O1  UNL     1      27.448  49.351  -0.013  1.00  0.00    -0.393 OA
ATOM     34  H1  UNL     1      27.110  49.805   0.749  1.00  0.00     0.210 HD
ENDBRANCH  31  33
ENDBRANCH   1  31
BRANCH   7  35
HETATM   35  C8  UNL     1      23.131  50.460  -1.325  1.00  0.00     0.199 C 
BRANCH  35  36
HETATM   36  O4  UNL     1      23.091  50.588  -2.700  1.00  0.00    -0.398 OA
ATOM     37  H4  UNL     1      22.431  51.164  -3.069  1.00  0.00     0.209 HD
ENDBRANCH  35  36
ENDBRANCH   7  35
TORSDOF 12
ENDMDL
MODEL 3
REMARK VINA RESULT: -8.078978982      2.609      6.679
REMARK  12 active torsions:
REMARK  status: ('A' for Active; 'I' for Inactive)
REMARK    1  A    between atoms: C2_2  and  O1_3 
REMARK    2  A    between atoms: C2_2  and  C3_5 
REMARK    3  A    between atoms: C7_11  and  C8_12 
REMARK    4  A    between atoms: C8_12  and  O4_13 
REMARK    5  A    between atoms: C13_20  and  O5_21 
REMARK    6  A    between atoms: O5_21  and  C14_22 
REMARK    7  A    between atoms: C14_22  and  C15_23 
REMARK    8  A    between atoms: C15_23  and  C16_24 
REMARK    9  A    between atoms: C16_24  and  O6_25 
REMARK   10  A    between atoms: O6_25  and  C17_26 
REMARK   11  A    between atoms: C17_26  and  C18_27 
REMARK   12  A    between atoms: C26_35  and  O7_36 
ROOT
HETATM    1  C3  UNL     1      26.603  48.806   1.019  1.00  0.00     0.111 C 
HETATM    2  C4  UNL     1      27.127  49.421   2.300  1.00  0.00     0.051 C 
HETATM    3  O2  UNL     1      26.138  47.515   1.412  1.00  0.00    -0.364 OA
HETATM    4  C5  UNL     1      25.485  46.837   0.406  1.00  0.00     0.188 C 
HETATM    5  C6  UNL     1      24.474  47.653  -0.356  1.00  0.00     0.188 C 
HETATM    6  O3  UNL     1      25.025  48.853  -0.701  1.00  0.00    -0.368 OA
HETATM    7  C7  UNL     1      25.413  49.480   0.477  1.00  0.00     0.182 C 
HETATM    8  C9  UNL     1      24.194  46.800  -1.600  1.00  0.00    -0.011 A 
HETATM    9  C10 UNL     1      24.286  47.184  -2.886  1.00  0.00     0.060 A 
HETATM   10  S1  UNL     1      23.889  45.752  -3.749  1.00  0.00    -0.112 SA
HETATM   11  C11 UNL     1      23.619  44.710  -2.406  1.00  0.00     0.060 A 
HETATM   12  C12 UNL     1      23.845  45.503  -1.336  1.00  0.00    -0.011 A 
HETATM   13  C13 UNL     1      23.706  45.111   0.154  1.00  0.00     0.187 C 
HETATM   14  C26 UNL     1      24.801  45.649   1.000  1.00  0.00     0.183 C 
ENDROOT
BRANCH  13  15
HETATM   15  O5  UNL     1      22.455  45.433   0.564  1.00  0.00    -0.377 OA
BRANCH  15  16
HETATM   16  C14 UNL     1      22.105  45.914   1.732  1.00  0.00     0.188 C 
BRANCH  16  17
HETATM   17  C15 UNL     1      21.791  45.028   2.911  1.00  0.00     0.038 A 
HETATM   18  C24 UNL     1      20.521  44.371   3.056  1.00  0.00    -0.012 A 
HETATM   19  C25 UNL     1      20.671  45.451   3.825  1.00  0.00    -0.012 A 
BRANCH  17  20
HETATM   20  C16 UNL     1      23.023  44.670   3.723  1.00  0.00     0.187 C 
BRANCH  20  21
HETATM   21  O6  UNL     1      23.767  43.660   3.310  1.00  0.00    -0.385 OA
BRANCH  21  22
HETATM   22  C17 UNL     1      23.973  42.528   4.000  1.00  0.00     0.206 C 
BRANCH  22  23
HETATM   23  C18 UNL     1      23.138  41.382   3.502  1.00  0.00    -0.035 A 
HETATM   24  C19 UNL     1      22.951  40.224   4.203  1.00  0.00     0.009 A 
HETATM   25  C20 UNL     1      22.177  39.195   3.712  1.00  0.00     0.001 A 
HETATM   26  C21 UNL     1      21.574  39.313   2.497  1.00  0.00     0.000 A 
HETATM   27  C22 UNL     1      21.749  40.471   1.775  1.00  0.00     0.001 A 
HETATM   28  C23 UNL     1      22.525  41.493   2.275  1.00  0.00     0.009 A 
ENDBRANCH  22  23
ENDBRANCH  21  22
ENDBRANCH  20  21
ENDBRANCH  17  20
ENDBRANCH  16  17
ENDBRANCH  15  16
ENDBRANCH  13  15
BRANCH  14  29
HETATM   29  O7  UNL     1      25.735  44.608   1.234  1.00  0.00    -0.390 OA
ATOM     30  H7  UNL     1      26.306  44.501   0.482  1.00  0.00     0.210 HD
ENDBRANCH  14  29
BRANCH   1  31
HETATM   31  C2  UNL     1      27.740  48.526   0.097  1.00  0.00     0.151 C 
HETATM   32  C1  UNL     1      28.674  49.692  -0.154  1.00  0.00     0.042 C 
BRANCH  31  33
HETATM   33  O1  UNL     1      28.578  47.575   0.757  1.00  0.00    -0.393 OA
ATOM     34  H1  UNL     1      29.048  47.167   0.040  1.00  0.00     0.210 HD
ENDBRANCH  31  33
ENDBRANCH   1  31
BRANCH   7  35
HETATM   35  C8  UNL     1      25.345  50.943   0.384  1.00  0.00     0.199 C 
BRANCH  35  36
HETATM   36  O4  UNL     1      25.543  51.516  -0.858  1.00  0.00    -0.398 OA
ATOM     37  H4  UNL     1      25.946  52.376  -0.887  1.00  0.00     0.209 HD
ENDBRANCH  35  36
ENDBRANCH   7  35
TORSDOF 12
ENDMDL
MODEL 4
REMARK VINA RESULT: -8.008985748      2.739      6.281
REMARK  12 active torsions:
REMARK  status: ('A' for Active; 'I' for Inactive)
REMARK    1  A    between atoms: C2_2  and  O1_3 
REMARK    2  A    between atoms: C2_2  and  C3_5 
REMARK    3  A    between atoms: C7_11  and  C8_12 
REMARK    4  A    between atoms: C8_12  and  O4_13 
REMARK    5  A    between atoms: C13_20  and  O5_21 
REMARK    6  A    between atoms: O5_21  and  C14_22 
REMARK    7  A    between atoms: C14_22  and  C15_23 
REMARK    8  A    between atoms: C15_23  and  C16_24 
REMARK    9  A    between atoms: C16_24  and  O6_25 
REMARK   10  A    between atoms: O6_25  and  C17_26 
REMARK   11  A    between atoms: C17_26  and  C18_27 
REMARK   12  A    between atoms: C26_35  and  O7_36 
ROOT
HETATM    1  C3  UNL     1      21.547  46.530   3.527  1.00  0.00     0.111 C 
HETATM    2  C4  UNL     1      20.304  45.669   3.609  1.00  0.00     0.051 C 
HETATM    3  O2  UNL     1      22.626  45.597   3.577  1.00  0.00    -0.364 OA
HETATM    4  C5  UNL     1      23.861  46.173   3.371  1.00  0.00     0.188 C 
HETATM    5  C6  UNL     1      23.927  47.133   2.212  1.00  0.00     0.188 C 
HETATM    6  O3  UNL     1      22.867  47.990   2.270  1.00  0.00    -0.368 OA
HETATM    7  C7  UNL     1      21.712  47.218   2.237  1.00  0.00     0.182 C 
HETATM    8  C9  UNL     1      25.248  47.878   2.443  1.00  0.00    -0.011 A 
HETATM    9  C10 UNL     1      25.428  49.209   2.519  1.00  0.00     0.060 A 
HETATM   10  S1  UNL     1      27.111  49.357   2.833  1.00  0.00    -0.112 SA
HETATM   11  C11 UNL     1      27.516  47.684   2.852  1.00  0.00     0.060 A 
HETATM   12  C12 UNL     1      26.337  47.067   2.616  1.00  0.00    -0.011 A 
HETATM   13  C13 UNL     1      26.099  45.545   2.477  1.00  0.00     0.187 C 
HETATM   14  C26 UNL     1      24.863  45.086   3.159  1.00  0.00     0.183 C 
ENDROOT
BRANCH  13  15
HETATM   15  O5  UNL     1      26.184  45.220   1.164  1.00  0.00    -0.377 OA
BRANCH  15  16
HETATM   16  C14 UNL     1      25.484  44.312   0.528  1.00  0.00     0.188 C 
BRANCH  16  17
HETATM   17  C15 UNL     1      24.592  44.651  -0.641  1.00  0.00     0.038 A 
HETATM   18  C24 UNL     1      25.103  44.786  -1.977  1.00  0.00    -0.012 A 
HETATM   19  C25 UNL     1      24.851  45.945  -1.365  1.00  0.00    -0.012 A 
BRANCH  17  20
HETATM   20  C16 UNL     1      23.116  44.520  -0.311  1.00  0.00     0.187 C 
BRANCH  20  21
HETATM   21  O6  UNL     1      22.770  43.724   0.684  1.00  0.00    -0.385 OA
BRANCH  21  22
HETATM   22  C17 UNL     1      22.167  42.534   0.538  1.00  0.00     0.206 C 
BRANCH  22  23
HETATM   23  C18 UNL     1      22.339  41.642   1.735  1.00  0.00    -0.035 A 
HETATM   24  C19 UNL     1      21.720  40.432   1.870  1.00  0.00     0.009 A 
HETATM   25  C20 UNL     1      21.905  39.642   2.984  1.00  0.00     0.001 A 
HETATM   26  C21 UNL     1      22.721  40.059   3.991  1.00  0.00     0.000 A 
HETATM   27  C22 UNL     1      23.355  41.275   3.874  1.00  0.00     0.001 A 
HETATM   28  C23 UNL     1      23.164  42.056   2.756  1.00  0.00     0.009 A 
ENDBRANCH  22  23
ENDBRANCH  21  22
ENDBRANCH  20  21
ENDBRANCH  17  20
ENDBRANCH  16  17
ENDBRANCH  15  16
ENDBRANCH  13  15
BRANCH  14  29
HETATM   29  O7  UNL     1      25.229  44.504   4.398  1.00  0.00    -0.390 OA
ATOM     30  H7  UNL     1      24.456  44.221   4.873  1.00  0.00     0.210 HD
ENDBRANCH  14  29
BRANCH   1  31
HETATM   31  C2  UNL     1      21.687  47.328   4.777  1.00  0.00     0.151 C 
HETATM   32  C1  UNL     1      20.797  48.550   4.870  1.00  0.00     0.042 C 
BRANCH  31  33
HETATM   33  O1  UNL     1      21.217  46.502   5.844  1.00  0.00    -0.393 OA
ATOM     34  H1  UNL     1      21.691  45.689   5.714  1.00  0.00     0.210 HD
ENDBRANCH  31  33
ENDBRANCH   1  31
BRANCH   7  35
HETATM   35  C8  UNL     1      20.588  47.914   1.597  1.00  0.00     0.199 C 
BRANCH  35  36
HETATM   36  O4  UNL     1      20.859  49.104   0.948  1.00  0.00    -0.398 OA
ATOM     37  H4  UNL     1      20.682  49.911   1.418  1.00  0.00     0.209 HD
ENDBRANCH  35  36
ENDBRANCH   7  35
TORSDOF 12
ENDMDL
MODEL 5
REMARK VINA RESULT: -7.941172447      2.538      4.176
REMARK  12 active torsions:
REMARK  status: ('A' for Active; 'I' for Inactive)
REMARK    1  A    between atoms: C2_2  and  O1_3 
REMARK    2  A    between atoms: C2_2  and  C3_5 
REMARK    3  A    between atoms: C7_11  and  C8_12 
REMARK    4  A    between atoms: C8_12  and  O4_13 
REMARK    5  A    between atoms: C13_20  and  O5_21 
REMARK    6  A    between atoms: O5_21  and  C14_22 
REMARK    7  A    between atoms: C14_22  and  C15_23 
REMARK    8  A    between atoms: C15_23  and  C16_24 
REMARK    9  A    between atoms: C16_24  and  O6_25 
REMARK   10  A    between atoms: O6_25  and  C17_26 
REMARK   11  A    between atoms: C17_26  and  C18_27 
REMARK   12  A    between atoms: C26_35  and  O7_36 
ROOT
HETATM    1  C3  UNL     1      24.915  48.139   0.888  1.00  0.00     0.111 C 
HETATM    2  C4  UNL     1      25.962  48.071  -0.204  1.00  0.00     0.051 C 
HETATM    3  O2  UNL     1      24.112  46.979   0.679  1.00  0.00    -0.364 OA
HETATM    4  C5  UNL     1      23.173  46.775   1.669  1.00  0.00     0.188 C 
HETATM    5  C6  UNL     1      23.693  46.923   3.074  1.00  0.00     0.188 C 
HETATM    6  O3  UNL     1      24.427  48.069   3.171  1.00  0.00    -0.368 OA
HETATM    7  C7  UNL     1      25.459  47.974   2.246  1.00  0.00     0.182 C 
HETATM    8  C9  UNL     1      22.414  47.017   3.918  1.00  0.00    -0.011 A 
HETATM    9  C10 UNL     1      22.087  47.986   4.790  1.00  0.00     0.060 A 
HETATM   10  S1  UNL     1      20.530  47.507   5.338  1.00  0.00    -0.112 SA
HETATM   11  C11 UNL     1      20.365  46.065   4.411  1.00  0.00     0.060 A 
HETATM   12  C12 UNL     1      21.519  46.003   3.710  1.00  0.00    -0.011 A 
HETATM   13  C13 UNL     1      21.949  44.885   2.732  1.00  0.00     0.187 C 
HETATM   14  C26 UNL     1      22.600  45.406   1.504  1.00  0.00     0.183 C 
ENDROOT
BRANCH  13  15
HETATM   15  O5  UNL     1      22.677  43.973   3.423  1.00  0.00    -0.377 OA
BRANCH  15  16
HETATM   16  C14 UNL     1      23.185  42.856   2.964  1.00  0.00     0.188 C 
BRANCH  16  17
HETATM   17  C15 UNL     1      22.330  41.666   2.602  1.00  0.00     0.038 A 
HETATM   18  C24 UNL     1      21.649  40.885   3.597  1.00  0.00    -0.012 A 
HETATM   19  C25 UNL     1      22.757  40.317   3.116  1.00  0.00    -0.012 A 
BRANCH  17  20
HETATM   20  C16 UNL     1      22.028  41.590   1.116  1.00  0.00     0.187 C 
BRANCH  20  21
HETATM   21  O6  UNL     1      22.719  42.366   0.302  1.00  0.00    -0.385 OA
BRANCH  21  22
HETATM   22  C17 UNL     1      22.602  42.371  -1.035  1.00  0.00     0.206 C 
BRANCH  22  23
HETATM   23  C18 UNL     1      23.616  43.251  -1.707  1.00  0.00    -0.035 A 
HETATM   24  C19 UNL     1      24.577  43.949  -1.031  1.00  0.00     0.009 A 
HETATM   25  C20 UNL     1      25.491  44.746  -1.686  1.00  0.00     0.001 A 
HETATM   26  C21 UNL     1      25.454  44.858  -3.042  1.00  0.00     0.000 A 
HETATM   27  C22 UNL     1      24.494  44.163  -3.742  1.00  0.00     0.001 A 
HETATM   28  C23 UNL     1      23.586  43.369  -3.079  1.00  0.00     0.009 A 
ENDBRANCH  22  23
ENDBRANCH  21  22
ENDBRANCH  20  21
ENDBRANCH  17  20
ENDBRANCH  16  17
ENDBRANCH  15  16
ENDBRANCH  13  15
BRANCH  14  29
HETATM   29  O7  UNL     1      21.645  45.393   0.456  1.00  0.00    -0.390 OA
ATOM     30  H7  UNL     1      20.827  45.018   0.759  1.00  0.00     0.210 HD
ENDBRANCH  14  29
BRANCH   1  31
HETATM   31  C2  UNL     1      23.994  49.281   0.629  1.00  0.00     0.151 C 
HETATM   32  C1  UNL     1      24.642  50.650   0.628  1.00  0.00     0.042 C 
BRANCH  31  33
HETATM   33  O1  UNL     1      23.533  49.138  -0.716  1.00  0.00    -0.393 OA
ATOM     34  H1  UNL     1      23.882  48.294  -0.975  1.00  0.00     0.210 HD
ENDBRANCH  31  33
ENDBRANCH   1  31
BRANCH   7  35
HETATM   35  C8  UNL     1      26.666  48.693   2.674  1.00  0.00     0.199 C 
BRANCH  35  36
HETATM   36  O4  UNL     1      26.570  49.491   3.798  1.00  0.00    -0.398 OA
ATOM     37  H4  UNL     1      25.954  50.215   3.772  1.00  0.00     0.209 HD
ENDBRANCH  35  36
ENDBRANCH   7  35
TORSDOF 12
ENDMDL
