MODEL 1
REMARK VINA RESULT: -8.416813139      0.000      0.000
REMARK  10 active torsions:
REMARK  status: ('A' for Active; 'I' for Inactive)
REMARK    1  A    between atoms: O1_2  and  C2_3 
REMARK    2  A    between atoms: C5_6  and  C7_8 
REMARK    3  A    between atoms: C7_8  and  C8_9 
REMARK    4  A    between atoms: C8_9  and  C9_10 
REMARK    5  A    between atoms: C21_24  and  C22_25 
REMARK    6  A    between atoms: C21_24  and  O4_28 
REMARK    7  A    between atoms: C22_25  and  O3_26 
REMARK    8  A    between atoms: C24_31  and  O6_32 
REMARK    9  A    between atoms: C24_31  and  C25_34 
REMARK   10  A    between atoms: C25_34  and  O7_35 
ROOT
HETATM    1  C9  UNL     1      23.706  45.939   1.761  1.00  0.00     0.030 C 
HETATM    2  C10 UNL     1      23.808  46.641   3.095  1.00  0.00     0.025 C 
HETATM    3  C11 UNL     1      22.273  45.738   1.378  1.00  0.00     0.136 C 
HETATM    4  O2  UNL     1      21.293  46.387   1.604  1.00  0.00    -0.297 OA
HETATM    5  C12 UNL     1      22.259  44.461   0.584  1.00  0.00     0.085 C 
HETATM    6  C13 UNL     1      23.410  43.637   1.086  1.00  0.00     0.012 C 
HETATM    7  C14 UNL     1      24.241  44.538   1.944  1.00  0.00     0.067 C 
HETATM    8  S1  UNL     1      24.264  44.087   3.693  1.00  0.00    -0.162 SA
HETATM    9  C15 UNL     1      23.823  42.344   3.931  1.00  0.00     0.087 C 
HETATM   10  C16 UNL     1      22.609  42.139   3.006  1.00  0.00     0.002 C 
HETATM   11  C17 UNL     1      21.561  43.054   3.505  1.00  0.00     0.019 C 
HETATM   12  C18 UNL     1      23.101  42.323   1.628  1.00  0.00     0.003 C 
HETATM   13  C19 UNL     1      22.091  41.549   0.821  1.00  0.00     0.009 C 
HETATM   14  C20 UNL     1      22.195  40.209   1.572  1.00  0.00     0.041 C 
HETATM   15  C21 UNL     1      22.250  40.676   3.033  1.00  0.00     0.089 C 
ENDROOT
BRANCH   1  16
HETATM   16  C8  UNL     1      24.333  46.704   0.647  1.00  0.00     0.021 C 
BRANCH  16  17
HETATM   17  C7  UNL     1      23.498  46.871  -0.581  1.00  0.00     0.039 C 
BRANCH  17  18
HETATM   18  C5  UNL     1      24.361  46.963  -1.847  1.00  0.00     0.061 C 
HETATM   19  C4  UNL     1      25.536  46.078  -1.644  1.00  0.00     0.040 C 
HETATM   20  C3  UNL     1      25.363  44.682  -2.164  1.00  0.00     0.040 C 
HETATM   21  C2  UNL     1      24.655  44.606  -3.483  1.00  0.00     0.185 C 
HETATM   22  C24 UNL     1      24.050  45.925  -3.911  1.00  0.00     0.210 C 
HETATM   23  O5  UNL     1      23.553  46.670  -2.898  1.00  0.00    -0.340 OA
HETATM   24  C6  UNL     1      24.870  48.388  -2.033  1.00  0.00     0.046 C 
BRANCH  21  25
HETATM   25  O1  UNL     1      23.617  43.686  -3.354  1.00  0.00    -0.385 OA
HETATM   26  C1  UNL     1      23.902  42.719  -2.390  1.00  0.00     0.202 C 
ENDBRANCH  21  25
BRANCH  22  27
HETATM   27  O6  UNL     1      22.960  45.576  -4.749  1.00  0.00    -0.362 OA
ATOM     28  H6  UNL     1      22.318  46.264  -4.618  1.00  0.00     0.213 HD
ENDBRANCH  22  27
BRANCH  22  29
HETATM   29  C25 UNL     1      25.012  46.665  -4.819  1.00  0.00     0.235 C 
BRANCH  29  30
HETATM   30  O7  UNL     1      25.815  45.757  -5.473  1.00  0.00    -0.395 OA
ATOM     31  H7  UNL     1      26.336  46.208  -6.127  1.00  0.00     0.209 HD
ENDBRANCH  29  30
ENDBRANCH  22  29
ENDBRANCH  17  18
ENDBRANCH  16  17
ENDBRANCH   1  16
BRANCH  15  32
HETATM   32  C22 UNL     1      20.916  40.357   3.621  1.00  0.00     0.203 C 
BRANCH  32  33
HETATM   33  O3  UNL     1      20.396  39.128   3.166  1.00  0.00    -0.398 OA
ATOM     34  H3  UNL     1      19.453  39.147   3.046  1.00  0.00     0.209 HD
ENDBRANCH  32  33
ENDBRANCH  15  32
BRANCH  15  35
HETATM   35  O4  UNL     1      23.223  39.967   3.720  1.00  0.00    -0.382 OA
HETATM   36  C23 UNL     1      22.806  39.351   4.866  1.00  0.00     0.202 C 
ENDBRANCH  15  35
TORSDOF 10
ENDMDL
MODEL 2
REMARK VINA RESULT: -8.164355441      3.313      5.111
REMARK  10 active torsions:
REMARK  status: ('A' for Active; 'I' for Inactive)
REMARK    1  A    between atoms: O1_2  and  C2_3 
REMARK    2  A    between atoms: C5_6  and  C7_8 
REMARK    3  A    between atoms: C7_8  and  C8_9 
REMARK    4  A    between atoms: C8_9  and  C9_10 
REMARK    5  A    between atoms: C21_24  and  C22_25 
REMARK    6  A    between atoms: C21_24  and  O4_28 
REMARK    7  A    between atoms: C22_25  and  O3_26 
REMARK    8  A    between atoms: C24_31  and  O6_32 
REMARK    9  A    between atoms: C24_31  and  C25_34 
REMARK   10  A    between atoms: C25_34  and  O7_35 
ROOT
HETATM    1  C9  UNL     1      24.606  48.678  -0.086  1.00  0.00     0.030 C 
HETATM    2  C10 UNL     1      26.104  48.591  -0.265  1.00  0.00     0.025 C 
HETATM    3  C11 UNL     1      24.264  49.100   1.308  1.00  0.00     0.136 C 
HETATM    4  O2  UNL     1      24.837  49.808   2.086  1.00  0.00    -0.297 OA
HETATM    5  C12 UNL     1      22.954  48.427   1.608  1.00  0.00     0.085 C 
HETATM    6  C13 UNL     1      22.922  47.175   0.777  1.00  0.00     0.012 C 
HETATM    7  C14 UNL     1      24.055  47.275  -0.195  1.00  0.00     0.067 C 
HETATM    8  S1  UNL     1      25.362  46.054   0.057  1.00  0.00    -0.162 SA
HETATM    9  C15 UNL     1      24.753  44.617   0.982  1.00  0.00     0.087 C 
HETATM   10  C16 UNL     1      23.922  45.236   2.122  1.00  0.00     0.002 C 
HETATM   11  C17 UNL     1      24.866  46.052   2.914  1.00  0.00     0.019 C 
HETATM   12  C18 UNL     1      22.778  45.911   1.483  1.00  0.00     0.003 C 
HETATM   13  C19 UNL     1      21.762  45.943   2.596  1.00  0.00     0.009 C 
HETATM   14  C20 UNL     1      21.762  44.440   2.931  1.00  0.00     0.041 C 
HETATM   15  C21 UNL     1      23.260  44.110   2.874  1.00  0.00     0.089 C 
ENDROOT
BRANCH   1  16
HETATM   16  C8  UNL     1      23.965  49.670  -0.993  1.00  0.00     0.021 C 
BRANCH  16  17
HETATM   17  C7  UNL     1      24.801  50.141  -2.139  1.00  0.00     0.039 C 
BRANCH  17  18
HETATM   18  C5  UNL     1      24.172  49.775  -3.490  1.00  0.00     0.061 C 
HETATM   19  C4  UNL     1      22.770  50.265  -3.470  1.00  0.00     0.040 C 
HETATM   20  C3  UNL     1      22.581  51.641  -4.036  1.00  0.00     0.040 C 
HETATM   21  C2  UNL     1      23.394  51.911  -5.266  1.00  0.00     0.185 C 
HETATM   22  C24 UNL     1      24.415  50.832  -5.554  1.00  0.00     0.210 C 
HETATM   23  O5  UNL     1      24.981  50.286  -4.454  1.00  0.00    -0.340 OA
HETATM   24  C6  UNL     1      24.140  48.261  -3.661  1.00  0.00     0.046 C 
BRANCH  21  25
HETATM   25  O1  UNL     1      24.085  53.104  -5.065  1.00  0.00    -0.385 OA
HETATM   26  C1  UNL     1      23.694  53.731  -3.882  1.00  0.00     0.202 C 
ENDBRANCH  21  25
BRANCH  22  27
HETATM   27  O6  UNL     1      25.446  51.483  -6.277  1.00  0.00    -0.362 OA
ATOM     28  H6  UNL     1      25.979  51.911  -5.617  1.00  0.00     0.213 HD
ENDBRANCH  22  27
BRANCH  22  29
HETATM   29  C25 UNL     1      23.840  49.823  -6.529  1.00  0.00     0.235 C 
BRANCH  29  30
HETATM   30  O7  UNL     1      24.213  50.161  -7.811  1.00  0.00    -0.395 OA
ATOM     31  H7  UNL     1      23.658  49.704  -8.432  1.00  0.00     0.209 HD
ENDBRANCH  29  30
ENDBRANCH  22  29
ENDBRANCH  17  18
ENDBRANCH  16  17
ENDBRANCH   1  16
BRANCH  15  32
HETATM   32  C22 UNL     1      23.702  43.940   4.288  1.00  0.00     0.203 C 
BRANCH  32  33
HETATM   33  O3  UNL     1      24.698  42.953   4.437  1.00  0.00    -0.398 OA
ATOM     34  H3  UNL     1      24.638  42.488   5.264  1.00  0.00     0.209 HD
ENDBRANCH  32  33
ENDBRANCH  15  32
BRANCH  15  35
HETATM   35  O4  UNL     1      23.456  42.916   2.197  1.00  0.00    -0.382 OA
HETATM   36  C23 UNL     1      22.346  42.135   2.045  1.00  0.00     0.202 C 
ENDBRANCH  15  35
TORSDOF 10
ENDMDL
MODEL 3
REMARK VINA RESULT: -8.087878571      3.417      8.387
REMARK  10 active torsions:
REMARK  status: ('A' for Active; 'I' for Inactive)
REMARK    1  A    between atoms: O1_2  and  C2_3 
REMARK    2  A    between atoms: C5_6  and  C7_8 
REMARK    3  A    between atoms: C7_8  and  C8_9 
REMARK    4  A    between atoms: C8_9  and  C9_10 
REMARK    5  A    between atoms: C21_24  and  C22_25 
REMARK    6  A    between atoms: C21_24  and  O4_28 
REMARK    7  A    between atoms: C22_25  and  O3_26 
REMARK    8  A    between atoms: C24_31  and  O6_32 
REMARK    9  A    between atoms: C24_31  and  C25_34 
REMARK   10  A    between atoms: C25_34  and  O7_35 
ROOT
HETATM    1  C9  UNL     1      23.548  45.718   1.982  1.00  0.00     0.030 C 
HETATM    2  C10 UNL     1      24.440  46.816   2.514  1.00  0.00     0.025 C 
HETATM    3  C11 UNL     1      24.352  44.499   1.650  1.00  0.00     0.136 C 
HETATM    4  O2  UNL     1      25.351  44.053   2.133  1.00  0.00    -0.297 OA
HETATM    5  C12 UNL     1      23.630  43.862   0.495  1.00  0.00     0.085 C 
HETATM    6  C13 UNL     1      22.930  44.974  -0.232  1.00  0.00     0.012 C 
HETATM    7  C14 UNL     1      23.006  46.180   0.650  1.00  0.00     0.067 C 
HETATM    8  S1  UNL     1      24.010  47.526  -0.015  1.00  0.00    -0.162 SA
HETATM    9  C15 UNL     1      24.178  47.396  -1.817  1.00  0.00     0.087 C 
HETATM   10  C16 UNL     1      24.473  45.903  -2.055  1.00  0.00     0.002 C 
HETATM   11  C17 UNL     1      25.744  45.625  -1.354  1.00  0.00     0.019 C 
HETATM   12  C18 UNL     1      23.266  45.168  -1.634  1.00  0.00     0.003 C 
HETATM   13  C19 UNL     1      23.379  43.888  -2.421  1.00  0.00     0.009 C 
HETATM   14  C20 UNL     1      23.532  44.507  -3.822  1.00  0.00     0.041 C 
HETATM   15  C21 UNL     1      24.496  45.669  -3.544  1.00  0.00     0.089 C 
ENDROOT
BRANCH   1  16
HETATM   16  C8  UNL     1      22.511  45.282   2.958  1.00  0.00     0.021 C 
BRANCH  16  17
HETATM   17  C7  UNL     1      22.578  45.918   4.309  1.00  0.00     0.039 C 
BRANCH  17  18
HETATM   18  C5  UNL     1      21.486  46.982   4.490  1.00  0.00     0.061 C 
HETATM   19  C4  UNL     1      20.348  46.331   5.187  1.00  0.00     0.040 C 
HETATM   20  C3  UNL     1      20.374  46.460   6.681  1.00  0.00     0.040 C 
HETATM   21  C2  UNL     1      20.807  47.809   7.169  1.00  0.00     0.185 C 
HETATM   22  C24 UNL     1      21.356  48.692   6.070  1.00  0.00     0.210 C 
HETATM   23  O5  UNL     1      22.064  48.036   5.122  1.00  0.00    -0.340 OA
HETATM   24  C6  UNL     1      20.994  47.466   3.131  1.00  0.00     0.046 C 
BRANCH  21  25
HETATM   25  O1  UNL     1      21.822  47.617   8.103  1.00  0.00    -0.385 OA
HETATM   26  C1  UNL     1      21.338  47.048   9.281  1.00  0.00     0.202 C 
ENDBRANCH  21  25
BRANCH  22  27
HETATM   27  O6  UNL     1      22.248  49.581   6.721  1.00  0.00    -0.362 OA
ATOM     28  H6  UNL     1      23.115  49.238   6.537  1.00  0.00     0.213 HD
ENDBRANCH  22  27
BRANCH  22  29
HETATM   29  C25 UNL     1      20.256  49.583   5.524  1.00  0.00     0.235 C 
BRANCH  29  30
HETATM   30  O7  UNL     1      19.861  50.472   6.500  1.00  0.00    -0.395 OA
ATOM     31  H7  UNL     1      20.415  50.369   7.264  1.00  0.00     0.209 HD
ENDBRANCH  29  30
ENDBRANCH  22  29
ENDBRANCH  17  18
ENDBRANCH  16  17
ENDBRANCH   1  16
BRANCH  15  32
HETATM   32  C22 UNL     1      25.815  45.256  -4.104  1.00  0.00     0.203 C 
BRANCH  32  33
HETATM   33  O3  UNL     1      25.984  45.638  -5.451  1.00  0.00    -0.398 OA
ATOM     34  H3  UNL     1      26.700  45.182  -5.878  1.00  0.00     0.209 HD
ENDBRANCH  32  33
ENDBRANCH  15  32
BRANCH  15  35
HETATM   35  O4  UNL     1      24.067  46.810  -4.204  1.00  0.00    -0.382 OA
HETATM   36  C23 UNL     1      23.077  46.621  -5.126  1.00  0.00     0.202 C 
ENDBRANCH  15  35
TORSDOF 10
ENDMDL
MODEL 4
REMARK VINA RESULT: -8.017917787      2.803      7.956
REMARK  10 active torsions:
REMARK  status: ('A' for Active; 'I' for Inactive)
REMARK    1  A    between atoms: O1_2  and  C2_3 
REMARK    2  A    between atoms: C5_6  and  C7_8 
REMARK    3  A    between atoms: C7_8  and  C8_9 
REMARK    4  A    between atoms: C8_9  and  C9_10 
REMARK    5  A    between atoms: C21_24  and  C22_25 
REMARK    6  A    between atoms: C21_24  and  O4_28 
REMARK    7  A    between atoms: C22_25  and  O3_26 
REMARK    8  A    between atoms: C24_31  and  O6_32 
REMARK    9  A    between atoms: C24_31  and  C25_34 
REMARK   10  A    between atoms: C25_34  and  O7_35 
ROOT
HETATM    1  C9  UNL     1      25.652  46.946   1.492  1.00  0.00     0.030 C 
HETATM    2  C10 UNL     1      25.976  47.958   2.567  1.00  0.00     0.025 C 
HETATM    3  C11 UNL     1      26.719  46.930   0.443  1.00  0.00     0.136 C 
HETATM    4  O2  UNL     1      27.897  47.136   0.506  1.00  0.00    -0.297 OA
HETATM    5  C12 UNL     1      26.005  46.579  -0.832  1.00  0.00     0.085 C 
HETATM    6  C13 UNL     1      24.595  47.073  -0.677  1.00  0.00     0.012 C 
HETATM    7  C14 UNL     1      24.423  47.437   0.764  1.00  0.00     0.067 C 
HETATM    8  S1  UNL     1      24.167  49.201   1.060  1.00  0.00    -0.162 SA
HETATM    9  C15 UNL     1      23.552  50.038  -0.427  1.00  0.00     0.087 C 
HETATM   10  C16 UNL     1      24.432  49.474  -1.559  1.00  0.00     0.002 C 
HETATM   11  C17 UNL     1      25.818  49.867  -1.229  1.00  0.00     0.019 C 
HETATM   12  C18 UNL     1      24.115  48.037  -1.655  1.00  0.00     0.003 C 
HETATM   13  C19 UNL     1      24.506  47.716  -3.075  1.00  0.00     0.009 C 
HETATM   14  C20 UNL     1      23.673  48.802  -3.779  1.00  0.00     0.041 C 
HETATM   15  C21 UNL     1      23.905  50.013  -2.865  1.00  0.00     0.089 C 
ENDROOT
BRANCH   1  16
HETATM   16  C8  UNL     1      25.553  45.553   2.010  1.00  0.00     0.021 C 
BRANCH  16  17
HETATM   17  C7  UNL     1      24.911  45.400   3.350  1.00  0.00     0.039 C 
BRANCH  17  18
HETATM   18  C5  UNL     1      23.805  44.335   3.332  1.00  0.00     0.061 C 
HETATM   19  C4  UNL     1      22.745  44.785   4.269  1.00  0.00     0.040 C 
HETATM   20  C3  UNL     1      21.645  45.581   3.632  1.00  0.00     0.040 C 
HETATM   21  C2  UNL     1      21.214  45.063   2.293  1.00  0.00     0.185 C 
HETATM   22  C24 UNL     1      22.130  43.990   1.747  1.00  0.00     0.210 C 
HETATM   23  O5  UNL     1      23.439  44.168   2.034  1.00  0.00    -0.340 OA
HETATM   24  C6  UNL     1      24.349  43.004   3.838  1.00  0.00     0.046 C 
BRANCH  21  25
HETATM   25  O1  UNL     1      21.236  46.132   1.399  1.00  0.00    -0.385 OA
HETATM   26  C1  UNL     1      21.090  47.354   2.055  1.00  0.00     0.202 C 
ENDBRANCH  21  25
BRANCH  22  27
HETATM   27  O6  UNL     1      21.995  44.072   0.338  1.00  0.00    -0.362 OA
ATOM     28  H6  UNL     1      22.444  43.304   0.002  1.00  0.00     0.213 HD
ENDBRANCH  22  27
BRANCH  22  29
HETATM   29  C25 UNL     1      21.591  42.619   2.107  1.00  0.00     0.235 C 
BRANCH  29  30
HETATM   30  O7  UNL     1      21.292  41.928   0.953  1.00  0.00    -0.395 OA
ATOM     31  H7  UNL     1      20.873  41.105   1.177  1.00  0.00     0.209 HD
ENDBRANCH  29  30
ENDBRANCH  22  29
ENDBRANCH  17  18
ENDBRANCH  16  17
ENDBRANCH   1  16
BRANCH  15  32
HETATM   32  C22 UNL     1      24.833  50.918  -3.602  1.00  0.00     0.203 C 
BRANCH  32  33
HETATM   33  O3  UNL     1      25.134  50.457  -4.900  1.00  0.00    -0.398 OA
ATOM     34  H3  UNL     1      26.047  50.580  -5.134  1.00  0.00     0.209 HD
ENDBRANCH  32  33
ENDBRANCH  15  32
BRANCH  15  35
HETATM   35  O4  UNL     1      22.709  50.678  -2.647  1.00  0.00    -0.382 OA
HETATM   36  C23 UNL     1      21.948  50.904  -3.760  1.00  0.00     0.202 C 
ENDBRANCH  15  35
TORSDOF 10
ENDMDL
MODEL 5
REMARK VINA RESULT: -7.999951541      4.380      9.137
REMARK  10 active torsions:
REMARK  status: ('A' for Active; 'I' for Inactive)
REMARK    1  A    between atoms: O1_2  and  C2_3 
REMARK    2  A    between atoms: C5_6  and  C7_8 
REMARK    3  A    between atoms: C7_8  and  C8_9 
REMARK    4  A    between atoms: C8_9  and  C9_10 
REMARK    5  A    between atoms: C21_24  and  C22_25 
REMARK    6  A    between atoms: C21_24  and  O4_28 
REMARK    7  A    between atoms: C22_25  and  O3_26 
REMARK    8  A    between atoms: C24_31  and  O6_32 
REMARK    9  A    between atoms: C24_31  and  C25_34 
REMARK   10  A    between atoms: C25_34  and  O7_35 
ROOT
HETATM    1  C9  UNL     1      23.574  45.942   2.093  1.00  0.00     0.030 C 
HETATM    2  C10 UNL     1      24.208  44.581   1.920  1.00  0.00     0.025 C 
HETATM    3  C11 UNL     1      23.346  46.592   0.764  1.00  0.00     0.136 C 
HETATM    4  O2  UNL     1      23.099  46.130  -0.313  1.00  0.00    -0.297 OA
HETATM    5  C12 UNL     1      23.492  48.066   1.022  1.00  0.00     0.085 C 
HETATM    6  C13 UNL     1      24.430  48.200   2.189  1.00  0.00     0.012 C 
HETATM    7  C14 UNL     1      24.589  46.832   2.772  1.00  0.00     0.067 C 
HETATM    8  S1  UNL     1      26.251  46.143   2.611  1.00  0.00    -0.162 SA
HETATM    9  C15 UNL     1      27.486  47.449   2.368  1.00  0.00     0.087 C 
HETATM   10  C16 UNL     1      26.837  48.383   1.329  1.00  0.00     0.002 C 
HETATM   11  C17 UNL     1      26.642  47.564   0.114  1.00  0.00     0.019 C 
HETATM   12  C18 UNL     1      25.649  48.965   1.978  1.00  0.00     0.003 C 
HETATM   13  C19 UNL     1      25.446  50.238   1.196  1.00  0.00     0.009 C 
HETATM   14  C20 UNL     1      26.860  50.823   1.366  1.00  0.00     0.041 C 
HETATM   15  C21 UNL     1      27.737  49.580   1.159  1.00  0.00     0.089 C 
ENDROOT
BRANCH   1  16
HETATM   16  C8  UNL     1      22.246  45.887   2.765  1.00  0.00     0.021 C 
BRANCH  16  17
HETATM   17  C7  UNL     1      22.253  46.110   4.243  1.00  0.00     0.039 C 
BRANCH  17  18
HETATM   18  C5  UNL     1      21.335  47.272   4.647  1.00  0.00     0.061 C 
HETATM   19  C4  UNL     1      20.115  46.678   5.251  1.00  0.00     0.040 C 
HETATM   20  C3  UNL     1      20.167  46.528   6.743  1.00  0.00     0.040 C 
HETATM   21  C2  UNL     1      20.800  47.687   7.451  1.00  0.00     0.185 C 
HETATM   22  C24 UNL     1      21.470  48.665   6.511  1.00  0.00     0.210 C 
HETATM   23  O5  UNL     1      22.067  48.097   5.439  1.00  0.00    -0.340 OA
HETATM   24  C6  UNL     1      20.914  48.062   3.413  1.00  0.00     0.046 C 
BRANCH  21  25
HETATM   25  O1  UNL     1      21.779  47.181   8.302  1.00  0.00    -0.385 OA
HETATM   26  C1  UNL     1      21.285  46.147   9.098  1.00  0.00     0.202 C 
ENDBRANCH  21  25
BRANCH  22  27
HETATM   27  O6  UNL     1      22.489  49.280   7.282  1.00  0.00    -0.362 OA
ATOM     28  H6  UNL     1      22.961  48.561   7.685  1.00  0.00     0.213 HD
ENDBRANCH  22  27
BRANCH  22  29
HETATM   29  C25 UNL     1      20.514  49.792   6.170  1.00  0.00     0.235 C 
BRANCH  29  30
HETATM   30  O7  UNL     1      19.872  50.211   7.315  1.00  0.00    -0.395 OA
ATOM     31  H7  UNL     1      19.807  51.158   7.312  1.00  0.00     0.209 HD
ENDBRANCH  29  30
ENDBRANCH  22  29
ENDBRANCH  17  18
ENDBRANCH  16  17
ENDBRANCH   1  16
BRANCH  15  32
HETATM   32  C22 UNL     1      28.354  49.728  -0.191  1.00  0.00     0.203 C 
BRANCH  32  33
HETATM   33  O3  UNL     1      29.663  49.207  -0.256  1.00  0.00    -0.398 OA
ATOM     34  H3  UNL     1      30.050  49.285  -1.120  1.00  0.00     0.209 HD
ENDBRANCH  32  33
ENDBRANCH  15  32
BRANCH  15  35
HETATM   35  O4  UNL     1      28.744  49.547   2.110  1.00  0.00    -0.382 OA
HETATM   36  C23 UNL     1      28.945  50.711   2.798  1.00  0.00     0.202 C 
ENDBRANCH  15  35
TORSDOF 10
ENDMDL
