MODEL 1
REMARK VINA RESULT: -4.221736895      0.000      0.000
REMARK  2 active torsions:
REMARK  status: ('A' for Active; 'I' for Inactive)
REMARK    1  A    between atoms: O1_2  and  C2_3 
REMARK       I    between atoms: C2_3  and  N1_5 
REMARK    2  A    between atoms: N1_5  and  C3_7 
ROOT
HETATM    1  C2  UNL     1      15.535   1.213  15.748  1.00  0.00     0.360 C 
HETATM    2  O2  UNL     1      14.567   0.928  15.013  1.00  0.00    -0.239 OA
HETATM    3  N1  UNL     1      16.348   2.319  15.370  1.00  0.00    -0.329 N 
ATOM      4  H1  UNL     1      17.145   2.570  15.956  1.00  0.00     0.165 HD
ENDROOT
BRANCH   3   5
HETATM    5  C3  UNL     1      16.080   3.097  14.182  1.00  0.00     0.024 C 
HETATM    6  C4  UNL     1      16.156   2.176  12.995  1.00  0.00     0.037 C 
HETATM    7  C5  UNL     1      14.745   3.764  14.313  1.00  0.00     0.037 C 
HETATM    8  C6  UNL     1      17.128   4.184  14.127  1.00  0.00     0.037 C 
ENDBRANCH   3   5
BRANCH   1   9
HETATM    9  O1  UNL     1      15.764   0.455  16.870  1.00  0.00    -0.309 OA
HETATM   10  C1  UNL     1      14.829   0.454  17.944  1.00  0.00     0.215 C 
ENDBRANCH   1   9
TORSDOF 2
ENDMDL
MODEL 2
REMARK VINA RESULT: -4.168022077      2.413      3.344
REMARK  2 active torsions:
REMARK  status: ('A' for Active; 'I' for Inactive)
REMARK    1  A    between atoms: O1_2  and  C2_3 
REMARK       I    between atoms: C2_3  and  N1_5 
REMARK    2  A    between atoms: N1_5  and  C3_7 
ROOT
HETATM    1  C2  UNL     1      16.077   0.252  13.568  1.00  0.00     0.360 C 
HETATM    2  O2  UNL     1      15.975  -0.871  13.032  1.00  0.00    -0.239 OA
HETATM    3  N1  UNL     1      16.595   1.317  12.775  1.00  0.00    -0.329 N 
ATOM      4  H1  UNL     1      16.687   2.243  13.192  1.00  0.00     0.165 HD
ENDROOT
BRANCH   3   5
HETATM    5  C3  UNL     1      16.993   1.125  11.400  1.00  0.00     0.024 C 
HETATM    6  C4  UNL     1      18.450   0.746  11.385  1.00  0.00     0.037 C 
HETATM    7  C5  UNL     1      16.119   0.085  10.767  1.00  0.00     0.037 C 
HETATM    8  C6  UNL     1      16.737   2.431  10.685  1.00  0.00     0.037 C 
ENDBRANCH   3   5
BRANCH   1   9
HETATM    9  O1  UNL     1      15.690   0.404  14.876  1.00  0.00    -0.309 OA
HETATM   10  C1  UNL     1      15.075   1.612  15.312  1.00  0.00     0.215 C 
ENDBRANCH   1   9
TORSDOF 2
ENDMDL
MODEL 3
REMARK VINA RESULT: -4.127945264      3.351      4.470
REMARK  2 active torsions:
REMARK  status: ('A' for Active; 'I' for Inactive)
REMARK    1  A    between atoms: O1_2  and  C2_3 
REMARK       I    between atoms: C2_3  and  N1_5 
REMARK    2  A    between atoms: N1_5  and  C3_7 
ROOT
HETATM    1  C2  UNL     1      16.172   0.340  13.124  1.00  0.00     0.360 C 
HETATM    2  O2  UNL     1      16.658   1.419  12.725  1.00  0.00    -0.239 OA
HETATM    3  N1  UNL     1      16.424  -0.825  12.344  1.00  0.00    -0.329 N 
ATOM      4  H1  UNL     1      16.037  -1.718  12.650  1.00  0.00     0.165 HD
ENDROOT
BRANCH   3   5
HETATM    5  C3  UNL     1      17.211  -0.782  11.133  1.00  0.00     0.024 C 
HETATM    6  C4  UNL     1      16.275  -0.546   9.978  1.00  0.00     0.037 C 
HETATM    7  C5  UNL     1      18.259   0.282  11.256  1.00  0.00     0.037 C 
HETATM    8  C6  UNL     1      17.922  -2.111  11.027  1.00  0.00     0.037 C 
ENDBRANCH   3   5
BRANCH   1   9
HETATM    9  O1  UNL     1      15.429   0.330  14.278  1.00  0.00    -0.309 OA
HETATM   10  C1  UNL     1      15.126   1.547  14.953  1.00  0.00     0.215 C 
ENDBRANCH   1   9
TORSDOF 2
ENDMDL
MODEL 4
REMARK VINA RESULT: -4.122514247      2.465      3.221
REMARK  2 active torsions:
REMARK  status: ('A' for Active; 'I' for Inactive)
REMARK    1  A    between atoms: O1_2  and  C2_3 
REMARK       I    between atoms: C2_3  and  N1_5 
REMARK    2  A    between atoms: N1_5  and  C3_7 
ROOT
HETATM    1  C2  UNL     1      16.211   0.533  12.994  1.00  0.00     0.360 C 
HETATM    2  O2  UNL     1      16.053  -0.172  11.976  1.00  0.00    -0.239 OA
HETATM    3  N1  UNL     1      17.092   1.649  12.892  1.00  0.00    -0.329 N 
ATOM      4  H1  UNL     1      17.237   2.240  13.711  1.00  0.00     0.165 HD
ENDROOT
BRANCH   3   5
HETATM    5  C3  UNL     1      17.786   1.969  11.666  1.00  0.00     0.024 C 
HETATM    6  C4  UNL     1      18.525   0.738  11.215  1.00  0.00     0.037 C 
HETATM    7  C5  UNL     1      16.802   2.459  10.648  1.00  0.00     0.037 C 
HETATM    8  C6  UNL     1      18.722   3.112  11.981  1.00  0.00     0.037 C 
ENDBRANCH   3   5
BRANCH   1   9
HETATM    9  O1  UNL     1      15.537   0.205  14.144  1.00  0.00    -0.309 OA
HETATM   10  C1  UNL     1      15.321   1.181  15.158  1.00  0.00     0.215 C 
ENDBRANCH   1   9
TORSDOF 2
ENDMDL
MODEL 5
REMARK VINA RESULT: -4.067464072      4.277      5.770
REMARK  2 active torsions:
REMARK  status: ('A' for Active; 'I' for Inactive)
REMARK    1  A    between atoms: O1_2  and  C2_3 
REMARK       I    between atoms: C2_3  and  N1_5 
REMARK    2  A    between atoms: N1_5  and  C3_7 
ROOT
HETATM    1  C2  UNL     1      16.710   2.792  10.783  1.00  0.00     0.360 C 
HETATM    2  O2  UNL     1      17.508   2.974  11.725  1.00  0.00    -0.239 OA
HETATM    3  N1  UNL     1      16.295   1.455  10.518  1.00  0.00    -0.329 N 
ATOM      4  H1  UNL     1      15.643   1.283   9.753  1.00  0.00     0.165 HD
ENDROOT
BRANCH   3   5
HETATM    5  C3  UNL     1      16.769   0.337  11.301  1.00  0.00     0.024 C 
HETATM    6  C4  UNL     1      18.269   0.288  11.184  1.00  0.00     0.037 C 
HETATM    7  C5  UNL     1      16.303   0.484  12.717  1.00  0.00     0.037 C 
HETATM    8  C6  UNL     1      16.114  -0.901  10.733  1.00  0.00     0.037 C 
ENDBRANCH   3   5
BRANCH   1   9
HETATM    9  O1  UNL     1      16.277   3.875  10.058  1.00  0.00    -0.309 OA
HETATM   10  C1  UNL     1      16.711   5.189  10.394  1.00  0.00     0.215 C 
ENDBRANCH   1   9
TORSDOF 2
ENDMDL
