MODEL 1
REMARK VINA RESULT: -4.910263626      0.000      0.000
REMARK  0 active torsions:
REMARK  status: ('A' for Active; 'I' for Inactive)
ROOT
HETATM    1  C1  UNL     1      16.475   2.575  12.420  1.00  0.00     0.070 C 
HETATM    2  C2  UNL     1      15.859   2.354  13.766  1.00  0.00     0.029 A 
HETATM    3  N1  UNL     1      15.941   1.291  14.571  1.00  0.00    -0.336 N 
ATOM      4  H1  UNL     1      16.469   0.445  14.353  1.00  0.00     0.168 HD
HETATM    5  C3  UNL     1      15.242   1.476  15.706  1.00  0.00     0.189 A 
HETATM    6  C4  UNL     1      15.098   0.549  16.813  1.00  0.00     0.137 C 
HETATM    7  N2  UNL     1      14.979  -0.176  17.709  1.00  0.00    -0.188 NA
HETATM    8  N3  UNL     1      14.706   2.703  15.596  1.00  0.00    -0.336 N 
ATOM      9  H3  UNL     1      14.113   3.144  16.299  1.00  0.00     0.168 HD
HETATM   10  C5  UNL     1      15.061   3.268  14.427  1.00  0.00     0.029 A 
HETATM   11  C6  UNL     1      14.703   4.601  13.891  1.00  0.00     0.070 C 
ENDROOT
TORSDOF 0
ENDMDL
MODEL 2
REMARK VINA RESULT: -4.897200771      0.034      1.879
REMARK  0 active torsions:
REMARK  status: ('A' for Active; 'I' for Inactive)
ROOT
HETATM    1  C1  UNL     1      14.738   4.638  13.864  1.00  0.00     0.070 C 
HETATM    2  C2  UNL     1      15.082   3.286  14.406  1.00  0.00     0.029 A 
HETATM    3  N1  UNL     1      14.735   2.726  15.568  1.00  0.00    -0.336 N 
ATOM      4  H1  UNL     1      14.157   3.181  16.275  1.00  0.00     0.168 HD
HETATM    5  C3  UNL     1      15.246   1.486  15.691  1.00  0.00     0.189 A 
HETATM    6  C4  UNL     1      15.086   0.574  16.808  1.00  0.00     0.137 C 
HETATM    7  N2  UNL     1      14.961  -0.170  17.688  1.00  0.00    -0.188 NA
HETATM    8  N3  UNL     1      15.935   1.273  14.557  1.00  0.00    -0.336 N 
ATOM      9  H3  UNL     1      16.446   0.418  14.339  1.00  0.00     0.168 HD
HETATM   10  C5  UNL     1      15.856   2.347  13.751  1.00  0.00     0.029 A 
HETATM   11  C6  UNL     1      16.458   2.553  12.413  1.00  0.00     0.070 C 
ENDROOT
TORSDOF 0
ENDMDL
MODEL 3
REMARK VINA RESULT: -4.895069753      2.159      3.101
REMARK  0 active torsions:
REMARK  status: ('A' for Active; 'I' for Inactive)
ROOT
HETATM    1  C1  UNL     1      17.048   2.658  11.239  1.00  0.00     0.070 C 
HETATM    2  C2  UNL     1      16.561   1.623  12.204  1.00  0.00     0.029 A 
HETATM    3  N1  UNL     1      16.286   1.741  13.506  1.00  0.00    -0.336 N 
ATOM      4  H1  UNL     1      16.381   2.607  14.036  1.00  0.00     0.168 HD
HETATM    5  C3  UNL     1      15.869   0.573  14.031  1.00  0.00     0.189 A 
HETATM    6  C4  UNL     1      15.481   0.313  15.404  1.00  0.00     0.137 C 
HETATM    7  N2  UNL     1      15.160   0.090  16.495  1.00  0.00    -0.188 NA
HETATM    8  N3  UNL     1      15.888  -0.300  13.009  1.00  0.00    -0.336 N 
ATOM      9  H3  UNL     1      15.624  -1.283  13.080  1.00  0.00     0.168 HD
HETATM   10  C5  UNL     1      16.303   0.304  11.881  1.00  0.00     0.029 A 
HETATM   11  C6  UNL     1      16.475  -0.270  10.527  1.00  0.00     0.070 C 
ENDROOT
TORSDOF 0
ENDMDL
MODEL 4
REMARK VINA RESULT: -4.874501610      2.154      2.702
REMARK  0 active torsions:
REMARK  status: ('A' for Active; 'I' for Inactive)
ROOT
HETATM    1  C1  UNL     1      16.445  -0.298  10.520  1.00  0.00     0.070 C 
HETATM    2  C2  UNL     1      16.276   0.280  11.890  1.00  0.00     0.029 A 
HETATM    3  N1  UNL     1      15.886  -0.318  13.020  1.00  0.00    -0.336 N 
ATOM      4  H1  UNL     1      15.641  -1.306  13.091  1.00  0.00     0.168 HD
HETATM    5  C3  UNL     1      15.858   0.547  14.052  1.00  0.00     0.189 A 
HETATM    6  C4  UNL     1      15.489   0.266  15.426  1.00  0.00     0.137 C 
HETATM    7  N2  UNL     1      15.205   0.057  16.530  1.00  0.00    -0.188 NA
HETATM    8  N3  UNL     1      16.247   1.725  13.536  1.00  0.00    -0.336 N 
ATOM      9  H3  UNL     1      16.330   2.593  14.067  1.00  0.00     0.168 HD
HETATM   10  C5  UNL     1      16.510   1.601  12.223  1.00  0.00     0.029 A 
HETATM   11  C6  UNL     1      16.963   2.633  11.262  1.00  0.00     0.070 C 
ENDROOT
TORSDOF 0
ENDMDL
MODEL 5
REMARK VINA RESULT: -4.874131591      1.133      1.270
REMARK  0 active torsions:
REMARK  status: ('A' for Active; 'I' for Inactive)
ROOT
HETATM    1  C1  UNL     1      16.270   1.056  11.582  1.00  0.00     0.070 C 
HETATM    2  C2  UNL     1      16.033   1.330  13.034  1.00  0.00     0.029 A 
HETATM    3  N1  UNL     1      15.765   0.475  14.025  1.00  0.00    -0.336 N 
ATOM      4  H1  UNL     1      15.685  -0.535  13.905  1.00  0.00     0.168 HD
HETATM    5  C3  UNL     1      15.615   1.113  15.201  1.00  0.00     0.189 A 
HETATM    6  C4  UNL     1      15.320   0.521  16.493  1.00  0.00     0.137 C 
HETATM    7  N2  UNL     1      15.093   0.064  17.533  1.00  0.00    -0.188 NA
HETATM    8  N3  UNL     1      15.797   2.414  14.923  1.00  0.00    -0.336 N 
ATOM      9  H3  UNL     1      15.747   3.168  15.609  1.00  0.00     0.168 HD
HETATM   10  C5  UNL     1      16.054   2.584  13.614  1.00  0.00     0.029 A 
HETATM   11  C6  UNL     1      16.317   3.839  12.871  1.00  0.00     0.070 C 
ENDROOT
TORSDOF 0
ENDMDL
