MODEL 1
REMARK VINA RESULT: -4.637869297      0.000      0.000
REMARK  1 active torsions:
REMARK  status: ('A' for Active; 'I' for Inactive)
REMARK    1  A    between atoms: C5_6  and  O2_7 
ROOT
HETATM    1  C1  UNL     1      17.729  -1.614  10.935  1.00  0.00     0.040 C 
HETATM    2  C2  UNL     1      17.672  -0.147  10.780  1.00  0.00     0.124 C 
HETATM    3  O1  UNL     1      18.673   0.546  11.467  1.00  0.00    -0.378 OA
HETATM    4  C3  UNL     1      18.351   1.864  11.133  1.00  0.00     0.147 C 
HETATM    5  C4  UNL     1      19.028   2.867  12.025  1.00  0.00     0.042 C 
HETATM    6  C5  UNL     1      16.843   1.977  11.259  1.00  0.00     0.152 C 
HETATM    7  C6  UNL     1      16.436   0.500  11.361  1.00  0.00     0.041 C 
HETATM    8  C7  UNL     1      16.224   0.190  12.807  1.00  0.00     0.015 C 
ENDROOT
BRANCH   6   9
HETATM    9  O2  UNL     1      16.377   2.508  10.046  1.00  0.00    -0.393 OA
ATOM     10  H2  UNL     1      15.527   2.891  10.225  1.00  0.00     0.210 HD
ENDBRANCH   6   9
TORSDOF 1
ENDMDL
MODEL 2
REMARK VINA RESULT: -4.529960995      1.592      3.295
REMARK  1 active torsions:
REMARK  status: ('A' for Active; 'I' for Inactive)
REMARK    1  A    between atoms: C5_6  and  O2_7 
ROOT
HETATM    1  C1  UNL     1      15.977   1.517  13.153  1.00  0.00     0.040 C 
HETATM    2  C2  UNL     1      16.155   0.530  12.071  1.00  0.00     0.124 C 
HETATM    3  O1  UNL     1      16.752  -0.668  12.474  1.00  0.00    -0.378 OA
HETATM    4  C3  UNL     1      16.782  -1.362  11.262  1.00  0.00     0.147 C 
HETATM    5  C4  UNL     1      17.709  -2.546  11.298  1.00  0.00     0.042 C 
HETATM    6  C5  UNL     1      17.240  -0.365  10.213  1.00  0.00     0.152 C 
HETATM    7  C6  UNL     1      17.105   0.960  10.976  1.00  0.00     0.041 C 
HETATM    8  C7  UNL     1      18.462   1.332  11.477  1.00  0.00     0.015 C 
ENDROOT
BRANCH   6   9
HETATM    9  O2  UNL     1      16.293  -0.407   9.178  1.00  0.00    -0.393 OA
ATOM     10  H2  UNL     1      16.776  -0.546   8.373  1.00  0.00     0.210 HD
ENDBRANCH   6   9
TORSDOF 1
ENDMDL
MODEL 3
REMARK VINA RESULT: -4.374442546      3.798      5.378
REMARK  1 active torsions:
REMARK  status: ('A' for Active; 'I' for Inactive)
REMARK    1  A    between atoms: C5_6  and  O2_7 
ROOT
HETATM    1  C1  UNL     1      14.505   5.629  14.034  1.00  0.00     0.040 C 
HETATM    2  C2  UNL     1      14.679   4.166  13.959  1.00  0.00     0.124 C 
HETATM    3  O1  UNL     1      14.566   3.506  15.187  1.00  0.00    -0.378 OA
HETATM    4  C3  UNL     1      14.778   2.184  14.790  1.00  0.00     0.147 C 
HETATM    5  C4  UNL     1      15.085   1.276  15.948  1.00  0.00     0.042 C 
HETATM    6  C5  UNL     1      15.943   2.214  13.818  1.00  0.00     0.152 C 
HETATM    7  C6  UNL     1      16.057   3.717  13.528  1.00  0.00     0.041 C 
HETATM    8  C7  UNL     1      17.155   4.259  14.382  1.00  0.00     0.015 C 
ENDROOT
BRANCH   6   9
HETATM    9  O2  UNL     1      15.518   1.544  12.660  1.00  0.00    -0.393 OA
ATOM     10  H2  UNL     1      14.680   1.920  12.421  1.00  0.00     0.210 HD
ENDBRANCH   6   9
TORSDOF 1
ENDMDL
MODEL 4
REMARK VINA RESULT: -4.316992180      1.818      3.154
REMARK  1 active torsions:
REMARK  status: ('A' for Active; 'I' for Inactive)
REMARK    1  A    between atoms: C5_6  and  O2_7 
ROOT
HETATM    1  C1  UNL     1      15.481   2.450  14.492  1.00  0.00     0.040 C 
HETATM    2  C2  UNL     1      15.947   2.246  13.106  1.00  0.00     0.124 C 
HETATM    3  O1  UNL     1      16.989   1.322  12.978  1.00  0.00    -0.378 OA
HETATM    4  C3  UNL     1      17.196   1.358  11.597  1.00  0.00     0.147 C 
HETATM    5  C4  UNL     1      18.508   0.743  11.194  1.00  0.00     0.042 C 
HETATM    6  C5  UNL     1      17.154   2.822  11.198  1.00  0.00     0.152 C 
HETATM    7  C6  UNL     1      16.574   3.464  12.467  1.00  0.00     0.041 C 
HETATM    8  C7  UNL     1      17.715   4.027  13.249  1.00  0.00     0.015 C 
ENDROOT
BRANCH   6   9
HETATM    9  O2  UNL     1      16.223   2.928  10.153  1.00  0.00    -0.393 OA
ATOM     10  H2  UNL     1      15.411   2.552  10.473  1.00  0.00     0.210 HD
ENDBRANCH   6   9
TORSDOF 1
ENDMDL
MODEL 5
REMARK VINA RESULT: -4.299057889      1.456      3.129
REMARK  1 active torsions:
REMARK  status: ('A' for Active; 'I' for Inactive)
REMARK    1  A    between atoms: C5_6  and  O2_7 
ROOT
HETATM    1  C1  UNL     1      19.690   2.430  11.012  1.00  0.00     0.040 C 
HETATM    2  C2  UNL     1      18.580   1.624  11.556  1.00  0.00     0.124 C 
HETATM    3  O1  UNL     1      18.089   0.651  10.680  1.00  0.00    -0.378 OA
HETATM    4  C3  UNL     1      17.080   0.084  11.463  1.00  0.00     0.147 C 
HETATM    5  C4  UNL     1      16.122  -0.747  10.656  1.00  0.00     0.042 C 
HETATM    6  C5  UNL     1      16.351   1.243  12.120  1.00  0.00     0.152 C 
HETATM    7  C6  UNL     1      17.317   2.404  11.843  1.00  0.00     0.041 C 
HETATM    8  C7  UNL     1      16.795   3.150  10.658  1.00  0.00     0.015 C 
ENDROOT
BRANCH   6   9
HETATM    9  O2  UNL     1      16.328   0.973  13.497  1.00  0.00    -0.393 OA
ATOM     10  H2  UNL     1      15.435   1.118  13.787  1.00  0.00     0.210 HD
ENDBRANCH   6   9
TORSDOF 1
ENDMDL
