MODEL 1
REMARK VINA RESULT: -5.236242132      0.000      0.000
REMARK  1 active torsions:
REMARK  status: ('A' for Active; 'I' for Inactive)
REMARK    1  A    between atoms: N1_2  and  C2_4 
ROOT
HETATM    1  C2  UNL     1      15.848   0.874  14.595  1.00  0.00     0.129 A 
HETATM    2  N2  UNL     1      16.025  -0.253  15.307  1.00  0.00    -0.245 N 
ATOM      3  H2  UNL     1      16.622  -1.035  15.036  1.00  0.00     0.196 HD
HETATM    4  O1  UNL     1      15.309  -0.190  16.402  1.00  0.00    -0.240 OA
HETATM    5  C3  UNL     1      14.652   0.933  16.466  1.00  0.00     0.082 A 
HETATM    6  C4  UNL     1      13.736   1.346  17.574  1.00  0.00     0.079 C 
HETATM    7  C5  UNL     1      14.971   1.645  15.325  1.00  0.00     0.015 A 
HETATM    8  C6  UNL     1      14.477   2.973  14.945  1.00  0.00     0.055 C 
ENDROOT
BRANCH   1   9
HETATM    9  N1  UNL     1      16.396   1.180  13.443  1.00  0.00    -0.379 N 
HETATM   10  C1  UNL     1      16.283   0.269  12.333  1.00  0.00     0.147 C 
ATOM     11  H1  UNL     1      16.900   2.060  13.334  1.00  0.00     0.160 HD
ENDBRANCH   1   9
TORSDOF 1
ENDMDL
MODEL 2
REMARK VINA RESULT: -4.880540886      1.224      1.361
REMARK  1 active torsions:
REMARK  status: ('A' for Active; 'I' for Inactive)
REMARK    1  A    between atoms: N1_2  and  C2_4 
ROOT
HETATM    1  C2  UNL     1      15.880   1.811  13.544  1.00  0.00     0.129 A 
HETATM    2  N2  UNL     1      15.988   0.507  13.860  1.00  0.00    -0.245 N 
ATOM      3  H2  UNL     1      16.490  -0.193  13.313  1.00  0.00     0.196 HD
HETATM    4  O1  UNL     1      15.346   0.279  14.979  1.00  0.00    -0.240 OA
HETATM    5  C3  UNL     1      14.807   1.371  15.439  1.00  0.00     0.082 A 
HETATM    6  C4  UNL     1      14.001   1.485  16.695  1.00  0.00     0.079 C 
HETATM    7  C5  UNL     1      15.126   2.378  14.548  1.00  0.00     0.015 A 
HETATM    8  C6  UNL     1      14.742   3.791  14.636  1.00  0.00     0.055 C 
ENDROOT
BRANCH   1   9
HETATM    9  N1  UNL     1      16.387   2.419  12.499  1.00  0.00    -0.379 N 
HETATM   10  C1  UNL     1      16.621   1.680  11.286  1.00  0.00     0.147 C 
ATOM     11  H1  UNL     1      16.615   3.412  12.546  1.00  0.00     0.160 HD
ENDBRANCH   1   9
TORSDOF 1
ENDMDL
MODEL 3
REMARK VINA RESULT: -4.847850939      2.281      3.946
REMARK  1 active torsions:
REMARK  status: ('A' for Active; 'I' for Inactive)
REMARK    1  A    between atoms: N1_2  and  C2_4 
ROOT
HETATM    1  C2  UNL     1      15.943   1.709  13.335  1.00  0.00     0.129 A 
HETATM    2  N2  UNL     1      15.667   0.749  14.238  1.00  0.00    -0.245 N 
ATOM      3  H2  UNL     1      15.372   0.912  15.201  1.00  0.00     0.196 HD
HETATM    4  O1  UNL     1      15.837  -0.426  13.685  1.00  0.00    -0.240 OA
HETATM    5  C3  UNL     1      16.217  -0.308  12.445  1.00  0.00     0.082 A 
HETATM    6  C4  UNL     1      16.504  -1.440  11.509  1.00  0.00     0.079 C 
HETATM    7  C5  UNL     1      16.297   1.046  12.181  1.00  0.00     0.015 A 
HETATM    8  C6  UNL     1      16.685   1.678  10.916  1.00  0.00     0.055 C 
ENDROOT
BRANCH   1   9
HETATM    9  N1  UNL     1      15.888   3.006  13.514  1.00  0.00    -0.379 N 
HETATM   10  C1  UNL     1      14.906   3.563  14.409  1.00  0.00     0.147 C 
ATOM     11  H1  UNL     1      16.537   3.619  13.022  1.00  0.00     0.160 HD
ENDBRANCH   1   9
TORSDOF 1
ENDMDL
MODEL 4
REMARK VINA RESULT: -4.650814615      1.304      3.331
REMARK  1 active torsions:
REMARK  status: ('A' for Active; 'I' for Inactive)
REMARK    1  A    between atoms: N1_2  and  C2_4 
ROOT
HETATM    1  C2  UNL     1      15.421   0.892  15.999  1.00  0.00     0.129 A 
HETATM    2  N2  UNL     1      15.967  -0.307  15.725  1.00  0.00    -0.245 N 
ATOM      3  H2  UNL     1      16.140  -1.046  16.407  1.00  0.00     0.196 HD
HETATM    4  O1  UNL     1      16.240  -0.376  14.446  1.00  0.00    -0.240 OA
HETATM    5  C3  UNL     1      15.904   0.725  13.837  1.00  0.00     0.082 A 
HETATM    6  C4  UNL     1      16.071   1.000  12.376  1.00  0.00     0.079 C 
HETATM    7  C5  UNL     1      15.374   1.565  14.798  1.00  0.00     0.015 A 
HETATM    8  C6  UNL     1      14.855   2.922  14.597  1.00  0.00     0.055 C 
ENDROOT
BRANCH   1   9
HETATM    9  N1  UNL     1      15.016   1.332  17.166  1.00  0.00    -0.379 N 
HETATM   10  C1  UNL     1      13.662   1.088  17.592  1.00  0.00     0.147 C 
ATOM     11  H1  UNL     1      15.658   1.845  17.770  1.00  0.00     0.160 HD
ENDBRANCH   1   9
TORSDOF 1
ENDMDL
MODEL 5
REMARK VINA RESULT: -4.583486588      2.218      4.578
REMARK  1 active torsions:
REMARK  status: ('A' for Active; 'I' for Inactive)
REMARK    1  A    between atoms: N1_2  and  C2_4 
ROOT
HETATM    1  C2  UNL     1      16.297   1.050  12.972  1.00  0.00     0.129 A 
HETATM    2  N2  UNL     1      15.722  -0.153  13.149  1.00  0.00    -0.245 N 
ATOM      3  H2  UNL     1      15.046  -0.383  13.878  1.00  0.00     0.196 HD
HETATM    4  O1  UNL     1      16.167  -0.983  12.238  1.00  0.00    -0.240 OA
HETATM    5  C3  UNL     1      17.020  -0.396  11.449  1.00  0.00     0.082 A 
HETATM    6  C4  UNL     1      17.729  -1.038  10.298  1.00  0.00     0.079 C 
HETATM    7  C5  UNL     1      17.133   0.910  11.886  1.00  0.00     0.015 A 
HETATM    8  C6  UNL     1      17.977   1.964  11.314  1.00  0.00     0.055 C 
ENDROOT
BRANCH   1   9
HETATM    9  N1  UNL     1      16.105   2.134  13.685  1.00  0.00    -0.379 N 
HETATM   10  C1  UNL     1      15.177   2.111  14.786  1.00  0.00     0.147 C 
ATOM     11  H1  UNL     1      16.611   2.990  13.459  1.00  0.00     0.160 HD
ENDBRANCH   1   9
TORSDOF 1
ENDMDL
