MODEL 1
REMARK VINA RESULT: -4.594191978      0.000      0.000
REMARK  2 active torsions:
REMARK  status: ('A' for Active; 'I' for Inactive)
REMARK    1  A    between atoms: C2_2  and  O1_3 
REMARK    2  A    between atoms: C2_2  and  C3_5 
ROOT
HETATM    1  C3  UNL     1      32.496  -0.978  13.380  1.00  0.00     0.289 C 
HETATM    2  C4  UNL     1      32.352   0.395  12.777  1.00  0.00     0.100 C 
HETATM    3  N1  UNL     1      32.989   0.575  11.539  1.00  0.00    -0.374 N 
HETATM    4  C5  UNL     1      33.269   1.981  11.282  1.00  0.00     0.154 C 
HETATM    5  C6  UNL     1      34.034  -0.292  11.184  1.00  0.00     0.092 C 
HETATM    6  C7  UNL     1      34.388  -1.390  12.085  1.00  0.00     0.317 C 
HETATM    7  N2  UNL     1      33.869  -1.319  13.421  1.00  0.00     0.101 N 
HETATM    8  C8  UNL     1      34.184  -2.554  14.075  1.00  0.00     0.311 C 
ENDROOT
BRANCH   1   9
HETATM    9  C2  UNL     1      31.790  -0.969  14.697  1.00  0.00     0.152 C 
HETATM   10  C1  UNL     1      30.471  -0.268  14.680  1.00  0.00     0.042 C 
BRANCH   9  11
HETATM   11  O1  UNL     1      32.550  -0.441  15.732  1.00  0.00    -0.393 OA
ATOM     12  H1  UNL     1      32.426  -0.985  16.500  1.00  0.00     0.210 HD
ENDBRANCH   9  11
ENDBRANCH   1   9
TORSDOF 2
ENDMDL
MODEL 2
REMARK VINA RESULT: -4.336585173      1.579      3.194
REMARK  2 active torsions:
REMARK  status: ('A' for Active; 'I' for Inactive)
REMARK    1  A    between atoms: C2_2  and  O1_3 
REMARK    2  A    between atoms: C2_2  and  C3_5 
ROOT
HETATM    1  C3  UNL     1      33.025  -1.131  13.424  1.00  0.00     0.289 C 
HETATM    2  C4  UNL     1      33.633  -2.494  13.622  1.00  0.00     0.100 C 
HETATM    3  N1  UNL     1      35.031  -2.549  13.505  1.00  0.00    -0.374 N 
HETATM    4  C5  UNL     1      35.487  -3.892  13.176  1.00  0.00     0.154 C 
HETATM    5  C6  UNL     1      35.691  -1.531  12.799  1.00  0.00     0.092 C 
HETATM    6  C7  UNL     1      34.911  -0.416  12.259  1.00  0.00     0.317 C 
HETATM    7  N2  UNL     1      33.489  -0.595  12.199  1.00  0.00     0.101 N 
HETATM    8  C8  UNL     1      32.911   0.657  11.808  1.00  0.00     0.311 C 
ENDROOT
BRANCH   1   9
HETATM    9  C2  UNL     1      31.542  -1.274  13.549  1.00  0.00     0.152 C 
HETATM   10  C1  UNL     1      30.953  -0.546  14.713  1.00  0.00     0.042 C 
BRANCH   9  11
HETATM   11  O1  UNL     1      31.113  -2.593  13.599  1.00  0.00    -0.393 OA
ATOM     12  H1  UNL     1      30.327  -2.671  13.072  1.00  0.00     0.210 HD
ENDBRANCH   9  11
ENDBRANCH   1   9
TORSDOF 2
ENDMDL
MODEL 3
REMARK VINA RESULT: -4.261930569      2.291      4.091
REMARK  2 active torsions:
REMARK  status: ('A' for Active; 'I' for Inactive)
REMARK    1  A    between atoms: C2_2  and  O1_3 
REMARK    2  A    between atoms: C2_2  and  C3_5 
ROOT
HETATM    1  C3  UNL     1      34.475  -2.402  12.335  1.00  0.00     0.289 C 
HETATM    2  C4  UNL     1      33.240  -2.862  13.065  1.00  0.00     0.100 C 
HETATM    3  N1  UNL     1      32.097  -2.072  12.864  1.00  0.00    -0.374 N 
HETATM    4  C5  UNL     1      31.142  -2.228  13.953  1.00  0.00     0.154 C 
HETATM    5  C6  UNL     1      32.258  -0.748  12.427  1.00  0.00     0.092 C 
HETATM    6  C7  UNL     1      33.604  -0.250  12.139  1.00  0.00     0.317 C 
HETATM    7  N2  UNL     1      34.699  -1.036  12.630  1.00  0.00     0.101 N 
HETATM    8  C8  UNL     1      35.907  -0.475  12.100  1.00  0.00     0.311 C 
ENDROOT
BRANCH   1   9
HETATM    9  C2  UNL     1      35.586  -3.334  12.695  1.00  0.00     0.152 C 
HETATM   10  C1  UNL     1      36.189  -4.046  11.527  1.00  0.00     0.042 C 
BRANCH   9  11
HETATM   11  O1  UNL     1      35.233  -4.281  13.646  1.00  0.00    -0.393 OA
ATOM     12  H1  UNL     1      34.440  -3.987  14.079  1.00  0.00     0.210 HD
ENDBRANCH   9  11
ENDBRANCH   1   9
TORSDOF 2
ENDMDL
MODEL 4
REMARK VINA RESULT: -4.258531521      1.547      2.914
REMARK  2 active torsions:
REMARK  status: ('A' for Active; 'I' for Inactive)
REMARK    1  A    between atoms: C2_2  and  O1_3 
REMARK    2  A    between atoms: C2_2  and  C3_5 
ROOT
HETATM    1  C3  UNL     1      32.655  -0.931  13.039  1.00  0.00     0.289 C 
HETATM    2  C4  UNL     1      33.226  -2.255  12.603  1.00  0.00     0.100 C 
HETATM    3  N1  UNL     1      34.496  -2.192  12.006  1.00  0.00    -0.374 N 
HETATM    4  C5  UNL     1      34.745  -3.350  11.159  1.00  0.00     0.154 C 
HETATM    5  C6  UNL     1      34.924  -0.975  11.454  1.00  0.00     0.092 C 
HETATM    6  C7  UNL     1      34.062   0.203  11.569  1.00  0.00     0.317 C 
HETATM    7  N2  UNL     1      32.698  -0.032  11.947  1.00  0.00     0.101 N 
HETATM    8  C8  UNL     1      32.083   1.243  12.167  1.00  0.00     0.311 C 
ENDROOT
BRANCH   1   9
HETATM    9  C2  UNL     1      31.300  -1.191  13.613  1.00  0.00     0.152 C 
HETATM   10  C1  UNL     1      31.061  -0.539  14.937  1.00  0.00     0.042 C 
BRANCH   9  11
HETATM   11  O1  UNL     1      30.994  -2.539  13.731  1.00  0.00    -0.393 OA
ATOM     12  H1  UNL     1      31.752  -2.986  14.089  1.00  0.00     0.210 HD
ENDBRANCH   9  11
ENDBRANCH   1   9
TORSDOF 2
ENDMDL
MODEL 5
REMARK VINA RESULT: -4.238933383      1.932      3.687
REMARK  2 active torsions:
REMARK  status: ('A' for Active; 'I' for Inactive)
REMARK    1  A    between atoms: C2_2  and  O1_3 
REMARK    2  A    between atoms: C2_2  and  C3_5 
ROOT
HETATM    1  C3  UNL     1      33.108  -1.384  11.839  1.00  0.00     0.289 C 
HETATM    2  C4  UNL     1      32.255  -1.501  13.074  1.00  0.00     0.100 C 
HETATM    3  N1  UNL     1      31.382  -0.425  13.303  1.00  0.00    -0.374 N 
HETATM    4  C5  UNL     1      31.006  -0.333  14.708  1.00  0.00     0.154 C 
HETATM    5  C6  UNL     1      31.661   0.811  12.702  1.00  0.00     0.092 C 
HETATM    6  C7  UNL     1      32.816   0.927  11.810  1.00  0.00     0.317 C 
HETATM    7  N2  UNL     1      33.778  -0.137  11.861  1.00  0.00     0.101 N 
HETATM    8  C8  UNL     1      34.722   0.081  10.806  1.00  0.00     0.311 C 
ENDROOT
BRANCH   1   9
HETATM    9  C2  UNL     1      33.988  -2.591  11.781  1.00  0.00     0.152 C 
HETATM   10  C1  UNL     1      34.007  -3.271  10.451  1.00  0.00     0.042 C 
BRANCH   9  11
HETATM   11  O1  UNL     1      33.695  -3.541  12.750  1.00  0.00    -0.393 OA
ATOM     12  H1  UNL     1      33.208  -4.245  12.340  1.00  0.00     0.210 HD
ENDBRANCH   9  11
ENDBRANCH   1   9
TORSDOF 2
ENDMDL
