MODEL 1
REMARK VINA RESULT: -4.758328138      0.000      0.000
REMARK  1 active torsions:
REMARK  status: ('A' for Active; 'I' for Inactive)
REMARK    1  A    between atoms: N2_10  and  C7_11 
ROOT
HETATM    1  C1  UNL     1      31.033  -2.109  14.007  1.00  0.00     0.037 C 
HETATM    2  C2  UNL     1      32.073  -2.702  13.067  1.00  0.00     0.040 C 
HETATM    3  C3  UNL     1      33.249  -1.733  13.093  1.00  0.00     0.249 C 
HETATM    4  C4  UNL     1      33.582  -1.409  14.525  1.00  0.00     0.268 C 
HETATM    5  N1  UNL     1      32.522  -0.688  15.190  1.00  0.00    -0.067 N 
ATOM      6  H11 UNL     1      32.804   0.246  15.488  1.00  0.00     0.277 HD
ATOM      7  H12 UNL     1      32.305  -1.064  16.113  1.00  0.00     0.277 HD
HETATM    8  C5  UNL     1      31.379  -0.671  14.310  1.00  0.00     0.214 C 
HETATM    9  C6  UNL     1      31.771   0.118  13.088  1.00  0.00     0.306 C 
HETATM   10  N2  UNL     1      32.800  -0.558  12.353  1.00  0.00     0.101 N 
ENDROOT
BRANCH  10  11
HETATM   11  C7  UNL     1      33.957   0.244  12.063  1.00  0.00     0.223 A 
HETATM   12  C8  UNL     1      33.905   1.448  11.220  1.00  0.00     0.038 A 
HETATM   13  C9  UNL     1      34.374   0.176  10.592  1.00  0.00     0.038 A 
ENDBRANCH  10  11
TORSDOF 1
ENDMDL
MODEL 2
REMARK VINA RESULT: -4.654034147      1.814      3.802
REMARK  1 active torsions:
REMARK  status: ('A' for Active; 'I' for Inactive)
REMARK    1  A    between atoms: N2_10  and  C7_11 
ROOT
HETATM    1  C1  UNL     1      35.162  -1.842  11.210  1.00  0.00     0.037 C 
HETATM    2  C2  UNL     1      35.436  -1.021  12.462  1.00  0.00     0.040 C 
HETATM    3  C3  UNL     1      34.561  -1.629  13.551  1.00  0.00     0.249 C 
HETATM    4  C4  UNL     1      34.739  -3.123  13.541  1.00  0.00     0.268 C 
HETATM    5  N1  UNL     1      34.252  -3.730  12.324  1.00  0.00    -0.067 N 
ATOM      6  H11 UNL     1      33.477  -4.374  12.485  1.00  0.00     0.277 HD
ATOM      7  H12 UNL     1      34.907  -4.403  11.927  1.00  0.00     0.277 HD
HETATM    8  C5  UNL     1      33.915  -2.671  11.406  1.00  0.00     0.214 C 
HETATM    9  C6  UNL     1      32.776  -1.898  12.018  1.00  0.00     0.306 C 
HETATM   10  N2  UNL     1      33.196  -1.234  13.219  1.00  0.00     0.101 N 
ENDROOT
BRANCH  10  11
HETATM   11  C7  UNL     1      32.374  -1.494  14.367  1.00  0.00     0.223 A 
HETATM   12  C8  UNL     1      30.952  -1.856  14.268  1.00  0.00     0.038 A 
HETATM   13  C9  UNL     1      31.290  -0.434  14.574  1.00  0.00     0.038 A 
ENDBRANCH  10  11
TORSDOF 1
ENDMDL
MODEL 3
REMARK VINA RESULT: -4.409291265      1.558      3.184
REMARK  1 active torsions:
REMARK  status: ('A' for Active; 'I' for Inactive)
REMARK    1  A    between atoms: N2_10  and  C7_11 
ROOT
HETATM    1  C1  UNL     1      33.918  -3.030  11.371  1.00  0.00     0.037 C 
HETATM    2  C2  UNL     1      33.849  -1.558  10.989  1.00  0.00     0.040 C 
HETATM    3  C3  UNL     1      33.670  -0.803  12.300  1.00  0.00     0.249 C 
HETATM    4  C4  UNL     1      34.681  -1.307  13.295  1.00  0.00     0.268 C 
HETATM    5  N1  UNL     1      34.460  -2.689  13.656  1.00  0.00    -0.067 N 
ATOM      6  H11 UNL     1      34.241  -2.809  14.644  1.00  0.00     0.277 HD
ATOM      7  H12 UNL     1      35.316  -3.244  13.637  1.00  0.00     0.277 HD
HETATM    8  C5  UNL     1      33.435  -3.213  12.789  1.00  0.00     0.214 C 
HETATM    9  C6  UNL     1      32.168  -2.455  13.090  1.00  0.00     0.306 C 
HETATM   10  N2  UNL     1      32.300  -1.075  12.722  1.00  0.00     0.101 N 
ENDROOT
BRANCH  10  11
HETATM   11  C7  UNL     1      31.969  -0.142  13.763  1.00  0.00     0.223 A 
HETATM   12  C8  UNL     1      30.704  -0.195  14.512  1.00  0.00     0.038 A 
HETATM   13  C9  UNL     1      30.809   0.782  13.387  1.00  0.00     0.038 A 
ENDBRANCH  10  11
TORSDOF 1
ENDMDL
MODEL 4
REMARK VINA RESULT: -4.343850799      1.848      3.719
REMARK  1 active torsions:
REMARK  status: ('A' for Active; 'I' for Inactive)
REMARK    1  A    between atoms: N2_10  and  C7_11 
ROOT
HETATM    1  C1  UNL     1      36.025  -2.868  13.357  1.00  0.00     0.037 C 
HETATM    2  C2  UNL     1      34.869  -3.251  12.444  1.00  0.00     0.040 C 
HETATM    3  C3  UNL     1      33.936  -2.045  12.437  1.00  0.00     0.249 C 
HETATM    4  C4  UNL     1      34.749  -0.803  12.191  1.00  0.00     0.268 C 
HETATM    5  N1  UNL     1      35.671  -0.523  13.268  1.00  0.00    -0.067 N 
ATOM      6  H11 UNL     1      35.474   0.360  13.738  1.00  0.00     0.277 HD
ATOM      7  H12 UNL     1      36.609  -0.295  12.938  1.00  0.00     0.277 HD
HETATM    8  C5  UNL     1      35.655  -1.650  14.167  1.00  0.00     0.214 C 
HETATM    9  C6  UNL     1      34.271  -1.726  14.759  1.00  0.00     0.306 C 
HETATM   10  N2  UNL     1      33.301  -2.037  13.750  1.00  0.00     0.101 N 
ENDROOT
BRANCH  10  11
HETATM   11  C7  UNL     1      32.185  -1.134  13.691  1.00  0.00     0.223 A 
HETATM   12  C8  UNL     1      31.558  -0.557  14.889  1.00  0.00     0.038 A 
HETATM   13  C9  UNL     1      30.899  -1.739  14.258  1.00  0.00     0.038 A 
ENDBRANCH  10  11
TORSDOF 1
ENDMDL
MODEL 5
REMARK VINA RESULT: -4.321853486      1.703      2.752
REMARK  1 active torsions:
REMARK  status: ('A' for Active; 'I' for Inactive)
REMARK    1  A    between atoms: N2_10  and  C7_11 
ROOT
HETATM    1  C1  UNL     1      31.230  -0.131  13.927  1.00  0.00     0.037 C 
HETATM    2  C2  UNL     1      32.000   0.217  12.662  1.00  0.00     0.040 C 
HETATM    3  C3  UNL     1      32.754  -1.051  12.279  1.00  0.00     0.249 C 
HETATM    4  C4  UNL     1      31.801  -2.215  12.320  1.00  0.00     0.268 C 
HETATM    5  N1  UNL     1      31.317  -2.487  13.654  1.00  0.00    -0.067 N 
ATOM      6  H11 UNL     1      31.593  -3.407  13.996  1.00  0.00     0.277 HD
ATOM      7  H12 UNL     1      30.307  -2.627  13.688  1.00  0.00     0.277 HD
HETATM    8  C5  UNL     1      31.762  -1.417  14.512  1.00  0.00     0.214 C 
HETATM    9  C6  UNL     1      33.267  -1.476  14.552  1.00  0.00     0.306 C 
HETATM   10  N2  UNL     1      33.823  -1.179  13.264  1.00  0.00     0.101 N 
ENDROOT
BRANCH  10  11
HETATM   11  C7  UNL     1      34.754  -2.157  12.773  1.00  0.00     0.223 A 
HETATM   12  C8  UNL     1      35.871  -2.674  13.579  1.00  0.00     0.038 A 
HETATM   13  C9  UNL     1      36.166  -1.594  12.589  1.00  0.00     0.038 A 
ENDBRANCH  10  11
TORSDOF 1
ENDMDL
