MODEL 1
REMARK VINA RESULT: -4.698231160      0.000      0.000
REMARK  1 active torsions:
REMARK  status: ('A' for Active; 'I' for Inactive)
REMARK    1  A    between atoms: N1_3  and  C3_4 
ROOT
HETATM    1  C1  UNL     1      31.097  -1.436  14.456  1.00  0.00     0.038 C 
HETATM    2  C2  UNL     1      31.367  -2.449  13.374  1.00  0.00     0.274 C 
HETATM    3  N1  UNL     1      32.567  -2.082  12.712  1.00  0.00     0.099 N 
HETATM    4  C6  UNL     1      33.042  -0.833  13.184  1.00  0.00     0.254 C 
HETATM    5  C7  UNL     1      33.215   0.151  12.022  1.00  0.00     0.268 C 
HETATM    6  N2  UNL     1      32.220   1.173  12.216  1.00  0.00    -0.073 N 
ATOM      7  H21 UNL     1      31.835   1.519  11.336  1.00  0.00     0.277 HD
ATOM      8  H22 UNL     1      32.618   2.052  12.547  1.00  0.00     0.277 HD
HETATM    9  C8  UNL     1      31.215   0.658  13.092  1.00  0.00     0.239 C 
HETATM   10  C9  UNL     1      31.940  -0.267  14.032  1.00  0.00     0.048 C 
ENDROOT
BRANCH   3  11
HETATM   11  C3  UNL     1      33.523  -3.151  12.669  1.00  0.00     0.223 A 
HETATM   12  C4  UNL     1      34.875  -2.754  12.180  1.00  0.00     0.038 A 
HETATM   13  C5  UNL     1      34.636  -3.188  13.647  1.00  0.00     0.038 A 
ENDBRANCH   3  11
TORSDOF 1
ENDMDL
MODEL 2
REMARK VINA RESULT: -4.548072779      9.720     10.685
REMARK  1 active torsions:
REMARK  status: ('A' for Active; 'I' for Inactive)
REMARK    1  A    between atoms: N1_3  and  C3_4 
ROOT
HETATM    1  C1  UNL     1      25.147  -5.371   7.356  1.00  0.00     0.038 C 
HETATM    2  C2  UNL     1      25.878  -4.111   6.973  1.00  0.00     0.274 C 
HETATM    3  N1  UNL     1      26.615  -4.368   5.788  1.00  0.00     0.099 N 
HETATM    4  C6  UNL     1      26.536  -5.737   5.432  1.00  0.00     0.254 C 
HETATM    5  C7  UNL     1      27.937  -6.343   5.307  1.00  0.00     0.268 C 
HETATM    6  N2  UNL     1      28.060  -7.286   6.388  1.00  0.00    -0.073 N 
ATOM      7  H21 UNL     1      29.004  -7.321   6.775  1.00  0.00     0.277 HD
ATOM      8  H22 UNL     1      28.004  -8.255   6.074  1.00  0.00     0.277 HD
HETATM    9  C8  UNL     1      27.072  -6.968   7.372  1.00  0.00     0.239 C 
HETATM   10  C9  UNL     1      25.898  -6.431   6.601  1.00  0.00     0.048 C 
ENDROOT
BRANCH   3  11
HETATM   11  C3  UNL     1      26.336  -3.422   4.747  1.00  0.00     0.223 A 
HETATM   12  C4  UNL     1      25.523  -2.248   5.178  1.00  0.00     0.038 A 
HETATM   13  C5  UNL     1      27.004  -2.099   4.750  1.00  0.00     0.038 A 
ENDBRANCH   3  11
TORSDOF 1
ENDMDL
MODEL 3
REMARK VINA RESULT: -4.521813818      1.544      3.650
REMARK  1 active torsions:
REMARK  status: ('A' for Active; 'I' for Inactive)
REMARK    1  A    between atoms: N1_3  and  C3_4 
ROOT
HETATM    1  C1  UNL     1      34.501  -3.195  13.744  1.00  0.00     0.038 C 
HETATM    2  C2  UNL     1      33.898  -1.881  14.168  1.00  0.00     0.274 C 
HETATM    3  N1  UNL     1      33.243  -1.310  13.046  1.00  0.00     0.099 N 
HETATM    4  C6  UNL     1      33.480  -2.079  11.879  1.00  0.00     0.254 C 
HETATM    5  C7  UNL     1      34.088  -1.209  10.774  1.00  0.00     0.268 C 
HETATM    6  N2  UNL     1      35.436  -1.683  10.592  1.00  0.00    -0.073 N 
ATOM      7  H21 UNL     1      36.091  -0.932  10.372  1.00  0.00     0.277 HD
ATOM      8  H22 UNL     1      35.551  -2.222   9.734  1.00  0.00     0.277 HD
HETATM    9  C8  UNL     1      35.812  -2.418  11.760  1.00  0.00     0.239 C 
HETATM   10  C9  UNL     1      34.547  -3.070  12.247  1.00  0.00     0.048 C 
ENDROOT
BRANCH   3  11
HETATM   11  C3  UNL     1      31.877  -0.971  13.317  1.00  0.00     0.223 A 
HETATM   12  C4  UNL     1      31.118  -2.008  14.074  1.00  0.00     0.038 A 
HETATM   13  C5  UNL     1      31.459  -0.632  14.698  1.00  0.00     0.038 A 
ENDBRANCH   3  11
TORSDOF 1
ENDMDL
MODEL 4
REMARK VINA RESULT: -4.439513497      9.837     10.625
REMARK  1 active torsions:
REMARK  status: ('A' for Active; 'I' for Inactive)
REMARK    1  A    between atoms: N1_3  and  C3_4 
ROOT
HETATM    1  C1  UNL     1      27.791  -5.507   4.747  1.00  0.00     0.038 C 
HETATM    2  C2  UNL     1      28.472  -6.156   5.924  1.00  0.00     0.274 C 
HETATM    3  N1  UNL     1      27.477  -6.764   6.732  1.00  0.00     0.099 N 
HETATM    4  C6  UNL     1      26.179  -6.455   6.254  1.00  0.00     0.254 C 
HETATM    5  C7  UNL     1      25.338  -5.808   7.358  1.00  0.00     0.268 C 
HETATM    6  N2  UNL     1      25.124  -4.444   6.949  1.00  0.00    -0.073 N 
ATOM      7  H21 UNL     1      25.117  -3.794   7.735  1.00  0.00     0.277 HD
ATOM      8  H22 UNL     1      24.173  -4.276   6.622  1.00  0.00     0.277 HD
HETATM    9  C8  UNL     1      26.111  -4.113   5.968  1.00  0.00     0.239 C 
HETATM   10  C9  UNL     1      26.368  -5.389   5.213  1.00  0.00     0.048 C 
ENDROOT
BRANCH   3  11
HETATM   11  C3  UNL     1      27.746  -8.149   6.991  1.00  0.00     0.223 A 
HETATM   12  C4  UNL     1      26.645  -9.077   6.604  1.00  0.00     0.038 A 
HETATM   13  C5  UNL     1      28.005  -9.075   5.864  1.00  0.00     0.038 A 
ENDBRANCH   3  11
TORSDOF 1
ENDMDL
MODEL 5
REMARK VINA RESULT: -4.436419719      1.443      3.230
REMARK  1 active torsions:
REMARK  status: ('A' for Active; 'I' for Inactive)
REMARK    1  A    between atoms: N1_3  and  C3_4 
ROOT
HETATM    1  C1  UNL     1      34.107  -2.950  11.847  1.00  0.00     0.038 C 
HETATM    2  C2  UNL     1      34.170  -2.468  13.273  1.00  0.00     0.274 C 
HETATM    3  N1  UNL     1      33.365  -1.305  13.384  1.00  0.00     0.099 N 
HETATM    4  C6  UNL     1      32.882  -0.903  12.114  1.00  0.00     0.254 C 
HETATM    5  C7  UNL     1      33.277   0.548  11.822  1.00  0.00     0.268 C 
HETATM    6  N2  UNL     1      34.224   0.492  10.738  1.00  0.00    -0.073 N 
ATOM      7  H21 UNL     1      34.954   1.201  10.816  1.00  0.00     0.277 HD
ATOM      8  H22 UNL     1      33.826   0.800   9.851  1.00  0.00     0.277 HD
HETATM    9  C8  UNL     1      34.751  -0.836  10.675  1.00  0.00     0.239 C 
HETATM   10  C9  UNL     1      33.625  -1.734  11.108  1.00  0.00     0.048 C 
ENDROOT
BRANCH   3  11
HETATM   11  C3  UNL     1      32.392  -1.404  14.432  1.00  0.00     0.223 A 
HETATM   12  C4  UNL     1      31.245  -0.458  14.306  1.00  0.00     0.038 A 
HETATM   13  C5  UNL     1      31.059  -1.988  14.152  1.00  0.00     0.038 A 
ENDBRANCH   3  11
TORSDOF 1
ENDMDL
