MODEL 1
REMARK VINA RESULT: -4.409262903      0.000      0.000
REMARK  1 active torsions:
REMARK  status: ('A' for Active; 'I' for Inactive)
REMARK    1  A    between atoms: C7_9  and  N2_10 
ROOT
HETATM    1  C1  UNL     1      35.664  -2.418  10.758  1.00  0.00     0.031 C 
HETATM    2  C2  UNL     1      34.686  -1.801  11.754  1.00  0.00     0.072 C 
HETATM    3  C3  UNL     1      33.369  -2.470  11.518  1.00  0.00     0.031 C 
HETATM    4  C4  UNL     1      32.320  -2.079  12.513  1.00  0.00     0.029 A 
HETATM    5  C5  UNL     1      32.830  -1.930  13.882  1.00  0.00     0.043 A 
HETATM    6  C6  UNL     1      34.259  -2.327  14.078  1.00  0.00     0.121 C 
HETATM    7  N1  UNL     1      35.168  -1.848  13.093  1.00  0.00    -0.417 N 
ATOM      8  H1  UNL     1      36.114  -1.553  13.333  1.00  0.00     0.153 HD
HETATM    9  C7  UNL     1      32.452  -0.704  13.159  1.00  0.00     0.232 A 
ENDROOT
BRANCH   9  10
HETATM   10  N2  UNL     1      31.181  -0.064  13.369  1.00  0.00     0.085 N 
HETATM   11  C8  UNL     1      31.246   1.241  12.760  1.00  0.00     0.309 C 
HETATM   12  C9  UNL     1      30.761  -0.041  14.746  1.00  0.00     0.309 C 
ENDBRANCH   9  10
TORSDOF 1
ENDMDL
MODEL 2
REMARK VINA RESULT: -4.353875433      1.254      4.428
REMARK  1 active torsions:
REMARK  status: ('A' for Active; 'I' for Inactive)
REMARK    1  A    between atoms: C7_9  and  N2_10 
ROOT
HETATM    1  C1  UNL     1      30.684  -0.534  14.861  1.00  0.00     0.031 C 
HETATM    2  C2  UNL     1      31.910  -0.892  14.025  1.00  0.00     0.072 C 
HETATM    3  C3  UNL     1      31.517  -2.069  13.188  1.00  0.00     0.031 C 
HETATM    4  C4  UNL     1      32.568  -2.468  12.197  1.00  0.00     0.029 A 
HETATM    5  C5  UNL     1      33.260  -1.329  11.580  1.00  0.00     0.043 A 
HETATM    6  C6  UNL     1      32.711   0.018  11.929  1.00  0.00     0.121 C 
HETATM    7  N1  UNL     1      32.428   0.224  13.309  1.00  0.00    -0.417 N 
ATOM      8  H1  UNL     1      32.589   1.124  13.762  1.00  0.00     0.153 HD
HETATM    9  C7  UNL     1      34.015  -2.140  12.548  1.00  0.00     0.232 A 
ENDROOT
BRANCH   9  10
HETATM   10  N2  UNL     1      34.934  -3.162  12.124  1.00  0.00     0.085 N 
HETATM   11  C8  UNL     1      35.565  -3.696  13.305  1.00  0.00     0.309 C 
HETATM   12  C9  UNL     1      35.866  -2.727  11.117  1.00  0.00     0.309 C 
ENDBRANCH   9  10
TORSDOF 1
ENDMDL
MODEL 3
REMARK VINA RESULT: -4.338312376      9.360     10.322
REMARK  1 active torsions:
REMARK  status: ('A' for Active; 'I' for Inactive)
REMARK    1  A    between atoms: C7_9  and  N2_10 
ROOT
HETATM    1  C1  UNL     1      28.442  -8.859   6.565  1.00  0.00     0.031 C 
HETATM    2  C2  UNL     1      27.889  -7.437   6.581  1.00  0.00     0.072 C 
HETATM    3  C3  UNL     1      27.365  -7.175   5.205  1.00  0.00     0.031 C 
HETATM    4  C4  UNL     1      26.654  -5.862   5.081  1.00  0.00     0.029 A 
HETATM    5  C5  UNL     1      25.838  -5.520   6.253  1.00  0.00     0.043 A 
HETATM    6  C6  UNL     1      25.737  -6.588   7.295  1.00  0.00     0.121 C 
HETATM    7  N1  UNL     1      26.964  -7.222   7.642  1.00  0.00    -0.417 N 
ATOM      8  H1  UNL     1      27.169  -7.507   8.599  1.00  0.00     0.153 HD
HETATM    9  C7  UNL     1      27.074  -4.752   6.038  1.00  0.00     0.232 A 
ENDROOT
BRANCH   9  10
HETATM   10  N2  UNL     1      27.060  -3.452   5.422  1.00  0.00     0.085 N 
HETATM   11  C8  UNL     1      28.298  -2.796   5.760  1.00  0.00     0.309 C 
HETATM   12  C9  UNL     1      25.888  -2.673   5.731  1.00  0.00     0.309 C 
ENDBRANCH   9  10
TORSDOF 1
ENDMDL
MODEL 4
REMARK VINA RESULT: -4.303057991      1.684      2.216
REMARK  1 active torsions:
REMARK  status: ('A' for Active; 'I' for Inactive)
REMARK    1  A    between atoms: C7_9  and  N2_10 
ROOT
HETATM    1  C1  UNL     1      34.935  -3.214  13.743  1.00  0.00     0.031 C 
HETATM    2  C2  UNL     1      34.086  -1.954  13.603  1.00  0.00     0.072 C 
HETATM    3  C3  UNL     1      33.151  -2.203  12.462  1.00  0.00     0.031 C 
HETATM    4  C4  UNL     1      32.143  -1.110  12.275  1.00  0.00     0.029 A 
HETATM    5  C5  UNL     1      31.630  -0.556  13.534  1.00  0.00     0.043 A 
HETATM    6  C6  UNL     1      32.083  -1.261  14.773  1.00  0.00     0.121 C 
HETATM    7  N1  UNL     1      33.473  -1.569  14.828  1.00  0.00    -0.417 N 
ATOM      8  H1  UNL     1      34.000  -1.517  15.700  1.00  0.00     0.153 HD
HETATM    9  C7  UNL     1      32.537   0.287  12.739  1.00  0.00     0.232 A 
ENDROOT
BRANCH   9  10
HETATM   10  N2  UNL     1      32.041   1.322  11.872  1.00  0.00     0.085 N 
HETATM   11  C8  UNL     1      33.175   2.081  11.408  1.00  0.00     0.309 C 
HETATM   12  C9  UNL     1      31.005   2.130  12.461  1.00  0.00     0.309 C 
ENDBRANCH   9  10
TORSDOF 1
ENDMDL
MODEL 5
REMARK VINA RESULT: -4.091176004      9.720     10.200
REMARK  1 active torsions:
REMARK  status: ('A' for Active; 'I' for Inactive)
REMARK    1  A    between atoms: C7_9  and  N2_10 
ROOT
HETATM    1  C1  UNL     1      30.361  -7.437   5.235  1.00  0.00     0.031 C 
HETATM    2  C2  UNL     1      29.072  -6.967   5.903  1.00  0.00     0.072 C 
HETATM    3  C3  UNL     1      28.042  -6.893   4.822  1.00  0.00     0.031 C 
HETATM    4  C4  UNL     1      26.668  -6.579   5.333  1.00  0.00     0.029 A 
HETATM    5  C5  UNL     1      26.347  -7.237   6.605  1.00  0.00     0.043 A 
HETATM    6  C6  UNL     1      27.371  -8.209   7.098  1.00  0.00     0.121 C 
HETATM    7  N1  UNL     1      28.721  -7.761   7.032  1.00  0.00    -0.417 N 
ATOM      8  H1  UNL     1      29.402  -7.997   7.755  1.00  0.00     0.153 HD
HETATM    9  C7  UNL     1      26.574  -5.783   6.630  1.00  0.00     0.232 A 
ENDROOT
BRANCH   9  10
HETATM   10  N2  UNL     1      25.482  -4.847   6.629  1.00  0.00     0.085 N 
HETATM   11  C8  UNL     1      26.044  -3.523   6.529  1.00  0.00     0.309 C 
HETATM   12  C9  UNL     1      24.575  -5.009   7.735  1.00  0.00     0.309 C 
ENDBRANCH   9  10
TORSDOF 1
ENDMDL
