MODEL 1
REMARK VINA RESULT: -6.361771089      0.000      0.000
REMARK  2 active torsions:
REMARK  status: ('A' for Active; 'I' for Inactive)
REMARK    1  A    between atoms: C2_2  and  C3_3 
REMARK    2  A    between atoms: C2_2  and  N2_10 
REMARK       I    between atoms: C3_3  and  N1_5 
REMARK       I    between atoms: N1_5  and  C4_7 
ROOT
HETATM    1  N2  UNL     1      -2.481  10.176  26.737  1.00  0.00    -0.235 N 
HETATM    2  N3  UNL     1      -2.708   9.811  27.981  1.00  0.00    -0.245 N 
ATOM      3  H3  UNL     1      -3.225   8.950  28.160  1.00  0.00     0.192 HD
HETATM    4  C5  UNL     1      -2.273  10.550  29.032  1.00  0.00     0.342 A 
HETATM    5  O4  UNL     1      -2.518  10.155  30.217  1.00  0.00    -0.245 OA
HETATM    6  N4  UNL     1      -1.586  11.694  28.848  1.00  0.00    -0.270 N 
ATOM      7  H4  UNL     1      -1.255  12.253  29.634  1.00  0.00     0.174 HD
HETATM    8  C6  UNL     1      -1.357  12.060  27.570  1.00  0.00     0.319 A 
HETATM    9  O5  UNL     1      -0.721  13.118  27.305  1.00  0.00    -0.262 OA
HETATM   10  C7  UNL     1      -1.795  11.316  26.507  1.00  0.00     0.331 A 
HETATM   11  O6  UNL     1      -1.607  11.616  25.304  1.00  0.00    -0.260 OA
ENDROOT
BRANCH   1  12
HETATM   12  C2  UNL     1      -2.962   9.360  25.675  1.00  0.00     0.200 C 
HETATM   13  C1  UNL     1      -4.176   8.585  26.207  1.00  0.00     0.044 C 
BRANCH  12  14
HETATM   14  C3  UNL     1      -2.017   8.401  25.134  1.00  0.00     0.251 C 
HETATM   15  O1  UNL     1      -0.955   8.141  25.740  1.00  0.00    -0.271 OA
HETATM   16  N1  UNL     1      -2.282   7.743  23.910  1.00  0.00    -0.269 N 
HETATM   17  C4  UNL     1      -1.386   6.793  23.333  1.00  0.00     0.290 C 
ATOM     18  H1  UNL     1      -3.149   7.958  23.418  1.00  0.00     0.174 HD
HETATM   19  O2  UNL     1      -0.326   6.527  23.929  1.00  0.00    -0.629 OA
HETATM   20  O3  UNL     1      -1.652   6.154  22.134  1.00  0.00    -0.629 OA
ENDBRANCH  12  14
ENDBRANCH   1  12
TORSDOF 2
ENDMDL
MODEL 2
REMARK VINA RESULT: -6.333224744      4.510      6.935
REMARK  2 active torsions:
REMARK  status: ('A' for Active; 'I' for Inactive)
REMARK    1  A    between atoms: C2_2  and  C3_3 
REMARK    2  A    between atoms: C2_2  and  N2_10 
REMARK       I    between atoms: C3_3  and  N1_5 
REMARK       I    between atoms: N1_5  and  C4_7 
ROOT
HETATM    1  N2  UNL     1       0.737  15.498  29.772  1.00  0.00    -0.235 N 
HETATM    2  N3  UNL     1       1.705  15.361  30.655  1.00  0.00    -0.245 N 
ATOM      3  H3  UNL     1       1.566  14.740  31.452  1.00  0.00     0.192 HD
HETATM    4  C5  UNL     1       2.882  16.023  30.530  1.00  0.00     0.342 A 
HETATM    5  O4  UNL     1       3.788  15.857  31.410  1.00  0.00    -0.245 OA
HETATM    6  N4  UNL     1       3.115  16.852  29.494  1.00  0.00    -0.270 N 
ATOM      7  H4  UNL     1       3.999  17.352  29.395  1.00  0.00     0.174 HD
HETATM    8  C6  UNL     1       2.118  16.987  28.595  1.00  0.00     0.319 A 
HETATM    9  O5  UNL     1       2.250  17.744  27.593  1.00  0.00    -0.262 OA
HETATM   10  C7  UNL     1       0.928  16.320  28.718  1.00  0.00     0.331 A 
HETATM   11  O6  UNL     1      -0.025  16.414  27.909  1.00  0.00    -0.260 OA
ENDROOT
BRANCH   1  12
HETATM   12  C2  UNL     1      -0.476  14.778  29.955  1.00  0.00     0.200 C 
HETATM   13  C1  UNL     1      -0.642  14.536  31.462  1.00  0.00     0.044 C 
BRANCH  12  14
HETATM   14  C3  UNL     1      -0.561  13.496  29.280  1.00  0.00     0.251 C 
HETATM   15  O1  UNL     1       0.041  12.498  29.731  1.00  0.00    -0.271 OA
HETATM   16  N1  UNL     1      -1.327  13.356  28.099  1.00  0.00    -0.269 N 
HETATM   17  C4  UNL     1      -1.443  12.119  27.396  1.00  0.00     0.290 C 
ATOM     18  H1  UNL     1      -1.816  14.172  27.735  1.00  0.00     0.174 HD
HETATM   19  O2  UNL     1      -0.847  11.118  27.837  1.00  0.00    -0.629 OA
HETATM   20  O3  UNL     1      -2.194  11.988  26.241  1.00  0.00    -0.629 OA
ENDBRANCH  12  14
ENDBRANCH   1  12
TORSDOF 2
ENDMDL
MODEL 3
REMARK VINA RESULT: -6.309209270      3.568      7.305
REMARK  2 active torsions:
REMARK  status: ('A' for Active; 'I' for Inactive)
REMARK    1  A    between atoms: C2_2  and  C3_3 
REMARK    2  A    between atoms: C2_2  and  N2_10 
REMARK       I    between atoms: C3_3  and  N1_5 
REMARK       I    between atoms: N1_5  and  C4_7 
ROOT
HETATM    1  N2  UNL     1      -1.444  13.354  28.975  1.00  0.00    -0.235 N 
HETATM    2  N3  UNL     1      -1.406  13.144  27.675  1.00  0.00    -0.245 N 
ATOM      3  H3  UNL     1      -1.173  13.918  27.053  1.00  0.00     0.192 HD
HETATM    4  C5  UNL     1      -1.669  11.924  27.142  1.00  0.00     0.342 A 
HETATM    5  O4  UNL     1      -1.620  11.771  25.879  1.00  0.00    -0.245 OA
HETATM    6  N4  UNL     1      -1.980  10.871  27.922  1.00  0.00    -0.270 N 
ATOM      7  H4  UNL     1      -2.178   9.951  27.526  1.00  0.00     0.174 HD
HETATM    8  C6  UNL     1      -2.017  11.095  29.251  1.00  0.00     0.319 A 
HETATM    9  O5  UNL     1      -2.300  10.163  30.056  1.00  0.00    -0.262 OA
HETATM   10  C7  UNL     1      -1.752  12.324  29.792  1.00  0.00     0.331 A 
HETATM   11  O6  UNL     1      -1.774  12.580  31.020  1.00  0.00    -0.260 OA
ENDROOT
BRANCH   1  12
HETATM   12  C2  UNL     1      -1.159  14.654  29.476  1.00  0.00     0.200 C 
HETATM   13  C1  UNL     1      -2.032  15.648  28.696  1.00  0.00     0.044 C 
BRANCH  12  14
HETATM   14  C3  UNL     1       0.222  15.087  29.369  1.00  0.00     0.251 C 
HETATM   15  O1  UNL     1       1.129  14.480  29.978  1.00  0.00    -0.271 OA
HETATM   16  N1  UNL     1       0.565  16.205  28.573  1.00  0.00    -0.269 N 
HETATM   17  C4  UNL     1       1.906  16.673  28.434  1.00  0.00     0.290 C 
ATOM     18  H1  UNL     1      -0.178  16.698  28.078  1.00  0.00     0.174 HD
HETATM   19  O2  UNL     1       2.817  16.075  29.036  1.00  0.00    -0.629 OA
HETATM   20  O3  UNL     1       2.235  17.768  27.654  1.00  0.00    -0.629 OA
ENDBRANCH  12  14
ENDBRANCH   1  12
TORSDOF 2
ENDMDL
MODEL 4
REMARK VINA RESULT: -5.990242668      4.315      6.713
REMARK  2 active torsions:
REMARK  status: ('A' for Active; 'I' for Inactive)
REMARK    1  A    between atoms: C2_2  and  C3_3 
REMARK    2  A    between atoms: C2_2  and  N2_10 
REMARK       I    between atoms: C3_3  and  N1_5 
REMARK       I    between atoms: N1_5  and  C4_7 
ROOT
HETATM    1  N2  UNL     1       0.377  15.256  29.768  1.00  0.00    -0.235 N 
HETATM    2  N3  UNL     1       1.617  14.915  30.054  1.00  0.00    -0.245 N 
ATOM      3  H3  UNL     1       1.856  13.926  30.130  1.00  0.00     0.192 HD
HETATM    4  C5  UNL     1       2.585  15.845  30.249  1.00  0.00     0.342 A 
HETATM    5  O4  UNL     1       3.769  15.465  30.524  1.00  0.00    -0.245 OA
HETATM    6  N4  UNL     1       2.320  17.163  30.159  1.00  0.00    -0.270 N 
ATOM      7  H4  UNL     1       3.045  17.867  30.304  1.00  0.00     0.174 HD
HETATM    8  C6  UNL     1       1.049  17.503  29.866  1.00  0.00     0.319 A 
HETATM    9  O5  UNL     1       0.711  18.716  29.762  1.00  0.00    -0.262 OA
HETATM   10  C7  UNL     1       0.069  16.567  29.668  1.00  0.00     0.331 A 
HETATM   11  O6  UNL     1      -1.125  16.835  29.395  1.00  0.00    -0.260 OA
ENDROOT
BRANCH   1  12
HETATM   12  C2  UNL     1      -0.596  14.237  29.574  1.00  0.00     0.200 C 
HETATM   13  C1  UNL     1      -0.265  13.096  30.547  1.00  0.00     0.044 C 
BRANCH  12  14
HETATM   14  C3  UNL     1      -0.672  13.680  28.235  1.00  0.00     0.251 C 
HETATM   15  O1  UNL     1       0.123  14.051  27.345  1.00  0.00    -0.271 OA
HETATM   16  N1  UNL     1      -1.650  12.709  27.916  1.00  0.00    -0.269 N 
HETATM   17  C4  UNL     1      -1.770  12.131  26.617  1.00  0.00     0.290 C 
ATOM     18  H1  UNL     1      -2.297  12.410  28.645  1.00  0.00     0.174 HD
HETATM   19  O2  UNL     1      -0.982  12.492  25.723  1.00  0.00    -0.629 OA
HETATM   20  O3  UNL     1      -2.729  11.181  26.311  1.00  0.00    -0.629 OA
ENDBRANCH  12  14
ENDBRANCH   1  12
TORSDOF 2
ENDMDL
MODEL 5
REMARK VINA RESULT: -5.907272252      8.837     11.847
REMARK  2 active torsions:
REMARK  status: ('A' for Active; 'I' for Inactive)
REMARK    1  A    between atoms: C2_2  and  C3_3 
REMARK    2  A    between atoms: C2_2  and  N2_10 
REMARK       I    between atoms: C3_3  and  N1_5 
REMARK       I    between atoms: N1_5  and  C4_7 
ROOT
HETATM    1  N2  UNL     1       2.575  18.353  30.073  1.00  0.00    -0.235 N 
HETATM    2  N3  UNL     1       2.810  17.941  31.302  1.00  0.00    -0.245 N 
ATOM      3  H3  UNL     1       2.893  18.629  32.050  1.00  0.00     0.192 HD
HETATM    4  C5  UNL     1       2.943  16.624  31.599  1.00  0.00     0.342 A 
HETATM    5  O4  UNL     1       3.169  16.275  32.802  1.00  0.00    -0.245 OA
HETATM    6  N4  UNL     1       2.840  15.677  30.646  1.00  0.00    -0.270 N 
ATOM      7  H4  UNL     1       2.938  14.685  30.864  1.00  0.00     0.174 HD
HETATM    8  C6  UNL     1       2.600  16.108  29.391  1.00  0.00     0.319 A 
HETATM    9  O5  UNL     1       2.488  15.288  28.436  1.00  0.00    -0.262 OA
HETATM   10  C7  UNL     1       2.465  17.437  29.088  1.00  0.00     0.331 A 
HETATM   11  O6  UNL     1       2.241  17.884  27.938  1.00  0.00    -0.260 OA
ENDROOT
BRANCH   1  12
HETATM   12  C2  UNL     1       2.445  19.748  29.822  1.00  0.00     0.200 C 
HETATM   13  C1  UNL     1       3.319  20.482  30.849  1.00  0.00     0.044 C 
BRANCH  12  14
HETATM   14  C3  UNL     1       1.099  20.285  29.909  1.00  0.00     0.251 C 
HETATM   15  O1  UNL     1       0.180  19.619  30.434  1.00  0.00    -0.271 OA
HETATM   16  N1  UNL     1       0.806  21.571  29.400  1.00  0.00    -0.269 N 
HETATM   17  C4  UNL     1      -0.500  22.147  29.459  1.00  0.00     0.290 C 
ATOM     18  H1  UNL     1       1.558  22.111  28.973  1.00  0.00     0.174 HD
HETATM   19  O2  UNL     1      -1.422  21.492  29.980  1.00  0.00    -0.629 OA
HETATM   20  O3  UNL     1      -0.781  23.406  28.959  1.00  0.00    -0.629 OA
ENDBRANCH  12  14
ENDBRANCH   1  12
TORSDOF 2
ENDMDL
