MODEL 1
REMARK VINA RESULT: -5.602036468      0.000      0.000
REMARK  3 active torsions:
REMARK  status: ('A' for Active; 'I' for Inactive)
REMARK    1  A    between atoms: S1_2  and  N1_5 
REMARK       I    between atoms: N1_5  and  C2_7 
REMARK    2  A    between atoms: C2_7  and  C3_9 
REMARK    3  A    between atoms: C4_10  and  O4_11 
ROOT
HETATM    1  C3  UNL     1      -1.505  12.100  27.875  1.00  0.00     0.151 A 
HETATM    2  C4  UNL     1      -2.223  11.442  28.889  1.00  0.00     0.165 A 
HETATM    3  N2  UNL     1      -3.152  10.556  28.507  1.00  0.00    -0.288 N 
ATOM      4  H2  UNL     1      -3.683  10.070  29.230  1.00  0.00     0.172 HD
HETATM    5  C5  UNL     1      -3.422  10.272  27.218  1.00  0.00     0.329 A 
HETATM    6  O5  UNL     1      -4.326   9.412  26.933  1.00  0.00    -0.247 OA
HETATM    7  N3  UNL     1      -2.758  10.878  26.223  1.00  0.00    -0.274 N 
ATOM      8  H3  UNL     1      -2.956  10.670  25.244  1.00  0.00     0.173 HD
HETATM    9  C6  UNL     1      -1.809  11.784  26.581  1.00  0.00     0.269 A 
HETATM   10  O6  UNL     1      -1.194  12.344  25.642  1.00  0.00    -0.267 OA
ENDROOT
BRANCH   1  11
HETATM   11  C2  UNL     1      -0.496  13.063  28.245  1.00  0.00     0.274 C 
HETATM   12  N1  UNL     1      -0.364  14.400  27.859  1.00  0.00    -0.250 N 
ATOM     13  H1  UNL     1      -1.043  14.823  27.225  1.00  0.00     0.181 HD
HETATM   14  O3  UNL     1       0.408  12.593  29.051  1.00  0.00    -0.266 OA
BRANCH  12  15
HETATM   15  S1  UNL     1       0.959  15.330  28.465  1.00  0.00     0.229 S 
HETATM   16  C1  UNL     1       0.688  15.708  30.174  1.00  0.00     0.186 C 
HETATM   17  O1  UNL     1       1.115  16.611  27.687  1.00  0.00    -0.206 OA
HETATM   18  O2  UNL     1       2.249  14.575  28.369  1.00  0.00    -0.206 OA
ENDBRANCH  12  15
ENDBRANCH   1  11
BRANCH   2  19
HETATM   19  O4  UNL     1      -1.985  11.696  30.236  1.00  0.00    -0.345 OA
ATOM     20  H4  UNL     1      -2.183  11.055  30.908  1.00  0.00     0.219 HD
ENDBRANCH   2  19
TORSDOF 3
ENDMDL
MODEL 2
REMARK VINA RESULT: -5.540011930      2.326      3.620
REMARK  3 active torsions:
REMARK  status: ('A' for Active; 'I' for Inactive)
REMARK    1  A    between atoms: S1_2  and  N1_5 
REMARK       I    between atoms: N1_5  and  C2_7 
REMARK    2  A    between atoms: C2_7  and  C3_9 
REMARK    3  A    between atoms: C4_10  and  O4_11 
ROOT
HETATM    1  C3  UNL     1      -0.473  14.093  29.332  1.00  0.00     0.151 A 
HETATM    2  C4  UNL     1      -0.770  13.292  28.215  1.00  0.00     0.165 A 
HETATM    3  N2  UNL     1      -1.339  12.101  28.449  1.00  0.00    -0.288 N 
ATOM      4  H2  UNL     1      -1.561  11.507  27.650  1.00  0.00     0.172 HD
HETATM    5  C5  UNL     1      -1.634  11.648  29.682  1.00  0.00     0.329 A 
HETATM    6  O5  UNL     1      -2.177  10.498  29.823  1.00  0.00    -0.247 OA
HETATM    7  N3  UNL     1      -1.366  12.383  30.772  1.00  0.00    -0.274 N 
ATOM      8  H3  UNL     1      -1.586  12.048  31.709  1.00  0.00     0.173 HD
HETATM    9  C6  UNL     1      -0.788  13.597  30.566  1.00  0.00     0.269 A 
HETATM   10  O6  UNL     1      -0.542  14.276  31.591  1.00  0.00    -0.267 OA
ENDROOT
BRANCH   1  11
HETATM   11  C2  UNL     1       0.141  15.382  29.124  1.00  0.00     0.274 C 
HETATM   12  N1  UNL     1       1.370  15.863  29.586  1.00  0.00    -0.250 N 
ATOM     13  H1  UNL     1       1.971  15.272  30.160  1.00  0.00     0.181 HD
HETATM   14  O3  UNL     1      -0.573  16.192  28.401  1.00  0.00    -0.266 OA
BRANCH  12  15
HETATM   15  S1  UNL     1       1.859  17.468  29.177  1.00  0.00     0.229 S 
HETATM   16  C1  UNL     1       3.377  17.857  30.002  1.00  0.00     0.186 C 
HETATM   17  O1  UNL     1       0.803  18.467  29.574  1.00  0.00    -0.206 OA
HETATM   18  O2  UNL     1       2.096  17.611  27.705  1.00  0.00    -0.206 OA
ENDBRANCH  12  15
ENDBRANCH   1  11
BRANCH   2  19
HETATM   19  O4  UNL     1      -0.488  13.710  26.919  1.00  0.00    -0.345 OA
ATOM     20  H4  UNL     1      -0.945  13.351  26.168  1.00  0.00     0.219 HD
ENDBRANCH   2  19
TORSDOF 3
ENDMDL
MODEL 3
REMARK VINA RESULT: -5.530076695      3.176      7.231
REMARK  3 active torsions:
REMARK  status: ('A' for Active; 'I' for Inactive)
REMARK    1  A    between atoms: S1_2  and  N1_5 
REMARK       I    between atoms: N1_5  and  C2_7 
REMARK    2  A    between atoms: C2_7  and  C3_9 
REMARK    3  A    between atoms: C4_10  and  O4_11 
ROOT
HETATM    1  C3  UNL     1       1.725  16.326  29.800  1.00  0.00     0.151 A 
HETATM    2  C4  UNL     1       2.643  17.167  29.147  1.00  0.00     0.165 A 
HETATM    3  N2  UNL     1       3.556  17.785  29.907  1.00  0.00    -0.288 N 
ATOM      4  H2  UNL     1       4.230  18.399  29.449  1.00  0.00     0.172 HD
HETATM    5  C5  UNL     1       3.632  17.639  31.244  1.00  0.00     0.329 A 
HETATM    6  O5  UNL     1       4.534  18.265  31.901  1.00  0.00    -0.247 OA
HETATM    7  N3  UNL     1       2.774  16.846  31.903  1.00  0.00    -0.274 N 
ATOM      8  H3  UNL     1       2.824  16.730  32.914  1.00  0.00     0.173 HD
HETATM    9  C6  UNL     1       1.834  16.205  31.157  1.00  0.00     0.269 A 
HETATM   10  O6  UNL     1       1.038  15.466  31.783  1.00  0.00    -0.267 OA
ENDROOT
BRANCH   1  11
HETATM   11  C2  UNL     1       0.723  15.642  29.018  1.00  0.00     0.274 C 
HETATM   12  N1  UNL     1       0.433  14.276  28.949  1.00  0.00    -0.250 N 
ATOM     13  H1  UNL     1       0.968  13.607  29.504  1.00  0.00     0.181 HD
HETATM   14  O3  UNL     1       0.004  16.433  28.280  1.00  0.00    -0.266 OA
BRANCH  12  15
HETATM   15  S1  UNL     1      -0.837  13.731  27.914  1.00  0.00     0.229 S 
HETATM   16  C1  UNL     1      -1.235  12.047  28.294  1.00  0.00     0.186 C 
HETATM   17  O1  UNL     1      -0.432  13.836  26.466  1.00  0.00    -0.206 OA
HETATM   18  O2  UNL     1      -2.083  14.542  28.101  1.00  0.00    -0.206 OA
ENDBRANCH  12  15
ENDBRANCH   1  11
BRANCH   2  19
HETATM   19  O4  UNL     1       2.611  17.353  27.768  1.00  0.00    -0.345 OA
ATOM     20  H4  UNL     1       1.919  16.986  27.231  1.00  0.00     0.219 HD
ENDBRANCH   2  19
TORSDOF 3
ENDMDL
MODEL 4
REMARK VINA RESULT: -5.462169697      2.407      3.834
REMARK  3 active torsions:
REMARK  status: ('A' for Active; 'I' for Inactive)
REMARK    1  A    between atoms: S1_2  and  N1_5 
REMARK       I    between atoms: N1_5  and  C2_7 
REMARK    2  A    between atoms: C2_7  and  C3_9 
REMARK    3  A    between atoms: C4_10  and  O4_11 
ROOT
HETATM    1  C3  UNL     1       0.111  14.201  29.539  1.00  0.00     0.151 A 
HETATM    2  C4  UNL     1      -0.341  13.427  28.456  1.00  0.00     0.165 A 
HETATM    3  N2  UNL     1      -1.162  12.405  28.734  1.00  0.00    -0.288 N 
ATOM      4  H2  UNL     1      -1.499  11.832  27.960  1.00  0.00     0.172 HD
HETATM    5  C5  UNL     1      -1.567  12.095  29.981  1.00  0.00     0.329 A 
HETATM    6  O5  UNL     1      -2.353  11.103  30.165  1.00  0.00    -0.247 OA
HETATM    7  N3  UNL     1      -1.158  12.811  31.039  1.00  0.00    -0.274 N 
ATOM      8  H3  UNL     1      -1.459  12.583  31.986  1.00  0.00     0.173 HD
HETATM    9  C6  UNL     1      -0.322  13.854  30.788  1.00  0.00     0.269 A 
HETATM   10  O6  UNL     1       0.054  14.516  31.784  1.00  0.00    -0.267 OA
ENDROOT
BRANCH   1  11
HETATM   11  C2  UNL     1       0.998  15.311  29.283  1.00  0.00     0.274 C 
HETATM   12  N1  UNL     1       0.822  16.669  29.561  1.00  0.00    -0.250 N 
ATOM     13  H1  UNL     1      -0.035  16.996  30.008  1.00  0.00     0.181 HD
HETATM   14  O3  UNL     1       2.113  14.968  28.710  1.00  0.00    -0.266 OA
BRANCH  12  15
HETATM   15  S1  UNL     1       2.068  17.788  29.141  1.00  0.00     0.229 S 
HETATM   16  C1  UNL     1       1.619  19.412  29.688  1.00  0.00     0.186 C 
HETATM   17  O1  UNL     1       2.292  17.806  27.651  1.00  0.00    -0.206 OA
HETATM   18  O2  UNL     1       3.368  17.435  29.797  1.00  0.00    -0.206 OA
ENDBRANCH  12  15
ENDBRANCH   1  11
BRANCH   2  19
HETATM   19  O4  UNL     1       0.045  13.702  27.148  1.00  0.00    -0.345 OA
ATOM     20  H4  UNL     1      -0.500  13.466  26.407  1.00  0.00     0.219 HD
ENDBRANCH   2  19
TORSDOF 3
ENDMDL
MODEL 5
REMARK VINA RESULT: -5.453109232      2.364      3.800
REMARK  3 active torsions:
REMARK  status: ('A' for Active; 'I' for Inactive)
REMARK    1  A    between atoms: S1_2  and  N1_5 
REMARK       I    between atoms: N1_5  and  C2_7 
REMARK    2  A    between atoms: C2_7  and  C3_9 
REMARK    3  A    between atoms: C4_10  and  O4_11 
ROOT
HETATM    1  C3  UNL     1       0.445  14.035  28.673  1.00  0.00     0.151 A 
HETATM    2  C4  UNL     1      -0.084  14.433  27.433  1.00  0.00     0.165 A 
HETATM    3  N2  UNL     1      -1.027  13.652  26.890  1.00  0.00    -0.288 N 
ATOM      4  H2  UNL     1      -1.422  13.926  25.990  1.00  0.00     0.172 HD
HETATM    5  C5  UNL     1      -1.483  12.524  27.469  1.00  0.00     0.329 A 
HETATM    6  O5  UNL     1      -2.387  11.831  26.886  1.00  0.00    -0.247 OA
HETATM    7  N3  UNL     1      -1.003  12.112  28.652  1.00  0.00    -0.274 N 
ATOM      8  H3  UNL     1      -1.341  11.260  29.098  1.00  0.00     0.173 HD
HETATM    9  C6  UNL     1      -0.043  12.885  29.228  1.00  0.00     0.269 A 
HETATM   10  O6  UNL     1       0.398  12.491  30.334  1.00  0.00    -0.267 OA
ENDROOT
BRANCH   1  11
HETATM   11  C2  UNL     1       1.464  14.848  29.292  1.00  0.00     0.274 C 
HETATM   12  N1  UNL     1       1.460  15.475  30.542  1.00  0.00    -0.250 N 
ATOM     13  H1  UNL     1       0.652  15.388  31.159  1.00  0.00     0.181 HD
HETATM   14  O3  UNL     1       2.526  15.005  28.560  1.00  0.00    -0.266 OA
BRANCH  12  15
HETATM   15  S1  UNL     1       2.836  16.396  31.032  1.00  0.00     0.229 S 
HETATM   16  C1  UNL     1       2.905  17.902  30.101  1.00  0.00     0.186 C 
HETATM   17  O1  UNL     1       4.107  15.616  30.818  1.00  0.00    -0.206 OA
HETATM   18  O2  UNL     1       2.762  16.765  32.482  1.00  0.00    -0.206 OA
ENDBRANCH  12  15
ENDBRANCH   1  11
BRANCH   2  19
HETATM   19  O4  UNL     1       0.349  15.588  26.790  1.00  0.00    -0.345 OA
ATOM     20  H4  UNL     1      -0.264  16.211  26.417  1.00  0.00     0.219 HD
ENDBRANCH   2  19
TORSDOF 3
ENDMDL
