MODEL 1
REMARK VINA RESULT: -5.966001707      0.000      0.000
REMARK  3 active torsions:
REMARK  status: ('A' for Active; 'I' for Inactive)
REMARK    1  A    between atoms: C4_6  and  O2_7 
REMARK    2  A    between atoms: O2_7  and  C5_8 
REMARK    3  A    between atoms: C7_17  and  N5_18 
ROOT
HETATM    1  C5  UNL     1       2.576  16.786  29.271  1.00  0.00     0.208 A 
HETATM    2  N2  UNL     1       1.907  17.768  28.610  1.00  0.00    -0.273 N 
ATOM      3  H2  UNL     1       1.354  17.517  27.790  1.00  0.00     0.189 HD
HETATM    4  N3  UNL     1       1.945  19.030  28.986  1.00  0.00    -0.249 N 
ATOM      5  H3  UNL     1       1.432  19.742  28.465  1.00  0.00     0.192 HD
HETATM    6  C6  UNL     1       2.670  19.362  30.062  1.00  0.00     0.340 A 
HETATM    7  O3  UNL     1       2.719  20.563  30.438  1.00  0.00    -0.245 OA
HETATM    8  N4  UNL     1       3.354  18.433  30.759  1.00  0.00    -0.290 N 
ATOM      9  H4  UNL     1       3.900  18.708  31.577  1.00  0.00     0.172 HD
HETATM   10  C7  UNL     1       3.319  17.155  30.382  1.00  0.00     0.156 A 
ENDROOT
BRANCH   1  11
HETATM   11  O2  UNL     1       2.517  15.472  28.851  1.00  0.00    -0.272 OA
BRANCH  11  12
HETATM   12  C4  UNL     1       1.365  14.700  28.947  1.00  0.00     0.159 A 
HETATM   13  C3  UNL     1       0.895  14.223  30.156  1.00  0.00     0.131 A 
HETATM   14  C2  UNL     1      -0.256  13.458  30.207  1.00  0.00     0.255 A 
HETATM   15  N1  UNL     1      -0.943  13.159  29.092  1.00  0.00    -0.271 N 
HETATM   16  O1  UNL     1      -0.701  13.012  31.315  1.00  0.00    -0.268 OA
HETATM   17  C1  UNL     1      -2.164  12.348  29.129  1.00  0.00     0.164 C 
HETATM   18  C8  UNL     1      -0.467  13.632  27.926  1.00  0.00     0.330 A 
HETATM   19  N6  UNL     1       0.659  14.385  27.849  1.00  0.00    -0.288 N 
HETATM   20  O4  UNL     1      -1.091  13.372  26.848  1.00  0.00    -0.246 OA
ATOM     21  H6  UNL     1       0.975  14.718  26.938  1.00  0.00     0.172 HD
ENDBRANCH  11  12
ENDBRANCH   1  11
BRANCH  10  22
HETATM   22  N5  UNL     1       3.957  16.205  31.014  1.00  0.00    -0.382 N 
ATOM     23  H52 UNL     1       3.546  15.671  31.780  1.00  0.00     0.157 HD
ATOM     24  H51 UNL     1       4.910  16.003  30.710  1.00  0.00     0.157 HD
ENDBRANCH  10  22
TORSDOF 3
ENDMDL
MODEL 2
REMARK VINA RESULT: -5.941151521      2.188      3.170
REMARK  3 active torsions:
REMARK  status: ('A' for Active; 'I' for Inactive)
REMARK    1  A    between atoms: C4_6  and  O2_7 
REMARK    2  A    between atoms: O2_7  and  C5_8 
REMARK    3  A    between atoms: C7_17  and  N5_18 
ROOT
HETATM    1  C5  UNL     1       0.803  14.743  29.572  1.00  0.00     0.208 A 
HETATM    2  N2  UNL     1       1.932  14.677  28.819  1.00  0.00    -0.273 N 
ATOM      3  H2  UNL     1       2.408  13.779  28.726  1.00  0.00     0.189 HD
HETATM    4  N3  UNL     1       2.438  15.727  28.204  1.00  0.00    -0.249 N 
ATOM      5  H3  UNL     1       3.289  15.642  27.648  1.00  0.00     0.192 HD
HETATM    6  C6  UNL     1       1.816  16.907  28.322  1.00  0.00     0.340 A 
HETATM    7  O3  UNL     1       2.282  17.923  27.743  1.00  0.00    -0.245 OA
HETATM    8  N4  UNL     1       0.691  17.035  29.055  1.00  0.00    -0.290 N 
ATOM      9  H4  UNL     1       0.233  17.943  29.132  1.00  0.00     0.172 HD
HETATM   10  C7  UNL     1       0.176  15.975  29.680  1.00  0.00     0.156 A 
ENDROOT
BRANCH   1  11
HETATM   11  O2  UNL     1       0.298  13.624  30.206  1.00  0.00    -0.272 OA
BRANCH  11  12
HETATM   12  C4  UNL     1      -0.638  12.782  29.618  1.00  0.00     0.159 A 
HETATM   13  C3  UNL     1      -1.401  11.896  30.357  1.00  0.00     0.131 A 
HETATM   14  C2  UNL     1      -2.321  11.075  29.732  1.00  0.00     0.255 A 
HETATM   15  N1  UNL     1      -2.500  11.115  28.401  1.00  0.00    -0.271 N 
HETATM   16  O1  UNL     1      -3.031  10.255  30.401  1.00  0.00    -0.268 OA
HETATM   17  C1  UNL     1      -3.471  10.250  27.723  1.00  0.00     0.164 C 
HETATM   18  C8  UNL     1      -1.746  11.983  27.701  1.00  0.00     0.330 A 
HETATM   19  N6  UNL     1      -0.837  12.800  28.290  1.00  0.00    -0.288 N 
HETATM   20  O4  UNL     1      -1.887  12.051  26.439  1.00  0.00    -0.246 OA
ATOM     21  H6  UNL     1      -0.292  13.440  27.711  1.00  0.00     0.172 HD
ENDBRANCH  11  12
ENDBRANCH   1  11
BRANCH  10  22
HETATM   22  N5  UNL     1      -0.911  16.030  30.404  1.00  0.00    -0.382 N 
ATOM     23  H52 UNL     1      -0.985  15.611  31.330  1.00  0.00     0.157 HD
ATOM     24  H51 UNL     1      -1.711  16.521  30.004  1.00  0.00     0.157 HD
ENDBRANCH  10  22
TORSDOF 3
ENDMDL
MODEL 3
REMARK VINA RESULT: -5.917732798      2.206      3.676
REMARK  3 active torsions:
REMARK  status: ('A' for Active; 'I' for Inactive)
REMARK    1  A    between atoms: C4_6  and  O2_7 
REMARK    2  A    between atoms: O2_7  and  C5_8 
REMARK    3  A    between atoms: C7_17  and  N5_18 
ROOT
HETATM    1  C5  UNL     1       0.750  14.693  29.509  1.00  0.00     0.208 A 
HETATM    2  N2  UNL     1       1.895  14.636  28.779  1.00  0.00    -0.273 N 
ATOM      3  H2  UNL     1       2.368  13.738  28.679  1.00  0.00     0.189 HD
HETATM    4  N3  UNL     1       2.419  15.695  28.195  1.00  0.00    -0.249 N 
ATOM      5  H3  UNL     1       3.281  15.617  27.656  1.00  0.00     0.192 HD
HETATM    6  C6  UNL     1       1.800  16.876  28.323  1.00  0.00     0.340 A 
HETATM    7  O3  UNL     1       2.284  17.900  27.773  1.00  0.00    -0.245 OA
HETATM    8  N4  UNL     1       0.660  16.996  29.034  1.00  0.00    -0.290 N 
ATOM      9  H4  UNL     1       0.205  17.905  29.118  1.00  0.00     0.172 HD
HETATM   10  C7  UNL     1       0.127  15.927  29.626  1.00  0.00     0.156 A 
ENDROOT
BRANCH   1  11
HETATM   11  O2  UNL     1       0.226  13.566  30.109  1.00  0.00    -0.272 OA
BRANCH  11  12
HETATM   12  C4  UNL     1      -0.692  12.733  29.481  1.00  0.00     0.159 A 
HETATM   13  C3  UNL     1      -0.901  12.763  28.115  1.00  0.00     0.131 A 
HETATM   14  C2  UNL     1      -1.825  11.917  27.530  1.00  0.00     0.255 A 
HETATM   15  N1  UNL     1      -2.538  11.048  28.265  1.00  0.00    -0.271 N 
HETATM   16  O1  UNL     1      -2.028  11.935  26.271  1.00  0.00    -0.268 OA
HETATM   17  C1  UNL     1      -3.522  10.145  27.660  1.00  0.00     0.164 C 
HETATM   18  C8  UNL     1      -2.319  11.036  29.593  1.00  0.00     0.330 A 
HETATM   19  N6  UNL     1      -1.419  11.855  30.192  1.00  0.00    -0.288 N 
HETATM   20  O4  UNL     1      -2.974  10.226  30.324  1.00  0.00    -0.246 OA
ATOM     21  H6  UNL     1      -1.292  11.804  31.203  1.00  0.00     0.172 HD
ENDBRANCH  11  12
ENDBRANCH   1  11
BRANCH  10  22
HETATM   22  N5  UNL     1      -0.975  15.974  30.328  1.00  0.00    -0.382 N 
ATOM     23  H52 UNL     1      -1.435  16.847  30.585  1.00  0.00     0.157 HD
ATOM     24  H51 UNL     1      -1.378  15.083  30.620  1.00  0.00     0.157 HD
ENDBRANCH  10  22
TORSDOF 3
ENDMDL
MODEL 4
REMARK VINA RESULT: -5.916730641      0.653      1.859
REMARK  3 active torsions:
REMARK  status: ('A' for Active; 'I' for Inactive)
REMARK    1  A    between atoms: C4_6  and  O2_7 
REMARK    2  A    between atoms: O2_7  and  C5_8 
REMARK    3  A    between atoms: C7_17  and  N5_18 
ROOT
HETATM    1  C5  UNL     1       2.517  16.633  29.171  1.00  0.00     0.208 A 
HETATM    2  N2  UNL     1       1.904  17.637  28.491  1.00  0.00    -0.273 N 
ATOM      3  H2  UNL     1       1.370  17.407  27.652  1.00  0.00     0.189 HD
HETATM    4  N3  UNL     1       1.970  18.897  28.872  1.00  0.00    -0.249 N 
ATOM      5  H3  UNL     1       1.498  19.626  28.337  1.00  0.00     0.192 HD
HETATM    6  C6  UNL     1       2.668  19.203  29.973  1.00  0.00     0.340 A 
HETATM    7  O3  UNL     1       2.744  20.401  30.355  1.00  0.00    -0.245 OA
HETATM    8  N4  UNL     1       3.299  18.250  30.690  1.00  0.00    -0.290 N 
ATOM      9  H4  UNL     1       3.825  18.506  31.526  1.00  0.00     0.172 HD
HETATM   10  C7  UNL     1       3.234  16.975  30.307  1.00  0.00     0.156 A 
ENDROOT
BRANCH   1  11
HETATM   11  O2  UNL     1       2.430  15.322  28.745  1.00  0.00    -0.272 OA
BRANCH  11  12
HETATM   12  C4  UNL     1       1.267  14.569  28.853  1.00  0.00     0.159 A 
HETATM   13  C3  UNL     1       0.441  14.327  27.771  1.00  0.00     0.131 A 
HETATM   14  C2  UNL     1      -0.708  13.573  27.923  1.00  0.00     0.255 A 
HETATM   15  N1  UNL     1      -1.051  13.058  29.115  1.00  0.00    -0.271 N 
HETATM   16  O1  UNL     1      -1.478  13.342  26.934  1.00  0.00    -0.268 OA
HETATM   17  C1  UNL     1      -2.266  12.257  29.292  1.00  0.00     0.164 C 
HETATM   18  C8  UNL     1      -0.233  13.306  30.155  1.00  0.00     0.330 A 
HETATM   19  N6  UNL     1       0.899  14.043  30.033  1.00  0.00    -0.288 N 
HETATM   20  O4  UNL     1      -0.523  12.835  31.300  1.00  0.00    -0.246 OA
ATOM     21  H6  UNL     1       1.483  14.200  30.854  1.00  0.00     0.172 HD
ENDBRANCH  11  12
ENDBRANCH   1  11
BRANCH  10  22
HETATM   22  N5  UNL     1       3.820  16.003  30.957  1.00  0.00    -0.382 N 
ATOM     23  H52 UNL     1       3.308  15.305  31.496  1.00  0.00     0.157 HD
ATOM     24  H51 UNL     1       4.838  15.959  30.910  1.00  0.00     0.157 HD
ENDBRANCH  10  22
TORSDOF 3
ENDMDL
MODEL 5
REMARK VINA RESULT: -5.849296328      5.846     10.191
REMARK  3 active torsions:
REMARK  status: ('A' for Active; 'I' for Inactive)
REMARK    1  A    between atoms: C4_6  and  O2_7 
REMARK    2  A    between atoms: O2_7  and  C5_8 
REMARK    3  A    between atoms: C7_17  and  N5_18 
ROOT
HETATM    1  C5  UNL     1      -3.223   8.005  24.900  1.00  0.00     0.208 A 
HETATM    2  N2  UNL     1      -1.910   8.110  24.564  1.00  0.00    -0.273 N 
ATOM      3  H2  UNL     1      -1.310   8.721  25.119  1.00  0.00     0.189 HD
HETATM    4  N3  UNL     1      -1.382   7.454  23.551  1.00  0.00    -0.249 N 
ATOM      5  H3  UNL     1      -0.393   7.557  23.325  1.00  0.00     0.192 HD
HETATM    6  C6  UNL     1      -2.167   6.650  22.821  1.00  0.00     0.340 A 
HETATM    7  O3  UNL     1      -1.682   6.014  21.849  1.00  0.00    -0.245 OA
HETATM    8  N4  UNL     1      -3.477   6.505  23.107  1.00  0.00    -0.290 N 
ATOM      9  H4  UNL     1      -4.057   5.887  22.538  1.00  0.00     0.172 HD
HETATM   10  C7  UNL     1      -4.015   7.167  24.131  1.00  0.00     0.156 A 
ENDROOT
BRANCH   1  11
HETATM   11  O2  UNL     1      -3.747   8.707  25.968  1.00  0.00    -0.272 OA
BRANCH  11  12
HETATM   12  C4  UNL     1      -3.045   9.706  26.633  1.00  0.00     0.159 A 
HETATM   13  C3  UNL     1      -2.872   9.698  28.004  1.00  0.00     0.131 A 
HETATM   14  C2  UNL     1      -2.167  10.712  28.626  1.00  0.00     0.255 A 
HETATM   15  N1  UNL     1      -1.634  11.723  27.921  1.00  0.00    -0.271 N 
HETATM   16  O1  UNL     1      -1.999  10.717  29.890  1.00  0.00    -0.268 OA
HETATM   17  C1  UNL     1      -0.883  12.806  28.566  1.00  0.00     0.164 C 
HETATM   18  C8  UNL     1      -1.814  11.711  26.588  1.00  0.00     0.330 A 
HETATM   19  N6  UNL     1      -2.502  10.729  25.953  1.00  0.00    -0.288 N 
HETATM   20  O4  UNL     1      -1.324  12.651  25.885  1.00  0.00    -0.246 OA
ATOM     21  H6  UNL     1      -2.609  10.769  24.940  1.00  0.00     0.172 HD
ENDBRANCH  11  12
ENDBRANCH   1  11
BRANCH  10  22
HETATM   22  N5  UNL     1      -5.276   7.070  24.462  1.00  0.00    -0.382 N 
ATOM     23  H52 UNL     1      -5.716   7.665  25.163  1.00  0.00     0.157 HD
ATOM     24  H51 UNL     1      -5.829   6.358  23.983  1.00  0.00     0.157 HD
ENDBRANCH  10  22
TORSDOF 3
ENDMDL
