MODEL 1
REMARK VINA RESULT: -5.574162197      0.000      0.000
REMARK  3 active torsions:
REMARK  status: ('A' for Active; 'I' for Inactive)
REMARK    1  A    between atoms: C3_8  and  S1_9 
REMARK    2  A    between atoms: S1_9  and  N4_10 
REMARK    3  A    between atoms: C5_18  and  C6_19 
ROOT
HETATM    1  C1  UNL     1      -2.194  10.493  29.738  1.00  0.00     0.071 C 
HETATM    2  C2  UNL     1      -1.475  11.747  29.503  1.00  0.00     0.043 A 
HETATM    3  N1  UNL     1      -0.832  12.438  30.463  1.00  0.00    -0.281 N 
ATOM      4  H1  UNL     1      -0.781  12.160  31.443  1.00  0.00     0.189 HD
HETATM    5  N2  UNL     1      -0.281  13.515  29.963  1.00  0.00    -0.176 N 
HETATM    6  N3  UNL     1       0.444  14.582  30.257  1.00  0.00    -0.251 N 
ATOM      7  H3  UNL     1       0.798  14.815  31.185  1.00  0.00     0.191 HD
HETATM    8  C3  UNL     1       0.644  15.313  29.144  1.00  0.00     0.241 A 
HETATM    9  N5  UNL     1       0.016  14.654  28.169  1.00  0.00    -0.313 N 
ATOM     10  H5  UNL     1      -0.019  14.954  27.195  1.00  0.00     0.170 HD
HETATM   11  C4  UNL     1      -0.560  13.544  28.648  1.00  0.00     0.165 A 
HETATM   12  C5  UNL     1      -1.316  12.432  28.338  1.00  0.00     0.100 A 
ENDROOT
BRANCH   8  13
HETATM   13  S1  UNL     1       1.513  16.799  28.939  1.00  0.00     0.290 S 
HETATM   14  O1  UNL     1       1.744  17.144  27.506  1.00  0.00    -0.198 OA
HETATM   15  O2  UNL     1       0.818  17.919  29.610  1.00  0.00    -0.198 OA
BRANCH  13  16
HETATM   16  N4  UNL     1       3.056  16.603  29.736  1.00  0.00    -0.322 N 
ATOM     17  H42 UNL     1       3.326  15.816  30.326  1.00  0.00     0.169 HD
ATOM     18  H41 UNL     1       3.621  17.418  29.498  1.00  0.00     0.169 HD
ENDBRANCH  13  16
ENDBRANCH   8  13
BRANCH  12  19
HETATM   19  C6  UNL     1      -1.817  12.097  27.029  1.00  0.00     0.270 C 
HETATM   20  N6  UNL     1      -1.098  12.509  25.846  1.00  0.00    -0.057 NA
HETATM   21  O3  UNL     1      -2.866  11.453  26.819  1.00  0.00    -0.271 OA
ENDBRANCH  12  19
TORSDOF 3
ENDMDL
MODEL 2
REMARK VINA RESULT: -5.570148587      1.245      2.485
REMARK  3 active torsions:
REMARK  status: ('A' for Active; 'I' for Inactive)
REMARK    1  A    between atoms: C3_8  and  S1_9 
REMARK    2  A    between atoms: S1_9  and  N4_10 
REMARK    3  A    between atoms: C5_18  and  C6_19 
ROOT
HETATM    1  C1  UNL     1      -2.253  11.157  27.068  1.00  0.00     0.071 C 
HETATM    2  C2  UNL     1      -1.471  12.329  27.468  1.00  0.00     0.043 A 
HETATM    3  N1  UNL     1      -1.044  13.276  26.614  1.00  0.00    -0.281 N 
ATOM      4  H1  UNL     1      -1.220  13.275  25.609  1.00  0.00     0.189 HD
HETATM    5  N2  UNL     1      -0.371  14.201  27.252  1.00  0.00    -0.176 N 
HETATM    6  N3  UNL     1       0.292  15.336  27.106  1.00  0.00    -0.251 N 
ATOM      7  H3  UNL     1       0.435  15.824  26.221  1.00  0.00     0.191 HD
HETATM    8  C3  UNL     1       0.750  15.750  28.302  1.00  0.00     0.241 A 
HETATM    9  N5  UNL     1       0.343  14.828  29.176  1.00  0.00    -0.313 N 
ATOM     10  H5  UNL     1       0.532  14.854  30.178  1.00  0.00     0.170 HD
HETATM   11  C4  UNL     1      -0.350  13.866  28.554  1.00  0.00     0.165 A 
HETATM   12  C5  UNL     1      -1.042  12.682  28.711  1.00  0.00     0.100 A 
ENDROOT
BRANCH   8  13
HETATM   13  S1  UNL     1       1.676  17.159  28.704  1.00  0.00     0.290 S 
HETATM   14  O1  UNL     1       2.196  17.875  27.502  1.00  0.00    -0.198 OA
HETATM   15  O2  UNL     1       0.886  18.096  29.533  1.00  0.00    -0.198 OA
BRANCH  13  16
HETATM   16  N4  UNL     1       3.024  16.625  29.679  1.00  0.00    -0.322 N 
ATOM     17  H42 UNL     1       3.980  16.978  29.619  1.00  0.00     0.169 HD
ATOM     18  H41 UNL     1       2.671  15.905  30.309  1.00  0.00     0.169 HD
ENDBRANCH  13  16
ENDBRANCH   8  13
BRANCH  12  19
HETATM   19  C6  UNL     1      -1.248  11.989  29.958  1.00  0.00     0.270 C 
HETATM   20  N6  UNL     1      -0.669  12.500  31.179  1.00  0.00    -0.057 NA
HETATM   21  O3  UNL     1      -1.913  10.940  30.080  1.00  0.00    -0.271 OA
ENDBRANCH  12  19
TORSDOF 3
ENDMDL
MODEL 3
REMARK VINA RESULT: -5.441342370      1.108      1.247
REMARK  3 active torsions:
REMARK  status: ('A' for Active; 'I' for Inactive)
REMARK    1  A    between atoms: C3_8  and  S1_9 
REMARK    2  A    between atoms: S1_9  and  N4_10 
REMARK    3  A    between atoms: C5_18  and  C6_19 
ROOT
HETATM    1  C1  UNL     1      -2.799  10.510  30.165  1.00  0.00     0.071 C 
HETATM    2  C2  UNL     1      -1.932  11.654  29.874  1.00  0.00     0.043 A 
HETATM    3  N1  UNL     1      -1.499  12.526  30.803  1.00  0.00    -0.281 N 
ATOM      4  H1  UNL     1      -1.728  12.479  31.795  1.00  0.00     0.189 HD
HETATM    5  N2  UNL     1      -0.741  13.443  30.255  1.00  0.00    -0.176 N 
HETATM    6  N3  UNL     1      -0.023  14.525  30.501  1.00  0.00    -0.251 N 
ATOM      7  H3  UNL     1       0.099  14.954  31.419  1.00  0.00     0.191 HD
HETATM    8  C3  UNL     1       0.524  14.976  29.356  1.00  0.00     0.241 A 
HETATM    9  N5  UNL     1       0.112  14.130  28.410  1.00  0.00    -0.313 N 
ATOM     10  H5  UNL     1       0.357  14.200  27.423  1.00  0.00     0.170 HD
HETATM   11  C4  UNL     1      -0.667  13.178  28.939  1.00  0.00     0.165 A 
HETATM   12  C5  UNL     1      -1.415  12.048  28.678  1.00  0.00     0.100 A 
ENDROOT
BRANCH   8  13
HETATM   13  S1  UNL     1       1.548  16.348  29.084  1.00  0.00     0.290 S 
HETATM   14  O1  UNL     1       2.971  16.093  29.457  1.00  0.00    -0.198 OA
HETATM   15  O2  UNL     1       1.480  16.792  27.675  1.00  0.00    -0.198 OA
BRANCH  13  16
HETATM   16  N4  UNL     1       0.926  17.654  30.064  1.00  0.00    -0.322 N 
ATOM     17  H42 UNL     1       0.936  18.643  29.814  1.00  0.00     0.169 HD
ATOM     18  H41 UNL     1       0.556  17.237  30.919  1.00  0.00     0.169 HD
ENDBRANCH  13  16
ENDBRANCH   8  13
BRANCH  12  19
HETATM   19  C6  UNL     1      -1.590  11.437  27.384  1.00  0.00     0.270 C 
HETATM   20  N6  UNL     1      -1.583  12.248  26.189  1.00  0.00    -0.057 NA
HETATM   21  O3  UNL     1      -1.754  10.214  27.199  1.00  0.00    -0.271 OA
ENDBRANCH  12  19
TORSDOF 3
ENDMDL
MODEL 4
REMARK VINA RESULT: -5.422944358      2.528      5.386
REMARK  3 active torsions:
REMARK  status: ('A' for Active; 'I' for Inactive)
REMARK    1  A    between atoms: C3_8  and  S1_9 
REMARK    2  A    between atoms: S1_9  and  N4_10 
REMARK    3  A    between atoms: C5_18  and  C6_19 
ROOT
HETATM    1  C1  UNL     1       0.685  15.745  31.682  1.00  0.00     0.071 C 
HETATM    2  C2  UNL     1       0.113  14.840  30.683  1.00  0.00     0.043 A 
HETATM    3  N1  UNL     1      -0.884  13.973  30.936  1.00  0.00    -0.281 N 
ATOM      4  H1  UNL     1      -1.338  13.859  31.842  1.00  0.00     0.189 HD
HETATM    5  N2  UNL     1      -1.190  13.296  29.858  1.00  0.00    -0.176 N 
HETATM    6  N3  UNL     1      -1.987  12.359  29.372  1.00  0.00    -0.251 N 
ATOM      7  H3  UNL     1      -2.702  11.862  29.904  1.00  0.00     0.191 HD
HETATM    8  C3  UNL     1      -1.712  12.162  28.069  1.00  0.00     0.241 A 
HETATM    9  N5  UNL     1      -0.723  13.010  27.784  1.00  0.00    -0.313 N 
ATOM     10  H5  UNL     1      -0.285  13.105  26.867  1.00  0.00     0.170 HD
HETATM   11  C4  UNL     1      -0.385  13.719  28.868  1.00  0.00     0.165 A 
HETATM   12  C5  UNL     1       0.448  14.698  29.371  1.00  0.00     0.100 A 
ENDROOT
BRANCH   8  13
HETATM   13  S1  UNL     1      -2.437  11.065  26.939  1.00  0.00     0.290 S 
HETATM   14  O1  UNL     1      -3.927  11.044  27.025  1.00  0.00    -0.198 OA
HETATM   15  O2  UNL     1      -2.026  11.380  25.554  1.00  0.00    -0.198 OA
BRANCH  13  16
HETATM   16  N4  UNL     1      -1.820   9.471  27.306  1.00  0.00    -0.322 N 
ATOM     17  H42 UNL     1      -2.240   8.805  27.954  1.00  0.00     0.169 HD
ATOM     18  H41 UNL     1      -0.973   9.343  26.752  1.00  0.00     0.169 HD
ENDBRANCH  13  16
ENDBRANCH   8  13
BRANCH  12  19
HETATM   19  C6  UNL     1       1.459  15.405  28.625  1.00  0.00     0.270 C 
HETATM   20  N6  UNL     1       1.109  16.577  27.857  1.00  0.00    -0.057 NA
HETATM   21  O3  UNL     1       2.663  15.079  28.584  1.00  0.00    -0.271 OA
ENDBRANCH  12  19
TORSDOF 3
ENDMDL
MODEL 5
REMARK VINA RESULT: -5.337688667      2.471      5.742
REMARK  3 active torsions:
REMARK  status: ('A' for Active; 'I' for Inactive)
REMARK    1  A    between atoms: C3_8  and  S1_9 
REMARK    2  A    between atoms: S1_9  and  N4_10 
REMARK    3  A    between atoms: C5_18  and  C6_19 
ROOT
HETATM    1  C1  UNL     1       4.141  17.130  30.832  1.00  0.00     0.071 C 
HETATM    2  C2  UNL     1       3.024  16.373  30.262  1.00  0.00     0.043 A 
HETATM    3  N1  UNL     1       2.727  15.104  30.595  1.00  0.00    -0.281 N 
ATOM      4  H1  UNL     1       3.245  14.545  31.274  1.00  0.00     0.189 HD
HETATM    5  N2  UNL     1       1.680  14.687  29.929  1.00  0.00    -0.176 N 
HETATM    6  N3  UNL     1       0.873  13.657  29.738  1.00  0.00    -0.251 N 
ATOM      7  H3  UNL     1       0.949  12.755  30.210  1.00  0.00     0.191 HD
HETATM    8  C3  UNL     1      -0.064  13.979  28.826  1.00  0.00     0.241 A 
HETATM    9  N5  UNL     1       0.203  15.236  28.473  1.00  0.00    -0.313 N 
ATOM     10  H5  UNL     1      -0.332  15.774  27.791  1.00  0.00     0.170 HD
HETATM   11  C4  UNL     1       1.271  15.694  29.138  1.00  0.00     0.165 A 
HETATM   12  C5  UNL     1       2.110  16.772  29.335  1.00  0.00     0.100 A 
ENDROOT
BRANCH   8  13
HETATM   13  S1  UNL     1      -1.367  13.024  28.195  1.00  0.00     0.290 S 
HETATM   14  O1  UNL     1      -2.710  13.537  28.597  1.00  0.00    -0.198 OA
HETATM   15  O2  UNL     1      -1.294  12.934  26.720  1.00  0.00    -0.198 OA
BRANCH  13  16
HETATM   16  N4  UNL     1      -1.163  11.405  28.818  1.00  0.00    -0.322 N 
ATOM     17  H42 UNL     1      -1.218  10.545  28.271  1.00  0.00     0.169 HD
ATOM     18  H41 UNL     1      -0.981  11.489  29.818  1.00  0.00     0.169 HD
ENDBRANCH  13  16
ENDBRANCH   8  13
BRANCH  12  19
HETATM   19  C6  UNL     1       2.008  18.048  28.673  1.00  0.00     0.270 C 
HETATM   20  N6  UNL     1       1.556  19.211  29.401  1.00  0.00    -0.057 NA
HETATM   21  O3  UNL     1       2.287  18.245  27.473  1.00  0.00    -0.271 OA
ENDBRANCH  12  19
TORSDOF 3
ENDMDL
