MODEL 1
REMARK VINA RESULT: -4.856764817      0.000      0.000
REMARK  6 active torsions:
REMARK  status: ('A' for Active; 'I' for Inactive)
REMARK       I    between atoms: C2_2  and  N1_4 
REMARK    1  A    between atoms: N1_4  and  C3_6 
REMARK    2  A    between atoms: C4_11  and  S1_12 
REMARK    3  A    between atoms: S1_12  and  N4_13 
REMARK    4  A    between atoms: N5_18  and  C5_19 
REMARK    5  A    between atoms: C5_19  and  O4_20 
REMARK    6  A    between atoms: O4_20  and  N6_21 
ROOT
HETATM    1  C3  UNL     1       2.221  15.529  29.013  1.00  0.00     0.705 A 
HETATM    2  N2  UNL     1       1.557  15.746  27.866  1.00  0.00    -0.129 N 
ATOM      3  H2  UNL     1       1.682  16.539  27.237  1.00  0.00     0.205 HD
HETATM    4  N3  UNL     1       0.718  14.751  27.702  1.00  0.00    -0.260 N 
ATOM      5  H3  UNL     1       0.083  14.656  26.909  1.00  0.00     0.190 HD
HETATM    6  C4  UNL     1       0.807  13.856  28.732  1.00  0.00     0.257 A 
HETATM    7  N5  UNL     1       1.752  14.363  29.540  1.00  0.00    -0.128 N 
ENDROOT
BRANCH   6   8
HETATM    8  S1  UNL     1      -0.119  12.382  28.914  1.00  0.00     0.291 S 
HETATM    9  O2  UNL     1       0.814  11.298  29.422  1.00  0.00    -0.198 OA
HETATM   10  O3  UNL     1      -0.581  11.919  27.570  1.00  0.00    -0.198 OA
BRANCH   8  11
HETATM   11  N4  UNL     1      -1.427  12.617  30.022  1.00  0.00    -0.322 N 
ATOM     12  H42 UNL     1      -1.358  12.455  31.027  1.00  0.00     0.169 HD
ATOM     13  H41 UNL     1      -2.262  12.936  29.529  1.00  0.00     0.169 HD
ENDBRANCH   8  11
ENDBRANCH   6   8
BRANCH   7  14
HETATM   14  C5  UNL     1       2.241  13.796  30.787  1.00  0.00     0.352 C 
BRANCH  14  15
HETATM   15  O4  UNL     1       3.640  13.821  30.831  1.00  0.00    -0.267 OA
BRANCH  15  16
HETATM   16  N6  UNL     1       3.977  14.166  32.106  1.00  0.00    -0.309 N 
ATOM     17  H62 UNL     1       3.390  14.678  32.765  1.00  0.00     0.184 HD
ATOM     18  H61 UNL     1       4.920  13.811  32.260  1.00  0.00     0.184 HD
ENDBRANCH  15  16
ENDBRANCH  14  15
ENDBRANCH   7  14
BRANCH   1  19
HETATM   19  N1  UNL     1       3.136  16.265  29.550  1.00  0.00    -0.158 N 
HETATM   20  C2  UNL     1       2.741  17.444  30.242  1.00  0.00     0.232 C 
HETATM   21  C1  UNL     1       3.102  17.638  31.676  1.00  0.00     0.118 C 
HETATM   22  O1  UNL     1       2.084  18.364  29.690  1.00  0.00    -0.273 OA
ATOM     23  H1  UNL     1       4.121  16.006  29.480  1.00  0.00     0.187 HD
ENDBRANCH   1  19
TORSDOF 6
ENDMDL
MODEL 2
REMARK VINA RESULT: -4.792495870      1.685      2.040
REMARK  6 active torsions:
REMARK  status: ('A' for Active; 'I' for Inactive)
REMARK       I    between atoms: C2_2  and  N1_4 
REMARK    1  A    between atoms: N1_4  and  C3_6 
REMARK    2  A    between atoms: C4_11  and  S1_12 
REMARK    3  A    between atoms: S1_12  and  N4_13 
REMARK    4  A    between atoms: N5_18  and  C5_19 
REMARK    5  A    between atoms: C5_19  and  O4_20 
REMARK    6  A    between atoms: O4_20  and  N6_21 
ROOT
HETATM    1  C3  UNL     1       0.266  15.439  29.021  1.00  0.00     0.705 A 
HETATM    2  N2  UNL     1      -1.024  15.661  29.321  1.00  0.00    -0.129 N 
ATOM      3  H2  UNL     1      -1.474  16.572  29.412  1.00  0.00     0.205 HD
HETATM    4  N3  UNL     1      -1.600  14.493  29.475  1.00  0.00    -0.260 N 
ATOM      5  H3  UNL     1      -2.585  14.362  29.708  1.00  0.00     0.190 HD
HETATM    6  C4  UNL     1      -0.709  13.474  29.281  1.00  0.00     0.257 A 
HETATM    7  N5  UNL     1       0.451  14.089  28.999  1.00  0.00    -0.128 N 
ENDROOT
BRANCH   6   8
HETATM    8  S1  UNL     1      -1.049  11.760  29.379  1.00  0.00     0.291 S 
HETATM    9  O2  UNL     1      -0.688  11.130  28.048  1.00  0.00    -0.198 OA
HETATM   10  O3  UNL     1      -2.522  11.556  29.536  1.00  0.00    -0.198 OA
BRANCH   8  11
HETATM   11  N4  UNL     1      -0.139  11.031  30.657  1.00  0.00    -0.322 N 
ATOM     12  H42 UNL     1       0.531  10.274  30.518  1.00  0.00     0.169 HD
ATOM     13  H41 UNL     1      -0.367  11.463  31.553  1.00  0.00     0.169 HD
ENDBRANCH   8  11
ENDBRANCH   6   8
BRANCH   7  14
HETATM   14  C5  UNL     1       1.729  13.462  28.702  1.00  0.00     0.352 C 
BRANCH  14  15
HETATM   15  O4  UNL     1       2.765  14.082  29.412  1.00  0.00    -0.267 OA
BRANCH  15  16
HETATM   16  N6  UNL     1       2.670  13.636  30.697  1.00  0.00    -0.309 N 
ATOM     17  H62 UNL     1       3.229  13.958  31.487  1.00  0.00     0.184 HD
ATOM     18  H61 UNL     1       1.936  12.928  30.701  1.00  0.00     0.184 HD
ENDBRANCH  15  16
ENDBRANCH  14  15
ENDBRANCH   7  14
BRANCH   1  19
HETATM   19  N1  UNL     1       1.188  16.313  28.791  1.00  0.00    -0.158 N 
HETATM   20  C2  UNL     1       1.393  17.350  29.743  1.00  0.00     0.232 C 
HETATM   21  C1  UNL     1       2.726  17.534  30.388  1.00  0.00     0.118 C 
HETATM   22  O1  UNL     1       0.482  18.148  30.081  1.00  0.00    -0.273 OA
ATOM     23  H1  UNL     1       1.757  16.260  27.946  1.00  0.00     0.187 HD
ENDBRANCH   1  19
TORSDOF 6
ENDMDL
MODEL 3
REMARK VINA RESULT: -4.771893270      2.774      5.687
REMARK  6 active torsions:
REMARK  status: ('A' for Active; 'I' for Inactive)
REMARK       I    between atoms: C2_2  and  N1_4 
REMARK    1  A    between atoms: N1_4  and  C3_6 
REMARK    2  A    between atoms: C4_11  and  S1_12 
REMARK    3  A    between atoms: S1_12  and  N4_13 
REMARK    4  A    between atoms: N5_18  and  C5_19 
REMARK    5  A    between atoms: C5_19  and  O4_20 
REMARK    6  A    between atoms: O4_20  and  N6_21 
ROOT
HETATM    1  C3  UNL     1      -0.232  12.652  29.461  1.00  0.00     0.705 A 
HETATM    2  N2  UNL     1       0.945  12.128  29.840  1.00  0.00    -0.129 N 
ATOM      3  H2  UNL     1       1.114  11.159  30.110  1.00  0.00     0.205 HD
HETATM    4  N3  UNL     1       1.836  13.089  29.799  1.00  0.00    -0.260 N 
ATOM      5  H3  UNL     1       2.821  12.973  30.038  1.00  0.00     0.190 HD
HETATM    6  C4  UNL     1       1.273  14.267  29.394  1.00  0.00     0.257 A 
HETATM    7  N5  UNL     1      -0.021  13.971  29.189  1.00  0.00    -0.128 N 
ENDROOT
BRANCH   6   8
HETATM    8  S1  UNL     1       2.095  15.799  29.191  1.00  0.00     0.291 S 
HETATM    9  O2  UNL     1       1.237  16.882  29.818  1.00  0.00    -0.198 OA
HETATM   10  O3  UNL     1       2.166  16.133  27.735  1.00  0.00    -0.198 OA
BRANCH   8  11
HETATM   11  N4  UNL     1       3.654  15.758  29.940  1.00  0.00    -0.322 N 
ATOM     12  H42 UNL     1       3.932  15.067  30.637  1.00  0.00     0.169 HD
ATOM     13  H41 UNL     1       4.242  16.512  29.587  1.00  0.00     0.169 HD
ENDBRANCH   8  11
ENDBRANCH   6   8
BRANCH   7  14
HETATM   14  C5  UNL     1      -1.069  14.872  28.740  1.00  0.00     0.352 C 
BRANCH  14  15
HETATM   15  O4  UNL     1      -1.992  15.115  29.765  1.00  0.00    -0.267 OA
BRANCH  15  16
HETATM   16  N6  UNL     1      -1.734  16.372  30.224  1.00  0.00    -0.309 N 
ATOM     17  H62 UNL     1      -1.540  17.193  29.650  1.00  0.00     0.184 HD
ATOM     18  H61 UNL     1      -1.774  16.320  31.241  1.00  0.00     0.184 HD
ENDBRANCH  15  16
ENDBRANCH  14  15
ENDBRANCH   7  14
BRANCH   1  19
HETATM   19  N1  UNL     1      -1.372  12.053  29.362  1.00  0.00    -0.158 N 
HETATM   20  C2  UNL     1      -1.413  10.770  28.748  1.00  0.00     0.232 C 
HETATM   21  C1  UNL     1      -1.949   9.592  29.490  1.00  0.00     0.118 C 
HETATM   22  O1  UNL     1      -1.011  10.569  27.573  1.00  0.00    -0.273 OA
ATOM     23  H1  UNL     1      -2.223  12.490  29.717  1.00  0.00     0.187 HD
ENDBRANCH   1  19
TORSDOF 6
ENDMDL
MODEL 4
REMARK VINA RESULT: -4.771796195      2.650      4.291
REMARK  6 active torsions:
REMARK  status: ('A' for Active; 'I' for Inactive)
REMARK       I    between atoms: C2_2  and  N1_4 
REMARK    1  A    between atoms: N1_4  and  C3_6 
REMARK    2  A    between atoms: C4_11  and  S1_12 
REMARK    3  A    between atoms: S1_12  and  N4_13 
REMARK    4  A    between atoms: N5_18  and  C5_19 
REMARK    5  A    between atoms: C5_19  and  O4_20 
REMARK    6  A    between atoms: O4_20  and  N6_21 
ROOT
HETATM    1  C3  UNL     1       3.727  16.679  32.097  1.00  0.00     0.705 A 
HETATM    2  N2  UNL     1       4.448  15.570  31.863  1.00  0.00    -0.129 N 
ATOM      3  H2  UNL     1       5.231  15.231  32.422  1.00  0.00     0.205 HD
HETATM    4  N3  UNL     1       3.961  15.003  30.786  1.00  0.00    -0.260 N 
ATOM      5  H3  UNL     1       4.319  14.139  30.377  1.00  0.00     0.190 HD
HETATM    6  C4  UNL     1       2.910  15.719  30.283  1.00  0.00     0.257 A 
HETATM    7  N5  UNL     1       2.782  16.763  31.118  1.00  0.00    -0.128 N 
ENDROOT
BRANCH   6   8
HETATM    8  S1  UNL     1       1.962  15.323  28.866  1.00  0.00     0.291 S 
HETATM    9  O2  UNL     1       2.423  13.972  28.353  1.00  0.00    -0.198 OA
HETATM   10  O3  UNL     1       2.274  16.296  27.775  1.00  0.00    -0.198 OA
BRANCH   8  11
HETATM   11  N4  UNL     1       0.277  15.277  29.254  1.00  0.00    -0.322 N 
ATOM     12  H42 UNL     1      -0.102  14.831  30.090  1.00  0.00     0.169 HD
ATOM     13  H41 UNL     1      -0.270  15.754  28.537  1.00  0.00     0.169 HD
ENDBRANCH   8  11
ENDBRANCH   6   8
BRANCH   7  14
HETATM   14  C5  UNL     1       1.804  17.836  31.042  1.00  0.00     0.352 C 
BRANCH  14  15
HETATM   15  O4  UNL     1       2.386  19.008  30.543  1.00  0.00    -0.267 OA
BRANCH  15  16
HETATM   16  N6  UNL     1       1.904  19.167  29.278  1.00  0.00    -0.309 N 
ATOM     17  H62 UNL     1       1.045  19.652  29.019  1.00  0.00     0.184 HD
ATOM     18  H61 UNL     1       2.570  18.707  28.657  1.00  0.00     0.184 HD
ENDBRANCH  15  16
ENDBRANCH  14  15
ENDBRANCH   7  14
BRANCH   1  19
HETATM   19  N1  UNL     1       3.871  17.531  33.057  1.00  0.00    -0.158 N 
HETATM   20  C2  UNL     1       5.155  18.108  33.264  1.00  0.00     0.232 C 
HETATM   21  C1  UNL     1       5.337  19.588  33.218  1.00  0.00     0.118 C 
HETATM   22  O1  UNL     1       6.180  17.415  33.495  1.00  0.00    -0.273 OA
ATOM     23  H1  UNL     1       3.082  17.784  33.652  1.00  0.00     0.187 HD
ENDBRANCH   1  19
TORSDOF 6
ENDMDL
MODEL 5
REMARK VINA RESULT: -4.570402666      2.347      3.212
REMARK  6 active torsions:
REMARK  status: ('A' for Active; 'I' for Inactive)
REMARK       I    between atoms: C2_2  and  N1_4 
REMARK    1  A    between atoms: N1_4  and  C3_6 
REMARK    2  A    between atoms: C4_11  and  S1_12 
REMARK    3  A    between atoms: S1_12  and  N4_13 
REMARK    4  A    between atoms: N5_18  and  C5_19 
REMARK    5  A    between atoms: C5_19  and  O4_20 
REMARK    6  A    between atoms: O4_20  and  N6_21 
ROOT
HETATM    1  C3  UNL     1       1.187  16.906  29.338  1.00  0.00     0.705 A 
HETATM    2  N2  UNL     1       2.169  16.556  28.490  1.00  0.00    -0.129 N 
ATOM      3  H2  UNL     1       2.950  17.143  28.198  1.00  0.00     0.205 HD
HETATM    4  N3  UNL     1       1.938  15.323  28.107  1.00  0.00    -0.260 N 
ATOM      5  H3  UNL     1       2.528  14.801  27.459  1.00  0.00     0.190 HD
HETATM    6  C4  UNL     1       0.804  14.830  28.689  1.00  0.00     0.257 A 
HETATM    7  N5  UNL     1       0.351  15.836  29.454  1.00  0.00    -0.128 N 
ENDROOT
BRANCH   6   8
HETATM    8  S1  UNL     1       0.131  13.229  28.468  1.00  0.00     0.291 S 
HETATM    9  O2  UNL     1       0.245  12.869  26.998  1.00  0.00    -0.198 OA
HETATM   10  O3  UNL     1      -1.335  13.264  28.762  1.00  0.00    -0.198 OA
BRANCH   8  11
HETATM   11  N4  UNL     1       0.976  12.073  29.438  1.00  0.00    -0.322 N 
ATOM     12  H42 UNL     1       0.746  11.871  30.412  1.00  0.00     0.169 HD
ATOM     13  H41 UNL     1       1.724  11.633  28.903  1.00  0.00     0.169 HD
ENDBRANCH   8  11
ENDBRANCH   6   8
BRANCH   7  14
HETATM   14  C5  UNL     1      -0.833  15.836  30.298  1.00  0.00     0.352 C 
BRANCH  14  15
HETATM   15  O4  UNL     1      -1.825  16.669  29.767  1.00  0.00    -0.267 OA
BRANCH  15  16
HETATM   16  N6  UNL     1      -2.706  15.853  29.122  1.00  0.00    -0.309 N 
ATOM     17  H62 UNL     1      -2.739  14.835  29.185  1.00  0.00     0.184 HD
ATOM     18  H61 UNL     1      -3.313  16.462  28.574  1.00  0.00     0.184 HD
ENDBRANCH  15  16
ENDBRANCH  14  15
ENDBRANCH   7  14
BRANCH   1  19
HETATM   19  N1  UNL     1       1.030  18.033  29.947  1.00  0.00    -0.158 N 
HETATM   20  C2  UNL     1       2.173  18.853  30.162  1.00  0.00     0.232 C 
HETATM   21  C1  UNL     1       2.216  20.248  29.632  1.00  0.00     0.118 C 
HETATM   22  O1  UNL     1       3.183  18.454  30.798  1.00  0.00    -0.273 OA
ATOM     23  H1  UNL     1       0.108  18.329  30.267  1.00  0.00     0.187 HD
ENDBRANCH   1  19
TORSDOF 6
ENDMDL
