MODEL 1
REMARK VINA RESULT: -4.817315893      0.000      0.000
REMARK  5 active torsions:
REMARK  status: ('A' for Active; 'I' for Inactive)
REMARK    1  A    between atoms: O1_2  and  C2_3 
REMARK    2  A    between atoms: C5_10  and  N3_11 
REMARK    3  A    between atoms: C5_10  and  N4_15 
REMARK    4  A    between atoms: N4_15  and  C7_18 
REMARK    5  A    between atoms: C8_21  and  O2_22 
ROOT
HETATM    1  C2  UNL     1      -1.396  12.649  30.197  1.00  0.00     0.200 C 
HETATM    2  C3  UNL     1      -0.466  11.483  29.902  1.00  0.00     0.328 C 
HETATM    3  C4  UNL     1      -0.850  10.849  28.648  1.00  0.00     0.095 C 
HETATM    4  N1  UNL     1      -1.162  10.335  27.655  1.00  0.00    -0.195 NA
HETATM    5  N2  UNL     1       0.826  12.118  29.839  1.00  0.00     0.001 N 
ATOM      6  H21 UNL     1       1.551  11.512  29.455  1.00  0.00     0.284 HD
ATOM      7  H22 UNL     1       1.248  12.260  30.757  1.00  0.00     0.284 HD
HETATM    8  C5  UNL     1       0.655  13.356  29.088  1.00  0.00     0.405 C 
HETATM    9  C8  UNL     1      -0.780  13.745  29.383  1.00  0.00     0.237 C 
ENDROOT
BRANCH   1  10
HETATM   10  O1  UNL     1      -1.451  12.984  31.521  1.00  0.00    -0.385 OA
HETATM   11  C1  UNL     1      -2.579  12.498  32.173  1.00  0.00     0.202 C 
ENDBRANCH   1  10
BRANCH   9  12
HETATM   12  O2  UNL     1      -0.774  14.928  30.098  1.00  0.00    -0.387 OA
ATOM     13  H2  UNL     1      -0.834  15.669  29.508  1.00  0.00     0.210 HD
ENDBRANCH   9  12
BRANCH   8  14
HETATM   14  N3  UNL     1       0.808  13.127  27.725  1.00  0.00    -0.022 N 
ATOM     15  H33 UNL     1       1.749  13.358  27.406  1.00  0.00     0.279 HD
ATOM     16  H32 UNL     1       0.812  12.131  27.507  1.00  0.00     0.279 HD
ATOM     17  H31 UNL     1       0.095  13.628  27.194  1.00  0.00     0.279 HD
ENDBRANCH   8  14
BRANCH   8  18
HETATM   18  N4  UNL     1       1.597  14.327  29.570  1.00  0.00    -0.201 N 
HETATM   19  C6  UNL     1       1.930  15.356  28.678  1.00  0.00     0.190 C 
HETATM   20  N5  UNL     1       2.221  16.225  27.943  1.00  0.00    -0.171 NA
BRANCH  18  21
HETATM   21  C7  UNL     1       2.183  14.295  30.845  1.00  0.00     0.200 C 
HETATM   22  N6  UNL     1       1.312  14.406  31.980  1.00  0.00    -0.069 NA
HETATM   23  S1  UNL     1       3.778  14.145  31.163  1.00  0.00    -0.043 SA
ENDBRANCH  18  21
ENDBRANCH   8  18
TORSDOF 5
ENDMDL
MODEL 2
REMARK VINA RESULT: -4.710800066      1.351      2.101
REMARK  5 active torsions:
REMARK  status: ('A' for Active; 'I' for Inactive)
REMARK    1  A    between atoms: O1_2  and  C2_3 
REMARK    2  A    between atoms: C5_10  and  N3_11 
REMARK    3  A    between atoms: C5_10  and  N4_15 
REMARK    4  A    between atoms: N4_15  and  C7_18 
REMARK    5  A    between atoms: C8_21  and  O2_22 
ROOT
HETATM    1  C2  UNL     1      -0.669  12.930  30.626  1.00  0.00     0.200 C 
HETATM    2  C3  UNL     1       0.173  11.815  30.026  1.00  0.00     0.328 C 
HETATM    3  C4  UNL     1      -0.459  11.317  28.811  1.00  0.00     0.095 C 
HETATM    4  N1  UNL     1      -0.966  10.911  27.850  1.00  0.00    -0.195 NA
HETATM    5  N2  UNL     1       1.432  12.469  29.778  1.00  0.00     0.001 N 
ATOM      6  H21 UNL     1       2.061  11.919  29.193  1.00  0.00     0.284 HD
ATOM      7  H22 UNL     1       2.029  12.516  30.604  1.00  0.00     0.284 HD
HETATM    8  C5  UNL     1       1.126  13.780  29.216  1.00  0.00     0.405 C 
HETATM    9  C8  UNL     1      -0.217  14.116  29.830  1.00  0.00     0.237 C 
ENDROOT
BRANCH   1  10
HETATM   10  O1  UNL     1      -0.457  13.117  31.962  1.00  0.00    -0.385 OA
HETATM   11  C1  UNL     1      -1.604  12.968  32.736  1.00  0.00     0.202 C 
ENDBRANCH   1  10
BRANCH   9  12
HETATM   12  O2  UNL     1      -0.059  15.213  30.656  1.00  0.00    -0.387 OA
ATOM     13  H2  UNL     1       0.842  15.274  30.953  1.00  0.00     0.210 HD
ENDBRANCH   9  12
BRANCH   8  14
HETATM   14  N3  UNL     1       1.004  13.704  27.833  1.00  0.00    -0.022 N 
ATOM     15  H33 UNL     1       1.556  14.421  27.364  1.00  0.00     0.279 HD
ATOM     16  H32 UNL     1       1.472  12.880  27.457  1.00  0.00     0.279 HD
ATOM     17  H31 UNL     1       0.022  13.740  27.557  1.00  0.00     0.279 HD
ENDBRANCH   8  14
BRANCH   8  18
HETATM   18  N4  UNL     1       2.155  14.705  29.606  1.00  0.00    -0.201 N 
HETATM   19  C6  UNL     1       3.120  14.210  30.494  1.00  0.00     0.190 C 
HETATM   20  N5  UNL     1       3.937  13.814  31.239  1.00  0.00    -0.171 NA
BRANCH  18  21
HETATM   21  C7  UNL     1       2.235  16.032  29.158  1.00  0.00     0.200 C 
HETATM   22  N6  UNL     1       2.156  16.262  27.744  1.00  0.00    -0.069 NA
HETATM   23  S1  UNL     1       2.415  17.352  30.102  1.00  0.00    -0.043 SA
ENDBRANCH  18  21
ENDBRANCH   8  18
TORSDOF 5
ENDMDL
MODEL 3
REMARK VINA RESULT: -4.635269344      2.295      3.114
REMARK  5 active torsions:
REMARK  status: ('A' for Active; 'I' for Inactive)
REMARK    1  A    between atoms: O1_2  and  C2_3 
REMARK    2  A    between atoms: C5_10  and  N3_11 
REMARK    3  A    between atoms: C5_10  and  N4_15 
REMARK    4  A    between atoms: N4_15  and  C7_18 
REMARK    5  A    between atoms: C8_21  and  O2_22 
ROOT
HETATM    1  C2  UNL     1       0.268  12.630  28.861  1.00  0.00     0.200 C 
HETATM    2  C3  UNL     1      -0.734  13.617  29.439  1.00  0.00     0.328 C 
HETATM    3  C4  UNL     1      -1.416  13.019  30.579  1.00  0.00     0.095 C 
HETATM    4  N1  UNL     1      -1.969  12.540  31.480  1.00  0.00    -0.195 NA
HETATM    5  N2  UNL     1       0.098  14.734  29.805  1.00  0.00     0.001 N 
ATOM      6  H21 UNL     1      -0.382  15.417  30.390  1.00  0.00     0.284 HD
ATOM      7  H22 UNL     1       0.302  15.356  29.021  1.00  0.00     0.284 HD
HETATM    8  C5  UNL     1       1.297  14.186  30.428  1.00  0.00     0.405 C 
HETATM    9  C8  UNL     1       1.451  12.837  29.756  1.00  0.00     0.237 C 
ENDROOT
BRANCH   1  10
HETATM   10  O1  UNL     1       0.584  12.874  27.554  1.00  0.00    -0.385 OA
HETATM   11  C1  UNL     1      -0.150  13.911  26.986  1.00  0.00     0.202 C 
ENDBRANCH   1  10
BRANCH   9  12
HETATM   12  O2  UNL     1       2.617  12.850  29.013  1.00  0.00    -0.387 OA
ATOM     13  H2  UNL     1       2.495  12.368  28.203  1.00  0.00     0.210 HD
ENDBRANCH   9  12
BRANCH   8  14
HETATM   14  N3  UNL     1       1.101  14.009  31.794  1.00  0.00    -0.022 N 
ATOM     15  H33 UNL     1       1.201  14.885  32.307  1.00  0.00     0.279 HD
ATOM     16  H32 UNL     1       0.125  13.813  32.014  1.00  0.00     0.279 HD
ATOM     17  H31 UNL     1       1.724  13.286  32.155  1.00  0.00     0.279 HD
ENDBRANCH   8  14
BRANCH   8  18
HETATM   18  N4  UNL     1       2.404  15.062  30.162  1.00  0.00    -0.201 N 
HETATM   19  C6  UNL     1       2.335  15.791  28.966  1.00  0.00     0.190 C 
HETATM   20  N5  UNL     1       2.296  16.409  27.969  1.00  0.00    -0.171 NA
BRANCH  18  21
HETATM   21  C7  UNL     1       3.512  15.216  31.009  1.00  0.00     0.200 C 
HETATM   22  N6  UNL     1       4.393  14.093  31.160  1.00  0.00    -0.069 NA
HETATM   23  S1  UNL     1       3.897  16.562  31.848  1.00  0.00    -0.043 SA
ENDBRANCH  18  21
ENDBRANCH   8  18
TORSDOF 5
ENDMDL
MODEL 4
REMARK VINA RESULT: -4.610324073      2.972      5.044
REMARK  5 active torsions:
REMARK  status: ('A' for Active; 'I' for Inactive)
REMARK    1  A    between atoms: O1_2  and  C2_3 
REMARK    2  A    between atoms: C5_10  and  N3_11 
REMARK    3  A    between atoms: C5_10  and  N4_15 
REMARK    4  A    between atoms: N4_15  and  C7_18 
REMARK    5  A    between atoms: C8_21  and  O2_22 
ROOT
HETATM    1  C2  UNL     1       1.846  17.470  29.928  1.00  0.00     0.200 C 
HETATM    2  C3  UNL     1       0.878  17.198  31.068  1.00  0.00     0.328 C 
HETATM    3  C4  UNL     1      -0.413  17.808  30.777  1.00  0.00     0.095 C 
HETATM    4  N1  UNL     1      -1.438  18.304  30.552  1.00  0.00    -0.195 NA
HETATM    5  N2  UNL     1       0.825  15.759  31.101  1.00  0.00     0.001 N 
ATOM      6  H21 UNL     1       0.068  15.399  31.683  1.00  0.00     0.284 HD
ATOM      7  H22 UNL     1       1.598  15.341  31.619  1.00  0.00     0.284 HD
HETATM    8  C5  UNL     1       0.750  15.305  29.717  1.00  0.00     0.405 C 
HETATM    9  C8  UNL     1       1.485  16.389  28.956  1.00  0.00     0.237 C 
ENDROOT
BRANCH   1  10
HETATM   10  O1  UNL     1       3.160  17.389  30.295  1.00  0.00    -0.385 OA
HETATM   11  C1  UNL     1       3.466  18.123  31.437  1.00  0.00     0.202 C 
ENDBRANCH   1  10
BRANCH   9  12
HETATM   12  O2  UNL     1       2.627  15.839  28.405  1.00  0.00    -0.387 OA
ATOM     13  H2  UNL     1       2.664  14.907  28.587  1.00  0.00     0.210 HD
ENDBRANCH   9  12
BRANCH   8  14
HETATM   14  N3  UNL     1      -0.573  15.247  29.291  1.00  0.00    -0.022 N 
ATOM     15  H33 UNL     1      -1.215  15.100  30.070  1.00  0.00     0.279 HD
ATOM     16  H32 UNL     1      -0.911  16.159  28.983  1.00  0.00     0.279 HD
ATOM     17  H31 UNL     1      -0.687  14.536  28.568  1.00  0.00     0.279 HD
ENDBRANCH   8  14
BRANCH   8  18
HETATM   18  N4  UNL     1       1.395  14.025  29.611  1.00  0.00    -0.201 N 
HETATM   19  C6  UNL     1       2.631  13.905  30.262  1.00  0.00     0.190 C 
HETATM   20  N5  UNL     1       3.668  13.787  30.801  1.00  0.00    -0.171 NA
BRANCH  18  21
HETATM   21  C7  UNL     1       0.869  12.930  28.909  1.00  0.00     0.200 C 
HETATM   22  N6  UNL     1       0.607  13.102  27.509  1.00  0.00    -0.069 NA
HETATM   23  S1  UNL     1       0.518  11.466  29.542  1.00  0.00    -0.043 SA
ENDBRANCH  18  21
ENDBRANCH   8  18
TORSDOF 5
ENDMDL
MODEL 5
REMARK VINA RESULT: -4.561885752      2.194      3.071
REMARK  5 active torsions:
REMARK  status: ('A' for Active; 'I' for Inactive)
REMARK    1  A    between atoms: O1_2  and  C2_3 
REMARK    2  A    between atoms: C5_10  and  N3_11 
REMARK    3  A    between atoms: C5_10  and  N4_15 
REMARK    4  A    between atoms: N4_15  and  C7_18 
REMARK    5  A    between atoms: C8_21  and  O2_22 
ROOT
HETATM    1  C2  UNL     1      -0.953  11.190  29.612  1.00  0.00     0.200 C 
HETATM    2  C3  UNL     1      -1.955  12.270  29.990  1.00  0.00     0.328 C 
HETATM    3  C4  UNL     1      -2.285  12.165  31.405  1.00  0.00     0.095 C 
HETATM    4  N1  UNL     1      -2.558  12.074  32.529  1.00  0.00    -0.195 NA
HETATM    5  N2  UNL     1      -1.249  13.483  29.666  1.00  0.00     0.001 N 
ATOM      6  H21 UNL     1      -1.698  14.319  30.039  1.00  0.00     0.284 HD
ATOM      7  H22 UNL     1      -1.310  13.731  28.678  1.00  0.00     0.284 HD
HETATM    8  C5  UNL     1       0.123  13.313  30.131  1.00  0.00     0.405 C 
HETATM    9  C8  UNL     1       0.343  11.818  30.024  1.00  0.00     0.237 C 
ENDROOT
BRANCH   1  10
HETATM   10  O1  UNL     1      -0.956  10.884  28.280  1.00  0.00    -0.385 OA
HETATM   11  C1  UNL     1      -1.686   9.741  27.972  1.00  0.00     0.202 C 
ENDBRANCH   1  10
BRANCH   9  12
HETATM   12  O2  UNL     1       1.313  11.585  29.068  1.00  0.00    -0.387 OA
ATOM     13  H2  UNL     1       1.469  12.373  28.560  1.00  0.00     0.210 HD
ENDBRANCH   9  12
BRANCH   8  14
HETATM   14  N3  UNL     1       0.244  13.712  31.457  1.00  0.00    -0.022 N 
ATOM     15  H33 UNL     1       0.233  14.727  31.550  1.00  0.00     0.279 HD
ATOM     16  H32 UNL     1      -0.597  13.500  31.994  1.00  0.00     0.279 HD
ATOM     17  H31 UNL     1       1.077  13.302  31.881  1.00  0.00     0.279 HD
ENDBRANCH   8  14
BRANCH   8  18
HETATM   18  N4  UNL     1       1.001  14.060  29.272  1.00  0.00    -0.201 N 
HETATM   19  C6  UNL     1       0.582  14.206  27.943  1.00  0.00     0.190 C 
HETATM   20  N5  UNL     1       0.247  14.338  26.825  1.00  0.00    -0.171 NA
BRANCH  18  21
HETATM   21  C7  UNL     1       2.216  14.627  29.686  1.00  0.00     0.200 C 
HETATM   22  N6  UNL     1       3.198  13.750  30.257  1.00  0.00    -0.069 NA
HETATM   23  S1  UNL     1       2.622  16.204  29.580  1.00  0.00    -0.043 SA
ENDBRANCH  18  21
ENDBRANCH   8  18
TORSDOF 5
ENDMDL
