MODEL 1
REMARK VINA RESULT: -4.926195832      0.000      0.000
REMARK  4 active torsions:
REMARK  status: ('A' for Active; 'I' for Inactive)
REMARK    1  A    between atoms: O1_2  and  N1_3 
REMARK    2  A    between atoms: N1_3  and  C2_5 
REMARK    3  A    between atoms: C3_10  and  N4_11 
REMARK    4  A    between atoms: C8_19  and  N6_20 
ROOT
HETATM    1  C2  UNL     1       4.098  15.714  31.505  1.00  0.00     0.185 A 
HETATM    2  N2  UNL     1       3.923  16.070  30.200  1.00  0.00    -0.267 N 
ATOM      3  H2  UNL     1       4.466  16.833  29.795  1.00  0.00     0.189 HD
HETATM    4  N3  UNL     1       3.042  15.414  29.468  1.00  0.00    -0.130 N 
ATOM      5  H3  UNL     1       2.926  15.695  28.494  1.00  0.00     0.205 HD
HETATM    6  C3  UNL     1       2.284  14.394  29.928  1.00  0.00     0.696 A 
HETATM    7  N5  UNL     1       2.467  14.055  31.218  1.00  0.00    -0.172 N 
ATOM      8  H5  UNL     1       1.914  13.290  31.605  1.00  0.00     0.186 HD
HETATM    9  C8  UNL     1       3.349  14.682  32.019  1.00  0.00     0.162 A 
ENDROOT
BRANCH   6  10
HETATM   10  N4  UNL     1       1.341  13.717  29.088  1.00  0.00    -0.212 N 
HETATM   11  C4  UNL     1       0.984  12.369  29.434  1.00  0.00     0.167 C 
HETATM   12  C5  UNL     1      -0.296  12.028  28.712  1.00  0.00     0.188 C 
HETATM   13  O2  UNL     1      -0.223  12.333  27.367  1.00  0.00    -0.388 OA
HETATM   14  C6  UNL     1      -0.071  13.653  27.075  1.00  0.00     0.188 C 
HETATM   15  C7  UNL     1       0.820  14.433  27.960  1.00  0.00     0.167 C 
ENDBRANCH   6  10
BRANCH   9  16
HETATM   16  N6  UNL     1       3.530  14.363  33.252  1.00  0.00    -0.382 N 
ATOM     17  H62 UNL     1       4.365  14.620  33.778  1.00  0.00     0.157 HD
ATOM     18  H61 UNL     1       2.798  13.828  33.719  1.00  0.00     0.157 HD
ENDBRANCH   9  16
BRANCH   1  19
HETATM   19  N1  UNL     1       4.930  16.298  32.278  1.00  0.00    -0.247 N 
ATOM     20  H1  UNL     1       5.922  16.145  32.099  1.00  0.00     0.196 HD
BRANCH  19  21
HETATM   21  O1  UNL     1       4.599  17.107  33.319  1.00  0.00    -0.284 OA
HETATM   22  C1  UNL     1       4.696  18.500  33.138  1.00  0.00     0.237 C 
ENDBRANCH  19  21
ENDBRANCH   1  19
TORSDOF 4
ENDMDL
MODEL 2
REMARK VINA RESULT: -4.802514726      0.935      1.547
REMARK  4 active torsions:
REMARK  status: ('A' for Active; 'I' for Inactive)
REMARK    1  A    between atoms: O1_2  and  N1_3 
REMARK    2  A    between atoms: N1_3  and  C2_5 
REMARK    3  A    between atoms: C3_10  and  N4_11 
REMARK    4  A    between atoms: C8_19  and  N6_20 
ROOT
HETATM    1  C2  UNL     1       4.074  15.903  31.634  1.00  0.00     0.185 A 
HETATM    2  N2  UNL     1       4.068  14.543  31.537  1.00  0.00    -0.267 N 
ATOM      3  H2  UNL     1       4.721  13.982  32.085  1.00  0.00     0.189 HD
HETATM    4  N3  UNL     1       3.206  13.961  30.724  1.00  0.00    -0.130 N 
ATOM      5  H3  UNL     1       3.217  12.942  30.666  1.00  0.00     0.205 HD
HETATM    6  C3  UNL     1       2.311  14.629  29.965  1.00  0.00     0.696 A 
HETATM    7  N5  UNL     1       2.329  15.971  30.071  1.00  0.00    -0.172 N 
ATOM      8  H5  UNL     1       1.668  16.514  29.513  1.00  0.00     0.186 HD
HETATM    9  C8  UNL     1       3.181  16.627  30.880  1.00  0.00     0.162 A 
ENDROOT
BRANCH   6  10
HETATM   10  N4  UNL     1       1.397  13.945  29.098  1.00  0.00    -0.212 N 
HETATM   11  C4  UNL     1       1.112  12.566  29.381  1.00  0.00     0.167 C 
HETATM   12  C5  UNL     1      -0.154  12.195  28.649  1.00  0.00     0.188 C 
HETATM   13  O2  UNL     1      -0.108  12.567  27.320  1.00  0.00    -0.388 OA
HETATM   14  C6  UNL     1      -0.026  13.905  27.092  1.00  0.00     0.188 C 
HETATM   15  C7  UNL     1       0.831  14.687  28.009  1.00  0.00     0.167 C 
ENDBRANCH   6  10
BRANCH   9  16
HETATM   16  N6  UNL     1       3.205  17.910  30.987  1.00  0.00    -0.382 N 
ATOM     17  H62 UNL     1       3.127  18.396  31.880  1.00  0.00     0.157 HD
ATOM     18  H61 UNL     1       3.308  18.457  30.133  1.00  0.00     0.157 HD
ENDBRANCH   9  16
BRANCH   1  19
HETATM   19  N1  UNL     1       4.875  16.540  32.397  1.00  0.00    -0.247 N 
ATOM     20  H1  UNL     1       5.780  16.808  32.008  1.00  0.00     0.196 HD
BRANCH  19  21
HETATM   21  O1  UNL     1       4.621  16.891  33.685  1.00  0.00    -0.284 OA
HETATM   22  C1  UNL     1       5.301  18.001  34.221  1.00  0.00     0.237 C 
ENDBRANCH  19  21
ENDBRANCH   1  19
TORSDOF 4
ENDMDL
MODEL 3
REMARK VINA RESULT: -4.788280799      2.194      6.425
REMARK  4 active torsions:
REMARK  status: ('A' for Active; 'I' for Inactive)
REMARK    1  A    between atoms: O1_2  and  N1_3 
REMARK    2  A    between atoms: N1_3  and  C2_5 
REMARK    3  A    between atoms: C3_10  and  N4_11 
REMARK    4  A    between atoms: C8_19  and  N6_20 
ROOT
HETATM    1  C2  UNL     1      -0.323  11.669  28.742  1.00  0.00     0.185 A 
HETATM    2  N2  UNL     1       0.031  12.715  27.941  1.00  0.00    -0.267 N 
ATOM      3  H2  UNL     1      -0.331  12.784  26.990  1.00  0.00     0.189 HD
HETATM    4  N3  UNL     1       0.849  13.637  28.414  1.00  0.00    -0.130 N 
ATOM      5  H3  UNL     1       1.102  14.411  27.799  1.00  0.00     0.205 HD
HETATM    6  C3  UNL     1       1.372  13.619  29.659  1.00  0.00     0.696 A 
HETATM    7  N5  UNL     1       1.014  12.581  30.438  1.00  0.00    -0.172 N 
ATOM      8  H5  UNL     1       1.388  12.529  31.386  1.00  0.00     0.186 HD
HETATM    9  C8  UNL     1       0.184  11.607  30.018  1.00  0.00     0.162 A 
ENDROOT
BRANCH   6  10
HETATM   10  N4  UNL     1       2.258  14.647  30.120  1.00  0.00    -0.212 N 
HETATM   11  C4  UNL     1       3.328  14.264  30.998  1.00  0.00     0.167 C 
HETATM   12  C5  UNL     1       4.350  15.374  30.995  1.00  0.00     0.188 C 
HETATM   13  O2  UNL     1       3.768  16.607  31.215  1.00  0.00    -0.388 OA
HETATM   14  C6  UNL     1       2.894  17.019  30.258  1.00  0.00     0.188 C 
HETATM   15  C7  UNL     1       2.012  15.987  29.673  1.00  0.00     0.167 C 
ENDBRANCH   6  10
BRANCH   9  16
HETATM   16  N6  UNL     1      -0.164  10.612  30.756  1.00  0.00    -0.382 N 
ATOM     17  H62 UNL     1      -1.073  10.155  30.684  1.00  0.00     0.157 HD
ATOM     18  H61 UNL     1       0.508  10.269  31.442  1.00  0.00     0.157 HD
ENDBRANCH   9  16
BRANCH   1  19
HETATM   19  N1  UNL     1      -1.110  10.739  28.360  1.00  0.00    -0.247 N 
ATOM     20  H1  UNL     1      -1.582  10.197  29.084  1.00  0.00     0.196 HD
BRANCH  19  21
HETATM   21  O1  UNL     1      -1.367  10.411  27.066  1.00  0.00    -0.284 OA
HETATM   22  C1  UNL     1      -2.014   9.187  26.804  1.00  0.00     0.237 C 
ENDBRANCH  19  21
ENDBRANCH   1  19
TORSDOF 4
ENDMDL
MODEL 4
REMARK VINA RESULT: -4.655310650      2.663      3.758
REMARK  4 active torsions:
REMARK  status: ('A' for Active; 'I' for Inactive)
REMARK    1  A    between atoms: O1_2  and  N1_3 
REMARK    2  A    between atoms: N1_3  and  C2_5 
REMARK    3  A    between atoms: C3_10  and  N4_11 
REMARK    4  A    between atoms: C8_19  and  N6_20 
ROOT
HETATM    1  C2  UNL     1       1.865  14.577  28.758  1.00  0.00     0.185 A 
HETATM    2  N2  UNL     1       0.802  14.428  27.917  1.00  0.00    -0.267 N 
ATOM      3  H2  UNL     1       0.677  15.058  27.124  1.00  0.00     0.189 HD
HETATM    4  N3  UNL     1      -0.063  13.457  28.142  1.00  0.00    -0.130 N 
ATOM      5  H3  UNL     1      -0.852  13.362  27.502  1.00  0.00     0.205 HD
HETATM    6  C3  UNL     1       0.030  12.582  29.167  1.00  0.00     0.696 A 
HETATM    7  N5  UNL     1       1.084  12.742  29.989  1.00  0.00    -0.172 N 
ATOM      8  H5  UNL     1       1.191  12.103  30.777  1.00  0.00     0.186 HD
HETATM    9  C8  UNL     1       2.003  13.711  29.817  1.00  0.00     0.162 A 
ENDROOT
BRANCH   6  10
HETATM   10  N4  UNL     1      -0.940  11.546  29.365  1.00  0.00    -0.212 N 
HETATM   11  C4  UNL     1      -1.684  11.553  30.594  1.00  0.00     0.167 C 
HETATM   12  C5  UNL     1      -2.903  10.682  30.403  1.00  0.00     0.188 C 
HETATM   13  O2  UNL     1      -2.575   9.450  29.872  1.00  0.00    -0.388 OA
HETATM   14  C6  UNL     1      -2.042   9.476  28.622  1.00  0.00     0.188 C 
HETATM   15  C7  UNL     1      -1.100  10.576  28.322  1.00  0.00     0.167 C 
ENDBRANCH   6  10
BRANCH   9  16
HETATM   16  N6  UNL     1       3.013  13.871  30.597  1.00  0.00    -0.382 N 
ATOM     17  H62 UNL     1       3.082  14.631  31.273  1.00  0.00     0.157 HD
ATOM     18  H61 UNL     1       3.779  13.200  30.529  1.00  0.00     0.157 HD
ENDBRANCH   9  16
BRANCH   1  19
HETATM   19  N1  UNL     1       2.746  15.490  28.608  1.00  0.00    -0.247 N 
ATOM     20  H1  UNL     1       3.316  15.457  27.762  1.00  0.00     0.196 HD
BRANCH  19  21
HETATM   21  O1  UNL     1       2.985  16.501  29.484  1.00  0.00    -0.284 OA
HETATM   22  C1  UNL     1       1.956  17.433  29.725  1.00  0.00     0.237 C 
ENDBRANCH  19  21
ENDBRANCH   1  19
TORSDOF 4
ENDMDL
MODEL 5
REMARK VINA RESULT: -4.630249610      0.968      1.970
REMARK  4 active torsions:
REMARK  status: ('A' for Active; 'I' for Inactive)
REMARK    1  A    between atoms: O1_2  and  N1_3 
REMARK    2  A    between atoms: N1_3  and  C2_5 
REMARK    3  A    between atoms: C3_10  and  N4_11 
REMARK    4  A    between atoms: C8_19  and  N6_20 
ROOT
HETATM    1  C2  UNL     1       4.073  15.922  31.671  1.00  0.00     0.185 A 
HETATM    2  N2  UNL     1       4.092  14.561  31.592  1.00  0.00    -0.267 N 
ATOM      3  H2  UNL     1       4.784  14.022  32.114  1.00  0.00     0.189 HD
HETATM    4  N3  UNL     1       3.204  13.950  30.830  1.00  0.00    -0.130 N 
ATOM      5  H3  UNL     1       3.234  12.931  30.784  1.00  0.00     0.205 HD
HETATM    6  C3  UNL     1       2.258  14.589  30.108  1.00  0.00     0.696 A 
HETATM    7  N5  UNL     1       2.252  15.932  30.196  1.00  0.00    -0.172 N 
ATOM      8  H5  UNL     1       1.553  16.453  29.666  1.00  0.00     0.186 HD
HETATM    9  C8  UNL     1       3.129  16.617  30.954  1.00  0.00     0.162 A 
ENDROOT
BRANCH   6  10
HETATM   10  N4  UNL     1       1.317  13.874  29.297  1.00  0.00    -0.212 N 
HETATM   11  C4  UNL     1       0.725  14.571  28.189  1.00  0.00     0.167 C 
HETATM   12  C5  UNL     1       0.139  13.541  27.254  1.00  0.00     0.188 C 
HETATM   13  O2  UNL     1      -0.657  12.633  27.924  1.00  0.00    -0.388 OA
HETATM   14  C6  UNL     1      -0.016  11.858  28.839  1.00  0.00     0.188 C 
HETATM   15  C7  UNL     1       1.033  12.514  29.649  1.00  0.00     0.167 C 
ENDBRANCH   6  10
BRANCH   9  16
HETATM   16  N6  UNL     1       3.130  17.901  31.044  1.00  0.00    -0.382 N 
ATOM     17  H62 UNL     1       2.835  18.402  31.881  1.00  0.00     0.157 HD
ATOM     18  H61 UNL     1       3.444  18.435  30.233  1.00  0.00     0.157 HD
ENDBRANCH   9  16
BRANCH   1  19
HETATM   19  N1  UNL     1       4.898  16.586  32.385  1.00  0.00    -0.247 N 
ATOM     20  H1  UNL     1       5.787  16.844  31.956  1.00  0.00     0.196 HD
BRANCH  19  21
HETATM   21  O1  UNL     1       4.687  16.977  33.669  1.00  0.00    -0.284 OA
HETATM   22  C1  UNL     1       5.397  18.093  34.153  1.00  0.00     0.237 C 
ENDBRANCH  19  21
ENDBRANCH   1  19
TORSDOF 4
ENDMDL
