MODEL 1
REMARK VINA RESULT: -6.918426003      0.000      0.000
REMARK  8 active torsions:
REMARK  status: ('A' for Active; 'I' for Inactive)
REMARK    1  A    between atoms: C2_2  and  C3_3 
REMARK    2  A    between atoms: C3_3  and  C4_4 
REMARK    3  A    between atoms: C4_4  and  N1_5 
REMARK    4  A    between atoms: N1_5  and  C5_7 
REMARK    5  A    between atoms: C6_10  and  N3_11 
REMARK    6  A    between atoms: N3_11  and  C7_13 
REMARK    7  A    between atoms: C7_13  and  C8_14 
REMARK    8  A    between atoms: N6_24  and  C13_25 
ROOT
HETATM    1  C5  UNL     1      80.621   4.706  26.538  1.00  0.00     0.151 A 
HETATM    2  N2  UNL     1      81.712   5.484  26.236  1.00  0.00    -0.174 N 
ATOM      3  H2  UNL     1      82.040   5.510  25.271  1.00  0.00     0.186 HD
HETATM    4  C6  UNL     1      82.365   6.213  27.155  1.00  0.00     0.681 A 
HETATM    5  N4  UNL     1      81.960   6.203  28.439  1.00  0.00    -0.174 N 
ATOM      6  H4  UNL     1      82.466   6.762  29.126  1.00  0.00     0.186 HD
HETATM    7  C10 UNL     1      80.896   5.470  28.839  1.00  0.00     0.160 A 
HETATM    8  C11 UNL     1      80.251   4.735  27.865  1.00  0.00     0.126 A 
HETATM    9  N5  UNL     1      79.247   4.101  28.484  1.00  0.00    -0.302 N 
ATOM     10  H5  UNL     1      78.573   3.472  28.047  1.00  0.00     0.171 HD
HETATM   11  C12 UNL     1      79.287   4.445  29.792  1.00  0.00     0.331 A 
HETATM   12  O1  UNL     1      78.480   4.014  30.621  1.00  0.00    -0.246 OA
HETATM   13  N6  UNL     1      80.284   5.279  30.035  1.00  0.00    -0.255 N 
ENDROOT
BRANCH   1  14
HETATM   14  N1  UNL     1      80.103   4.078  25.596  1.00  0.00    -0.354 N 
ATOM     15  H1  UNL     1      80.485   3.133  25.558  1.00  0.00     0.166 HD
BRANCH  14  16
HETATM   16  C4  UNL     1      79.177   4.249  24.587  1.00  0.00     0.062 C 
BRANCH  16  17
HETATM   17  C3  UNL     1      77.841   4.832  24.999  1.00  0.00     0.044 C 
BRANCH  17  18
HETATM   18  C2  UNL     1      77.771   6.220  24.348  1.00  0.00     0.001 C 
HETATM   19  C1  UNL     1      76.712   6.248  23.264  1.00  0.00     0.005 C 
ENDBRANCH  17  18
ENDBRANCH  16  17
ENDBRANCH  14  16
ENDBRANCH   1  14
BRANCH   4  20
HETATM   20  N3  UNL     1      83.373   6.900  26.741  1.00  0.00    -0.226 N 
ATOM     21  H3  UNL     1      83.917   6.505  25.975  1.00  0.00     0.177 HD
BRANCH  20  22
HETATM   22  C7  UNL     1      83.800   8.153  27.249  1.00  0.00     0.137 C 
BRANCH  22  23
HETATM   23  C8  UNL     1      82.866   9.228  26.676  1.00  0.00     0.016 C 
HETATM   24  C9  UNL     1      82.110   9.923  27.772  1.00  0.00     0.006 C 
ENDBRANCH  22  23
ENDBRANCH  20  22
ENDBRANCH   4  20
BRANCH  13  25
HETATM   25  C13 UNL     1      80.739   5.920  31.220  1.00  0.00     0.234 C 
HETATM   26  C14 UNL     1      80.098   5.522  32.481  1.00  0.00     0.054 C 
HETATM   27  C15 UNL     1      80.784   4.432  33.269  1.00  0.00     0.006 C 
HETATM   28  C16 UNL     1      82.266   4.836  33.340  1.00  0.00     0.026 C 
HETATM   29  C17 UNL     1      82.706   4.854  31.869  1.00  0.00     0.170 C 
HETATM   30  O2  UNL     1      82.126   5.898  31.215  1.00  0.00    -0.366 OA
ENDBRANCH  13  25
TORSDOF 8
ENDMDL
MODEL 2
REMARK VINA RESULT: -6.887698780      1.001      1.421
REMARK  8 active torsions:
REMARK  status: ('A' for Active; 'I' for Inactive)
REMARK    1  A    between atoms: C2_2  and  C3_3 
REMARK    2  A    between atoms: C3_3  and  C4_4 
REMARK    3  A    between atoms: C4_4  and  N1_5 
REMARK    4  A    between atoms: N1_5  and  C5_7 
REMARK    5  A    between atoms: C6_10  and  N3_11 
REMARK    6  A    between atoms: N3_11  and  C7_13 
REMARK    7  A    between atoms: C7_13  and  C8_14 
REMARK    8  A    between atoms: N6_24  and  C13_25 
ROOT
HETATM    1  C5  UNL     1      80.610   4.751  26.530  1.00  0.00     0.151 A 
HETATM    2  N2  UNL     1      81.667   5.578  26.234  1.00  0.00    -0.174 N 
ATOM      3  H2  UNL     1      81.994   5.623  25.268  1.00  0.00     0.186 HD
HETATM    4  C6  UNL     1      82.289   6.329  27.157  1.00  0.00     0.681 A 
HETATM    5  N4  UNL     1      81.883   6.294  28.440  1.00  0.00    -0.174 N 
ATOM      6  H4  UNL     1      82.365   6.869  29.131  1.00  0.00     0.186 HD
HETATM    7  C10 UNL     1      80.852   5.514  28.835  1.00  0.00     0.160 A 
HETATM    8  C11 UNL     1      80.240   4.757  27.857  1.00  0.00     0.126 A 
HETATM    9  N5  UNL     1      79.263   4.077  28.472  1.00  0.00    -0.302 N 
ATOM     10  H5  UNL     1      78.617   3.422  28.031  1.00  0.00     0.171 HD
HETATM   11  C12 UNL     1      79.289   4.415  29.782  1.00  0.00     0.331 A 
HETATM   12  O1  UNL     1      78.500   3.945  30.608  1.00  0.00    -0.246 OA
HETATM   13  N6  UNL     1      80.248   5.290  30.030  1.00  0.00    -0.255 N 
ENDROOT
BRANCH   1  14
HETATM   14  N1  UNL     1      80.120   4.107  25.585  1.00  0.00    -0.354 N 
ATOM     15  H1  UNL     1      80.564   3.191  25.523  1.00  0.00     0.166 HD
BRANCH  14  16
HETATM   16  C4  UNL     1      79.168   4.234  24.594  1.00  0.00     0.062 C 
BRANCH  16  17
HETATM   17  C3  UNL     1      77.844   4.837  25.013  1.00  0.00     0.044 C 
BRANCH  17  18
HETATM   18  C2  UNL     1      77.792   6.226  24.363  1.00  0.00     0.001 C 
HETATM   19  C1  UNL     1      76.729   6.270  23.283  1.00  0.00     0.005 C 
ENDBRANCH  17  18
ENDBRANCH  16  17
ENDBRANCH  14  16
ENDBRANCH   1  14
BRANCH   4  20
HETATM   20  N3  UNL     1      83.266   7.060  26.748  1.00  0.00    -0.226 N 
ATOM     21  H3  UNL     1      83.024   7.904  26.228  1.00  0.00     0.177 HD
BRANCH  20  22
HETATM   22  C7  UNL     1      84.646   6.807  26.950  1.00  0.00     0.137 C 
BRANCH  22  23
HETATM   23  C8  UNL     1      85.357   7.015  25.606  1.00  0.00     0.016 C 
HETATM   24  C9  UNL     1      85.163   5.829  24.705  1.00  0.00     0.006 C 
ENDBRANCH  22  23
ENDBRANCH  20  22
ENDBRANCH   4  20
BRANCH  13  25
HETATM   25  C13 UNL     1      80.675   5.943  31.219  1.00  0.00     0.234 C 
HETATM   26  C14 UNL     1      80.048   5.514  32.478  1.00  0.00     0.054 C 
HETATM   27  C15 UNL     1      80.775   4.448  33.262  1.00  0.00     0.006 C 
HETATM   28  C16 UNL     1      82.239   4.910  33.338  1.00  0.00     0.026 C 
HETATM   29  C17 UNL     1      82.682   4.952  31.868  1.00  0.00     0.170 C 
HETATM   30  O2  UNL     1      82.061   5.975  31.217  1.00  0.00    -0.366 OA
ENDBRANCH  13  25
TORSDOF 8
ENDMDL
MODEL 3
REMARK VINA RESULT: -6.735507792      1.834      2.379
REMARK  8 active torsions:
REMARK  status: ('A' for Active; 'I' for Inactive)
REMARK    1  A    between atoms: C2_2  and  C3_3 
REMARK    2  A    between atoms: C3_3  and  C4_4 
REMARK    3  A    between atoms: C4_4  and  N1_5 
REMARK    4  A    between atoms: N1_5  and  C5_7 
REMARK    5  A    between atoms: C6_10  and  N3_11 
REMARK    6  A    between atoms: N3_11  and  C7_13 
REMARK    7  A    between atoms: C7_13  and  C8_14 
REMARK    8  A    between atoms: N6_24  and  C13_25 
ROOT
HETATM    1  C5  UNL     1      79.419   5.449  27.359  1.00  0.00     0.151 A 
HETATM    2  N2  UNL     1      80.618   5.467  26.687  1.00  0.00    -0.174 N 
ATOM      3  H2  UNL     1      80.605   5.452  25.667  1.00  0.00     0.186 HD
HETATM    4  C6  UNL     1      81.805   5.505  27.313  1.00  0.00     0.681 A 
HETATM    5  N4  UNL     1      81.860   5.527  28.658  1.00  0.00    -0.174 N 
ATOM      6  H4  UNL     1      82.769   5.554  29.119  1.00  0.00     0.186 HD
HETATM    7  C10 UNL     1      80.737   5.512  29.411  1.00  0.00     0.160 A 
HETATM    8  C11 UNL     1      79.537   5.473  28.731  1.00  0.00     0.126 A 
HETATM    9  N5  UNL     1      78.580   5.465  29.668  1.00  0.00    -0.302 N 
ATOM     10  H5  UNL     1      77.575   5.439  29.501  1.00  0.00     0.171 HD
HETATM   11  C12 UNL     1      79.188   5.498  30.877  1.00  0.00     0.331 A 
HETATM   12  O1  UNL     1      78.561   5.500  31.940  1.00  0.00    -0.246 OA
HETATM   13  N6  UNL     1      80.504   5.527  30.748  1.00  0.00    -0.255 N 
ENDROOT
BRANCH   1  14
HETATM   14  N1  UNL     1      78.388   5.415  26.664  1.00  0.00    -0.354 N 
ATOM     15  H1  UNL     1      77.592   5.747  27.208  1.00  0.00     0.166 HD
BRANCH  14  16
HETATM   16  C4  UNL     1      77.974   5.072  25.393  1.00  0.00     0.062 C 
BRANCH  16  17
HETATM   17  C3  UNL     1      77.901   6.202  24.387  1.00  0.00     0.044 C 
BRANCH  17  18
HETATM   18  C2  UNL     1      76.814   5.797  23.382  1.00  0.00     0.001 C 
HETATM   19  C1  UNL     1      76.090   7.021  22.856  1.00  0.00     0.005 C 
ENDBRANCH  17  18
ENDBRANCH  16  17
ENDBRANCH  14  16
ENDBRANCH   1  14
BRANCH   4  20
HETATM   20  N3  UNL     1      82.855   5.518  26.566  1.00  0.00    -0.226 N 
ATOM     21  H3  UNL     1      83.641   6.083  26.887  1.00  0.00     0.177 HD
BRANCH  20  22
HETATM   22  C7  UNL     1      83.022   4.825  25.342  1.00  0.00     0.137 C 
BRANCH  22  23
HETATM   23  C8  UNL     1      84.363   5.266  24.739  1.00  0.00     0.016 C 
HETATM   24  C9  UNL     1      84.541   4.710  23.355  1.00  0.00     0.006 C 
ENDBRANCH  22  23
ENDBRANCH  20  22
ENDBRANCH   4  20
BRANCH  13  25
HETATM   25  C13 UNL     1      81.565   5.569  31.694  1.00  0.00     0.234 C 
HETATM   26  C14 UNL     1      81.447   6.546  32.786  1.00  0.00     0.054 C 
HETATM   27  C15 UNL     1      80.836   6.046  34.073  1.00  0.00     0.006 C 
HETATM   28  C16 UNL     1      81.559   4.728  34.394  1.00  0.00     0.026 C 
HETATM   29  C17 UNL     1      81.216   3.826  33.200  1.00  0.00     0.170 C 
HETATM   30  O2  UNL     1      81.849   4.267  32.078  1.00  0.00    -0.366 OA
ENDBRANCH  13  25
TORSDOF 8
ENDMDL
MODEL 4
REMARK VINA RESULT: -6.701002191      2.327      5.124
REMARK  8 active torsions:
REMARK  status: ('A' for Active; 'I' for Inactive)
REMARK    1  A    between atoms: C2_2  and  C3_3 
REMARK    2  A    between atoms: C3_3  and  C4_4 
REMARK    3  A    between atoms: C4_4  and  N1_5 
REMARK    4  A    between atoms: N1_5  and  C5_7 
REMARK    5  A    between atoms: C6_10  and  N3_11 
REMARK    6  A    between atoms: N3_11  and  C7_13 
REMARK    7  A    between atoms: C7_13  and  C8_14 
REMARK    8  A    between atoms: N6_24  and  C13_25 
ROOT
HETATM    1  C5  UNL     1      78.383   5.037  25.651  1.00  0.00     0.151 A 
HETATM    2  N2  UNL     1      77.945   5.504  26.866  1.00  0.00    -0.174 N 
ATOM      3  H2  UNL     1      76.940   5.534  27.042  1.00  0.00     0.186 HD
HETATM    4  C6  UNL     1      78.778   5.922  27.832  1.00  0.00     0.681 A 
HETATM    5  N4  UNL     1      80.109   5.895  27.634  1.00  0.00    -0.174 N 
ATOM      6  H4  UNL     1      80.730   6.215  28.377  1.00  0.00     0.186 HD
HETATM    7  C10 UNL     1      80.643   5.452  26.473  1.00  0.00     0.160 A 
HETATM    8  C11 UNL     1      79.753   5.032  25.505  1.00  0.00     0.126 A 
HETATM    9  N5  UNL     1      80.497   4.645  24.461  1.00  0.00    -0.302 N 
ATOM     10  H5  UNL     1      80.147   4.278  23.576  1.00  0.00     0.171 HD
HETATM   11  C12 UNL     1      81.797   4.827  24.792  1.00  0.00     0.331 A 
HETATM   12  O1  UNL     1      82.725   4.557  24.025  1.00  0.00    -0.246 OA
HETATM   13  N6  UNL     1      81.913   5.319  26.014  1.00  0.00    -0.255 N 
ENDROOT
BRANCH   1  14
HETATM   14  N1  UNL     1      77.510   4.679  24.839  1.00  0.00    -0.354 N 
ATOM     15  H1  UNL     1      77.210   3.727  25.051  1.00  0.00     0.166 HD
BRANCH  14  16
HETATM   16  C4  UNL     1      76.817   5.156  23.746  1.00  0.00     0.062 C 
BRANCH  16  17
HETATM   17  C3  UNL     1      76.921   6.644  23.487  1.00  0.00     0.044 C 
BRANCH  17  18
HETATM   18  C2  UNL     1      75.774   6.983  22.525  1.00  0.00     0.001 C 
HETATM   19  C1  UNL     1      75.052   5.722  22.090  1.00  0.00     0.005 C 
ENDBRANCH  17  18
ENDBRANCH  16  17
ENDBRANCH  14  16
ENDBRANCH   1  14
BRANCH   4  20
HETATM   20  N3  UNL     1      78.238   6.336  28.926  1.00  0.00    -0.226 N 
ATOM     21  H3  UNL     1      77.244   6.561  28.892  1.00  0.00     0.177 HD
BRANCH  20  22
HETATM   22  C7  UNL     1      78.892   6.509  30.171  1.00  0.00     0.137 C 
BRANCH  22  23
HETATM   23  C8  UNL     1      78.662   5.236  30.997  1.00  0.00     0.016 C 
HETATM   24  C9  UNL     1      79.629   5.155  32.143  1.00  0.00     0.006 C 
ENDBRANCH  22  23
ENDBRANCH  20  22
ENDBRANCH   4  20
BRANCH  13  25
HETATM   25  C13 UNL     1      83.037   5.676  26.807  1.00  0.00     0.234 C 
HETATM   26  C14 UNL     1      84.355   5.630  26.156  1.00  0.00     0.054 C 
HETATM   27  C15 UNL     1      84.854   6.923  25.557  1.00  0.00     0.006 C 
HETATM   28  C16 UNL     1      84.651   7.993  26.642  1.00  0.00     0.026 C 
HETATM   29  C17 UNL     1      83.132   8.003  26.862  1.00  0.00     0.170 C 
HETATM   30  O2  UNL     1      82.735   6.854  27.475  1.00  0.00    -0.366 OA
ENDBRANCH  13  25
TORSDOF 8
ENDMDL
MODEL 5
REMARK VINA RESULT: -6.649534329      1.777      4.613
REMARK  8 active torsions:
REMARK  status: ('A' for Active; 'I' for Inactive)
REMARK    1  A    between atoms: C2_2  and  C3_3 
REMARK    2  A    between atoms: C3_3  and  C4_4 
REMARK    3  A    between atoms: C4_4  and  N1_5 
REMARK    4  A    between atoms: N1_5  and  C5_7 
REMARK    5  A    between atoms: C6_10  and  N3_11 
REMARK    6  A    between atoms: N3_11  and  C7_13 
REMARK    7  A    between atoms: C7_13  and  C8_14 
REMARK    8  A    between atoms: N6_24  and  C13_25 
ROOT
HETATM    1  C5  UNL     1      79.714   4.376  27.010  1.00  0.00     0.151 A 
HETATM    2  N2  UNL     1      79.168   4.187  28.257  1.00  0.00    -0.174 N 
ATOM      3  H2  UNL     1      78.257   3.732  28.326  1.00  0.00     0.186 HD
HETATM    4  C6  UNL     1      79.778   4.574  29.388  1.00  0.00     0.681 A 
HETATM    5  N4  UNL     1      80.980   5.177  29.335  1.00  0.00    -0.174 N 
ATOM      6  H4  UNL     1      81.432   5.466  30.202  1.00  0.00     0.186 HD
HETATM    7  C10 UNL     1      81.603   5.409  28.157  1.00  0.00     0.160 A 
HETATM    8  C11 UNL     1      80.943   4.998  27.017  1.00  0.00     0.126 A 
HETATM    9  N5  UNL     1      81.737   5.326  25.990  1.00  0.00    -0.302 N 
ATOM     10  H5  UNL     1      81.544   5.159  25.003  1.00  0.00     0.171 HD
HETATM   11  C12 UNL     1      82.843   5.919  26.498  1.00  0.00     0.331 A 
HETATM   12  O1  UNL     1      83.763   6.334  25.789  1.00  0.00    -0.246 OA
HETATM   13  N6  UNL     1      82.786   5.983  27.818  1.00  0.00    -0.255 N 
ENDROOT
BRANCH   1  14
HETATM   14  N1  UNL     1      79.048   3.972  26.039  1.00  0.00    -0.354 N 
ATOM     15  H1  UNL     1      79.387   3.057  25.744  1.00  0.00     0.166 HD
BRANCH  14  16
HETATM   16  C4  UNL     1      77.998   4.364  25.234  1.00  0.00     0.062 C 
BRANCH  16  17
HETATM   17  C3  UNL     1      77.946   5.834  24.874  1.00  0.00     0.044 C 
BRANCH  17  18
HETATM   18  C2  UNL     1      77.583   5.887  23.384  1.00  0.00     0.001 C 
HETATM   19  C1  UNL     1      76.421   6.834  23.152  1.00  0.00     0.005 C 
ENDBRANCH  17  18
ENDBRANCH  16  17
ENDBRANCH  14  16
ENDBRANCH   1  14
BRANCH   4  20
HETATM   20  N3  UNL     1      79.158   4.338  30.492  1.00  0.00    -0.226 N 
ATOM     21  H3  UNL     1      78.688   3.437  30.573  1.00  0.00     0.177 HD
BRANCH  20  22
HETATM   22  C7  UNL     1      79.067   5.209  31.606  1.00  0.00     0.137 C 
BRANCH  22  23
HETATM   23  C8  UNL     1      80.142   4.785  32.616  1.00  0.00     0.016 C 
HETATM   24  C9  UNL     1      80.422   5.885  33.599  1.00  0.00     0.006 C 
ENDBRANCH  22  23
ENDBRANCH  20  22
ENDBRANCH   4  20
BRANCH  13  25
HETATM   25  C13 UNL     1      83.677   6.498  28.798  1.00  0.00     0.234 C 
HETATM   26  C14 UNL     1      84.911   7.131  28.311  1.00  0.00     0.054 C 
HETATM   27  C15 UNL     1      84.869   8.628  28.121  1.00  0.00     0.006 C 
HETATM   28  C16 UNL     1      84.259   9.197  29.412  1.00  0.00     0.026 C 
HETATM   29  C17 UNL     1      82.855   8.577  29.453  1.00  0.00     0.170 C 
HETATM   30  O2  UNL     1      82.936   7.242  29.704  1.00  0.00    -0.366 OA
ENDBRANCH  13  25
TORSDOF 8
ENDMDL
