MODEL 1
REMARK VINA RESULT: -7.380803081      0.000      0.000
REMARK  7 active torsions:
REMARK  status: ('A' for Active; 'I' for Inactive)
REMARK    1  A    between atoms: C2_2  and  N1_3 
REMARK    2  A    between atoms: C6_7  and  C7_8 
REMARK    3  A    between atoms: C7_8  and  C8_9 
REMARK    4  A    between atoms: N4_15  and  C10_17 
REMARK    5  A    between atoms: C12_19  and  C13_20 
REMARK    6  A    between atoms: C13_20  and  N5_21 
REMARK    7  A    between atoms: N7_27  and  C14_28 
ROOT
HETATM    1  C8  UNL     1      81.120   4.614  32.407  1.00  0.00     0.036 A 
HETATM    2  N2  UNL     1      79.925   4.126  31.924  1.00  0.00    -0.303 N 
ATOM      3  H2  UNL     1      79.247   3.592  32.468  1.00  0.00     0.186 HD
HETATM    4  N3  UNL     1      79.788   4.448  30.668  1.00  0.00    -0.285 N 
ATOM      5  H3  UNL     1      78.989   4.202  30.085  1.00  0.00     0.188 HD
HETATM    6  C9  UNL     1      80.846   5.144  30.260  1.00  0.00     0.129 A 
HETATM    7  N4  UNL     1      81.056   5.629  29.096  1.00  0.00    -0.326 N 
ATOM      8  H4  UNL     1      81.920   6.146  28.927  1.00  0.00     0.169 HD
HETATM    9  C16 UNL     1      81.693   5.253  31.359  1.00  0.00     0.007 A 
HETATM   10  C17 UNL     1      82.977   6.007  31.293  1.00  0.00     0.054 C 
ENDROOT
BRANCH   7  11
HETATM   11  C10 UNL     1      80.143   5.477  28.042  1.00  0.00     0.125 A 
HETATM   12  C11 UNL     1      80.035   4.437  27.116  1.00  0.00     0.078 A 
HETATM   13  C12 UNL     1      78.981   4.730  26.289  1.00  0.00     0.055 A 
HETATM   14  N6  UNL     1      78.496   5.890  26.713  1.00  0.00    -0.299 N 
HETATM   15  N7  UNL     1      79.153   6.361  27.742  1.00  0.00    -0.277 N 
ATOM     16  H6  UNL     1      77.700   6.362  26.285  1.00  0.00     0.187 HD
BRANCH  13  17
HETATM   17  C13 UNL     1      78.509   3.903  25.161  1.00  0.00     0.288 C 
BRANCH  17  18
HETATM   18  N5  UNL     1      77.165   4.241  24.761  1.00  0.00    -0.074 N 
ATOM     19  H53 UNL     1      76.603   4.526  25.563  1.00  0.00     0.274 HD
ATOM     20  H52 UNL     1      77.145   5.112  24.231  1.00  0.00     0.274 HD
ATOM     21  H51 UNL     1      76.714   3.486  24.245  1.00  0.00     0.274 HD
ENDBRANCH  17  18
ENDBRANCH  13  17
BRANCH  15  22
HETATM   22  C14 UNL     1      78.919   7.590  28.471  1.00  0.00     0.146 C 
HETATM   23  C15 UNL     1      77.786   7.332  29.454  1.00  0.00     0.028 C 
ENDBRANCH  15  22
ENDBRANCH   7  11
BRANCH   1  24
HETATM   24  C7  UNL     1      81.585   4.378  33.789  1.00  0.00     0.065 C 
BRANCH  24  25
HETATM   25  C6  UNL     1      81.845   5.594  34.608  1.00  0.00     0.019 C 
HETATM   26  C5  UNL     1      80.716   6.548  34.607  1.00  0.00     0.008 C 
HETATM   27  C4  UNL     1      80.981   7.754  35.512  1.00  0.00     0.031 C 
HETATM   28  C3  UNL     1      82.010   7.458  36.572  1.00  0.00     0.272 C 
HETATM   29  N1  UNL     1      82.048   6.100  37.004  1.00  0.00     0.088 N 
HETATM   30  C18 UNL     1      82.229   5.123  35.996  1.00  0.00     0.277 C 
BRANCH  29  31
HETATM   31  C2  UNL     1      82.873   5.980  38.167  1.00  0.00     0.268 C 
HETATM   32  C1  UNL     1      82.954   7.233  39.005  1.00  0.00     0.037 C 
ENDBRANCH  29  31
ENDBRANCH  24  25
ENDBRANCH   1  24
TORSDOF 7
ENDMDL
MODEL 2
REMARK VINA RESULT: -7.291534772      1.859      2.756
REMARK  7 active torsions:
REMARK  status: ('A' for Active; 'I' for Inactive)
REMARK    1  A    between atoms: C2_2  and  N1_3 
REMARK    2  A    between atoms: C6_7  and  C7_8 
REMARK    3  A    between atoms: C7_8  and  C8_9 
REMARK    4  A    between atoms: N4_15  and  C10_17 
REMARK    5  A    between atoms: C12_19  and  C13_20 
REMARK    6  A    between atoms: C13_20  and  N5_21 
REMARK    7  A    between atoms: N7_27  and  C14_28 
ROOT
HETATM    1  C8  UNL     1      80.040   4.708  31.130  1.00  0.00     0.036 A 
HETATM    2  N2  UNL     1      79.169   4.049  30.290  1.00  0.00    -0.303 N 
ATOM      3  H2  UNL     1      78.529   3.308  30.574  1.00  0.00     0.186 HD
HETATM    4  N3  UNL     1      79.285   4.514  29.077  1.00  0.00    -0.285 N 
ATOM      5  H3  UNL     1      78.750   4.188  28.273  1.00  0.00     0.188 HD
HETATM    6  C9  UNL     1      80.205   5.474  29.044  1.00  0.00     0.129 A 
HETATM    7  N4  UNL     1      80.581   6.157  28.031  1.00  0.00    -0.326 N 
ATOM      8  H4  UNL     1      81.304   6.866  28.157  1.00  0.00     0.169 HD
HETATM    9  C16 UNL     1      80.687   5.602  30.343  1.00  0.00     0.007 A 
HETATM   10  C17 UNL     1      81.717   6.617  30.707  1.00  0.00     0.054 C 
ENDROOT
BRANCH   7  11
HETATM   11  C10 UNL     1      80.038   5.966  26.752  1.00  0.00     0.125 A 
HETATM   12  C11 UNL     1      78.747   6.243  26.295  1.00  0.00     0.078 A 
HETATM   13  C12 UNL     1      78.697   5.899  24.969  1.00  0.00     0.055 A 
HETATM   14  N6  UNL     1      79.905   5.441  24.665  1.00  0.00    -0.299 N 
HETATM   15  N7  UNL     1      80.721   5.465  25.687  1.00  0.00    -0.277 N 
ATOM     16  H6  UNL     1      80.168   5.108  23.738  1.00  0.00     0.187 HD
BRANCH  13  17
HETATM   17  C13 UNL     1      77.521   6.020  24.086  1.00  0.00     0.288 C 
BRANCH  17  18
HETATM   18  N5  UNL     1      77.851   5.788  22.701  1.00  0.00    -0.074 N 
ATOM     19  H53 UNL     1      78.657   5.170  22.613  1.00  0.00     0.274 HD
ATOM     20  H52 UNL     1      77.148   5.205  22.247  1.00  0.00     0.274 HD
ATOM     21  H51 UNL     1      77.995   6.657  22.187  1.00  0.00     0.274 HD
ENDBRANCH  17  18
ENDBRANCH  13  17
BRANCH  15  22
HETATM   22  C14 UNL     1      82.107   5.048  25.740  1.00  0.00     0.146 C 
HETATM   23  C15 UNL     1      82.408   4.290  24.455  1.00  0.00     0.028 C 
ENDBRANCH  15  22
ENDBRANCH   7  11
BRANCH   1  24
HETATM   24  C7  UNL     1      80.177   4.380  32.564  1.00  0.00     0.065 C 
BRANCH  24  25
HETATM   25  C6  UNL     1      81.083   5.259  33.353  1.00  0.00     0.019 C 
HETATM   26  C5  UNL     1      80.374   6.364  34.033  1.00  0.00     0.008 C 
HETATM   27  C4  UNL     1      81.316   7.210  34.893  1.00  0.00     0.031 C 
HETATM   28  C3  UNL     1      82.560   6.456  35.288  1.00  0.00     0.272 C 
HETATM   29  N1  UNL     1      82.387   5.048  35.425  1.00  0.00     0.088 N 
HETATM   30  C18 UNL     1      81.854   4.367  34.305  1.00  0.00     0.277 C 
BRANCH  29  31
HETATM   31  C2  UNL     1      83.547   4.471  36.033  1.00  0.00     0.268 C 
HETATM   32  C1  UNL     1      84.362   3.596  35.114  1.00  0.00     0.037 C 
ENDBRANCH  29  31
ENDBRANCH  24  25
ENDBRANCH   1  24
TORSDOF 7
ENDMDL
MODEL 3
REMARK VINA RESULT: -7.227190219      2.585      9.134
REMARK  7 active torsions:
REMARK  status: ('A' for Active; 'I' for Inactive)
REMARK    1  A    between atoms: C2_2  and  N1_3 
REMARK    2  A    between atoms: C6_7  and  C7_8 
REMARK    3  A    between atoms: C7_8  and  C8_9 
REMARK    4  A    between atoms: N4_15  and  C10_17 
REMARK    5  A    between atoms: C12_19  and  C13_20 
REMARK    6  A    between atoms: C13_20  and  N5_21 
REMARK    7  A    between atoms: N7_27  and  C14_28 
ROOT
HETATM    1  C8  UNL     1      81.079   5.725  34.197  1.00  0.00     0.036 A 
HETATM    2  N2  UNL     1      80.212   6.786  34.356  1.00  0.00    -0.303 N 
ATOM      3  H2  UNL     1      79.473   7.041  33.701  1.00  0.00     0.186 HD
HETATM    4  N3  UNL     1      80.478   7.414  35.466  1.00  0.00    -0.285 N 
ATOM      5  H3  UNL     1      79.978   8.234  35.809  1.00  0.00     0.188 HD
HETATM    6  C9  UNL     1      81.498   6.827  36.088  1.00  0.00     0.129 A 
HETATM    7  N4  UNL     1      82.029   7.165  37.200  1.00  0.00    -0.326 N 
ATOM      8  H4  UNL     1      82.813   6.616  37.557  1.00  0.00     0.169 HD
HETATM    9  C16 UNL     1      81.882   5.756  35.287  1.00  0.00     0.007 A 
HETATM   10  C17 UNL     1      82.985   4.832  35.680  1.00  0.00     0.054 C 
ENDROOT
BRANCH   7  11
HETATM   11  C10 UNL     1      81.575   8.260  37.949  1.00  0.00     0.125 A 
HETATM   12  C11 UNL     1      80.627   8.292  38.974  1.00  0.00     0.078 A 
HETATM   13  C12 UNL     1      80.532   9.590  39.407  1.00  0.00     0.055 A 
HETATM   14  N6  UNL     1      81.386  10.285  38.666  1.00  0.00    -0.299 N 
HETATM   15  N7  UNL     1      82.018   9.538  37.797  1.00  0.00    -0.277 N 
ATOM     16  H6  UNL     1      81.533  11.289  38.763  1.00  0.00     0.187 HD
BRANCH  13  17
HETATM   17  C13 UNL     1      79.645  10.083  40.479  1.00  0.00     0.288 C 
BRANCH  17  18
HETATM   18  N5  UNL     1      78.363  10.510  39.974  1.00  0.00    -0.074 N 
ATOM     19  H53 UNL     1      78.470  11.094  39.145  1.00  0.00     0.274 HD
ATOM     20  H52 UNL     1      77.851   9.731  39.559  1.00  0.00     0.274 HD
ATOM     21  H51 UNL     1      77.804  10.980  40.686  1.00  0.00     0.274 HD
ENDBRANCH  17  18
ENDBRANCH  13  17
BRANCH  15  22
HETATM   22  C14 UNL     1      83.016   9.938  36.827  1.00  0.00     0.146 C 
HETATM   23  C15 UNL     1      82.283  10.535  35.634  1.00  0.00     0.028 C 
ENDBRANCH  15  22
ENDBRANCH   7  11
BRANCH   1  24
HETATM   24  C7  UNL     1      81.060   4.843  33.012  1.00  0.00     0.065 C 
BRANCH  24  25
HETATM   25  C6  UNL     1      81.327   5.499  31.703  1.00  0.00     0.019 C 
HETATM   26  C5  UNL     1      82.489   4.925  30.992  1.00  0.00     0.008 C 
HETATM   27  C4  UNL     1      82.699   5.569  29.619  1.00  0.00     0.031 C 
HETATM   28  C3  UNL     1      81.438   6.199  29.085  1.00  0.00     0.272 C 
HETATM   29  N1  UNL     1      80.231   5.567  29.505  1.00  0.00     0.088 N 
HETATM   30  C18 UNL     1      80.043   5.434  30.901  1.00  0.00     0.277 C 
BRANCH  29  31
HETATM   31  C2  UNL     1      79.125   6.080  28.755  1.00  0.00     0.268 C 
HETATM   32  C1  UNL     1      78.267   7.067  29.508  1.00  0.00     0.037 C 
ENDBRANCH  29  31
ENDBRANCH  24  25
ENDBRANCH   1  24
TORSDOF 7
ENDMDL
MODEL 4
REMARK VINA RESULT: -7.120906779      1.636      2.070
REMARK  7 active torsions:
REMARK  status: ('A' for Active; 'I' for Inactive)
REMARK    1  A    between atoms: C2_2  and  N1_3 
REMARK    2  A    between atoms: C6_7  and  C7_8 
REMARK    3  A    between atoms: C7_8  and  C8_9 
REMARK    4  A    between atoms: N4_15  and  C10_17 
REMARK    5  A    between atoms: C12_19  and  C13_20 
REMARK    6  A    between atoms: C13_20  and  N5_21 
REMARK    7  A    between atoms: N7_27  and  C14_28 
ROOT
HETATM    1  C8  UNL     1      80.567   4.701  31.939  1.00  0.00     0.036 A 
HETATM    2  N2  UNL     1      81.595   4.651  31.021  1.00  0.00    -0.303 N 
ATOM      3  H2  UNL     1      82.568   4.436  31.242  1.00  0.00     0.186 HD
HETATM    4  N3  UNL     1      81.140   4.919  29.830  1.00  0.00    -0.285 N 
ATOM      5  H3  UNL     1      81.705   4.945  28.981  1.00  0.00     0.188 HD
HETATM    6  C9  UNL     1      79.832   5.152  29.884  1.00  0.00     0.129 A 
HETATM    7  N4  UNL     1      79.052   5.441  28.913  1.00  0.00    -0.326 N 
ATOM      8  H4  UNL     1      78.062   5.595  29.108  1.00  0.00     0.169 HD
HETATM    9  C16 UNL     1      79.463   5.014  31.219  1.00  0.00     0.007 A 
HETATM   10  C17 UNL     1      78.050   5.169  31.668  1.00  0.00     0.054 C 
ENDROOT
BRANCH   7  11
HETATM   11  C10 UNL     1      79.507   5.556  27.591  1.00  0.00     0.125 A 
HETATM   12  C11 UNL     1      79.964   4.556  26.730  1.00  0.00     0.078 A 
HETATM   13  C12 UNL     1      80.285   5.155  25.539  1.00  0.00     0.055 A 
HETATM   14  N6  UNL     1      80.027   6.447  25.698  1.00  0.00    -0.299 N 
HETATM   15  N7  UNL     1      79.569   6.722  26.893  1.00  0.00    -0.277 N 
ATOM     16  H6  UNL     1      80.171   7.147  24.972  1.00  0.00     0.187 HD
BRANCH  13  17
HETATM   17  C13 UNL     1      80.813   4.473  24.341  1.00  0.00     0.288 C 
BRANCH  17  18
HETATM   18  N5  UNL     1      80.599   3.047  24.384  1.00  0.00    -0.074 N 
ATOM     19  H53 UNL     1      79.725   2.820  24.858  1.00  0.00     0.274 HD
ATOM     20  H52 UNL     1      80.382   2.678  23.458  1.00  0.00     0.274 HD
ATOM     21  H51 UNL     1      81.385   2.551  24.802  1.00  0.00     0.274 HD
ENDBRANCH  17  18
ENDBRANCH  13  17
BRANCH  15  22
HETATM   22  C14 UNL     1      79.180   8.009  27.431  1.00  0.00     0.146 C 
HETATM   23  C15 UNL     1      80.439   8.687  27.953  1.00  0.00     0.028 C 
ENDBRANCH  15  22
ENDBRANCH   7  11
BRANCH   1  24
HETATM   24  C7  UNL     1      80.770   4.484  33.386  1.00  0.00     0.065 C 
BRANCH  24  25
HETATM   25  C6  UNL     1      81.545   5.534  34.102  1.00  0.00     0.019 C 
HETATM   26  C5  UNL     1      80.715   6.683  34.523  1.00  0.00     0.008 C 
HETATM   27  C4  UNL     1      81.520   7.713  35.319  1.00  0.00     0.031 C 
HETATM   28  C3  UNL     1      82.752   7.115  35.946  1.00  0.00     0.272 C 
HETATM   29  N1  UNL     1      82.636   5.738  36.295  1.00  0.00     0.088 N 
HETATM   30  C18 UNL     1      82.256   4.855  35.256  1.00  0.00     0.277 C 
BRANCH  29  31
HETATM   31  C2  UNL     1      83.754   5.340  37.095  1.00  0.00     0.268 C 
HETATM   32  C1  UNL     1      84.686   4.364  36.423  1.00  0.00     0.037 C 
ENDBRANCH  29  31
ENDBRANCH  24  25
ENDBRANCH   1  24
TORSDOF 7
ENDMDL
MODEL 5
REMARK VINA RESULT: -7.074654144      0.962      1.613
REMARK  7 active torsions:
REMARK  status: ('A' for Active; 'I' for Inactive)
REMARK    1  A    between atoms: C2_2  and  N1_3 
REMARK    2  A    between atoms: C6_7  and  C7_8 
REMARK    3  A    between atoms: C7_8  and  C8_9 
REMARK    4  A    between atoms: N4_15  and  C10_17 
REMARK    5  A    between atoms: C12_19  and  C13_20 
REMARK    6  A    between atoms: C13_20  and  N5_21 
REMARK    7  A    between atoms: N7_27  and  C14_28 
ROOT
HETATM    1  C8  UNL     1      81.691   4.642  32.140  1.00  0.00     0.036 A 
HETATM    2  N2  UNL     1      80.388   4.289  31.863  1.00  0.00    -0.303 N 
ATOM      3  H2  UNL     1      79.741   3.868  32.529  1.00  0.00     0.186 HD
HETATM    4  N3  UNL     1      80.105   4.572  30.622  1.00  0.00    -0.285 N 
ATOM      5  H3  UNL     1      79.204   4.405  30.175  1.00  0.00     0.188 HD
HETATM    6  C9  UNL     1      81.164   5.112  30.026  1.00  0.00     0.129 A 
HETATM    7  N4  UNL     1      81.254   5.517  28.816  1.00  0.00    -0.326 N 
ATOM      8  H4  UNL     1      82.138   5.912  28.495  1.00  0.00     0.169 HD
HETATM    9  C16 UNL     1      82.173   5.159  30.983  1.00  0.00     0.007 A 
HETATM   10  C17 UNL     1      83.514   5.741  30.690  1.00  0.00     0.054 C 
ENDROOT
BRANCH   7  11
HETATM   11  C10 UNL     1      80.183   5.437  27.915  1.00  0.00     0.125 A 
HETATM   12  C11 UNL     1      79.892   4.439  26.982  1.00  0.00     0.078 A 
HETATM   13  C12 UNL     1      78.733   4.799  26.342  1.00  0.00     0.055 A 
HETATM   14  N6  UNL     1      78.365   5.955  26.879  1.00  0.00    -0.299 N 
HETATM   15  N7  UNL     1      79.192   6.363  27.807  1.00  0.00    -0.277 N 
ATOM     16  H6  UNL     1      77.529   6.469  26.599  1.00  0.00     0.187 HD
BRANCH  13  17
HETATM   17  C13 UNL     1      78.060   4.035  25.274  1.00  0.00     0.288 C 
BRANCH  17  18
HETATM   18  N5  UNL     1      77.223   4.872  24.448  1.00  0.00    -0.074 N 
ATOM     19  H53 UNL     1      77.764   5.312  23.704  1.00  0.00     0.274 HD
ATOM     20  H52 UNL     1      76.589   4.311  23.879  1.00  0.00     0.274 HD
ATOM     21  H51 UNL     1      76.713   5.565  24.993  1.00  0.00     0.274 HD
ENDBRANCH  17  18
ENDBRANCH  13  17
BRANCH  15  22
HETATM   22  C14 UNL     1      79.121   7.568  28.607  1.00  0.00     0.146 C 
HETATM   23  C15 UNL     1      77.929   7.429  29.543  1.00  0.00     0.028 C 
ENDBRANCH  15  22
ENDBRANCH   7  11
BRANCH   1  24
HETATM   24  C7  UNL     1      82.326   4.408  33.452  1.00  0.00     0.065 C 
BRANCH  24  25
HETATM   25  C6  UNL     1      81.909   5.319  34.553  1.00  0.00     0.019 C 
HETATM   26  C5  UNL     1      82.389   4.884  35.881  1.00  0.00     0.008 C 
HETATM   27  C4  UNL     1      82.007   5.875  36.984  1.00  0.00     0.031 C 
HETATM   28  C3  UNL     1      81.742   7.257  36.444  1.00  0.00     0.272 C 
HETATM   29  N1  UNL     1      82.489   7.595  35.278  1.00  0.00     0.088 N 
HETATM   30  C18 UNL     1      82.371   6.713  34.177  1.00  0.00     0.277 C 
BRANCH  29  31
HETATM   31  C2  UNL     1      82.350   8.991  34.998  1.00  0.00     0.268 C 
HETATM   32  C1  UNL     1      81.721   9.791  36.112  1.00  0.00     0.037 C 
ENDBRANCH  29  31
ENDBRANCH  24  25
ENDBRANCH   1  24
TORSDOF 7
ENDMDL
