MODEL 1
REMARK VINA RESULT: -7.496294813      0.000      0.000
REMARK  8 active torsions:
REMARK  status: ('A' for Active; 'I' for Inactive)
REMARK    1  A    between atoms: C2_2  and  O1_4 
REMARK    2  A    between atoms: O1_4  and  C4_5 
REMARK    3  A    between atoms: C6_7  and  O2_8 
REMARK    4  A    between atoms: C13_17  and  N1_18 
REMARK    5  A    between atoms: N1_18  and  C14_20 
REMARK    6  A    between atoms: C14_20  and  C15_21 
REMARK    7  A    between atoms: C15_21  and  C18_24 
REMARK    8  A    between atoms: C18_24  and  O4_25 
ROOT
HETATM    1  C4  UNL     1      78.330   5.743  24.598  1.00  0.00     0.131 C 
HETATM    2  C5  UNL     1      79.296   4.754  23.906  1.00  0.00     0.064 C 
HETATM    3  C6  UNL     1      80.463   4.570  24.902  1.00  0.00     0.125 C 
HETATM    4  C7  UNL     1      80.197   5.670  25.836  1.00  0.00     0.032 C 
HETATM    5  C8  UNL     1      80.862   5.746  27.152  1.00  0.00     0.041 C 
HETATM    6  C9  UNL     1      81.176   7.209  27.387  1.00  0.00     0.009 C 
HETATM    7  C10 UNL     1      80.000   8.022  27.788  1.00  0.00     0.003 C 
HETATM    8  C11 UNL     1      78.778   7.730  26.948  1.00  0.00     0.032 C 
HETATM    9  C12 UNL     1      78.255   6.337  27.079  1.00  0.00     0.131 C 
HETATM   10  O3  UNL     1      78.757   5.844  28.307  1.00  0.00    -0.361 OA
HETATM   11  C13 UNL     1      79.933   5.152  28.172  1.00  0.00     0.225 C 
HETATM   12  C19 UNL     1      78.683   5.429  26.029  1.00  0.00     0.051 C 
ENDROOT
BRANCH  11  13
HETATM   13  N1  UNL     1      80.431   4.758  29.412  1.00  0.00    -0.376 N 
ATOM     14  H1  UNL     1      80.753   3.795  29.504  1.00  0.00     0.161 HD
BRANCH  13  15
HETATM   15  C14 UNL     1      80.524   5.570  30.528  1.00  0.00     0.069 C 
BRANCH  15  16
HETATM   16  C15 UNL     1      79.772   4.971  31.715  1.00  0.00     0.005 C 
HETATM   17  C16 UNL     1      79.641   6.068  32.760  1.00  0.00     0.023 C 
HETATM   18  C17 UNL     1      80.649   3.889  32.279  1.00  0.00     0.023 C 
BRANCH  16  19
HETATM   19  C18 UNL     1      78.414   4.463  31.348  1.00  0.00     0.178 C 
BRANCH  19  20
HETATM   20  O4  UNL     1      77.609   5.469  30.878  1.00  0.00    -0.400 OA
ATOM     21  H4  UNL     1      76.775   5.134  30.570  1.00  0.00     0.209 HD
ENDBRANCH  19  20
ENDBRANCH  16  19
ENDBRANCH  15  16
ENDBRANCH  13  15
ENDBRANCH  11  13
BRANCH   3  22
HETATM   22  O2  UNL     1      80.359   3.328  25.496  1.00  0.00    -0.395 OA
ATOM     23  H2  UNL     1      80.806   3.346  26.334  1.00  0.00     0.210 HD
ENDBRANCH   3  22
BRANCH   1  24
HETATM   24  O1  UNL     1      77.026   5.517  24.281  1.00  0.00    -0.381 OA
BRANCH  24  25
HETATM   25  C2  UNL     1      76.624   6.079  23.078  1.00  0.00     0.113 C 
HETATM   26  C1  UNL     1      75.388   5.393  22.540  1.00  0.00     0.039 C 
HETATM   27  C3  UNL     1      76.388   7.544  23.121  1.00  0.00     0.039 C 
ENDBRANCH  24  25
ENDBRANCH   1  24
TORSDOF 8
ENDMDL
MODEL 2
REMARK VINA RESULT: -7.187962784      0.881      1.205
REMARK  8 active torsions:
REMARK  status: ('A' for Active; 'I' for Inactive)
REMARK    1  A    between atoms: C2_2  and  O1_4 
REMARK    2  A    between atoms: O1_4  and  C4_5 
REMARK    3  A    between atoms: C6_7  and  O2_8 
REMARK    4  A    between atoms: C13_17  and  N1_18 
REMARK    5  A    between atoms: N1_18  and  C14_20 
REMARK    6  A    between atoms: C14_20  and  C15_21 
REMARK    7  A    between atoms: C15_21  and  C18_24 
REMARK    8  A    between atoms: C18_24  and  O4_25 
ROOT
HETATM    1  C4  UNL     1      78.349   5.789  24.767  1.00  0.00     0.131 C 
HETATM    2  C5  UNL     1      79.318   4.789  24.094  1.00  0.00     0.064 C 
HETATM    3  C6  UNL     1      80.460   4.586  25.115  1.00  0.00     0.125 C 
HETATM    4  C7  UNL     1      80.187   5.688  26.046  1.00  0.00     0.032 C 
HETATM    5  C8  UNL     1      80.823   5.751  27.376  1.00  0.00     0.041 C 
HETATM    6  C9  UNL     1      81.151   7.209  27.623  1.00  0.00     0.009 C 
HETATM    7  C10 UNL     1      79.978   8.037  28.000  1.00  0.00     0.003 C 
HETATM    8  C11 UNL     1      78.772   7.764  27.132  1.00  0.00     0.032 C 
HETATM    9  C12 UNL     1      78.227   6.378  27.247  1.00  0.00     0.131 C 
HETATM   10  O3  UNL     1      78.694   5.874  28.484  1.00  0.00    -0.361 OA
HETATM   11  C13 UNL     1      79.864   5.167  28.374  1.00  0.00     0.225 C 
HETATM   12  C19 UNL     1      78.666   5.467  26.204  1.00  0.00     0.051 C 
ENDROOT
BRANCH  11  13
HETATM   13  N1  UNL     1      80.328   4.763  29.624  1.00  0.00    -0.376 N 
ATOM     14  H1  UNL     1      81.094   4.089  29.645  1.00  0.00     0.161 HD
BRANCH  13  15
HETATM   15  C14 UNL     1      79.834   5.204  30.838  1.00  0.00     0.069 C 
BRANCH  15  16
HETATM   16  C15 UNL     1      80.875   5.058  31.947  1.00  0.00     0.005 C 
HETATM   17  C16 UNL     1      82.237   4.988  31.273  1.00  0.00     0.023 C 
HETATM   18  C17 UNL     1      80.614   3.738  32.614  1.00  0.00     0.023 C 
BRANCH  16  19
HETATM   19  C18 UNL     1      80.854   6.195  32.919  1.00  0.00     0.178 C 
BRANCH  19  20
HETATM   20  O4  UNL     1      79.573   6.598  33.197  1.00  0.00    -0.400 OA
ATOM     21  H4  UNL     1      79.344   7.388  32.722  1.00  0.00     0.209 HD
ENDBRANCH  19  20
ENDBRANCH  16  19
ENDBRANCH  15  16
ENDBRANCH  13  15
ENDBRANCH  11  13
BRANCH   3  22
HETATM   22  O2  UNL     1      80.325   3.344  25.703  1.00  0.00    -0.395 OA
ATOM     23  H2  UNL     1      80.934   2.739  25.296  1.00  0.00     0.210 HD
ENDBRANCH   3  22
BRANCH   1  24
HETATM   24  O1  UNL     1      77.050   5.582  24.419  1.00  0.00    -0.381 OA
BRANCH  24  25
HETATM   25  C2  UNL     1      76.705   6.077  23.171  1.00  0.00     0.113 C 
HETATM   26  C1  UNL     1      75.531   5.323  22.588  1.00  0.00     0.039 C 
HETATM   27  C3  UNL     1      76.415   7.533  23.135  1.00  0.00     0.039 C 
ENDBRANCH  24  25
ENDBRANCH   1  24
TORSDOF 8
ENDMDL
MODEL 3
REMARK VINA RESULT: -7.170023724      1.008      1.426
REMARK  8 active torsions:
REMARK  status: ('A' for Active; 'I' for Inactive)
REMARK    1  A    between atoms: C2_2  and  O1_4 
REMARK    2  A    between atoms: O1_4  and  C4_5 
REMARK    3  A    between atoms: C6_7  and  O2_8 
REMARK    4  A    between atoms: C13_17  and  N1_18 
REMARK    5  A    between atoms: N1_18  and  C14_20 
REMARK    6  A    between atoms: C14_20  and  C15_21 
REMARK    7  A    between atoms: C15_21  and  C18_24 
REMARK    8  A    between atoms: C18_24  and  O4_25 
ROOT
HETATM    1  C4  UNL     1      78.333   5.803  24.798  1.00  0.00     0.131 C 
HETATM    2  C5  UNL     1      79.292   4.785  24.141  1.00  0.00     0.064 C 
HETATM    3  C6  UNL     1      80.426   4.578  25.169  1.00  0.00     0.125 C 
HETATM    4  C7  UNL     1      80.163   5.693  26.087  1.00  0.00     0.032 C 
HETATM    5  C8  UNL     1      80.793   5.762  27.420  1.00  0.00     0.041 C 
HETATM    6  C9  UNL     1      81.139   7.218  27.653  1.00  0.00     0.009 C 
HETATM    7  C10 UNL     1      79.974   8.064  28.016  1.00  0.00     0.003 C 
HETATM    8  C11 UNL     1      78.768   7.797  27.146  1.00  0.00     0.032 C 
HETATM    9  C12 UNL     1      78.205   6.419  27.272  1.00  0.00     0.131 C 
HETATM   10  O3  UNL     1      78.661   5.923  28.516  1.00  0.00    -0.361 OA
HETATM   11  C13 UNL     1      79.823   5.200  28.420  1.00  0.00     0.225 C 
HETATM   12  C19 UNL     1      78.639   5.492  26.241  1.00  0.00     0.051 C 
ENDROOT
BRANCH  11  13
HETATM   13  N1  UNL     1      80.276   4.804  29.675  1.00  0.00    -0.376 N 
ATOM     14  H1  UNL     1      81.182   4.338  29.722  1.00  0.00     0.161 HD
BRANCH  13  15
HETATM   15  C14 UNL     1      79.595   4.992  30.865  1.00  0.00     0.069 C 
BRANCH  15  16
HETATM   16  C15 UNL     1      80.560   5.174  32.034  1.00  0.00     0.005 C 
HETATM   17  C16 UNL     1      80.759   3.804  32.665  1.00  0.00     0.023 C 
HETATM   18  C17 UNL     1      79.866   6.054  33.035  1.00  0.00     0.023 C 
BRANCH  16  19
HETATM   19  C18 UNL     1      81.884   5.730  31.616  1.00  0.00     0.178 C 
BRANCH  19  20
HETATM   20  O4  UNL     1      81.767   7.015  31.150  1.00  0.00    -0.400 OA
ATOM     21  H4  UNL     1      82.542   7.286  30.673  1.00  0.00     0.209 HD
ENDBRANCH  19  20
ENDBRANCH  16  19
ENDBRANCH  15  16
ENDBRANCH  13  15
ENDBRANCH  11  13
BRANCH   3  22
HETATM   22  O2  UNL     1      80.273   3.344  25.769  1.00  0.00    -0.395 OA
ATOM     23  H2  UNL     1      80.562   3.400  26.673  1.00  0.00     0.210 HD
ENDBRANCH   3  22
BRANCH   1  24
HETATM   24  O1  UNL     1      77.032   5.608  24.447  1.00  0.00    -0.381 OA
BRANCH  24  25
HETATM   25  C2  UNL     1      76.701   6.093  23.191  1.00  0.00     0.113 C 
HETATM   26  C1  UNL     1      75.503   5.366  22.622  1.00  0.00     0.039 C 
HETATM   27  C3  UNL     1      76.455   7.556  23.131  1.00  0.00     0.039 C 
ENDBRANCH  24  25
ENDBRANCH   1  24
TORSDOF 8
ENDMDL
MODEL 4
REMARK VINA RESULT: -7.026922454      2.198      6.817
REMARK  8 active torsions:
REMARK  status: ('A' for Active; 'I' for Inactive)
REMARK    1  A    between atoms: C2_2  and  O1_4 
REMARK    2  A    between atoms: O1_4  and  C4_5 
REMARK    3  A    between atoms: C6_7  and  O2_8 
REMARK    4  A    between atoms: C13_17  and  N1_18 
REMARK    5  A    between atoms: N1_18  and  C14_20 
REMARK    6  A    between atoms: C14_20  and  C15_21 
REMARK    7  A    between atoms: C15_21  and  C18_24 
REMARK    8  A    between atoms: C18_24  and  O4_25 
ROOT
HETATM    1  C4  UNL     1      81.349   5.329  31.453  1.00  0.00     0.131 C 
HETATM    2  C5  UNL     1      80.216   4.603  32.214  1.00  0.00     0.064 C 
HETATM    3  C6  UNL     1      78.927   4.939  31.431  1.00  0.00     0.125 C 
HETATM    4  C7  UNL     1      79.411   6.024  30.568  1.00  0.00     0.032 C 
HETATM    5  C8  UNL     1      78.632   6.492  29.405  1.00  0.00     0.041 C 
HETATM    6  C9  UNL     1      78.793   7.998  29.364  1.00  0.00     0.009 C 
HETATM    7  C10 UNL     1      80.103   8.451  28.834  1.00  0.00     0.003 C 
HETATM    8  C11 UNL     1      81.264   7.673  29.411  1.00  0.00     0.032 C 
HETATM    9  C12 UNL     1      81.270   6.221  29.063  1.00  0.00     0.131 C 
HETATM   10  O3  UNL     1      80.467   6.092  27.905  1.00  0.00    -0.361 OA
HETATM   11  C13 UNL     1      79.158   5.792  28.185  1.00  0.00     0.225 C 
HETATM   12  C19 UNL     1      80.716   5.351  30.086  1.00  0.00     0.051 C 
ENDROOT
BRANCH  11  13
HETATM   13  N1  UNL     1      78.389   5.757  27.024  1.00  0.00    -0.376 N 
ATOM     14  H1  UNL     1      77.471   5.316  27.081  1.00  0.00     0.161 HD
BRANCH  13  15
HETATM   15  C14 UNL     1      78.773   6.273  25.799  1.00  0.00     0.069 C 
BRANCH  15  16
HETATM   16  C15 UNL     1      78.913   5.170  24.751  1.00  0.00     0.005 C 
HETATM   17  C16 UNL     1      80.402   4.929  24.554  1.00  0.00     0.023 C 
HETATM   18  C17 UNL     1      78.353   5.717  23.469  1.00  0.00     0.023 C 
BRANCH  16  19
HETATM   19  C18 UNL     1      78.247   3.893  25.157  1.00  0.00     0.178 C 
BRANCH  19  20
HETATM   20  O4  UNL     1      76.909   3.904  24.857  1.00  0.00    -0.400 OA
ATOM     21  H4  UNL     1      76.408   4.376  25.511  1.00  0.00     0.209 HD
ENDBRANCH  19  20
ENDBRANCH  16  19
ENDBRANCH  15  16
ENDBRANCH  13  15
ENDBRANCH  11  13
BRANCH   3  22
HETATM   22  O2  UNL     1      78.528   3.826  30.717  1.00  0.00    -0.395 OA
ATOM     23  H2  UNL     1      77.694   3.522  31.055  1.00  0.00     0.210 HD
ENDBRANCH   3  22
BRANCH   1  24
HETATM   24  O1  UNL     1      82.535   4.662  31.509  1.00  0.00    -0.381 OA
BRANCH  24  25
HETATM   25  C2  UNL     1      83.609   5.440  31.913  1.00  0.00     0.113 C 
HETATM   26  C1  UNL     1      84.614   5.607  30.795  1.00  0.00     0.039 C 
HETATM   27  C3  UNL     1      83.247   6.778  32.444  1.00  0.00     0.039 C 
ENDBRANCH  24  25
ENDBRANCH   1  24
TORSDOF 8
ENDMDL
MODEL 5
REMARK VINA RESULT: -7.005033490      2.216      6.822
REMARK  8 active torsions:
REMARK  status: ('A' for Active; 'I' for Inactive)
REMARK    1  A    between atoms: C2_2  and  O1_4 
REMARK    2  A    between atoms: O1_4  and  C4_5 
REMARK    3  A    between atoms: C6_7  and  O2_8 
REMARK    4  A    between atoms: C13_17  and  N1_18 
REMARK    5  A    between atoms: N1_18  and  C14_20 
REMARK    6  A    between atoms: C14_20  and  C15_21 
REMARK    7  A    between atoms: C15_21  and  C18_24 
REMARK    8  A    between atoms: C18_24  and  O4_25 
ROOT
HETATM    1  C4  UNL     1      81.461   5.340  31.287  1.00  0.00     0.131 C 
HETATM    2  C5  UNL     1      80.373   4.626  32.122  1.00  0.00     0.064 C 
HETATM    3  C6  UNL     1      79.043   4.938  31.401  1.00  0.00     0.125 C 
HETATM    4  C7  UNL     1      79.475   6.006  30.490  1.00  0.00     0.032 C 
HETATM    5  C8  UNL     1      78.633   6.444  29.360  1.00  0.00     0.041 C 
HETATM    6  C9  UNL     1      78.782   7.949  29.277  1.00  0.00     0.009 C 
HETATM    7  C10 UNL     1      80.060   8.397  28.670  1.00  0.00     0.003 C 
HETATM    8  C11 UNL     1      81.254   7.639  29.202  1.00  0.00     0.032 C 
HETATM    9  C12 UNL     1      81.252   6.179  28.886  1.00  0.00     0.131 C 
HETATM   10  O3  UNL     1      80.390   6.020  27.775  1.00  0.00    -0.361 OA
HETATM   11  C13 UNL     1      79.099   5.719  28.129  1.00  0.00     0.225 C 
HETATM   12  C19 UNL     1      80.757   5.329  29.955  1.00  0.00     0.051 C 
ENDROOT
BRANCH  11  13
HETATM   13  N1  UNL     1      78.271   5.654  27.011  1.00  0.00    -0.376 N 
ATOM     14  H1  UNL     1      77.442   5.063  27.074  1.00  0.00     0.161 HD
BRANCH  13  15
HETATM   15  C14 UNL     1      78.484   6.328  25.822  1.00  0.00     0.069 C 
BRANCH  15  16
HETATM   16  C15 UNL     1      78.425   5.378  24.627  1.00  0.00     0.005 C 
HETATM   17  C16 UNL     1      77.627   6.080  23.539  1.00  0.00     0.023 C 
HETATM   18  C17 UNL     1      77.648   4.172  25.073  1.00  0.00     0.023 C 
BRANCH  16  19
HETATM   19  C18 UNL     1      79.778   5.016  24.102  1.00  0.00     0.178 C 
BRANCH  19  20
HETATM   20  O4  UNL     1      80.779   5.541  24.881  1.00  0.00    -0.400 OA
ATOM     21  H4  UNL     1      81.547   4.983  24.886  1.00  0.00     0.209 HD
ENDBRANCH  19  20
ENDBRANCH  16  19
ENDBRANCH  15  16
ENDBRANCH  13  15
ENDBRANCH  11  13
BRANCH   3  22
HETATM   22  O2  UNL     1      78.615   3.808  30.734  1.00  0.00    -0.395 OA
ATOM     23  H2  UNL     1      77.760   3.975  30.355  1.00  0.00     0.210 HD
ENDBRANCH   3  22
BRANCH   1  24
HETATM   24  O1  UNL     1      82.652   4.682  31.297  1.00  0.00    -0.381 OA
BRANCH  24  25
HETATM   25  C2  UNL     1      83.739   5.471  31.638  1.00  0.00     0.113 C 
HETATM   26  C1  UNL     1      84.704   5.605  30.481  1.00  0.00     0.039 C 
HETATM   27  C3  UNL     1      83.395   6.824  32.143  1.00  0.00     0.039 C 
ENDBRANCH  24  25
ENDBRANCH   1  24
TORSDOF 8
ENDMDL
