MODEL 1
REMARK VINA RESULT: -7.700727695      0.000      0.000
REMARK  14 active torsions:
REMARK  status: ('A' for Active; 'I' for Inactive)
REMARK    1  A    between atoms: C1_2  and  C2_7 
REMARK    2  A    between atoms: N2_3  and  O1_5 
REMARK    3  A    between atoms: C4_11  and  N4_12 
REMARK    4  A    between atoms: C5_15  and  N6_16 
REMARK    5  A    between atoms: N6_16  and  C6_18 
REMARK    6  A    between atoms: C6_18  and  O2_19 
REMARK    7  A    between atoms: C6_18  and  C7_21 
REMARK    8  A    between atoms: C12_33  and  C13_34 
REMARK       I    between atoms: C13_34  and  N10_36 
REMARK    9  A    between atoms: N10_36  and  C14_38 
REMARK   10  A    between atoms: C14_38  and  C15_39 
REMARK   11  A    between atoms: C14_38  and  C16_42 
REMARK   12  A    between atoms: C15_39  and  O6_40 
REMARK   13  A    between atoms: C16_42  and  O7_43 
REMARK   14  A    between atoms: C16_42  and  O8_45 
ROOT
HETATM    1  N4  UNL     1      62.295   2.721  49.211  1.00  0.00    -0.232 N 
HETATM    2  N5  UNL     1      63.577   2.584  48.866  1.00  0.00    -0.277 N 
ATOM      3  H5  UNL     1      63.902   2.555  47.900  1.00  0.00     0.189 HD
HETATM    4  C5  UNL     1      64.383   2.487  49.919  1.00  0.00     0.120 A 
HETATM    5  C11 UNL     1      63.563   2.568  51.016  1.00  0.00     0.087 A 
HETATM    6  C12 UNL     1      62.254   2.715  50.541  1.00  0.00     0.129 A 
ENDROOT
BRANCH   4   7
HETATM    7  N6  UNL     1      65.821   2.328  49.919  1.00  0.00    -0.345 N 
ATOM      8  H6  UNL     1      66.289   1.781  50.642  1.00  0.00     0.164 HD
BRANCH   7   9
HETATM    9  C6  UNL     1      66.569   2.961  48.874  1.00  0.00     0.262 C 
BRANCH   9  10
HETATM   10  O2  UNL     1      67.689   2.169  48.622  1.00  0.00    -0.372 OA
ATOM     11  H2  UNL     1      67.411   1.262  48.660  1.00  0.00     0.212 HD
ENDBRANCH   9  10
BRANCH   9  12
HETATM   12  C7  UNL     1      66.879   4.363  49.175  1.00  0.00     0.099 A 
HETATM   13  C8  UNL     1      66.043   5.363  48.784  1.00  0.00     0.136 A 
HETATM   14  N7  UNL     1      64.837   5.122  48.035  1.00  0.00    -0.082 NA
HETATM   15  N8  UNL     1      66.324   6.638  49.075  1.00  0.00    -0.296 N 
HETATM   16  C9  UNL     1      67.449   6.898  49.760  1.00  0.00     0.328 A 
ATOM     17  H8  UNL     1      65.700   7.392  48.785  1.00  0.00     0.171 HD
HETATM   18  O3  UNL     1      67.698   8.111  50.026  1.00  0.00    -0.247 OA
HETATM   19  N9  UNL     1      68.288   5.938  50.156  1.00  0.00    -0.275 N 
HETATM   20  C10 UNL     1      68.023   4.654  49.874  1.00  0.00     0.263 A 
ATOM     21  H9  UNL     1      69.131   6.182  50.675  1.00  0.00     0.173 HD
HETATM   22  O4  UNL     1      68.826   3.757  50.255  1.00  0.00    -0.267 OA
ENDBRANCH   9  12
ENDBRANCH   7   9
ENDBRANCH   4   7
BRANCH   1  23
HETATM   23  C4  UNL     1      61.225   2.846  48.245  1.00  0.00     0.144 A 
HETATM   24  C3  UNL     1      60.375   1.794  47.965  1.00  0.00     0.139 A 
HETATM   25  N3  UNL     1      59.398   2.026  47.072  1.00  0.00    -0.357 N 
HETATM   26  C2  UNL     1      59.225   3.214  46.461  1.00  0.00     0.117 A 
ATOM     27  H3  UNL     1      58.756   1.267  46.846  1.00  0.00     0.165 HD
HETATM   28  C17 UNL     1      60.090   4.274  46.749  1.00  0.00     0.148 A 
HETATM   29  N11 UNL     1      61.067   4.039  47.643  1.00  0.00    -0.326 N 
HETATM   30  N12 UNL     1      59.905   5.519  46.103  1.00  0.00    -0.080 NA
ATOM     31  H11 UNL     1      61.713   4.794  47.872  1.00  0.00     0.168 HD
BRANCH  26  32
HETATM   32  C1  UNL     1      58.164   3.451  45.497  1.00  0.00     0.166 C 
HETATM   33  N1  UNL     1      58.337   3.187  44.118  1.00  0.00    -0.078 NA
HETATM   34  N2  UNL     1      57.044   3.911  45.922  1.00  0.00    -0.253 N 
ATOM     35  H2  UNL     1      56.962   4.087  46.923  1.00  0.00     0.195 HD
BRANCH  34  36
HETATM   36  O1  UNL     1      55.960   4.185  45.155  1.00  0.00    -0.288 OA
ATOM     37  H1  UNL     1      55.885   4.902  44.537  1.00  0.00     0.244 HD
ENDBRANCH  34  36
ENDBRANCH  26  32
ENDBRANCH   1  23
BRANCH   6  38
HETATM   38  C13 UNL     1      61.122   2.832  51.440  1.00  0.00     0.271 C 
HETATM   39  O5  UNL     1      60.857   1.823  52.191  1.00  0.00    -0.266 OA
HETATM   40  N10 UNL     1      60.257   3.927  51.601  1.00  0.00    -0.344 N 
ATOM     41  H10 UNL     1      60.382   4.777  51.051  1.00  0.00     0.163 HD
BRANCH  40  42
HETATM   42  C14 UNL     1      59.158   3.817  52.589  1.00  0.00     0.163 C 
BRANCH  42  43
HETATM   43  C15 UNL     1      58.993   5.193  53.230  1.00  0.00     0.194 C 
BRANCH  43  44
HETATM   44  O6  UNL     1      59.067   6.119  52.186  1.00  0.00    -0.399 OA
ATOM     45  H6  UNL     1      58.877   5.636  51.390  1.00  0.00     0.209 HD
ENDBRANCH  43  44
ENDBRANCH  42  43
BRANCH  42  46
HETATM   46  C16 UNL     1      57.933   3.430  51.810  1.00  0.00     0.278 C 
BRANCH  46  47
HETATM   47  O7  UNL     1      58.059   3.782  50.475  1.00  0.00    -0.369 OA
ATOM     48  H7  UNL     1      57.222   4.038  50.109  1.00  0.00     0.212 HD
ENDBRANCH  46  47
BRANCH  46  49
HETATM   49  O8  UNL     1      57.812   2.037  51.905  1.00  0.00    -0.369 OA
ATOM     50  H8  UNL     1      58.678   1.696  52.097  1.00  0.00     0.212 HD
ENDBRANCH  46  49
ENDBRANCH  42  46
ENDBRANCH  40  42
ENDBRANCH   6  38
TORSDOF 14
ENDMDL
MODEL 2
REMARK VINA RESULT: -7.568746730      2.973      4.650
REMARK  14 active torsions:
REMARK  status: ('A' for Active; 'I' for Inactive)
REMARK    1  A    between atoms: C1_2  and  C2_7 
REMARK    2  A    between atoms: N2_3  and  O1_5 
REMARK    3  A    between atoms: C4_11  and  N4_12 
REMARK    4  A    between atoms: C5_15  and  N6_16 
REMARK    5  A    between atoms: N6_16  and  C6_18 
REMARK    6  A    between atoms: C6_18  and  O2_19 
REMARK    7  A    between atoms: C6_18  and  C7_21 
REMARK    8  A    between atoms: C12_33  and  C13_34 
REMARK       I    between atoms: C13_34  and  N10_36 
REMARK    9  A    between atoms: N10_36  and  C14_38 
REMARK   10  A    between atoms: C14_38  and  C15_39 
REMARK   11  A    between atoms: C14_38  and  C16_42 
REMARK   12  A    between atoms: C15_39  and  O6_40 
REMARK   13  A    between atoms: C16_42  and  O7_43 
REMARK   14  A    between atoms: C16_42  and  O8_45 
ROOT
HETATM    1  N4  UNL     1      59.728   3.479  45.906  1.00  0.00    -0.232 N 
HETATM    2  N5  UNL     1      60.874   4.051  46.282  1.00  0.00    -0.277 N 
ATOM      3  H5  UNL     1      61.363   4.755  45.729  1.00  0.00     0.189 HD
HETATM    4  C5  UNL     1      61.310   3.602  47.455  1.00  0.00     0.120 A 
HETATM    5  C11 UNL     1      60.380   2.679  47.861  1.00  0.00     0.087 A 
HETATM    6  C12 UNL     1      59.396   2.621  46.867  1.00  0.00     0.129 A 
ENDROOT
BRANCH   4   7
HETATM    7  N6  UNL     1      62.509   3.996  48.162  1.00  0.00    -0.345 N 
ATOM      8  H6  UNL     1      62.568   3.921  49.177  1.00  0.00     0.164 HD
BRANCH   7   9
HETATM    9  C6  UNL     1      63.611   4.494  47.394  1.00  0.00     0.262 C 
BRANCH   9  10
HETATM   10  O2  UNL     1      63.720   3.700  46.253  1.00  0.00    -0.372 OA
ATOM     11  H2  UNL     1      63.629   4.271  45.499  1.00  0.00     0.212 HD
ENDBRANCH   9  10
BRANCH   9  12
HETATM   12  C7  UNL     1      64.846   4.589  48.181  1.00  0.00     0.099 A 
HETATM   13  C8  UNL     1      65.563   3.475  48.494  1.00  0.00     0.136 A 
HETATM   14  N7  UNL     1      65.150   2.150  48.110  1.00  0.00    -0.082 NA
HETATM   15  N8  UNL     1      66.696   3.570  49.199  1.00  0.00    -0.296 N 
HETATM   16  C9  UNL     1      67.100   4.791  49.586  1.00  0.00     0.328 A 
ATOM     17  H8  UNL     1      67.237   2.739  49.435  1.00  0.00     0.171 HD
HETATM   18  O3  UNL     1      68.175   4.860  50.252  1.00  0.00    -0.247 OA
HETATM   19  N9  UNL     1      66.418   5.900  49.294  1.00  0.00    -0.275 N 
HETATM   20  C10 UNL     1      65.279   5.825  48.588  1.00  0.00     0.263 A 
ATOM     21  H9  UNL     1      66.763   6.807  49.608  1.00  0.00     0.173 HD
HETATM   22  O4  UNL     1      64.645   6.883  48.320  1.00  0.00    -0.267 OA
ENDBRANCH   9  12
ENDBRANCH   7   9
ENDBRANCH   4   7
BRANCH   1  23
HETATM   23  C4  UNL     1      59.054   3.801  44.667  1.00  0.00     0.144 A 
HETATM   24  C3  UNL     1      58.990   2.900  43.621  1.00  0.00     0.139 A 
HETATM   25  N3  UNL     1      58.315   3.290  42.526  1.00  0.00    -0.357 N 
HETATM   26  C2  UNL     1      57.717   4.492  42.419  1.00  0.00     0.117 A 
ATOM     27  H3  UNL     1      58.253   2.645  41.739  1.00  0.00     0.165 HD
HETATM   28  C17 UNL     1      57.786   5.398  43.481  1.00  0.00     0.148 A 
HETATM   29  N11 UNL     1      58.462   5.006  44.575  1.00  0.00    -0.326 N 
HETATM   30  N12 UNL     1      57.157   6.660  43.362  1.00  0.00    -0.080 NA
ATOM     31  H11 UNL     1      58.530   5.647  45.365  1.00  0.00     0.168 HD
BRANCH  26  32
HETATM   32  C1  UNL     1      56.990   4.900  41.228  1.00  0.00     0.166 C 
HETATM   33  N1  UNL     1      57.658   5.289  40.044  1.00  0.00    -0.078 NA
HETATM   34  N2  UNL     1      55.707   4.902  41.266  1.00  0.00    -0.253 N 
ATOM     35  H2  UNL     1      55.266   4.613  42.139  1.00  0.00     0.195 HD
BRANCH  34  36
HETATM   36  O1  UNL     1      54.887   5.254  40.245  1.00  0.00    -0.288 OA
ATOM     37  H1  UNL     1      55.096   5.192  39.321  1.00  0.00     0.244 HD
ENDBRANCH  34  36
ENDBRANCH  26  32
ENDBRANCH   1  23
BRANCH   6  38
HETATM   38  C13 UNL     1      58.250   1.738  46.973  1.00  0.00     0.271 C 
HETATM   39  O5  UNL     1      58.261   0.667  46.262  1.00  0.00    -0.266 OA
HETATM   40  N10 UNL     1      57.104   1.903  47.767  1.00  0.00    -0.344 N 
ATOM     41  H10 UNL     1      56.997   2.721  48.368  1.00  0.00     0.163 HD
BRANCH  40  42
HETATM   42  C14 UNL     1      56.052   0.861  47.711  1.00  0.00     0.163 C 
BRANCH  42  43
HETATM   43  C15 UNL     1      55.803   0.398  49.144  1.00  0.00     0.194 C 
BRANCH  43  44
HETATM   44  O6  UNL     1      56.050   1.507  49.959  1.00  0.00    -0.399 OA
ATOM     45  H6  UNL     1      55.848   1.232  50.846  1.00  0.00     0.209 HD
ENDBRANCH  43  44
ENDBRANCH  42  43
BRANCH  42  46
HETATM   46  C16 UNL     1      54.834   1.527  47.136  1.00  0.00     0.278 C 
BRANCH  46  47
HETATM   47  O7  UNL     1      54.331   0.806  46.064  1.00  0.00    -0.369 OA
ATOM     48  H7  UNL     1      53.457   1.100  45.835  1.00  0.00     0.212 HD
ENDBRANCH  46  47
BRANCH  46  49
HETATM   49  O8  UNL     1      53.871   1.567  48.153  1.00  0.00    -0.369 OA
ATOM     50  H8  UNL     1      53.318   2.320  47.982  1.00  0.00     0.212 HD
ENDBRANCH  46  49
ENDBRANCH  42  46
ENDBRANCH  40  42
ENDBRANCH   6  38
TORSDOF 14
ENDMDL
MODEL 3
REMARK VINA RESULT: -7.562642245      3.116      4.966
REMARK  14 active torsions:
REMARK  status: ('A' for Active; 'I' for Inactive)
REMARK    1  A    between atoms: C1_2  and  C2_7 
REMARK    2  A    between atoms: N2_3  and  O1_5 
REMARK    3  A    between atoms: C4_11  and  N4_12 
REMARK    4  A    between atoms: C5_15  and  N6_16 
REMARK    5  A    between atoms: N6_16  and  C6_18 
REMARK    6  A    between atoms: C6_18  and  O2_19 
REMARK    7  A    between atoms: C6_18  and  C7_21 
REMARK    8  A    between atoms: C12_33  and  C13_34 
REMARK       I    between atoms: C13_34  and  N10_36 
REMARK    9  A    between atoms: N10_36  and  C14_38 
REMARK   10  A    between atoms: C14_38  and  C15_39 
REMARK   11  A    between atoms: C14_38  and  C16_42 
REMARK   12  A    between atoms: C15_39  and  O6_40 
REMARK   13  A    between atoms: C16_42  and  O7_43 
REMARK   14  A    between atoms: C16_42  and  O8_45 
ROOT
HETATM    1  N4  UNL     1      59.555   3.756  46.125  1.00  0.00    -0.232 N 
HETATM    2  N5  UNL     1      60.734   4.241  46.520  1.00  0.00    -0.277 N 
ATOM      3  H5  UNL     1      61.169   5.069  46.113  1.00  0.00     0.189 HD
HETATM    4  C5  UNL     1      61.279   3.528  47.502  1.00  0.00     0.120 A 
HETATM    5  C11 UNL     1      60.389   2.515  47.754  1.00  0.00     0.087 A 
HETATM    6  C12 UNL     1      59.314   2.682  46.874  1.00  0.00     0.129 A 
ENDROOT
BRANCH   4   7
HETATM    7  N6  UNL     1      62.542   3.762  48.166  1.00  0.00    -0.345 N 
ATOM      8  H6  UNL     1      62.702   3.435  49.120  1.00  0.00     0.164 HD
BRANCH   7   9
HETATM    9  C6  UNL     1      63.563   4.465  47.448  1.00  0.00     0.262 C 
BRANCH   9  10
HETATM   10  O2  UNL     1      63.686   3.862  46.197  1.00  0.00    -0.372 OA
ATOM     11  H2  UNL     1      64.507   4.153  45.820  1.00  0.00     0.212 HD
ENDBRANCH   9  10
BRANCH   9  12
HETATM   12  C7  UNL     1      64.820   4.552  48.200  1.00  0.00     0.099 A 
HETATM   13  C8  UNL     1      65.546   3.436  48.479  1.00  0.00     0.136 A 
HETATM   14  N7  UNL     1      65.125   2.115  48.092  1.00  0.00    -0.082 NA
HETATM   15  N8  UNL     1      66.700   3.525  49.152  1.00  0.00    -0.296 N 
HETATM   16  C9  UNL     1      67.113   4.741  49.541  1.00  0.00     0.328 A 
ATOM     17  H8  UNL     1      67.249   2.691  49.363  1.00  0.00     0.171 HD
HETATM   18  O3  UNL     1      68.207   4.804  50.177  1.00  0.00    -0.247 OA
HETATM   19  N9  UNL     1      66.422   5.853  49.282  1.00  0.00    -0.275 N 
HETATM   20  C10 UNL     1      65.263   5.785  48.609  1.00  0.00     0.263 A 
ATOM     21  H9  UNL     1      66.775   6.756  49.597  1.00  0.00     0.173 HD
HETATM   22  O4  UNL     1      64.621   6.844  48.372  1.00  0.00    -0.267 OA
ENDBRANCH   9  12
ENDBRANCH   7   9
ENDBRANCH   4   7
BRANCH   1  23
HETATM   23  C4  UNL     1      58.766   4.357  45.072  1.00  0.00     0.144 A 
HETATM   24  C3  UNL     1      59.143   5.541  44.469  1.00  0.00     0.139 A 
HETATM   25  N3  UNL     1      58.353   5.996  43.482  1.00  0.00    -0.357 N 
HETATM   26  C2  UNL     1      57.240   5.356  43.074  1.00  0.00     0.117 A 
ATOM     27  H3  UNL     1      58.608   6.869  43.020  1.00  0.00     0.165 HD
HETATM   28  C17 UNL     1      56.865   4.159  43.689  1.00  0.00     0.148 A 
HETATM   29  N11 UNL     1      57.657   3.705  44.677  1.00  0.00    -0.326 N 
HETATM   30  N12 UNL     1      55.695   3.492  43.257  1.00  0.00    -0.080 NA
ATOM     31  H11 UNL     1      57.407   2.834  45.144  1.00  0.00     0.168 HD
BRANCH  26  32
HETATM   32  C1  UNL     1      56.396   5.861  42.005  1.00  0.00     0.166 C 
HETATM   33  N1  UNL     1      55.549   6.979  42.189  1.00  0.00    -0.078 NA
HETATM   34  N2  UNL     1      56.429   5.268  40.867  1.00  0.00    -0.253 N 
ATOM     35  H2  UNL     1      57.053   4.466  40.778  1.00  0.00     0.195 HD
BRANCH  34  36
HETATM   36  O1  UNL     1      55.705   5.613  39.774  1.00  0.00    -0.288 OA
ATOM     37  H1  UNL     1      55.103   5.047  39.307  1.00  0.00     0.244 HD
ENDBRANCH  34  36
ENDBRANCH  26  32
ENDBRANCH   1  23
BRANCH   6  38
HETATM   38  C13 UNL     1      58.180   1.777  46.868  1.00  0.00     0.271 C 
HETATM   39  O5  UNL     1      58.347   0.625  46.321  1.00  0.00    -0.266 OA
HETATM   40  N10 UNL     1      56.897   1.998  47.391  1.00  0.00    -0.344 N 
ATOM     41  H10 UNL     1      56.662   2.881  47.845  1.00  0.00     0.163 HD
BRANCH  40  42
HETATM   42  C14 UNL     1      55.890   0.918  47.267  1.00  0.00     0.163 C 
BRANCH  42  43
HETATM   43  C15 UNL     1      55.098   0.891  48.572  1.00  0.00     0.194 C 
BRANCH  43  44
HETATM   44  O6  UNL     1      53.893   1.549  48.309  1.00  0.00    -0.399 OA
ATOM     45  H6  UNL     1      53.957   2.396  48.735  1.00  0.00     0.209 HD
ENDBRANCH  43  44
ENDBRANCH  42  43
BRANCH  42  46
HETATM   46  C16 UNL     1      55.013   1.296  46.107  1.00  0.00     0.278 C 
BRANCH  46  47
HETATM   47  O7  UNL     1      54.938   2.673  45.965  1.00  0.00    -0.369 OA
ATOM     48  H7  UNL     1      54.483   2.910  45.167  1.00  0.00     0.212 HD
ENDBRANCH  46  47
BRANCH  46  49
HETATM   49  O8  UNL     1      55.599   0.749  44.957  1.00  0.00    -0.369 OA
ATOM     50  H8  UNL     1      56.538   0.754  45.096  1.00  0.00     0.212 HD
ENDBRANCH  46  49
ENDBRANCH  42  46
ENDBRANCH  40  42
ENDBRANCH   6  38
TORSDOF 14
ENDMDL
MODEL 4
REMARK VINA RESULT: -7.483852188      2.939      4.741
REMARK  14 active torsions:
REMARK  status: ('A' for Active; 'I' for Inactive)
REMARK    1  A    between atoms: C1_2  and  C2_7 
REMARK    2  A    between atoms: N2_3  and  O1_5 
REMARK    3  A    between atoms: C4_11  and  N4_12 
REMARK    4  A    between atoms: C5_15  and  N6_16 
REMARK    5  A    between atoms: N6_16  and  C6_18 
REMARK    6  A    between atoms: C6_18  and  O2_19 
REMARK    7  A    between atoms: C6_18  and  C7_21 
REMARK    8  A    between atoms: C12_33  and  C13_34 
REMARK       I    between atoms: C13_34  and  N10_36 
REMARK    9  A    between atoms: N10_36  and  C14_38 
REMARK   10  A    between atoms: C14_38  and  C15_39 
REMARK   11  A    between atoms: C14_38  and  C16_42 
REMARK   12  A    between atoms: C15_39  and  O6_40 
REMARK   13  A    between atoms: C16_42  and  O7_43 
REMARK   14  A    between atoms: C16_42  and  O8_45 
ROOT
HETATM    1  N4  UNL     1      59.673   3.740  46.160  1.00  0.00    -0.232 N 
HETATM    2  N5  UNL     1      60.851   4.222  46.563  1.00  0.00    -0.277 N 
ATOM      3  H5  UNL     1      61.294   5.046  46.157  1.00  0.00     0.189 HD
HETATM    4  C5  UNL     1      61.384   3.511  47.553  1.00  0.00     0.120 A 
HETATM    5  C11 UNL     1      60.487   2.503  47.801  1.00  0.00     0.087 A 
HETATM    6  C12 UNL     1      59.420   2.671  46.910  1.00  0.00     0.129 A 
ENDROOT
BRANCH   4   7
HETATM    7  N6  UNL     1      62.641   3.742  48.228  1.00  0.00    -0.345 N 
ATOM      8  H6  UNL     1      62.800   3.395  49.175  1.00  0.00     0.164 HD
BRANCH   7   9
HETATM    9  C6  UNL     1      63.659   4.470  47.531  1.00  0.00     0.262 C 
BRANCH   9  10
HETATM   10  O2  UNL     1      63.737   3.948  46.240  1.00  0.00    -0.372 OA
ATOM     11  H2  UNL     1      63.649   3.005  46.308  1.00  0.00     0.212 HD
ENDBRANCH   9  10
BRANCH   9  12
HETATM   12  C7  UNL     1      64.935   4.484  48.253  1.00  0.00     0.099 A 
HETATM   13  C8  UNL     1      65.460   5.648  48.724  1.00  0.00     0.136 A 
HETATM   14  N7  UNL     1      64.827   6.926  48.521  1.00  0.00    -0.082 NA
HETATM   15  N8  UNL     1      66.617   5.651  49.395  1.00  0.00    -0.296 N 
HETATM   16  C9  UNL     1      67.240   4.478  49.588  1.00  0.00     0.328 A 
ATOM     17  H8  UNL     1      67.014   6.521  49.751  1.00  0.00     0.171 HD
HETATM   18  O3  UNL     1      68.334   4.501  50.226  1.00  0.00    -0.247 OA
HETATM   19  N9  UNL     1      66.750   3.321  49.138  1.00  0.00    -0.275 N 
HETATM   20  C10 UNL     1      65.591   3.297  48.463  1.00  0.00     0.263 A 
ATOM     21  H9  UNL     1      67.258   2.453  49.308  1.00  0.00     0.173 HD
HETATM   22  O4  UNL     1      65.140   2.195  48.044  1.00  0.00    -0.267 OA
ENDBRANCH   9  12
ENDBRANCH   7   9
ENDBRANCH   4   7
BRANCH   1  23
HETATM   23  C4  UNL     1      58.897   4.340  45.097  1.00  0.00     0.144 A 
HETATM   24  C3  UNL     1      59.370   5.418  44.373  1.00  0.00     0.139 A 
HETATM   25  N3  UNL     1      58.579   5.880  43.388  1.00  0.00    -0.357 N 
HETATM   26  C2  UNL     1      57.380   5.343  43.093  1.00  0.00     0.117 A 
ATOM     27  H3  UNL     1      58.904   6.675  42.838  1.00  0.00     0.165 HD
HETATM   28  C17 UNL     1      56.908   4.253  43.831  1.00  0.00     0.148 A 
HETATM   29  N11 UNL     1      57.700   3.793  44.816  1.00  0.00    -0.326 N 
HETATM   30  N12 UNL     1      55.647   3.694  43.517  1.00  0.00    -0.080 NA
ATOM     31  H11 UNL     1      57.381   2.999  45.370  1.00  0.00     0.168 HD
BRANCH  26  32
HETATM   32  C1  UNL     1      56.536   5.853  42.026  1.00  0.00     0.166 C 
HETATM   33  N1  UNL     1      55.743   7.012  42.193  1.00  0.00    -0.078 NA
HETATM   34  N2  UNL     1      56.521   5.225  40.906  1.00  0.00    -0.253 N 
ATOM     35  H2  UNL     1      57.108   4.395  40.829  1.00  0.00     0.195 HD
BRANCH  34  36
HETATM   36  O1  UNL     1      55.791   5.571  39.817  1.00  0.00    -0.288 OA
ATOM     37  H1  UNL     1      54.843   5.615  39.777  1.00  0.00     0.244 HD
ENDBRANCH  34  36
ENDBRANCH  26  32
ENDBRANCH   1  23
BRANCH   6  38
HETATM   38  C13 UNL     1      58.283   1.771  46.898  1.00  0.00     0.271 C 
HETATM   39  O5  UNL     1      58.223   0.908  45.947  1.00  0.00    -0.266 OA
HETATM   40  N10 UNL     1      57.214   1.718  47.807  1.00  0.00    -0.344 N 
ATOM     41  H10 UNL     1      57.168   2.361  48.597  1.00  0.00     0.163 HD
BRANCH  40  42
HETATM   42  C14 UNL     1      56.155   0.705  47.591  1.00  0.00     0.163 C 
BRANCH  42  43
HETATM   43  C15 UNL     1      55.836   0.093  48.951  1.00  0.00     0.194 C 
BRANCH  43  44
HETATM   44  O6  UNL     1      55.409   1.148  49.762  1.00  0.00    -0.399 OA
ATOM     45  H6  UNL     1      55.169   0.760  50.596  1.00  0.00     0.209 HD
ENDBRANCH  43  44
ENDBRANCH  42  43
BRANCH  42  46
HETATM   46  C16 UNL     1      54.972   1.449  47.038  1.00  0.00     0.278 C 
BRANCH  46  47
HETATM   47  O7  UNL     1      55.156   1.755  45.699  1.00  0.00    -0.369 OA
ATOM     48  H7  UNL     1      55.190   2.694  45.564  1.00  0.00     0.212 HD
ENDBRANCH  46  47
BRANCH  46  49
HETATM   49  O8  UNL     1      53.861   0.604  47.166  1.00  0.00    -0.369 OA
ATOM     50  H8  UNL     1      53.641   0.303  46.293  1.00  0.00     0.212 HD
ENDBRANCH  46  49
ENDBRANCH  42  46
ENDBRANCH  40  42
ENDBRANCH   6  38
TORSDOF 14
ENDMDL
MODEL 5
REMARK VINA RESULT: -7.404459090      2.305      3.419
REMARK  14 active torsions:
REMARK  status: ('A' for Active; 'I' for Inactive)
REMARK    1  A    between atoms: C1_2  and  C2_7 
REMARK    2  A    between atoms: N2_3  and  O1_5 
REMARK    3  A    between atoms: C4_11  and  N4_12 
REMARK    4  A    between atoms: C5_15  and  N6_16 
REMARK    5  A    between atoms: N6_16  and  C6_18 
REMARK    6  A    between atoms: C6_18  and  O2_19 
REMARK    7  A    between atoms: C6_18  and  C7_21 
REMARK    8  A    between atoms: C12_33  and  C13_34 
REMARK       I    between atoms: C13_34  and  N10_36 
REMARK    9  A    between atoms: N10_36  and  C14_38 
REMARK   10  A    between atoms: C14_38  and  C15_39 
REMARK   11  A    between atoms: C14_38  and  C16_42 
REMARK   12  A    between atoms: C15_39  and  O6_40 
REMARK   13  A    between atoms: C16_42  and  O7_43 
REMARK   14  A    between atoms: C16_42  and  O8_45 
ROOT
HETATM    1  N4  UNL     1      60.662   3.533  47.676  1.00  0.00    -0.232 N 
HETATM    2  N5  UNL     1      61.993   3.603  47.750  1.00  0.00    -0.277 N 
ATOM      3  H5  UNL     1      62.582   3.969  47.002  1.00  0.00     0.189 HD
HETATM    4  C5  UNL     1      62.466   3.141  48.903  1.00  0.00     0.120 A 
HETATM    5  C11 UNL     1      61.364   2.748  49.619  1.00  0.00     0.087 A 
HETATM    6  C12 UNL     1      60.242   3.006  48.823  1.00  0.00     0.129 A 
ENDROOT
BRANCH   4   7
HETATM    7  N6  UNL     1      63.848   3.063  49.323  1.00  0.00    -0.345 N 
ATOM      8  H6  UNL     1      64.095   2.738  50.258  1.00  0.00     0.164 HD
BRANCH   7   9
HETATM    9  C6  UNL     1      64.860   3.456  48.388  1.00  0.00     0.262 C 
BRANCH   9  10
HETATM   10  O2  UNL     1      65.676   2.348  48.164  1.00  0.00    -0.372 OA
ATOM     11  H2  UNL     1      66.443   2.649  47.691  1.00  0.00     0.212 HD
ENDBRANCH   9  10
BRANCH   9  12
HETATM   12  C7  UNL     1      65.583   4.659  48.816  1.00  0.00     0.099 A 
HETATM   13  C8  UNL     1      66.853   4.578  49.295  1.00  0.00     0.136 A 
HETATM   14  N7  UNL     1      67.551   3.327  49.445  1.00  0.00    -0.082 NA
HETATM   15  N8  UNL     1      67.512   5.681  49.669  1.00  0.00    -0.296 N 
HETATM   16  C9  UNL     1      66.884   6.862  49.557  1.00  0.00     0.328 A 
ATOM     17  H8  UNL     1      68.465   5.626  50.029  1.00  0.00     0.171 HD
HETATM   18  O3  UNL     1      67.524   7.894  49.915  1.00  0.00    -0.247 OA
HETATM   19  N9  UNL     1      65.639   6.973  49.090  1.00  0.00    -0.275 N 
HETATM   20  C10 UNL     1      64.962   5.878  48.710  1.00  0.00     0.263 A 
ATOM     21  H9  UNL     1      65.201   7.891  49.021  1.00  0.00     0.173 HD
HETATM   22  O4  UNL     1      63.785   5.998  48.271  1.00  0.00    -0.267 OA
ENDBRANCH   9  12
ENDBRANCH   7   9
ENDBRANCH   4   7
BRANCH   1  23
HETATM   23  C4  UNL     1      59.911   3.975  46.520  1.00  0.00     0.144 A 
HETATM   24  C3  UNL     1      58.535   3.859  46.463  1.00  0.00     0.139 A 
HETATM   25  N3  UNL     1      57.935   4.327  45.355  1.00  0.00    -0.357 N 
HETATM   26  C2  UNL     1      58.608   4.887  44.332  1.00  0.00     0.117 A 
ATOM     27  H3  UNL     1      56.919   4.254  45.286  1.00  0.00     0.165 HD
HETATM   28  C17 UNL     1      60.000   5.000  44.398  1.00  0.00     0.148 A 
HETATM   29  N11 UNL     1      60.599   4.531  45.507  1.00  0.00    -0.326 N 
HETATM   30  N12 UNL     1      60.702   5.588  43.319  1.00  0.00    -0.080 NA
ATOM     31  H11 UNL     1      61.614   4.600  45.582  1.00  0.00     0.168 HD
BRANCH  26  32
HETATM   32  C1  UNL     1      57.944   5.388  43.140  1.00  0.00     0.166 C 
HETATM   33  N1  UNL     1      57.042   6.476  43.192  1.00  0.00    -0.078 NA
HETATM   34  N2  UNL     1      58.193   4.819  42.017  1.00  0.00    -0.253 N 
ATOM     35  H2  UNL     1      58.850   4.039  42.025  1.00  0.00     0.195 HD
BRANCH  34  36
HETATM   36  O1  UNL     1      57.658   5.165  40.820  1.00  0.00    -0.288 OA
ATOM     37  H1  UNL     1      57.606   4.606  40.055  1.00  0.00     0.244 HD
ENDBRANCH  34  36
ENDBRANCH  26  32
ENDBRANCH   1  23
BRANCH   6  38
HETATM   38  C13 UNL     1      58.896   2.709  49.275  1.00  0.00     0.271 C 
HETATM   39  O5  UNL     1      58.255   3.646  49.878  1.00  0.00    -0.266 OA
HETATM   40  N10 UNL     1      58.186   1.505  49.139  1.00  0.00    -0.344 N 
ATOM     41  H10 UNL     1      58.607   0.700  48.676  1.00  0.00     0.163 HD
BRANCH  40  42
HETATM   42  C14 UNL     1      56.811   1.433  49.686  1.00  0.00     0.163 C 
BRANCH  42  43
HETATM   43  C15 UNL     1      55.990   0.580  48.722  1.00  0.00     0.194 C 
BRANCH  43  44
HETATM   44  O6  UNL     1      56.754  -0.563  48.469  1.00  0.00    -0.399 OA
ATOM     45  H6  UNL     1      56.135  -1.248  48.241  1.00  0.00     0.209 HD
ENDBRANCH  43  44
ENDBRANCH  42  43
BRANCH  42  46
HETATM   46  C16 UNL     1      56.930   0.773  51.030  1.00  0.00     0.278 C 
BRANCH  46  47
HETATM   47  O7  UNL     1      58.105   0.045  51.126  1.00  0.00    -0.369 OA
ATOM     48  H7  UNL     1      58.749   0.353  50.500  1.00  0.00     0.212 HD
ENDBRANCH  46  47
BRANCH  46  49
HETATM   49  O8  UNL     1      56.947   1.797  51.987  1.00  0.00    -0.369 OA
ATOM     50  H8  UNL     1      56.393   1.514  52.705  1.00  0.00     0.212 HD
ENDBRANCH  46  49
ENDBRANCH  42  46
ENDBRANCH  40  42
ENDBRANCH   6  38
TORSDOF 14
ENDMDL
