MODEL 1
REMARK VINA RESULT: -7.152726087      0.000      0.000
REMARK  17 active torsions:
REMARK  status: ('A' for Active; 'I' for Inactive)
REMARK    1  A    between atoms: N1_1  and  C1_5 
REMARK    2  A    between atoms: C3_7  and  O1_8 
REMARK    3  A    between atoms: N2_10  and  C4_11 
REMARK    4  A    between atoms: C5_12  and  C6_13 
REMARK    5  A    between atoms: C6_13  and  O2_14 
REMARK    6  A    between atoms: C6_13  and  C7_16 
REMARK    7  A    between atoms: C7_16  and  C8_17 
REMARK    8  A    between atoms: C8_17  and  C9_18 
REMARK    9  A    between atoms: C9_18  and  C10_19 
REMARK   10  A    between atoms: C10_19  and  N3_20 
REMARK   11  A    between atoms: N3_20  and  C11_22 
REMARK   12  A    between atoms: C13_29  and  O3_30 
REMARK   13  A    between atoms: C14_35  and  O5_36 
REMARK   14  A    between atoms: C14_35  and  C15_38 
REMARK   15  A    between atoms: C15_38  and  C16_39 
REMARK   16  A    between atoms: N8_45  and  O6_47 
REMARK   17  A    between atoms: C20_51  and  O8_52 
ROOT
HETATM    1  C4  UNL     1      60.387   4.216  45.252  1.00  0.00     0.291 C 
HETATM    2  C5  UNL     1      59.091   3.604  45.815  1.00  0.00     0.190 C 
HETATM    3  O4  UNL     1      58.114   4.433  45.353  1.00  0.00    -0.343 OA
HETATM    4  C14 UNL     1      58.535   5.058  44.208  1.00  0.00     0.193 C 
HETATM    5  C20 UNL     1      59.902   4.450  43.840  1.00  0.00     0.216 C 
ENDROOT
BRANCH   2   6
HETATM    6  C6  UNL     1      59.232   3.615  47.340  1.00  0.00     0.149 C 
BRANCH   6   7
HETATM    7  O2  UNL     1      59.309   4.920  47.788  1.00  0.00    -0.393 OA
ATOM      8  H2  UNL     1      59.480   4.925  48.723  1.00  0.00     0.210 HD
ENDBRANCH   6   7
BRANCH   6   9
HETATM    9  C7  UNL     1      58.121   2.801  47.910  1.00  0.00     0.034 C 
BRANCH   9  10
HETATM   10  C8  UNL     1      58.475   1.861  49.009  1.00  0.00     0.004 C 
BRANCH  10  11
HETATM   11  C9  UNL     1      58.057   2.332  50.354  1.00  0.00     0.020 C 
BRANCH  11  12
HETATM   12  C10 UNL     1      59.249   3.137  50.913  1.00  0.00     0.138 C 
BRANCH  12  13
HETATM   13  N3  UNL     1      58.896   4.524  51.014  1.00  0.00    -0.227 N 
ATOM     14  H3  UNL     1      58.726   5.091  50.183  1.00  0.00     0.177 HD
BRANCH  13  15
HETATM   15  C11 UNL     1      58.791   5.082  52.333  1.00  0.00     0.674 C 
HETATM   16  N4  UNL     1      59.526   6.076  52.698  1.00  0.00    -0.202 N 
HETATM   17  C12 UNL     1      59.480   6.690  54.000  1.00  0.00     0.376 C 
ATOM     18  H4  UNL     1      60.185   6.455  52.018  1.00  0.00     0.179 HD
HETATM   19  N5  UNL     1      58.749   5.937  54.977  1.00  0.00    -0.014 N 
HETATM   20  C13 UNL     1      57.516   5.456  54.389  1.00  0.00     0.442 C 
ATOM     21  H52 UNL     1      59.305   5.182  55.379  1.00  0.00     0.284 HD
ATOM     22  H51 UNL     1      58.587   6.469  55.832  1.00  0.00     0.284 HD
HETATM   23  N6  UNL     1      57.878   4.569  53.292  1.00  0.00    -0.175 N 
ATOM     24  H6  UNL     1      57.495   3.626  53.216  1.00  0.00     0.182 HD
BRANCH  20  25
HETATM   25  O3  UNL     1      56.867   6.583  53.845  1.00  0.00    -0.354 OA
ATOM     26  H3  UNL     1      55.996   6.602  54.225  1.00  0.00     0.214 HD
ENDBRANCH  20  25
ENDBRANCH  13  15
ENDBRANCH  12  13
ENDBRANCH  11  12
ENDBRANCH  10  11
ENDBRANCH   9  10
ENDBRANCH   6   9
ENDBRANCH   2   6
BRANCH   1  27
HETATM   27  N2  UNL     1      61.501   3.409  45.411  1.00  0.00     0.129 N 
HETATM   28  C3  UNL     1      62.366   3.562  46.508  1.00  0.00     0.359 C 
HETATM   29  C2  UNL     1      62.524   2.179  47.148  1.00  0.00     0.098 C 
HETATM   30  C1  UNL     1      62.249   1.247  45.978  1.00  0.00     0.216 C 
HETATM   31  C21 UNL     1      61.193   2.019  45.213  1.00  0.00     0.309 C 
BRANCH  28  32
HETATM   32  O1  UNL     1      63.641   3.906  46.032  1.00  0.00    -0.368 OA
ATOM     33  H1  UNL     1      63.519   4.133  45.118  1.00  0.00     0.212 HD
ENDBRANCH  28  32
BRANCH  30  34
HETATM   34  N1  UNL     1      63.410   1.139  45.114  1.00  0.00    -0.073 N 
ATOM     35  H13 UNL     1      64.136   0.558  45.531  1.00  0.00     0.274 HD
ATOM     36  H12 UNL     1      63.213   0.573  44.288  1.00  0.00     0.274 HD
ATOM     37  H11 UNL     1      63.766   2.062  44.861  1.00  0.00     0.274 HD
ENDBRANCH  30  34
ENDBRANCH   1  27
BRANCH   5  38
HETATM   38  O8  UNL     1      60.664   5.332  43.122  1.00  0.00    -0.388 OA
ATOM     39  H8  UNL     1      60.871   5.042  42.241  1.00  0.00     0.210 HD
ENDBRANCH   5  38
BRANCH   4  40
HETATM   40  O5  UNL     1      58.801   6.392  44.504  1.00  0.00    -0.363 OA
ATOM     41  H5  UNL     1      59.074   6.830  43.707  1.00  0.00     0.213 HD
ENDBRANCH   4  40
BRANCH   4  42
HETATM   42  C15 UNL     1      57.565   4.909  43.060  1.00  0.00     0.112 C 
BRANCH  42  43
HETATM   43  C16 UNL     1      57.710   3.533  42.500  1.00  0.00     0.267 C 
HETATM   44  N7  UNL     1      57.059   2.499  43.282  1.00  0.00    -0.058 N 
HETATM   45  C17 UNL     1      56.784   1.420  42.369  1.00  0.00     0.295 C 
ATOM     46  H72 UNL     1      57.595   2.211  44.101  1.00  0.00     0.278 HD
ATOM     47  H71 UNL     1      56.233   2.827  43.782  1.00  0.00     0.278 HD
HETATM   48  C18 UNL     1      56.857   1.961  40.985  1.00  0.00     0.105 C 
HETATM   49  N8  UNL     1      56.615   1.304  39.890  1.00  0.00    -0.268 N 
HETATM   50  C19 UNL     1      57.251   3.357  41.120  1.00  0.00     0.206 C 
ATOM     51  H8  UNL     1      56.689   1.759  38.980  1.00  0.00     0.194 HD
HETATM   52  O7  UNL     1      57.213   4.246  40.250  1.00  0.00    -0.289 OA
BRANCH  49  53
HETATM   53  O6  UNL     1      56.261  -0.003  39.987  1.00  0.00    -0.290 OA
ATOM     54  H6  UNL     1      55.694  -0.368  39.317  1.00  0.00     0.244 HD
ENDBRANCH  49  53
ENDBRANCH  42  43
ENDBRANCH   4  42
TORSDOF 17
ENDMDL
MODEL 2
REMARK VINA RESULT: -7.029716199      3.832      5.728
REMARK  17 active torsions:
REMARK  status: ('A' for Active; 'I' for Inactive)
REMARK    1  A    between atoms: N1_1  and  C1_5 
REMARK    2  A    between atoms: C3_7  and  O1_8 
REMARK    3  A    between atoms: N2_10  and  C4_11 
REMARK    4  A    between atoms: C5_12  and  C6_13 
REMARK    5  A    between atoms: C6_13  and  O2_14 
REMARK    6  A    between atoms: C6_13  and  C7_16 
REMARK    7  A    between atoms: C7_16  and  C8_17 
REMARK    8  A    between atoms: C8_17  and  C9_18 
REMARK    9  A    between atoms: C9_18  and  C10_19 
REMARK   10  A    between atoms: C10_19  and  N3_20 
REMARK   11  A    between atoms: N3_20  and  C11_22 
REMARK   12  A    between atoms: C13_29  and  O3_30 
REMARK   13  A    between atoms: C14_35  and  O5_36 
REMARK   14  A    between atoms: C14_35  and  C15_38 
REMARK   15  A    between atoms: C15_38  and  C16_39 
REMARK   16  A    between atoms: N8_45  and  O6_47 
REMARK   17  A    between atoms: C20_51  and  O8_52 
ROOT
HETATM    1  C4  UNL     1      60.929   3.201  46.631  1.00  0.00     0.291 C 
HETATM    2  C5  UNL     1      60.895   2.486  45.268  1.00  0.00     0.190 C 
HETATM    3  O4  UNL     1      59.793   3.004  44.657  1.00  0.00    -0.343 OA
HETATM    4  C14 UNL     1      59.519   4.247  45.166  1.00  0.00     0.193 C 
HETATM    5  C20 UNL     1      60.667   4.603  46.129  1.00  0.00     0.216 C 
ENDROOT
BRANCH   2   6
HETATM    6  C6  UNL     1      60.782   0.988  45.565  1.00  0.00     0.149 C 
BRANCH   6   7
HETATM    7  O2  UNL     1      59.527   0.710  46.072  1.00  0.00    -0.393 OA
ATOM      8  H2  UNL     1      59.604   0.098  46.794  1.00  0.00     0.210 HD
ENDBRANCH   6   7
BRANCH   6   9
HETATM    9  C7  UNL     1      61.158   0.244  44.330  1.00  0.00     0.034 C 
BRANCH   9  10
HETATM   10  C8  UNL     1      60.232   0.361  43.170  1.00  0.00     0.004 C 
BRANCH  10  11
HETATM   11  C9  UNL     1      59.369  -0.832  42.974  1.00  0.00     0.020 C 
BRANCH  11  12
HETATM   12  C10 UNL     1      57.920  -0.303  42.916  1.00  0.00     0.138 C 
BRANCH  12  13
HETATM   13  N3  UNL     1      57.894   1.088  43.267  1.00  0.00    -0.227 N 
ATOM     14  H3  UNL     1      58.603   1.736  42.923  1.00  0.00     0.177 HD
BRANCH  13  15
HETATM   15  C11 UNL     1      56.829   1.532  44.122  1.00  0.00     0.674 C 
HETATM   16  N4  UNL     1      56.897   1.388  45.402  1.00  0.00    -0.202 N 
HETATM   17  C12 UNL     1      55.873   1.806  46.324  1.00  0.00     0.376 C 
ATOM     18  H4  UNL     1      57.733   0.948  45.787  1.00  0.00     0.179 HD
HETATM   19  N5  UNL     1      54.627   2.147  45.701  1.00  0.00    -0.014 N 
HETATM   20  C13 UNL     1      54.882   2.958  44.528  1.00  0.00     0.442 C 
ATOM     21  H52 UNL     1      54.064   1.324  45.486  1.00  0.00     0.284 HD
ATOM     22  H51 UNL     1      53.982   2.599  46.350  1.00  0.00     0.284 HD
HETATM   23  N6  UNL     1      55.660   2.146  43.603  1.00  0.00    -0.175 N 
ATOM     24  H6  UNL     1      55.378   2.025  42.630  1.00  0.00     0.182 HD
BRANCH  20  25
HETATM   25  O3  UNL     1      55.691   4.032  44.954  1.00  0.00    -0.354 OA
ATOM     26  H3  UNL     1      56.524   3.655  45.214  1.00  0.00     0.214 HD
ENDBRANCH  20  25
ENDBRANCH  13  15
ENDBRANCH  12  13
ENDBRANCH  11  12
ENDBRANCH  10  11
ENDBRANCH   9  10
ENDBRANCH   6   9
ENDBRANCH   2   6
BRANCH   1  27
HETATM   27  N2  UNL     1      62.100   2.994  47.341  1.00  0.00     0.129 N 
HETATM   28  C3  UNL     1      63.264   3.729  47.064  1.00  0.00     0.359 C 
HETATM   29  C2  UNL     1      63.751   4.311  48.396  1.00  0.00     0.098 C 
HETATM   30  C1  UNL     1      63.184   3.325  49.406  1.00  0.00     0.216 C 
HETATM   31  C21 UNL     1      61.869   2.945  48.759  1.00  0.00     0.309 C 
BRANCH  28  32
HETATM   32  O1  UNL     1      64.270   2.842  46.650  1.00  0.00    -0.368 OA
ATOM     33  H1  UNL     1      63.925   1.972  46.810  1.00  0.00     0.212 HD
ENDBRANCH  28  32
BRANCH  30  34
HETATM   34  N1  UNL     1      63.994   2.123  49.471  1.00  0.00    -0.073 N 
ATOM     35  H13 UNL     1      64.848   2.214  48.921  1.00  0.00     0.274 HD
ATOM     36  H12 UNL     1      64.416   2.002  50.393  1.00  0.00     0.274 HD
ATOM     37  H11 UNL     1      63.454   1.302  49.194  1.00  0.00     0.274 HD
ENDBRANCH  30  34
ENDBRANCH   1  27
BRANCH   5  38
HETATM   38  O8  UNL     1      60.255   5.479  47.096  1.00  0.00    -0.388 OA
ATOM     39  H8  UNL     1      59.759   6.220  46.767  1.00  0.00     0.210 HD
ENDBRANCH   5  38
BRANCH   4  40
HETATM   40  O5  UNL     1      58.386   4.157  45.972  1.00  0.00    -0.363 OA
ATOM     41  H5  UNL     1      57.625   4.374  45.448  1.00  0.00     0.213 HD
ENDBRANCH   4  40
BRANCH   4  42
HETATM   42  C15 UNL     1      59.377   5.307  44.099  1.00  0.00     0.112 C 
BRANCH  42  43
HETATM   43  C16 UNL     1      58.021   5.178  43.489  1.00  0.00     0.267 C 
HETATM   44  N7  UNL     1      57.322   6.437  43.315  1.00  0.00    -0.058 N 
HETATM   45  C17 UNL     1      56.381   6.230  42.245  1.00  0.00     0.295 C 
ATOM     46  H72 UNL     1      56.892   6.785  44.172  1.00  0.00     0.278 HD
ATOM     47  H71 UNL     1      57.946   7.229  43.158  1.00  0.00     0.278 HD
HETATM   48  C18 UNL     1      56.805   5.020  41.490  1.00  0.00     0.105 C 
HETATM   49  N8  UNL     1      56.238   4.543  40.423  1.00  0.00    -0.268 N 
HETATM   50  C19 UNL     1      57.970   4.496  42.193  1.00  0.00     0.206 C 
ATOM     51  H8  UNL     1      56.600   3.705  39.969  1.00  0.00     0.194 HD
HETATM   52  O7  UNL     1      58.778   3.639  41.793  1.00  0.00    -0.289 OA
BRANCH  49  53
HETATM   53  O6  UNL     1      55.152   5.189  39.926  1.00  0.00    -0.290 OA
ATOM     54  H6  UNL     1      55.019   5.191  38.985  1.00  0.00     0.244 HD
ENDBRANCH  49  53
ENDBRANCH  42  43
ENDBRANCH   4  42
TORSDOF 17
ENDMDL
MODEL 3
REMARK VINA RESULT: -7.028683682      2.244      3.052
REMARK  17 active torsions:
REMARK  status: ('A' for Active; 'I' for Inactive)
REMARK    1  A    between atoms: N1_1  and  C1_5 
REMARK    2  A    between atoms: C3_7  and  O1_8 
REMARK    3  A    between atoms: N2_10  and  C4_11 
REMARK    4  A    between atoms: C5_12  and  C6_13 
REMARK    5  A    between atoms: C6_13  and  O2_14 
REMARK    6  A    between atoms: C6_13  and  C7_16 
REMARK    7  A    between atoms: C7_16  and  C8_17 
REMARK    8  A    between atoms: C8_17  and  C9_18 
REMARK    9  A    between atoms: C9_18  and  C10_19 
REMARK   10  A    between atoms: C10_19  and  N3_20 
REMARK   11  A    between atoms: N3_20  and  C11_22 
REMARK   12  A    between atoms: C13_29  and  O3_30 
REMARK   13  A    between atoms: C14_35  and  O5_36 
REMARK   14  A    between atoms: C14_35  and  C15_38 
REMARK   15  A    between atoms: C15_38  and  C16_39 
REMARK   16  A    between atoms: N8_45  and  O6_47 
REMARK   17  A    between atoms: C20_51  and  O8_52 
ROOT
HETATM    1  C4  UNL     1      60.285   3.641  47.246  1.00  0.00     0.291 C 
HETATM    2  C5  UNL     1      58.959   3.280  47.940  1.00  0.00     0.190 C 
HETATM    3  O4  UNL     1      58.009   3.793  47.109  1.00  0.00    -0.343 OA
HETATM    4  C14 UNL     1      58.504   3.883  45.834  1.00  0.00     0.193 C 
HETATM    5  C20 UNL     1      59.898   3.229  45.844  1.00  0.00     0.216 C 
ENDROOT
BRANCH   2   6
HETATM    6  C6  UNL     1      58.993   3.948  49.317  1.00  0.00     0.149 C 
BRANCH   6   7
HETATM    7  O2  UNL     1      58.392   5.191  49.243  1.00  0.00    -0.393 OA
ATOM      8  H2  UNL     1      58.970   5.846  49.617  1.00  0.00     0.210 HD
ENDBRANCH   6   7
BRANCH   6   9
HETATM    9  C7  UNL     1      58.398   3.001  50.302  1.00  0.00     0.034 C 
BRANCH   9  10
HETATM   10  C8  UNL     1      58.989   2.997  51.668  1.00  0.00     0.004 C 
BRANCH  10  11
HETATM   11  C9  UNL     1      58.421   4.034  52.567  1.00  0.00     0.020 C 
BRANCH  11  12
HETATM   12  C10 UNL     1      59.569   5.025  52.852  1.00  0.00     0.138 C 
BRANCH  12  13
HETATM   13  N3  UNL     1      59.094   6.373  52.718  1.00  0.00    -0.227 N 
ATOM     14  H3  UNL     1      58.540   6.663  51.911  1.00  0.00     0.177 HD
BRANCH  13  15
HETATM   15  C11 UNL     1      59.429   7.297  53.764  1.00  0.00     0.674 C 
HETATM   16  N4  UNL     1      59.373   6.950  55.004  1.00  0.00    -0.202 N 
HETATM   17  C12 UNL     1      59.692   7.817  56.109  1.00  0.00     0.376 C 
ATOM     18  H4  UNL     1      59.083   5.995  55.218  1.00  0.00     0.179 HD
HETATM   19  N5  UNL     1      59.812   9.201  55.752  1.00  0.00    -0.014 N 
HETATM   20  C13 UNL     1      60.579   9.317  54.529  1.00  0.00     0.442 C 
ATOM     21  H52 UNL     1      58.904   9.661  55.684  1.00  0.00     0.284 HD
ATOM     22  H51 UNL     1      60.203   9.762  56.508  1.00  0.00     0.284 HD
HETATM   23  N6  UNL     1      59.835   8.628  53.484  1.00  0.00    -0.175 N 
ATOM     24  H6  UNL     1      59.615   9.080  52.596  1.00  0.00     0.182 HD
BRANCH  20  25
HETATM   25  O3  UNL     1      61.783   8.614  54.745  1.00  0.00    -0.354 OA
ATOM     26  H3  UNL     1      62.087   8.862  55.611  1.00  0.00     0.214 HD
ENDBRANCH  20  25
ENDBRANCH  13  15
ENDBRANCH  12  13
ENDBRANCH  11  12
ENDBRANCH  10  11
ENDBRANCH   9  10
ENDBRANCH   6   9
ENDBRANCH   2   6
BRANCH   1  27
HETATM   27  N2  UNL     1      61.393   3.023  47.802  1.00  0.00     0.129 N 
HETATM   28  C3  UNL     1      61.653   1.658  47.592  1.00  0.00     0.359 C 
HETATM   29  C2  UNL     1      63.100   1.550  47.099  1.00  0.00     0.098 C 
HETATM   30  C1  UNL     1      63.736   2.801  47.687  1.00  0.00     0.216 C 
HETATM   31  C21 UNL     1      62.593   3.791  47.612  1.00  0.00     0.309 C 
BRANCH  28  32
HETATM   32  O1  UNL     1      61.626   0.997  48.830  1.00  0.00    -0.368 OA
ATOM     33  H1  UNL     1      61.563   0.072  48.624  1.00  0.00     0.212 HD
ENDBRANCH  28  32
BRANCH  30  34
HETATM   34  N1  UNL     1      64.049   2.613  49.093  1.00  0.00    -0.073 N 
ATOM     35  H13 UNL     1      63.746   3.408  49.654  1.00  0.00     0.274 HD
ATOM     36  H12 UNL     1      63.464   1.892  49.515  1.00  0.00     0.274 HD
ATOM     37  H11 UNL     1      65.042   2.417  49.223  1.00  0.00     0.274 HD
ENDBRANCH  30  34
ENDBRANCH   1  27
BRANCH   5  38
HETATM   38  O8  UNL     1      60.701   3.746  44.864  1.00  0.00    -0.388 OA
ATOM     39  H8  UNL     1      60.290   3.795  44.008  1.00  0.00     0.210 HD
ENDBRANCH   5  38
BRANCH   4  40
HETATM   40  O5  UNL     1      58.736   5.225  45.542  1.00  0.00    -0.363 OA
ATOM     41  H5  UNL     1      57.915   5.696  45.613  1.00  0.00     0.213 HD
ENDBRANCH   4  40
BRANCH   4  42
HETATM   42  C15 UNL     1      57.618   3.220  44.806  1.00  0.00     0.112 C 
BRANCH  42  43
HETATM   43  C16 UNL     1      57.384   4.190  43.695  1.00  0.00     0.267 C 
HETATM   44  N7  UNL     1      58.413   4.186  42.672  1.00  0.00    -0.058 N 
HETATM   45  C17 UNL     1      57.788   4.677  41.472  1.00  0.00     0.295 C 
ATOM     46  H72 UNL     1      59.250   4.706  42.936  1.00  0.00     0.278 HD
ATOM     47  H71 UNL     1      58.863   3.278  42.553  1.00  0.00     0.278 HD
HETATM   48  C18 UNL     1      56.314   4.559  41.641  1.00  0.00     0.105 C 
HETATM   49  N8  UNL     1      55.414   4.851  40.752  1.00  0.00    -0.268 N 
HETATM   50  C19 UNL     1      56.105   4.055  42.993  1.00  0.00     0.206 C 
ATOM     51  H8  UNL     1      54.421   4.737  40.956  1.00  0.00     0.194 HD
HETATM   52  O7  UNL     1      55.056   3.595  43.479  1.00  0.00    -0.289 OA
BRANCH  49  53
HETATM   53  O6  UNL     1      55.826   5.312  39.543  1.00  0.00    -0.290 OA
ATOM     54  H6  UNL     1      56.440   6.037  39.522  1.00  0.00     0.244 HD
ENDBRANCH  49  53
ENDBRANCH  42  43
ENDBRANCH   4  42
TORSDOF 17
ENDMDL
MODEL 4
REMARK VINA RESULT: -6.976651607      3.971      8.627
REMARK  17 active torsions:
REMARK  status: ('A' for Active; 'I' for Inactive)
REMARK    1  A    between atoms: N1_1  and  C1_5 
REMARK    2  A    between atoms: C3_7  and  O1_8 
REMARK    3  A    between atoms: N2_10  and  C4_11 
REMARK    4  A    between atoms: C5_12  and  C6_13 
REMARK    5  A    between atoms: C6_13  and  O2_14 
REMARK    6  A    between atoms: C6_13  and  C7_16 
REMARK    7  A    between atoms: C7_16  and  C8_17 
REMARK    8  A    between atoms: C8_17  and  C9_18 
REMARK    9  A    between atoms: C9_18  and  C10_19 
REMARK   10  A    between atoms: C10_19  and  N3_20 
REMARK   11  A    between atoms: N3_20  and  C11_22 
REMARK   12  A    between atoms: C13_29  and  O3_30 
REMARK   13  A    between atoms: C14_35  and  O5_36 
REMARK   14  A    between atoms: C14_35  and  C15_38 
REMARK   15  A    between atoms: C15_38  and  C16_39 
REMARK   16  A    between atoms: N8_45  and  O6_47 
REMARK   17  A    between atoms: C20_51  and  O8_52 
ROOT
HETATM    1  C4  UNL     1      60.827   2.291  48.189  1.00  0.00     0.291 C 
HETATM    2  C5  UNL     1      61.325   3.285  47.125  1.00  0.00     0.190 C 
HETATM    3  O4  UNL     1      62.306   3.981  47.765  1.00  0.00    -0.343 OA
HETATM    4  C14 UNL     1      62.830   3.222  48.779  1.00  0.00     0.193 C 
HETATM    5  C20 UNL     1      62.179   1.829  48.682  1.00  0.00     0.216 C 
ENDROOT
BRANCH   2   6
HETATM    6  C6  UNL     1      60.120   4.146  46.735  1.00  0.00     0.149 C 
BRANCH   6   7
HETATM    7  O2  UNL     1      60.359   5.462  47.083  1.00  0.00    -0.393 OA
ATOM      8  H2  UNL     1      60.418   5.534  48.029  1.00  0.00     0.210 HD
ENDBRANCH   6   7
BRANCH   6   9
HETATM    9  C7  UNL     1      59.828   3.903  45.293  1.00  0.00     0.034 C 
BRANCH   9  10
HETATM   10  C8  UNL     1      60.282   4.946  44.334  1.00  0.00     0.004 C 
BRANCH  10  11
HETATM   11  C9  UNL     1      59.170   5.699  43.700  1.00  0.00     0.020 C 
BRANCH  11  12
HETATM   12  C10 UNL     1      58.448   4.694  42.778  1.00  0.00     0.138 C 
BRANCH  12  13
HETATM   13  N3  UNL     1      57.027   4.816  42.940  1.00  0.00    -0.227 N 
ATOM     14  H3  UNL     1      56.507   5.580  42.509  1.00  0.00     0.177 HD
BRANCH  13  15
HETATM   15  C11 UNL     1      56.367   3.818  43.736  1.00  0.00     0.674 C 
HETATM   16  N4  UNL     1      55.762   2.821  43.187  1.00  0.00    -0.202 N 
HETATM   17  C12 UNL     1      55.078   1.783  43.914  1.00  0.00     0.376 C 
ATOM     18  H4  UNL     1      55.768   2.763  42.169  1.00  0.00     0.179 HD
HETATM   19  N5  UNL     1      54.870   2.079  45.302  1.00  0.00    -0.014 N 
HETATM   20  C13 UNL     1      56.084   2.639  45.861  1.00  0.00     0.442 C 
ATOM     21  H52 UNL     1      54.062   2.683  45.451  1.00  0.00     0.284 HD
ATOM     22  H51 UNL     1      54.543   1.267  45.825  1.00  0.00     0.284 HD
HETATM   23  N6  UNL     1      56.351   3.884  45.153  1.00  0.00    -0.175 N 
ATOM     24  H6  UNL     1      56.517   4.758  45.652  1.00  0.00     0.182 HD
BRANCH  20  25
HETATM   25  O3  UNL     1      57.119   1.731  45.557  1.00  0.00    -0.354 OA
ATOM     26  H3  UNL     1      57.424   1.953  44.685  1.00  0.00     0.214 HD
ENDBRANCH  20  25
ENDBRANCH  13  15
ENDBRANCH  12  13
ENDBRANCH  11  12
ENDBRANCH  10  11
ENDBRANCH   9  10
ENDBRANCH   6   9
ENDBRANCH   2   6
BRANCH   1  27
HETATM   27  N2  UNL     1      59.972   1.322  47.690  1.00  0.00     0.129 N 
HETATM   28  C3  UNL     1      60.443   0.278  46.877  1.00  0.00     0.359 C 
HETATM   29  C2  UNL     1      59.937  -1.031  47.492  1.00  0.00     0.098 C 
HETATM   30  C1  UNL     1      58.688  -0.578  48.234  1.00  0.00     0.216 C 
HETATM   31  C21 UNL     1      59.095   0.803  48.704  1.00  0.00     0.309 C 
BRANCH  28  32
HETATM   32  O1  UNL     1      59.823   0.369  45.621  1.00  0.00    -0.368 OA
ATOM     33  H1  UNL     1      60.461   0.780  45.050  1.00  0.00     0.212 HD
ENDBRANCH  28  32
BRANCH  30  34
HETATM   34  N1  UNL     1      57.573  -0.409  47.320  1.00  0.00    -0.073 N 
ATOM     35  H13 UNL     1      56.871   0.226  47.698  1.00  0.00     0.274 HD
ATOM     36  H12 UNL     1      57.841   0.130  46.496  1.00  0.00     0.274 HD
ATOM     37  H11 UNL     1      57.168  -1.310  47.065  1.00  0.00     0.274 HD
ENDBRANCH  30  34
ENDBRANCH   1  27
BRANCH   5  38
HETATM   38  O8  UNL     1      62.151   1.204  49.899  1.00  0.00    -0.388 OA
ATOM     39  H8  UNL     1      62.909   1.379  50.445  1.00  0.00     0.210 HD
ENDBRANCH   5  38
BRANCH   4  40
HETATM   40  O5  UNL     1      62.391   3.742  49.994  1.00  0.00    -0.363 OA
ATOM     41  H5  UNL     1      63.103   3.689  50.620  1.00  0.00     0.213 HD
ENDBRANCH   4  40
BRANCH   4  42
HETATM   42  C15 UNL     1      64.335   3.107  48.717  1.00  0.00     0.112 C 
BRANCH  42  43
HETATM   43  C16 UNL     1      64.896   4.461  48.433  1.00  0.00     0.267 C 
HETATM   44  N7  UNL     1      64.052   5.559  48.862  1.00  0.00    -0.058 N 
HETATM   45  C17 UNL     1      64.929   6.683  49.065  1.00  0.00     0.295 C 
ATOM     46  H72 UNL     1      63.284   5.755  48.220  1.00  0.00     0.278 HD
ATOM     47  H71 UNL     1      63.481   5.338  49.677  1.00  0.00     0.278 HD
HETATM   48  C18 UNL     1      66.318   6.164  49.192  1.00  0.00     0.105 C 
HETATM   49  N8  UNL     1      67.381   6.868  49.438  1.00  0.00    -0.268 N 
HETATM   50  C19 UNL     1      66.228   4.724  48.985  1.00  0.00     0.206 C 
ATOM     51  H8  UNL     1      68.297   6.425  49.509  1.00  0.00     0.194 HD
HETATM   52  O7  UNL     1      67.097   3.865  49.224  1.00  0.00    -0.289 OA
BRANCH  49  53
HETATM   53  O6  UNL     1      67.244   8.209  49.597  1.00  0.00    -0.290 OA
ATOM     54  H6  UNL     1      67.955   8.773  49.314  1.00  0.00     0.244 HD
ENDBRANCH  49  53
ENDBRANCH  42  43
ENDBRANCH   4  42
TORSDOF 17
ENDMDL
MODEL 5
REMARK VINA RESULT: -6.925766510      3.918      9.370
REMARK  17 active torsions:
REMARK  status: ('A' for Active; 'I' for Inactive)
REMARK    1  A    between atoms: N1_1  and  C1_5 
REMARK    2  A    between atoms: C3_7  and  O1_8 
REMARK    3  A    between atoms: N2_10  and  C4_11 
REMARK    4  A    between atoms: C5_12  and  C6_13 
REMARK    5  A    between atoms: C6_13  and  O2_14 
REMARK    6  A    between atoms: C6_13  and  C7_16 
REMARK    7  A    between atoms: C7_16  and  C8_17 
REMARK    8  A    between atoms: C8_17  and  C9_18 
REMARK    9  A    between atoms: C9_18  and  C10_19 
REMARK   10  A    between atoms: C10_19  and  N3_20 
REMARK   11  A    between atoms: N3_20  and  C11_22 
REMARK   12  A    between atoms: C13_29  and  O3_30 
REMARK   13  A    between atoms: C14_35  and  O5_36 
REMARK   14  A    between atoms: C14_35  and  C15_38 
REMARK   15  A    between atoms: C15_38  and  C16_39 
REMARK   16  A    between atoms: N8_45  and  O6_47 
REMARK   17  A    between atoms: C20_51  and  O8_52 
ROOT
HETATM    1  C4  UNL     1      60.902   2.414  47.835  1.00  0.00     0.291 C 
HETATM    2  C5  UNL     1      61.483   3.497  46.909  1.00  0.00     0.190 C 
HETATM    3  O4  UNL     1      62.403   4.131  47.689  1.00  0.00    -0.343 OA
HETATM    4  C14 UNL     1      62.842   3.285  48.673  1.00  0.00     0.193 C 
HETATM    5  C20 UNL     1      62.209   1.907  48.399  1.00  0.00     0.216 C 
ENDROOT
BRANCH   2   6
HETATM    6  C6  UNL     1      60.311   4.391  46.495  1.00  0.00     0.149 C 
BRANCH   6   7
HETATM    7  O2  UNL     1      60.422   5.618  47.121  1.00  0.00    -0.393 OA
ATOM      8  H2  UNL     1      59.836   5.648  47.868  1.00  0.00     0.210 HD
ENDBRANCH   6   7
BRANCH   6   9
HETATM    9  C7  UNL     1      60.265   4.428  45.005  1.00  0.00     0.034 C 
BRANCH   9  10
HETATM   10  C8  UNL     1      59.092   3.779  44.357  1.00  0.00     0.004 C 
BRANCH  10  11
HETATM   11  C9  UNL     1      57.932   3.598  45.266  1.00  0.00     0.020 C 
BRANCH  11  12
HETATM   12  C10 UNL     1      56.674   3.804  44.397  1.00  0.00     0.138 C 
BRANCH  12  13
HETATM   13  N3  UNL     1      56.911   4.841  43.434  1.00  0.00    -0.227 N 
ATOM     14  H3  UNL     1      57.314   5.738  43.707  1.00  0.00     0.177 HD
BRANCH  13  15
HETATM   15  C11 UNL     1      56.557   4.567  42.069  1.00  0.00     0.674 C 
HETATM   16  N4  UNL     1      55.386   4.128  41.758  1.00  0.00    -0.202 N 
HETATM   17  C12 UNL     1      54.956   3.829  40.417  1.00  0.00     0.376 C 
ATOM     18  H4  UNL     1      54.716   3.983  42.515  1.00  0.00     0.179 HD
HETATM   19  N5  UNL     1      56.021   3.785  39.457  1.00  0.00    -0.014 N 
HETATM   20  C13 UNL     1      56.908   4.910  39.672  1.00  0.00     0.442 C 
ATOM     21  H52 UNL     1      56.517   2.894  39.471  1.00  0.00     0.284 HD
ATOM     22  H51 UNL     1      55.675   3.743  38.498  1.00  0.00     0.284 HD
HETATM   23  N6  UNL     1      57.475   4.764  41.005  1.00  0.00    -0.175 N 
ATOM     24  H6  UNL     1      58.482   4.802  41.166  1.00  0.00     0.182 HD
BRANCH  20  25
HETATM   25  O3  UNL     1      56.098   6.064  39.664  1.00  0.00    -0.354 OA
ATOM     26  H3  UNL     1      56.285   6.519  38.851  1.00  0.00     0.214 HD
ENDBRANCH  20  25
ENDBRANCH  13  15
ENDBRANCH  12  13
ENDBRANCH  11  12
ENDBRANCH  10  11
ENDBRANCH   9  10
ENDBRANCH   6   9
ENDBRANCH   2   6
BRANCH   1  27
HETATM   27  N2  UNL     1      60.097   1.494  47.183  1.00  0.00     0.129 N 
HETATM   28  C3  UNL     1      60.647   0.404  46.487  1.00  0.00     0.359 C 
HETATM   29  C2  UNL     1      59.938  -0.855  46.998  1.00  0.00     0.098 C 
HETATM   30  C1  UNL     1      58.601  -0.304  47.471  1.00  0.00     0.216 C 
HETATM   31  C21 UNL     1      59.002   1.056  48.004  1.00  0.00     0.309 C 
BRANCH  28  32
HETATM   32  O1  UNL     1      60.297   0.511  45.132  1.00  0.00    -0.368 OA
ATOM     33  H1  UNL     1      61.066   0.857  44.696  1.00  0.00     0.212 HD
ENDBRANCH  28  32
BRANCH  30  34
HETATM   34  N1  UNL     1      57.705  -0.078  46.352  1.00  0.00    -0.073 N 
ATOM     35  H13 UNL     1      58.206   0.261  45.531  1.00  0.00     0.274 HD
ATOM     36  H12 UNL     1      57.355  -0.957  45.968  1.00  0.00     0.274 HD
ATOM     37  H11 UNL     1      56.943   0.548  46.613  1.00  0.00     0.274 HD
ENDBRANCH  30  34
ENDBRANCH   1  27
BRANCH   5  38
HETATM   38  O8  UNL     1      62.081   1.178  49.550  1.00  0.00    -0.388 OA
ATOM     39  H8  UNL     1      62.856   1.177  50.100  1.00  0.00     0.210 HD
ENDBRANCH   5  38
BRANCH   4  40
HETATM   40  O5  UNL     1      62.299   3.697  49.887  1.00  0.00    -0.363 OA
ATOM     41  H5  UNL     1      61.581   3.116  50.110  1.00  0.00     0.213 HD
ENDBRANCH   4  40
BRANCH   4  42
HETATM   42  C15 UNL     1      64.348   3.172  48.730  1.00  0.00     0.112 C 
BRANCH  42  43
HETATM   43  C16 UNL     1      64.929   4.517  48.442  1.00  0.00     0.267 C 
HETATM   44  N7  UNL     1      64.108   5.629  48.882  1.00  0.00    -0.058 N 
HETATM   45  C17 UNL     1      65.006   6.737  49.077  1.00  0.00     0.295 C 
ATOM     46  H72 UNL     1      63.336   5.839  48.249  1.00  0.00     0.278 HD
ATOM     47  H71 UNL     1      63.542   5.416  49.703  1.00  0.00     0.278 HD
HETATM   48  C18 UNL     1      66.387   6.194  49.187  1.00  0.00     0.105 C 
HETATM   49  N8  UNL     1      67.465   6.880  49.422  1.00  0.00    -0.268 N 
HETATM   50  C19 UNL     1      66.271   4.757  48.979  1.00  0.00     0.206 C 
ATOM     51  H8  UNL     1      68.374   6.421  49.482  1.00  0.00     0.194 HD
HETATM   52  O7  UNL     1      67.127   3.883  49.206  1.00  0.00    -0.289 OA
BRANCH  49  53
HETATM   53  O6  UNL     1      67.352   8.224  49.585  1.00  0.00    -0.290 OA
ATOM     54  H6  UNL     1      68.067   8.689  50.003  1.00  0.00     0.244 HD
ENDBRANCH  49  53
ENDBRANCH  42  43
ENDBRANCH   4  42
TORSDOF 17
ENDMDL
