MODEL 1
REMARK VINA RESULT: -7.427930441      0.000      0.000
REMARK  18 active torsions:
REMARK  status: ('A' for Active; 'I' for Inactive)
REMARK    1  A    between atoms: N1_1  and  C1_5 
REMARK    2  A    between atoms: C2_6  and  O1_7 
REMARK    3  A    between atoms: C3_9  and  C4_10 
REMARK    4  A    between atoms: C4_10  and  O2_11 
REMARK    5  A    between atoms: C5_14  and  O4_15 
REMARK    6  A    between atoms: O4_15  and  C6_16 
REMARK    7  A    between atoms: C7_17  and  S1_18 
REMARK    8  A    between atoms: S1_18  and  S2_19 
REMARK    9  A    between atoms: S2_19  and  C8_20 
REMARK   10  A    between atoms: C9_21  and  O5_22 
REMARK   11  A    between atoms: C11_25  and  O6_26 
REMARK   12  A    between atoms: C12_28  and  C13_29 
REMARK   13  A    between atoms: C13_29  and  O7_30 
REMARK   14  A    between atoms: C14_32  and  O8_33 
REMARK   15  A    between atoms: C15_36  and  O10_37 
REMARK   16  A    between atoms: C16_39  and  O11_40 
REMARK   17  A    between atoms: C17_42  and  O12_43 
REMARK   18  A    between atoms: C18_45  and  O13_46 
ROOT
HETATM    1  C6  UNL     1      60.839   4.049  45.517  1.00  0.00     0.196 C 
HETATM    2  C7  UNL     1      61.716   3.018  46.130  1.00  0.00     0.228 C 
HETATM    3  O9  UNL     1      61.113   2.230  47.098  1.00  0.00    -0.340 OA
HETATM    4  C15 UNL     1      60.648   3.020  48.170  1.00  0.00     0.289 C 
HETATM    5  C16 UNL     1      59.442   3.753  47.607  1.00  0.00     0.204 C 
HETATM    6  C17 UNL     1      59.817   4.623  46.459  1.00  0.00     0.184 C 
ENDROOT
BRANCH   1   7
HETATM    7  O4  UNL     1      60.335   3.593  44.331  1.00  0.00    -0.347 OA
BRANCH   7   8
HETATM    8  C5  UNL     1      59.046   3.871  44.031  1.00  0.00     0.291 C 
HETATM    9  O3  UNL     1      58.506   2.684  43.455  1.00  0.00    -0.349 OA
HETATM   10  C3  UNL     1      57.147   2.798  43.316  1.00  0.00     0.179 C 
HETATM   11  C2  UNL     1      56.639   4.202  43.317  1.00  0.00     0.182 C 
HETATM   12  C1  UNL     1      57.541   5.181  42.640  1.00  0.00     0.247 C 
HETATM   13  C18 UNL     1      58.998   4.868  42.900  1.00  0.00     0.206 C 
BRANCH  10  14
HETATM   14  C4  UNL     1      56.651   2.006  42.103  1.00  0.00     0.198 C 
BRANCH  14  15
HETATM   15  O2  UNL     1      57.302   2.417  40.945  1.00  0.00    -0.398 OA
ATOM     16  H2  UNL     1      56.693   2.477  40.219  1.00  0.00     0.209 HD
ENDBRANCH  14  15
ENDBRANCH  10  14
BRANCH  11  17
HETATM   17  O1  UNL     1      55.423   4.196  42.593  1.00  0.00    -0.391 OA
ATOM     18  H1  UNL     1      54.813   3.656  43.082  1.00  0.00     0.210 HD
ENDBRANCH  11  17
BRANCH  12  19
HETATM   19  N1  UNL     1      57.265   6.499  43.231  1.00  0.00    -0.070 N 
ATOM     20  H13 UNL     1      56.269   6.706  43.301  1.00  0.00     0.274 HD
ATOM     21  H12 UNL     1      57.477   6.543  44.228  1.00  0.00     0.274 HD
ATOM     22  H11 UNL     1      57.779   7.186  42.680  1.00  0.00     0.274 HD
ENDBRANCH  12  19
BRANCH  13  23
HETATM   23  O13 UNL     1      59.765   5.987  43.076  1.00  0.00    -0.388 OA
ATOM     24  H13 UNL     1      60.044   6.381  42.258  1.00  0.00     0.210 HD
ENDBRANCH  13  23
ENDBRANCH   7   8
ENDBRANCH   1   7
BRANCH   2  25
HETATM   25  S1  UNL     1      63.200   3.776  46.905  1.00  0.00    -0.062 SA
BRANCH  25  26
HETATM   26  S2  UNL     1      64.058   2.389  48.312  1.00  0.00    -0.085 SA
BRANCH  26  27
HETATM   27  C8  UNL     1      65.355   3.360  49.184  1.00  0.00     0.116 C 
HETATM   28  C9  UNL     1      66.705   2.796  49.044  1.00  0.00     0.137 C 
HETATM   29  C10 UNL     1      67.829   3.786  49.018  1.00  0.00     0.065 C 
HETATM   30  C11 UNL     1      67.356   4.997  49.837  1.00  0.00     0.129 C 
HETATM   31  C12 UNL     1      66.344   5.680  48.937  1.00  0.00     0.068 C 
HETATM   32  C14 UNL     1      65.167   4.786  48.805  1.00  0.00     0.143 C 
BRANCH  28  33
HETATM   33  O5  UNL     1      66.991   1.873  50.078  1.00  0.00    -0.394 OA
ATOM     34  H5  UNL     1      66.869   0.977  49.789  1.00  0.00     0.210 HD
ENDBRANCH  28  33
BRANCH  30  35
HETATM   35  O6  UNL     1      68.404   5.811  50.195  1.00  0.00    -0.395 OA
ATOM     36  H6  UNL     1      68.899   6.102  49.439  1.00  0.00     0.210 HD
ENDBRANCH  30  35
BRANCH  31  37
HETATM   37  C13 UNL     1      65.914   7.020  49.463  1.00  0.00     0.173 C 
BRANCH  37  38
HETATM   38  O7  UNL     1      66.966   7.926  49.281  1.00  0.00    -0.400 OA
ATOM     39  H7  UNL     1      66.805   8.418  48.484  1.00  0.00     0.209 HD
ENDBRANCH  37  38
ENDBRANCH  31  37
BRANCH  32  40
HETATM   40  O8  UNL     1      64.104   5.342  49.524  1.00  0.00    -0.394 OA
ATOM     41  H8  UNL     1      64.414   5.700  50.347  1.00  0.00     0.210 HD
ENDBRANCH  32  40
ENDBRANCH  26  27
ENDBRANCH  25  26
ENDBRANCH   2  25
BRANCH   6  42
HETATM   42  O12 UNL     1      60.243   5.839  47.008  1.00  0.00    -0.390 OA
ATOM     43  H12 UNL     1      59.509   6.406  47.218  1.00  0.00     0.210 HD
ENDBRANCH   6  42
BRANCH   5  44
HETATM   44  O11 UNL     1      58.886   4.563  48.618  1.00  0.00    -0.388 OA
ATOM     45  H11 UNL     1      58.559   5.364  48.225  1.00  0.00     0.210 HD
ENDBRANCH   5  44
BRANCH   4  46
HETATM   46  O10 UNL     1      60.227   2.149  49.158  1.00  0.00    -0.368 OA
ATOM     47  H10 UNL     1      60.630   2.437  49.970  1.00  0.00     0.212 HD
ENDBRANCH   4  46
TORSDOF 18
ENDMDL
MODEL 2
REMARK VINA RESULT: -7.010648726      4.020      5.570
REMARK  18 active torsions:
REMARK  status: ('A' for Active; 'I' for Inactive)
REMARK    1  A    between atoms: N1_1  and  C1_5 
REMARK    2  A    between atoms: C2_6  and  O1_7 
REMARK    3  A    between atoms: C3_9  and  C4_10 
REMARK    4  A    between atoms: C4_10  and  O2_11 
REMARK    5  A    between atoms: C5_14  and  O4_15 
REMARK    6  A    between atoms: O4_15  and  C6_16 
REMARK    7  A    between atoms: C7_17  and  S1_18 
REMARK    8  A    between atoms: S1_18  and  S2_19 
REMARK    9  A    between atoms: S2_19  and  C8_20 
REMARK   10  A    between atoms: C9_21  and  O5_22 
REMARK   11  A    between atoms: C11_25  and  O6_26 
REMARK   12  A    between atoms: C12_28  and  C13_29 
REMARK   13  A    between atoms: C13_29  and  O7_30 
REMARK   14  A    between atoms: C14_32  and  O8_33 
REMARK   15  A    between atoms: C15_36  and  O10_37 
REMARK   16  A    between atoms: C16_39  and  O11_40 
REMARK   17  A    between atoms: C17_42  and  O12_43 
REMARK   18  A    between atoms: C18_45  and  O13_46 
ROOT
HETATM    1  C6  UNL     1      57.628   3.325  44.379  1.00  0.00     0.196 C 
HETATM    2  C7  UNL     1      57.565   3.366  45.862  1.00  0.00     0.228 C 
HETATM    3  O9  UNL     1      58.101   4.504  46.445  1.00  0.00    -0.340 OA
HETATM    4  C15 UNL     1      59.466   4.639  46.118  1.00  0.00     0.289 C 
HETATM    5  C16 UNL     1      59.468   5.042  44.652  1.00  0.00     0.204 C 
HETATM    6  C17 UNL     1      58.841   3.996  43.798  1.00  0.00     0.184 C 
ENDROOT
BRANCH   1   7
HETATM    7  O4  UNL     1      56.435   3.732  43.847  1.00  0.00    -0.347 OA
BRANCH   7   8
HETATM    8  C5  UNL     1      56.445   4.336  42.637  1.00  0.00     0.291 C 
HETATM    9  O3  UNL     1      55.959   5.660  42.849  1.00  0.00    -0.349 OA
HETATM   10  C3  UNL     1      56.134   6.418  41.720  1.00  0.00     0.179 C 
HETATM   11  C2  UNL     1      56.304   5.629  40.464  1.00  0.00     0.182 C 
HETATM   12  C1  UNL     1      55.481   4.385  40.404  1.00  0.00     0.247 C 
HETATM   13  C18 UNL     1      55.393   3.709  41.755  1.00  0.00     0.206 C 
BRANCH  10  14
HETATM   14  C4  UNL     1      55.034   7.475  41.593  1.00  0.00     0.198 C 
BRANCH  14  15
HETATM   15  O2  UNL     1      53.776   6.896  41.718  1.00  0.00    -0.398 OA
ATOM     16  H2  UNL     1      53.204   7.177  41.013  1.00  0.00     0.209 HD
ENDBRANCH  14  15
ENDBRANCH  10  14
BRANCH  11  17
HETATM   17  O1  UNL     1      55.873   6.458  39.401  1.00  0.00    -0.391 OA
ATOM     18  H1  UNL     1      55.794   7.338  39.752  1.00  0.00     0.210 HD
ENDBRANCH  11  17
BRANCH  12  19
HETATM   19  N1  UNL     1      56.169   3.457  39.496  1.00  0.00    -0.070 N 
ATOM     20  H13 UNL     1      56.018   3.674  38.511  1.00  0.00     0.274 HD
ATOM     21  H12 UNL     1      57.183   3.571  39.499  1.00  0.00     0.274 HD
ATOM     22  H11 UNL     1      55.871   2.515  39.749  1.00  0.00     0.274 HD
ENDBRANCH  12  19
BRANCH  13  23
HETATM   23  O13 UNL     1      55.436   2.345  41.677  1.00  0.00    -0.388 OA
ATOM     24  H13 UNL     1      54.577   1.942  41.719  1.00  0.00     0.210 HD
ENDBRANCH  13  23
ENDBRANCH   7   8
ENDBRANCH   1   7
BRANCH   2  25
HETATM   25  S1  UNL     1      58.429   1.925  46.609  1.00  0.00    -0.062 SA
BRANCH  25  26
HETATM   26  S2  UNL     1      57.787   1.687  48.651  1.00  0.00    -0.085 SA
BRANCH  26  27
HETATM   27  C8  UNL     1      59.000   2.662  49.632  1.00  0.00     0.116 C 
HETATM   28  C9  UNL     1      58.418   3.849  50.274  1.00  0.00     0.137 C 
HETATM   29  C10 UNL     1      59.015   4.239  51.592  1.00  0.00     0.065 C 
HETATM   30  C11 UNL     1      60.474   3.761  51.563  1.00  0.00     0.129 C 
HETATM   31  C12 UNL     1      60.374   2.256  51.722  1.00  0.00     0.068 C 
HETATM   32  C14 UNL     1      59.735   1.705  50.501  1.00  0.00     0.143 C 
BRANCH  28  33
HETATM   33  O5  UNL     1      58.495   4.984  49.433  1.00  0.00    -0.394 OA
ATOM     34  H5  UNL     1      57.963   4.877  48.654  1.00  0.00     0.210 HD
ENDBRANCH  28  33
BRANCH  30  35
HETATM   35  O6  UNL     1      61.228   4.363  52.542  1.00  0.00    -0.395 OA
ATOM     36  H6  UNL     1      61.332   3.804  53.302  1.00  0.00     0.210 HD
ENDBRANCH  30  35
BRANCH  31  37
HETATM   37  C13 UNL     1      61.712   1.607  51.938  1.00  0.00     0.173 C 
BRANCH  37  38
HETATM   38  O7  UNL     1      62.683   2.356  51.263  1.00  0.00    -0.400 OA
ATOM     39  H7  UNL     1      63.374   2.578  51.877  1.00  0.00     0.209 HD
ENDBRANCH  37  38
ENDBRANCH  31  37
BRANCH  32  40
HETATM   40  O8  UNL     1      60.706   1.025  49.760  1.00  0.00    -0.394 OA
ATOM     41  H8  UNL     1      61.260   0.511  50.335  1.00  0.00     0.210 HD
ENDBRANCH  32  40
ENDBRANCH  26  27
ENDBRANCH  25  26
ENDBRANCH   2  25
BRANCH   6  42
HETATM   42  O12 UNL     1      59.851   3.073  43.499  1.00  0.00    -0.390 OA
ATOM     43  H12 UNL     1      60.030   3.038  42.566  1.00  0.00     0.210 HD
ENDBRANCH   6  42
BRANCH   5  44
HETATM   44  O11 UNL     1      60.800   5.223  44.229  1.00  0.00    -0.388 OA
ATOM     45  H11 UNL     1      60.853   6.019  43.712  1.00  0.00     0.210 HD
ENDBRANCH   5  44
BRANCH   4  46
HETATM   46  O10 UNL     1      59.959   5.687  46.874  1.00  0.00    -0.368 OA
ATOM     47  H10 UNL     1      60.907   5.626  46.845  1.00  0.00     0.212 HD
ENDBRANCH   4  46
TORSDOF 18
ENDMDL
MODEL 3
REMARK VINA RESULT: -6.897886594      4.218      6.338
REMARK  18 active torsions:
REMARK  status: ('A' for Active; 'I' for Inactive)
REMARK    1  A    between atoms: N1_1  and  C1_5 
REMARK    2  A    between atoms: C2_6  and  O1_7 
REMARK    3  A    between atoms: C3_9  and  C4_10 
REMARK    4  A    between atoms: C4_10  and  O2_11 
REMARK    5  A    between atoms: C5_14  and  O4_15 
REMARK    6  A    between atoms: O4_15  and  C6_16 
REMARK    7  A    between atoms: C7_17  and  S1_18 
REMARK    8  A    between atoms: S1_18  and  S2_19 
REMARK    9  A    between atoms: S2_19  and  C8_20 
REMARK   10  A    between atoms: C9_21  and  O5_22 
REMARK   11  A    between atoms: C11_25  and  O6_26 
REMARK   12  A    between atoms: C12_28  and  C13_29 
REMARK   13  A    between atoms: C13_29  and  O7_30 
REMARK   14  A    between atoms: C14_32  and  O8_33 
REMARK   15  A    between atoms: C15_36  and  O10_37 
REMARK   16  A    between atoms: C16_39  and  O11_40 
REMARK   17  A    between atoms: C17_42  and  O12_43 
REMARK   18  A    between atoms: C18_45  and  O13_46 
ROOT
HETATM    1  C6  UNL     1      58.267   2.444  47.790  1.00  0.00     0.196 C 
HETATM    2  C7  UNL     1      58.448   3.005  49.154  1.00  0.00     0.228 C 
HETATM    3  O9  UNL     1      59.702   3.537  49.412  1.00  0.00    -0.340 OA
HETATM    4  C15 UNL     1      60.703   2.554  49.269  1.00  0.00     0.289 C 
HETATM    5  C16 UNL     1      60.796   2.322  47.770  1.00  0.00     0.204 C 
HETATM    6  C17 UNL     1      59.509   1.821  47.214  1.00  0.00     0.184 C 
ENDROOT
BRANCH   1   7
HETATM    7  O4  UNL     1      57.657   3.362  46.981  1.00  0.00    -0.347 OA
BRANCH   7   8
HETATM    8  C5  UNL     1      57.924   3.330  45.656  1.00  0.00     0.291 C 
HETATM    9  O3  UNL     1      58.789   4.434  45.397  1.00  0.00    -0.349 OA
HETATM   10  C3  UNL     1      59.287   4.358  44.122  1.00  0.00     0.179 C 
HETATM   11  C2  UNL     1      58.489   3.504  43.194  1.00  0.00     0.182 C 
HETATM   12  C1  UNL     1      57.014   3.570  43.413  1.00  0.00     0.247 C 
HETATM   13  C18 UNL     1      56.673   3.670  44.884  1.00  0.00     0.206 C 
BRANCH  10  14
HETATM   14  C4  UNL     1      59.537   5.756  43.547  1.00  0.00     0.198 C 
BRANCH  14  15
HETATM   15  O2  UNL     1      60.756   5.804  42.880  1.00  0.00    -0.398 OA
ATOM     16  H2  UNL     1      61.022   4.936  42.601  1.00  0.00     0.209 HD
ENDBRANCH  14  15
ENDBRANCH  10  14
BRANCH  11  17
HETATM   17  O1  UNL     1      58.732   3.986  41.885  1.00  0.00    -0.391 OA
ATOM     18  H1  UNL     1      57.901   4.304  41.551  1.00  0.00     0.210 HD
ENDBRANCH  11  17
BRANCH  12  19
HETATM   19  N1  UNL     1      56.448   2.306  42.919  1.00  0.00    -0.070 N 
ATOM     20  H13 UNL     1      56.916   1.958  42.083  1.00  0.00     0.274 HD
ATOM     21  H12 UNL     1      56.655   1.511  43.524  1.00  0.00     0.274 HD
ATOM     22  H11 UNL     1      55.449   2.459  42.785  1.00  0.00     0.274 HD
ENDBRANCH  12  19
BRANCH  13  23
HETATM   23  O13 UNL     1      55.562   2.952  45.228  1.00  0.00    -0.388 OA
ATOM     24  H13 UNL     1      54.975   3.425  45.806  1.00  0.00     0.210 HD
ENDBRANCH  13  23
ENDBRANCH   7   8
ENDBRANCH   1   7
BRANCH   2  25
HETATM   25  S1  UNL     1      58.128   1.738  50.447  1.00  0.00    -0.062 SA
BRANCH  25  26
HETATM   26  S2  UNL     1      59.268   2.214  52.211  1.00  0.00    -0.085 SA
BRANCH  26  27
HETATM   27  C8  UNL     1      58.346   3.598  52.996  1.00  0.00     0.116 C 
HETATM   28  C9  UNL     1      57.826   3.276  54.332  1.00  0.00     0.137 C 
HETATM   29  C10 UNL     1      57.764   4.416  55.303  1.00  0.00     0.065 C 
HETATM   30  C11 UNL     1      57.577   5.688  54.463  1.00  0.00     0.129 C 
HETATM   31  C12 UNL     1      58.937   5.917  53.830  1.00  0.00     0.068 C 
HETATM   32  C14 UNL     1      59.187   4.818  52.864  1.00  0.00     0.143 C 
BRANCH  28  33
HETATM   33  O5  UNL     1      56.526   2.721  54.263  1.00  0.00    -0.394 OA
ATOM     34  H5  UNL     1      56.547   1.824  53.953  1.00  0.00     0.210 HD
ENDBRANCH  28  33
BRANCH  30  35
HETATM   35  O6  UNL     1      57.148   6.746  55.228  1.00  0.00    -0.395 OA
ATOM     36  H6  UNL     1      57.118   7.554  54.729  1.00  0.00     0.210 HD
ENDBRANCH  30  35
BRANCH  31  37
HETATM   37  C13 UNL     1      59.034   7.245  53.133  1.00  0.00     0.173 C 
BRANCH  37  38
HETATM   38  O7  UNL     1      59.485   8.198  54.055  1.00  0.00    -0.400 OA
ATOM     39  H7  UNL     1      58.811   8.859  54.159  1.00  0.00     0.209 HD
ENDBRANCH  37  38
ENDBRANCH  31  37
BRANCH  32  40
HETATM   40  O8  UNL     1      59.092   5.335  51.569  1.00  0.00    -0.394 OA
ATOM     41  H8  UNL     1      59.425   4.708  50.938  1.00  0.00     0.210 HD
ENDBRANCH  32  40
ENDBRANCH  26  27
ENDBRANCH  25  26
ENDBRANCH   2  25
BRANCH   6  42
HETATM   42  O12 UNL     1      59.519   0.431  47.385  1.00  0.00    -0.390 OA
ATOM     43  H12 UNL     1      59.010   0.166  48.142  1.00  0.00     0.210 HD
ENDBRANCH   6  42
BRANCH   5  44
HETATM   44  O11 UNL     1      61.794   1.360  47.518  1.00  0.00    -0.388 OA
ATOM     45  H11 UNL     1      62.547   1.792  47.131  1.00  0.00     0.210 HD
ENDBRANCH   5  44
BRANCH   4  46
HETATM   46  O10 UNL     1      61.886   3.118  49.712  1.00  0.00    -0.368 OA
ATOM     47  H10 UNL     1      62.527   2.418  49.751  1.00  0.00     0.212 HD
ENDBRANCH   4  46
TORSDOF 18
ENDMDL
MODEL 4
REMARK VINA RESULT: -6.884329152      3.778      8.581
REMARK  18 active torsions:
REMARK  status: ('A' for Active; 'I' for Inactive)
REMARK    1  A    between atoms: N1_1  and  C1_5 
REMARK    2  A    between atoms: C2_6  and  O1_7 
REMARK    3  A    between atoms: C3_9  and  C4_10 
REMARK    4  A    between atoms: C4_10  and  O2_11 
REMARK    5  A    between atoms: C5_14  and  O4_15 
REMARK    6  A    between atoms: O4_15  and  C6_16 
REMARK    7  A    between atoms: C7_17  and  S1_18 
REMARK    8  A    between atoms: S1_18  and  S2_19 
REMARK    9  A    between atoms: S2_19  and  C8_20 
REMARK   10  A    between atoms: C9_21  and  O5_22 
REMARK   11  A    between atoms: C11_25  and  O6_26 
REMARK   12  A    between atoms: C12_28  and  C13_29 
REMARK   13  A    between atoms: C13_29  and  O7_30 
REMARK   14  A    between atoms: C14_32  and  O8_33 
REMARK   15  A    between atoms: C15_36  and  O10_37 
REMARK   16  A    between atoms: C16_39  and  O11_40 
REMARK   17  A    between atoms: C17_42  and  O12_43 
REMARK   18  A    between atoms: C18_45  and  O13_46 
ROOT
HETATM    1  C6  UNL     1      61.385   2.663  49.619  1.00  0.00     0.196 C 
HETATM    2  C7  UNL     1      60.951   1.360  49.052  1.00  0.00     0.228 C 
HETATM    3  O9  UNL     1      61.974   0.465  48.780  1.00  0.00    -0.340 OA
HETATM    4  C15 UNL     1      62.878   1.006  47.842  1.00  0.00     0.289 C 
HETATM    5  C16 UNL     1      63.633   2.074  48.615  1.00  0.00     0.204 C 
HETATM    6  C17 UNL     1      62.719   3.138  49.112  1.00  0.00     0.184 C 
ENDROOT
BRANCH   1   7
HETATM    7  O4  UNL     1      61.260   2.648  50.981  1.00  0.00    -0.347 OA
BRANCH   7   8
HETATM    8  C5  UNL     1      60.078   3.021  51.522  1.00  0.00     0.291 C 
HETATM    9  O3  UNL     1      60.233   4.383  51.918  1.00  0.00    -0.349 OA
HETATM   10  C3  UNL     1      59.023   4.913  52.280  1.00  0.00     0.179 C 
HETATM   11  C2  UNL     1      57.986   3.902  52.644  1.00  0.00     0.182 C 
HETATM   12  C1  UNL     1      58.519   2.707  53.362  1.00  0.00     0.247 C 
HETATM   13  C18 UNL     1      59.872   2.293  52.828  1.00  0.00     0.206 C 
BRANCH  10  14
HETATM   14  C4  UNL     1      59.194   5.979  53.366  1.00  0.00     0.198 C 
BRANCH  14  15
HETATM   15  O2  UNL     1      58.363   7.068  53.125  1.00  0.00    -0.398 OA
ATOM     16  H2  UNL     1      57.504   6.928  53.507  1.00  0.00     0.209 HD
ENDBRANCH  14  15
ENDBRANCH  10  14
BRANCH  11  17
HETATM   17  O1  UNL     1      57.083   4.543  53.526  1.00  0.00    -0.391 OA
ATOM     18  H1  UNL     1      57.595   4.862  54.261  1.00  0.00     0.210 HD
ENDBRANCH  11  17
BRANCH  12  19
HETATM   19  N1  UNL     1      57.589   1.599  53.103  1.00  0.00    -0.070 N 
ATOM     20  H13 UNL     1      57.530   1.348  52.116  1.00  0.00     0.274 HD
ATOM     21  H12 UNL     1      57.930   0.701  53.444  1.00  0.00     0.274 HD
ATOM     22  H11 UNL     1      56.689   1.865  53.503  1.00  0.00     0.274 HD
ENDBRANCH  12  19
BRANCH  13  23
HETATM   23  O13 UNL     1      60.035   0.937  52.771  1.00  0.00    -0.388 OA
ATOM     24  H13 UNL     1      60.245   0.550  53.613  1.00  0.00     0.210 HD
ENDBRANCH  13  23
ENDBRANCH   7   8
ENDBRANCH   1   7
BRANCH   2  25
HETATM   25  S1  UNL     1      60.010   1.590  47.490  1.00  0.00    -0.062 SA
BRANCH  25  26
HETATM   26  S2  UNL     1      58.384   2.961  47.830  1.00  0.00    -0.085 SA
BRANCH  26  27
HETATM   27  C8  UNL     1      58.505   4.171  46.450  1.00  0.00     0.116 C 
HETATM   28  C9  UNL     1      59.879   4.613  46.174  1.00  0.00     0.137 C 
HETATM   29  C10 UNL     1      60.191   4.930  44.743  1.00  0.00     0.065 C 
HETATM   30  C11 UNL     1      58.871   5.389  44.106  1.00  0.00     0.129 C 
HETATM   31  C12 UNL     1      58.068   4.111  43.955  1.00  0.00     0.068 C 
HETATM   32  C14 UNL     1      57.722   3.620  45.311  1.00  0.00     0.143 C 
BRANCH  28  33
HETATM   33  O5  UNL     1      60.218   5.757  46.934  1.00  0.00    -0.394 OA
ATOM     34  H5  UNL     1      60.199   6.545  46.404  1.00  0.00     0.210 HD
ENDBRANCH  28  33
BRANCH  30  35
HETATM   35  O6  UNL     1      59.079   6.046  42.917  1.00  0.00    -0.395 OA
ATOM     36  H6  UNL     1      58.406   5.843  42.279  1.00  0.00     0.210 HD
ENDBRANCH  30  35
BRANCH  31  37
HETATM   37  C13 UNL     1      56.817   4.306  43.145  1.00  0.00     0.173 C 
BRANCH  37  38
HETATM   38  O7  UNL     1      56.423   5.646  43.253  1.00  0.00    -0.400 OA
ATOM     39  H7  UNL     1      55.775   5.824  42.582  1.00  0.00     0.209 HD
ENDBRANCH  37  38
ENDBRANCH  31  37
BRANCH  32  40
HETATM   40  O8  UNL     1      56.355   3.820  45.521  1.00  0.00    -0.394 OA
ATOM     41  H8  UNL     1      56.198   4.693  45.864  1.00  0.00     0.210 HD
ENDBRANCH  32  40
ENDBRANCH  26  27
ENDBRANCH  25  26
ENDBRANCH   2  25
BRANCH   6  42
HETATM   42  O12 UNL     1      62.577   4.059  48.066  1.00  0.00    -0.390 OA
ATOM     43  H12 UNL     1      62.783   4.943  48.346  1.00  0.00     0.210 HD
ENDBRANCH   6  42
BRANCH   5  44
HETATM   44  O11 UNL     1      64.585   2.668  47.762  1.00  0.00    -0.388 OA
ATOM     45  H11 UNL     1      64.832   3.514  48.118  1.00  0.00     0.210 HD
ENDBRANCH   5  44
BRANCH   4  46
HETATM   46  O10 UNL     1      63.754  -0.007  47.498  1.00  0.00    -0.368 OA
ATOM     47  H10 UNL     1      63.643  -0.163  46.567  1.00  0.00     0.212 HD
ENDBRANCH   4  46
TORSDOF 18
ENDMDL
MODEL 5
REMARK VINA RESULT: -6.791528657      4.695      7.908
REMARK  18 active torsions:
REMARK  status: ('A' for Active; 'I' for Inactive)
REMARK    1  A    between atoms: N1_1  and  C1_5 
REMARK    2  A    between atoms: C2_6  and  O1_7 
REMARK    3  A    between atoms: C3_9  and  C4_10 
REMARK    4  A    between atoms: C4_10  and  O2_11 
REMARK    5  A    between atoms: C5_14  and  O4_15 
REMARK    6  A    between atoms: O4_15  and  C6_16 
REMARK    7  A    between atoms: C7_17  and  S1_18 
REMARK    8  A    between atoms: S1_18  and  S2_19 
REMARK    9  A    between atoms: S2_19  and  C8_20 
REMARK   10  A    between atoms: C9_21  and  O5_22 
REMARK   11  A    between atoms: C11_25  and  O6_26 
REMARK   12  A    between atoms: C12_28  and  C13_29 
REMARK   13  A    between atoms: C13_29  and  O7_30 
REMARK   14  A    between atoms: C14_32  and  O8_33 
REMARK   15  A    between atoms: C15_36  and  O10_37 
REMARK   16  A    between atoms: C16_39  and  O11_40 
REMARK   17  A    between atoms: C17_42  and  O12_43 
REMARK   18  A    between atoms: C18_45  and  O13_46 
ROOT
HETATM    1  C6  UNL     1      58.607   4.106  44.367  1.00  0.00     0.196 C 
HETATM    2  C7  UNL     1      58.101   3.004  45.225  1.00  0.00     0.228 C 
HETATM    3  O9  UNL     1      57.958   3.318  46.567  1.00  0.00    -0.340 OA
HETATM    4  C15 UNL     1      59.195   3.700  47.128  1.00  0.00     0.289 C 
HETATM    5  C16 UNL     1      59.470   5.074  46.542  1.00  0.00     0.204 C 
HETATM    6  C17 UNL     1      59.578   5.024  45.058  1.00  0.00     0.184 C 
ENDROOT
BRANCH   1   7
HETATM    7  O4  UNL     1      57.563   4.736  43.747  1.00  0.00    -0.347 OA
BRANCH   7   8
HETATM    8  C5  UNL     1      57.130   4.248  42.563  1.00  0.00     0.291 C 
HETATM    9  O3  UNL     1      57.343   5.282  41.604  1.00  0.00    -0.349 OA
HETATM   10  C3  UNL     1      57.135   4.805  40.336  1.00  0.00     0.179 C 
HETATM   11  C2  UNL     1      56.306   3.565  40.268  1.00  0.00     0.182 C 
HETATM   12  C1  UNL     1      55.205   3.506  41.275  1.00  0.00     0.247 C 
HETATM   13  C18 UNL     1      55.629   4.101  42.599  1.00  0.00     0.206 C 
BRANCH  10  14
HETATM   14  C4  UNL     1      56.600   5.907  39.416  1.00  0.00     0.198 C 
BRANCH  14  15
HETATM   15  O2  UNL     1      57.402   6.040  38.288  1.00  0.00    -0.398 OA
ATOM     16  H2  UNL     1      57.333   5.272  37.732  1.00  0.00     0.209 HD
ENDBRANCH  14  15
ENDBRANCH  10  14
BRANCH  11  17
HETATM   17  O1  UNL     1      55.695   3.552  38.991  1.00  0.00    -0.391 OA
ATOM     18  H1  UNL     1      55.328   2.684  38.870  1.00  0.00     0.210 HD
ENDBRANCH  11  17
BRANCH  12  19
HETATM   19  N1  UNL     1      54.910   2.085  41.508  1.00  0.00    -0.070 N 
ATOM     20  H13 UNL     1      55.640   1.463  41.161  1.00  0.00     0.274 HD
ATOM     21  H12 UNL     1      54.970   1.820  42.491  1.00  0.00     0.274 HD
ATOM     22  H11 UNL     1      53.996   1.899  41.097  1.00  0.00     0.274 HD
ENDBRANCH  12  19
BRANCH  13  23
HETATM   23  O13 UNL     1      55.136   3.419  43.677  1.00  0.00    -0.388 OA
ATOM     24  H13 UNL     1      54.499   3.918  44.175  1.00  0.00     0.210 HD
ENDBRANCH  13  23
ENDBRANCH   7   8
ENDBRANCH   1   7
BRANCH   2  25
HETATM   25  S1  UNL     1      59.195   1.529  45.134  1.00  0.00    -0.062 SA
BRANCH  25  26
HETATM   26  S2  UNL     1      57.989  -0.242  44.912  1.00  0.00    -0.085 SA
BRANCH  26  27
HETATM   27  C8  UNL     1      56.444   0.135  45.837  1.00  0.00     0.116 C 
HETATM   28  C9  UNL     1      55.225  -0.315  45.151  1.00  0.00     0.137 C 
HETATM   29  C10 UNL     1      54.097  -0.751  46.037  1.00  0.00     0.065 C 
HETATM   30  C11 UNL     1      54.247   0.040  47.345  1.00  0.00     0.129 C 
HETATM   31  C12 UNL     1      55.431  -0.608  48.037  1.00  0.00     0.068 C 
HETATM   32  C14 UNL     1      56.647  -0.319  47.239  1.00  0.00     0.143 C 
BRANCH  28  33
HETATM   33  O5  UNL     1      54.712   0.687  44.293  1.00  0.00    -0.394 OA
ATOM     34  H5  UNL     1      55.186   0.717  43.470  1.00  0.00     0.210 HD
ENDBRANCH  28  33
BRANCH  30  35
HETATM   35  O6  UNL     1      53.095   0.011  48.094  1.00  0.00    -0.395 OA
ATOM     36  H6  UNL     1      52.535   0.756  47.910  1.00  0.00     0.210 HD
ENDBRANCH  30  35
BRANCH  31  37
HETATM   37  C13 UNL     1      55.614  -0.122  49.447  1.00  0.00     0.173 C 
BRANCH  37  38
HETATM   38  O7  UNL     1      55.307   1.244  49.489  1.00  0.00    -0.400 OA
ATOM     39  H7  UNL     1      55.230   1.508  50.398  1.00  0.00     0.209 HD
ENDBRANCH  37  38
ENDBRANCH  31  37
BRANCH  32  40
HETATM   40  O8  UNL     1      57.428   0.606  47.938  1.00  0.00    -0.394 OA
ATOM     41  H8  UNL     1      57.146   0.657  48.844  1.00  0.00     0.210 HD
ENDBRANCH  32  40
ENDBRANCH  26  27
ENDBRANCH  25  26
ENDBRANCH   2  25
BRANCH   6  42
HETATM   42  O12 UNL     1      60.906   4.685  44.770  1.00  0.00    -0.390 OA
ATOM     43  H12 UNL     1      61.460   4.750  45.539  1.00  0.00     0.210 HD
ENDBRANCH   6  42
BRANCH   5  44
HETATM   44  O11 UNL     1      60.688   5.557  47.061  1.00  0.00    -0.388 OA
ATOM     45  H11 UNL     1      60.557   6.441  47.383  1.00  0.00     0.210 HD
ENDBRANCH   5  44
BRANCH   4  46
HETATM   46  O10 UNL     1      58.998   3.821  48.491  1.00  0.00    -0.368 OA
ATOM     47  H10 UNL     1      59.828   4.093  48.867  1.00  0.00     0.212 HD
ENDBRANCH   4  46
TORSDOF 18
ENDMDL
