MODEL 1
REMARK VINA RESULT: -6.696146294      0.000      0.000
REMARK  15 active torsions:
REMARK  status: ('A' for Active; 'I' for Inactive)
REMARK    1  A    between atoms: N1_1  and  C1_4 
REMARK    2  A    between atoms: C2_7  and  C3_8 
REMARK    3  A    between atoms: N4_13  and  C4_14 
REMARK    4  A    between atoms: C5_16  and  C6_17 
REMARK    5  A    between atoms: C6_17  and  O4_18 
REMARK    6  A    between atoms: O4_18  and  C7_19 
REMARK    7  A    between atoms: C8_23  and  O5_24 
REMARK    8  A    between atoms: O5_24  and  C9_25 
REMARK    9  A    between atoms: C10_26  and  N6_27 
REMARK   10  A    between atoms: C12_32  and  N7_33 
REMARK   11  A    between atoms: C13_37  and  O6_38 
REMARK   12  A    between atoms: C14_40  and  N8_41 
REMARK   13  A    between atoms: C15_45  and  N9_46 
REMARK   14  A    between atoms: C17_51  and  N10_52 
REMARK   15  A    between atoms: C18_57  and  O8_58 
ROOT
HETATM    1  C7  UNL     1      59.266   1.876  47.674  1.00  0.00     0.354 C 
HETATM    2  N5  UNL     1      59.455   1.829  46.261  1.00  0.00    -0.018 N 
ATOM      3  H51 UNL     1      59.316   0.895  45.876  1.00  0.00     0.283 HD
ATOM      4  H52 UNL     1      60.432   1.945  45.991  1.00  0.00     0.283 HD
HETATM    5  C8  UNL     1      58.577   2.830  45.649  1.00  0.00     0.355 C 
HETATM    6  C15 UNL     1      59.355   4.109  45.860  1.00  0.00     0.241 C 
HETATM    7  C16 UNL     1      59.358   4.375  47.349  1.00  0.00     0.074 C 
HETATM    8  C17 UNL     1      58.936   3.244  48.202  1.00  0.00     0.241 C 
ENDROOT
BRANCH   1   9
HETATM    9  O4  UNL     1      60.304   1.284  48.388  1.00  0.00    -0.353 OA
BRANCH   9  10
HETATM   10  C6  UNL     1      61.269   0.773  47.562  1.00  0.00     0.231 C 
BRANCH  10  11
HETATM   11  C5  UNL     1      62.636   1.288  47.856  1.00  0.00     0.289 C 
HETATM   12  O3  UNL     1      62.693   2.292  48.803  1.00  0.00    -0.327 OA
HETATM   13  C4  UNL     1      62.821   3.484  48.170  1.00  0.00     0.320 C 
HETATM   14  C18 UNL     1      62.869   3.144  46.710  1.00  0.00     0.311 C 
HETATM   15  O7  UNL     1      63.176   1.810  46.684  1.00  0.00    -0.325 OA
BRANCH  13  16
HETATM   16  N4  UNL     1      64.036   4.225  48.482  1.00  0.00    -0.087 N 
HETATM   17  C1  UNL     1      65.286   3.842  48.680  1.00  0.00     0.697 A 
HETATM   18  N2  UNL     1      66.008   4.975  48.939  1.00  0.00    -0.167 N 
HETATM   19  C2  UNL     1      65.204   6.050  48.900  1.00  0.00     0.213 A 
ATOM     20  H2  UNL     1      67.010   4.999  49.134  1.00  0.00     0.186 HD
HETATM   21  N3  UNL     1      63.988   5.557  48.615  1.00  0.00    -0.260 N 
ATOM     22  H3  UNL     1      63.143   6.120  48.514  1.00  0.00     0.189 HD
BRANCH  17  23
HETATM   23  N1  UNL     1      65.740   2.649  48.641  1.00  0.00    -0.233 N 
ATOM     24  H12 UNL     1      66.470   2.250  49.232  1.00  0.00     0.174 HD
ATOM     25  H11 UNL     1      65.439   1.909  48.006  1.00  0.00     0.174 HD
ENDBRANCH  17  23
BRANCH  19  26
HETATM   26  C3  UNL     1      65.570   7.443  49.118  1.00  0.00     0.247 C 
HETATM   27  O1  UNL     1      64.738   8.359  48.954  1.00  0.00    -0.642 OA
HETATM   28  O2  UNL     1      66.851   7.763  49.511  1.00  0.00    -0.642 OA
ENDBRANCH  19  26
ENDBRANCH  13  16
BRANCH  14  29
HETATM   29  O8  UNL     1      63.922   3.812  46.057  1.00  0.00    -0.367 OA
ATOM     30  H8  UNL     1      63.599   4.487  45.472  1.00  0.00     0.212 HD
ENDBRANCH  14  29
ENDBRANCH  10  11
ENDBRANCH   9  10
ENDBRANCH   1   9
BRANCH   8  31
HETATM   31  N10 UNL     1      59.640   3.376  49.488  1.00  0.00    -0.071 N 
ATOM     32 3H10 UNL     1      60.043   2.500  49.820  1.00  0.00     0.274 HD
ATOM     33 2H10 UNL     1      60.513   3.899  49.419  1.00  0.00     0.274 HD
ATOM     34 1H10 UNL     1      58.974   3.787  50.142  1.00  0.00     0.274 HD
ENDBRANCH   8  31
BRANCH   5  35
HETATM   35  O5  UNL     1      58.327   2.615  44.339  1.00  0.00    -0.348 OA
BRANCH  35  36
HETATM   36  C9  UNL     1      57.219   1.876  43.994  1.00  0.00     0.187 C 
HETATM   37  C10 UNL     1      57.564   1.298  42.593  1.00  0.00     0.216 C 
HETATM   38  C11 UNL     1      58.120   2.467  41.855  1.00  0.00     0.070 C 
HETATM   39  C12 UNL     1      57.260   3.666  41.777  1.00  0.00     0.216 C 
HETATM   40  C13 UNL     1      56.216   3.853  42.824  1.00  0.00     0.181 C 
HETATM   41  C14 UNL     1      55.977   2.665  43.700  1.00  0.00     0.244 C 
BRANCH  37  42
HETATM   42  N6  UNL     1      58.455   0.200  42.646  1.00  0.00    -0.072 N 
ATOM     43  H63 UNL     1      58.866   0.112  43.576  1.00  0.00     0.274 HD
ATOM     44  H62 UNL     1      57.945  -0.682  42.602  1.00  0.00     0.274 HD
ATOM     45  H61 UNL     1      59.180   0.236  41.930  1.00  0.00     0.274 HD
ENDBRANCH  37  42
BRANCH  39  46
HETATM   46  N7  UNL     1      56.678   3.718  40.425  1.00  0.00    -0.072 N 
ATOM     47  H73 UNL     1      55.871   4.339  40.366  1.00  0.00     0.274 HD
ATOM     48  H72 UNL     1      57.274   4.204  39.756  1.00  0.00     0.274 HD
ATOM     49  H71 UNL     1      56.463   2.762  40.139  1.00  0.00     0.274 HD
ENDBRANCH  39  46
BRANCH  40  50
HETATM   50  O6  UNL     1      56.463   4.962  43.632  1.00  0.00    -0.391 OA
ATOM     51  H6  UNL     1      55.979   4.932  44.450  1.00  0.00     0.210 HD
ENDBRANCH  40  50
BRANCH  41  52
HETATM   52  N8  UNL     1      55.170   3.004  44.838  1.00  0.00    -0.070 N 
ATOM     53  H83 UNL     1      54.183   2.886  44.611  1.00  0.00     0.274 HD
ATOM     54  H82 UNL     1      55.276   2.295  45.563  1.00  0.00     0.274 HD
ATOM     55  H81 UNL     1      55.328   3.931  45.231  1.00  0.00     0.274 HD
ENDBRANCH  41  52
ENDBRANCH  35  36
ENDBRANCH   5  35
BRANCH   6  56
HETATM   56  N9  UNL     1      58.953   5.219  45.084  1.00  0.00    -0.071 N 
ATOM     57  H93 UNL     1      59.567   6.012  45.270  1.00  0.00     0.274 HD
ATOM     58  H92 UNL     1      59.166   5.048  44.101  1.00  0.00     0.274 HD
ATOM     59  H91 UNL     1      57.979   5.507  45.181  1.00  0.00     0.274 HD
ENDBRANCH   6  56
TORSDOF 15
ENDMDL
MODEL 2
REMARK VINA RESULT: -6.592564672      3.951      9.009
REMARK  15 active torsions:
REMARK  status: ('A' for Active; 'I' for Inactive)
REMARK    1  A    between atoms: N1_1  and  C1_4 
REMARK    2  A    between atoms: C2_7  and  C3_8 
REMARK    3  A    between atoms: N4_13  and  C4_14 
REMARK    4  A    between atoms: C5_16  and  C6_17 
REMARK    5  A    between atoms: C6_17  and  O4_18 
REMARK    6  A    between atoms: O4_18  and  C7_19 
REMARK    7  A    between atoms: C8_23  and  O5_24 
REMARK    8  A    between atoms: O5_24  and  C9_25 
REMARK    9  A    between atoms: C10_26  and  N6_27 
REMARK   10  A    between atoms: C12_32  and  N7_33 
REMARK   11  A    between atoms: C13_37  and  O6_38 
REMARK   12  A    between atoms: C14_40  and  N8_41 
REMARK   13  A    between atoms: C15_45  and  N9_46 
REMARK   14  A    between atoms: C17_51  and  N10_52 
REMARK   15  A    between atoms: C18_57  and  O8_58 
ROOT
HETATM    1  C7  UNL     1      58.750   3.493  48.932  1.00  0.00     0.354 C 
HETATM    2  N5  UNL     1      59.259   3.727  50.243  1.00  0.00    -0.018 N 
ATOM      3  H51 UNL     1      59.646   4.665  50.354  1.00  0.00     0.283 HD
ATOM      4  H52 UNL     1      60.113   3.203  50.433  1.00  0.00     0.283 HD
HETATM    5  C8  UNL     1      58.194   3.439  51.206  1.00  0.00     0.355 C 
HETATM    6  C15 UNL     1      58.243   1.929  51.295  1.00  0.00     0.241 C 
HETATM    7  C16 UNL     1      57.784   1.401  49.955  1.00  0.00     0.074 C 
HETATM    8  C17 UNL     1      57.730   2.391  48.860  1.00  0.00     0.241 C 
ENDROOT
BRANCH   1   9
HETATM    9  O4  UNL     1      59.748   3.337  47.974  1.00  0.00    -0.353 OA
BRANCH   9  10
HETATM   10  C6  UNL     1      60.076   4.523  47.375  1.00  0.00     0.231 C 
BRANCH  10  11
HETATM   11  C5  UNL     1      59.146   4.914  46.279  1.00  0.00     0.289 C 
HETATM   12  O3  UNL     1      58.591   3.860  45.579  1.00  0.00    -0.327 OA
HETATM   13  C4  UNL     1      59.260   3.712  44.409  1.00  0.00     0.320 C 
HETATM   14  C18 UNL     1      60.291   4.801  44.412  1.00  0.00     0.311 C 
HETATM   15  O7  UNL     1      59.845   5.686  45.357  1.00  0.00    -0.325 OA
BRANCH  13  16
HETATM   16  N4  UNL     1      58.453   3.883  43.207  1.00  0.00    -0.087 N 
HETATM   17  C1  UNL     1      58.275   3.126  42.139  1.00  0.00     0.697 A 
HETATM   18  N2  UNL     1      57.400   3.792  41.325  1.00  0.00    -0.167 N 
HETATM   19  C2  UNL     1      57.041   4.954  41.893  1.00  0.00     0.213 A 
ATOM     20  H2  UNL     1      57.070   3.454  40.420  1.00  0.00     0.186 HD
HETATM   21  N3  UNL     1      57.708   4.987  43.058  1.00  0.00    -0.260 N 
ATOM     22  H3  UNL     1      57.654   5.747  43.735  1.00  0.00     0.189 HD
BRANCH  17  23
HETATM   23  N1  UNL     1      58.814   1.992  41.902  1.00  0.00    -0.233 N 
ATOM     24  H12 UNL     1      58.438   1.243  41.321  1.00  0.00     0.174 HD
ATOM     25  H11 UNL     1      59.709   1.661  42.264  1.00  0.00     0.174 HD
ENDBRANCH  17  23
BRANCH  19  26
HETATM   26  C3  UNL     1      56.130   5.960  41.362  1.00  0.00     0.247 C 
HETATM   27  O1  UNL     1      55.647   6.843  42.099  1.00  0.00    -0.642 OA
HETATM   28  O2  UNL     1      55.790   5.942  40.027  1.00  0.00    -0.642 OA
ENDBRANCH  19  26
ENDBRANCH  13  16
BRANCH  14  29
HETATM   29  O8  UNL     1      60.314   5.497  43.188  1.00  0.00    -0.367 OA
ATOM     30  H8  UNL     1      59.772   6.277  43.219  1.00  0.00     0.212 HD
ENDBRANCH  14  29
ENDBRANCH  10  11
ENDBRANCH   9  10
ENDBRANCH   1   9
BRANCH   8  31
HETATM   31  N10 UNL     1      57.983   1.670  47.601  1.00  0.00    -0.071 N 
ATOM     32 3H10 UNL     1      58.842   1.961  47.135  1.00  0.00     0.274 HD
ATOM     33 2H10 UNL     1      58.239   0.693  47.739  1.00  0.00     0.274 HD
ATOM     34 1H10 UNL     1      57.151   1.792  47.025  1.00  0.00     0.274 HD
ENDBRANCH   8  31
BRANCH   5  35
HETATM   35  O5  UNL     1      58.375   4.011  52.417  1.00  0.00    -0.348 OA
BRANCH  35  36
HETATM   36  C9  UNL     1      59.450   4.850  52.592  1.00  0.00     0.187 C 
HETATM   37  C10 UNL     1      60.287   4.171  53.713  1.00  0.00     0.216 C 
HETATM   38  C11 UNL     1      59.271   3.799  54.737  1.00  0.00     0.070 C 
HETATM   39  C12 UNL     1      58.422   4.893  55.249  1.00  0.00     0.216 C 
HETATM   40  C13 UNL     1      58.232   6.098  54.393  1.00  0.00     0.181 C 
HETATM   41  C14 UNL     1      59.142   6.183  53.209  1.00  0.00     0.244 C 
BRANCH  37  42
HETATM   42  N6  UNL     1      61.043   3.067  53.253  1.00  0.00    -0.072 N 
ATOM     43  H63 UNL     1      60.485   2.478  52.635  1.00  0.00     0.274 HD
ATOM     44  H62 UNL     1      61.762   3.369  52.596  1.00  0.00     0.274 HD
ATOM     45  H61 UNL     1      61.451   2.517  54.009  1.00  0.00     0.274 HD
ENDBRANCH  37  42
BRANCH  39  46
HETATM   46  N7  UNL     1      58.914   5.260  56.588  1.00  0.00    -0.072 N 
ATOM     47  H73 UNL     1      59.201   4.451  57.139  1.00  0.00     0.274 HD
ATOM     48  H72 UNL     1      59.816   5.734  56.561  1.00  0.00     0.274 HD
ATOM     49  H71 UNL     1      58.191   5.814  57.047  1.00  0.00     0.274 HD
ENDBRANCH  39  46
BRANCH  40  50
HETATM   50  O6  UNL     1      56.916   6.243  53.957  1.00  0.00    -0.391 OA
ATOM     51  H6  UNL     1      56.306   6.369  54.675  1.00  0.00     0.210 HD
ENDBRANCH  40  50
BRANCH  41  52
HETATM   52  N8  UNL     1      58.724   7.209  52.297  1.00  0.00    -0.070 N 
ATOM     53  H83 UNL     1      59.536   7.714  51.945  1.00  0.00     0.274 HD
ATOM     54  H82 UNL     1      58.382   6.788  51.432  1.00  0.00     0.274 HD
ATOM     55  H81 UNL     1      58.035   7.868  52.658  1.00  0.00     0.274 HD
ENDBRANCH  41  52
ENDBRANCH  35  36
ENDBRANCH   5  35
BRANCH   6  56
HETATM   56  N9  UNL     1      57.577   1.347  52.397  1.00  0.00    -0.071 N 
ATOM     57  H93 UNL     1      57.015   2.053  52.872  1.00  0.00     0.274 HD
ATOM     58  H92 UNL     1      56.844   0.721  52.065  1.00  0.00     0.274 HD
ATOM     59  H91 UNL     1      58.166   0.863  53.073  1.00  0.00     0.274 HD
ENDBRANCH   6  56
TORSDOF 15
ENDMDL
MODEL 3
REMARK VINA RESULT: -6.312328968      2.490      5.502
REMARK  15 active torsions:
REMARK  status: ('A' for Active; 'I' for Inactive)
REMARK    1  A    between atoms: N1_1  and  C1_4 
REMARK    2  A    between atoms: C2_7  and  C3_8 
REMARK    3  A    between atoms: N4_13  and  C4_14 
REMARK    4  A    between atoms: C5_16  and  C6_17 
REMARK    5  A    between atoms: C6_17  and  O4_18 
REMARK    6  A    between atoms: O4_18  and  C7_19 
REMARK    7  A    between atoms: C8_23  and  O5_24 
REMARK    8  A    between atoms: O5_24  and  C9_25 
REMARK    9  A    between atoms: C10_26  and  N6_27 
REMARK   10  A    between atoms: C12_32  and  N7_33 
REMARK   11  A    between atoms: C13_37  and  O6_38 
REMARK   12  A    between atoms: C14_40  and  N8_41 
REMARK   13  A    between atoms: C15_45  and  N9_46 
REMARK   14  A    between atoms: C17_51  and  N10_52 
REMARK   15  A    between atoms: C18_57  and  O8_58 
ROOT
HETATM    1  C7  UNL     1      60.066   3.211  46.527  1.00  0.00     0.354 C 
HETATM    2  N5  UNL     1      59.834   2.588  47.789  1.00  0.00    -0.018 N 
ATOM      3  H51 UNL     1      60.517   2.864  48.495  1.00  0.00     0.283 HD
ATOM      4  H52 UNL     1      60.041   1.590  47.779  1.00  0.00     0.283 HD
HETATM    5  C8  UNL     1      58.456   2.875  48.194  1.00  0.00     0.355 C 
HETATM    6  C15 UNL     1      57.669   1.868  47.385  1.00  0.00     0.241 C 
HETATM    7  C16 UNL     1      57.798   2.278  45.936  1.00  0.00     0.074 C 
HETATM    8  C17 UNL     1      58.851   3.274  45.644  1.00  0.00     0.241 C 
ENDROOT
BRANCH   1   9
HETATM    9  O4  UNL     1      61.168   2.692  45.852  1.00  0.00    -0.353 OA
BRANCH   9  10
HETATM   10  C6  UNL     1      62.171   2.328  46.709  1.00  0.00     0.231 C 
BRANCH  10  11
HETATM   11  C5  UNL     1      62.989   3.477  47.189  1.00  0.00     0.289 C 
HETATM   12  O3  UNL     1      64.354   3.334  47.023  1.00  0.00    -0.327 OA
HETATM   13  C4  UNL     1      64.902   2.972  48.209  1.00  0.00     0.320 C 
HETATM   14  C18 UNL     1      63.752   2.923  49.169  1.00  0.00     0.311 C 
HETATM   15  O7  UNL     1      62.766   3.644  48.552  1.00  0.00    -0.325 OA
BRANCH  13  16
HETATM   16  N4  UNL     1      65.880   3.908  48.751  1.00  0.00    -0.087 N 
HETATM   17  C1  UNL     1      67.086   3.737  49.263  1.00  0.00     0.697 A 
HETATM   18  N2  UNL     1      67.545   4.978  49.611  1.00  0.00    -0.167 N 
HETATM   19  C2  UNL     1      66.624   5.907  49.311  1.00  0.00     0.213 A 
ATOM     20  H2  UNL     1      68.454   5.168  50.035  1.00  0.00     0.186 HD
HETATM   21  N3  UNL     1      65.602   5.218  48.780  1.00  0.00    -0.260 N 
ATOM     22  H3  UNL     1      64.733   5.634  48.445  1.00  0.00     0.189 HD
BRANCH  17  23
HETATM   23  N1  UNL     1      67.709   2.632  49.412  1.00  0.00    -0.233 N 
ATOM     24  H12 UNL     1      67.998   1.986  48.677  1.00  0.00     0.174 HD
ATOM     25  H11 UNL     1      68.013   2.224  50.297  1.00  0.00     0.174 HD
ENDBRANCH  17  23
BRANCH  19  26
HETATM   26  C3  UNL     1      66.712   7.347  49.518  1.00  0.00     0.247 C 
HETATM   27  O1  UNL     1      67.755   7.870  49.960  1.00  0.00    -0.642 OA
HETATM   28  O2  UNL     1      65.633   8.151  49.223  1.00  0.00    -0.642 OA
ENDBRANCH  19  26
ENDBRANCH  13  16
BRANCH  14  29
HETATM   29  O8  UNL     1      64.051   3.595  50.370  1.00  0.00    -0.367 OA
ATOM     30  H8  UNL     1      63.567   4.410  50.444  1.00  0.00     0.212 HD
ENDBRANCH  14  29
ENDBRANCH  10  11
ENDBRANCH   9  10
ENDBRANCH   1   9
BRANCH   8  31
HETATM   31  N10 UNL     1      59.320   3.029  44.270  1.00  0.00    -0.071 N 
ATOM     32 3H10 UNL     1      60.234   2.577  44.230  1.00  0.00     0.274 HD
ATOM     33 2H10 UNL     1      58.797   2.298  43.788  1.00  0.00     0.274 HD
ATOM     34 1H10 UNL     1      59.293   3.928  43.790  1.00  0.00     0.274 HD
ENDBRANCH   8  31
BRANCH   5  35
HETATM   35  O5  UNL     1      58.229   2.730  49.518  1.00  0.00    -0.348 OA
BRANCH  35  36
HETATM   36  C9  UNL     1      59.154   2.047  50.272  1.00  0.00     0.187 C 
HETATM   37  C10 UNL     1      58.305   1.055  51.114  1.00  0.00     0.216 C 
HETATM   38  C11 UNL     1      57.184   1.893  51.625  1.00  0.00     0.070 C 
HETATM   39  C12 UNL     1      57.560   3.103  52.385  1.00  0.00     0.216 C 
HETATM   40  C13 UNL     1      58.906   3.697  52.143  1.00  0.00     0.181 C 
HETATM   41  C14 UNL     1      59.839   2.846  51.342  1.00  0.00     0.244 C 
BRANCH  37  42
HETATM   42  N6  UNL     1      57.866  -0.070  50.377  1.00  0.00    -0.072 N 
ATOM     43  H63 UNL     1      58.415  -0.181  49.524  1.00  0.00     0.274 HD
ATOM     44  H62 UNL     1      58.117  -0.936  50.853  1.00  0.00     0.274 HD
ATOM     45  H61 UNL     1      56.868  -0.048  50.167  1.00  0.00     0.274 HD
ENDBRANCH  37  42
BRANCH  39  46
HETATM   46  N7  UNL     1      57.347   2.824  53.815  1.00  0.00    -0.072 N 
ATOM     47  H73 UNL     1      58.091   3.198  54.405  1.00  0.00     0.274 HD
ATOM     48  H72 UNL     1      56.576   3.360  54.212  1.00  0.00     0.274 HD
ATOM     49  H71 UNL     1      57.224   1.817  53.923  1.00  0.00     0.274 HD
ENDBRANCH  39  46
BRANCH  40  50
HETATM   50  O6  UNL     1      58.835   4.959  51.555  1.00  0.00    -0.391 OA
ATOM     51  H6  UNL     1      59.166   5.645  52.123  1.00  0.00     0.210 HD
ENDBRANCH  40  50
BRANCH  41  52
HETATM   52  N8  UNL     1      60.996   3.584  50.924  1.00  0.00    -0.070 N 
ATOM     53  H83 UNL     1      60.917   3.826  49.937  1.00  0.00     0.274 HD
ATOM     54  H82 UNL     1      60.984   4.515  51.340  1.00  0.00     0.274 HD
ATOM     55  H81 UNL     1      61.895   3.136  51.101  1.00  0.00     0.274 HD
ENDBRANCH  41  52
ENDBRANCH  35  36
ENDBRANCH   5  35
BRANCH   6  56
HETATM   56  N9  UNL     1      56.336   1.642  47.797  1.00  0.00    -0.071 N 
ATOM     57  H93 UNL     1      55.783   1.307  47.008  1.00  0.00     0.274 HD
ATOM     58  H92 UNL     1      56.297   0.827  48.408  1.00  0.00     0.274 HD
ATOM     59  H91 UNL     1      55.863   2.429  48.240  1.00  0.00     0.274 HD
ENDBRANCH   6  56
TORSDOF 15
ENDMDL
MODEL 4
REMARK VINA RESULT: -6.213304979      2.005      2.656
REMARK  15 active torsions:
REMARK  status: ('A' for Active; 'I' for Inactive)
REMARK    1  A    between atoms: N1_1  and  C1_4 
REMARK    2  A    between atoms: C2_7  and  C3_8 
REMARK    3  A    between atoms: N4_13  and  C4_14 
REMARK    4  A    between atoms: C5_16  and  C6_17 
REMARK    5  A    between atoms: C6_17  and  O4_18 
REMARK    6  A    between atoms: O4_18  and  C7_19 
REMARK    7  A    between atoms: C8_23  and  O5_24 
REMARK    8  A    between atoms: O5_24  and  C9_25 
REMARK    9  A    between atoms: C10_26  and  N6_27 
REMARK   10  A    between atoms: C12_32  and  N7_33 
REMARK   11  A    between atoms: C13_37  and  O6_38 
REMARK   12  A    between atoms: C14_40  and  N8_41 
REMARK   13  A    between atoms: C15_45  and  N9_46 
REMARK   14  A    between atoms: C17_51  and  N10_52 
REMARK   15  A    between atoms: C18_57  and  O8_58 
ROOT
HETATM    1  C7  UNL     1      59.261   3.326  44.619  1.00  0.00     0.354 C 
HETATM    2  N5  UNL     1      58.850   2.877  43.329  1.00  0.00    -0.018 N 
ATOM      3  H51 UNL     1      58.853   1.860  43.246  1.00  0.00     0.283 HD
ATOM      4  H52 UNL     1      59.539   3.076  42.605  1.00  0.00     0.283 HD
HETATM    5  C8  UNL     1      57.539   3.464  43.037  1.00  0.00     0.355 C 
HETATM    6  C15 UNL     1      57.907   4.863  42.597  1.00  0.00     0.241 C 
HETATM    7  C16 UNL     1      58.448   5.574  43.817  1.00  0.00     0.074 C 
HETATM    8  C17 UNL     1      58.783   4.708  44.967  1.00  0.00     0.241 C 
ENDROOT
BRANCH   1   9
HETATM    9  O4  UNL     1      60.628   3.181  44.841  1.00  0.00    -0.353 OA
BRANCH   9  10
HETATM   10  C6  UNL     1      60.910   2.087  45.613  1.00  0.00     0.231 C 
BRANCH  10  11
HETATM   11  C5  UNL     1      61.472   2.430  46.949  1.00  0.00     0.289 C 
HETATM   12  O3  UNL     1      61.833   3.754  47.110  1.00  0.00    -0.327 OA
HETATM   13  C4  UNL     1      63.177   3.862  46.967  1.00  0.00     0.320 C 
HETATM   14  C18 UNL     1      63.654   2.462  46.725  1.00  0.00     0.311 C 
HETATM   15  O7  UNL     1      62.621   1.673  47.157  1.00  0.00    -0.325 OA
BRANCH  13  16
HETATM   16  N4  UNL     1      63.886   4.365  48.137  1.00  0.00    -0.087 N 
HETATM   17  C1  UNL     1      63.721   4.163  49.433  1.00  0.00     0.697 A 
HETATM   18  N2  UNL     1      64.684   4.895  50.071  1.00  0.00    -0.167 N 
HETATM   19  C2  UNL     1      65.439   5.544  49.170  1.00  0.00     0.213 A 
ATOM     20  H2  UNL     1      64.810   4.942  51.083  1.00  0.00     0.186 HD
HETATM   21  N3  UNL     1      64.923   5.199  47.979  1.00  0.00    -0.260 N 
ATOM     22  H3  UNL     1      65.272   5.526  47.079  1.00  0.00     0.189 HD
BRANCH  17  23
HETATM   23  N1  UNL     1      62.836   3.430  49.990  1.00  0.00    -0.233 N 
ATOM     24  H12 UNL     1      62.571   3.429  50.975  1.00  0.00     0.174 HD
ATOM     25  H11 UNL     1      62.256   2.728  49.530  1.00  0.00     0.174 HD
ENDBRANCH  17  23
BRANCH  19  26
HETATM   26  C3  UNL     1      66.568   6.429  49.426  1.00  0.00     0.247 C 
HETATM   27  O1  UNL     1      67.697   5.970  49.693  1.00  0.00    -0.642 OA
HETATM   28  O2  UNL     1      66.395   7.795  49.375  1.00  0.00    -0.642 OA
ENDBRANCH  19  26
ENDBRANCH  13  16
BRANCH  14  29
HETATM   29  O8  UNL     1      64.765   2.146  47.530  1.00  0.00    -0.367 OA
ATOM     30  H8  UNL     1      65.549   2.014  47.009  1.00  0.00     0.212 HD
ENDBRANCH  14  29
ENDBRANCH  10  11
ENDBRANCH   9  10
ENDBRANCH   1   9
BRANCH   8  31
HETATM   31  N10 UNL     1      59.883   5.357  45.701  1.00  0.00    -0.071 N 
ATOM     32 3H10 UNL     1      59.647   5.579  46.667  1.00  0.00     0.274 HD
ATOM     33 2H10 UNL     1      60.661   4.729  45.901  1.00  0.00     0.274 HD
ATOM     34 1H10 UNL     1      60.153   6.173  45.153  1.00  0.00     0.274 HD
ENDBRANCH   8  31
BRANCH   5  35
HETATM   35  O5  UNL     1      56.845   2.811  42.080  1.00  0.00    -0.348 OA
BRANCH  35  36
HETATM   36  C9  UNL     1      55.971   1.820  42.462  1.00  0.00     0.187 C 
HETATM   37  C10 UNL     1      55.831   0.925  41.199  1.00  0.00     0.216 C 
HETATM   38  C11 UNL     1      55.639   1.903  40.092  1.00  0.00     0.070 C 
HETATM   39  C12 UNL     1      54.517   2.853  40.240  1.00  0.00     0.216 C 
HETATM   40  C13 UNL     1      54.025   3.153  41.615  1.00  0.00     0.181 C 
HETATM   41  C14 UNL     1      54.552   2.253  42.687  1.00  0.00     0.244 C 
BRANCH  37  42
HETATM   42  N6  UNL     1      56.937   0.067  40.997  1.00  0.00    -0.072 N 
ATOM     43  H63 UNL     1      57.604   0.148  41.765  1.00  0.00     0.274 HD
ATOM     44  H62 UNL     1      56.665  -0.908  41.112  1.00  0.00     0.274 HD
ATOM     45  H61 UNL     1      57.399   0.212  40.099  1.00  0.00     0.274 HD
ENDBRANCH  37  42
BRANCH  39  46
HETATM   46  N7  UNL     1      53.421   2.400  39.367  1.00  0.00    -0.072 N 
ATOM     47  H73 UNL     1      53.149   1.433  39.544  1.00  0.00     0.274 HD
ATOM     48  H72 UNL     1      52.528   2.837  39.594  1.00  0.00     0.274 HD
ATOM     49  H71 UNL     1      53.704   2.560  38.400  1.00  0.00     0.274 HD
ENDBRANCH  39  46
BRANCH  40  50
HETATM   50  O6  UNL     1      54.256   4.477  41.988  1.00  0.00    -0.391 OA
ATOM     51  H6  UNL     1      54.616   4.551  42.864  1.00  0.00     0.210 HD
ENDBRANCH  40  50
BRANCH  41  52
HETATM   52  N8  UNL     1      54.257   2.765  43.995  1.00  0.00    -0.070 N 
ATOM     53  H83 UNL     1      54.690   2.175  44.705  1.00  0.00     0.274 HD
ATOM     54  H82 UNL     1      54.763   3.637  44.150  1.00  0.00     0.274 HD
ATOM     55  H81 UNL     1      53.268   2.895  44.207  1.00  0.00     0.274 HD
ENDBRANCH  41  52
ENDBRANCH  35  36
ENDBRANCH   5  35
BRANCH   6  56
HETATM   56  N9  UNL     1      56.902   5.586  41.915  1.00  0.00    -0.071 N 
ATOM     57  H93 UNL     1      57.147   5.672  40.929  1.00  0.00     0.274 HD
ATOM     58  H92 UNL     1      56.057   5.020  41.846  1.00  0.00     0.274 HD
ATOM     59  H91 UNL     1      56.673   6.505  42.294  1.00  0.00     0.274 HD
ENDBRANCH   6  56
TORSDOF 15
ENDMDL
MODEL 5
REMARK VINA RESULT: -6.188485525      5.011      9.035
REMARK  15 active torsions:
REMARK  status: ('A' for Active; 'I' for Inactive)
REMARK    1  A    between atoms: N1_1  and  C1_4 
REMARK    2  A    between atoms: C2_7  and  C3_8 
REMARK    3  A    between atoms: N4_13  and  C4_14 
REMARK    4  A    between atoms: C5_16  and  C6_17 
REMARK    5  A    between atoms: C6_17  and  O4_18 
REMARK    6  A    between atoms: O4_18  and  C7_19 
REMARK    7  A    between atoms: C8_23  and  O5_24 
REMARK    8  A    between atoms: O5_24  and  C9_25 
REMARK    9  A    between atoms: C10_26  and  N6_27 
REMARK   10  A    between atoms: C12_32  and  N7_33 
REMARK   11  A    between atoms: C13_37  and  O6_38 
REMARK   12  A    between atoms: C14_40  and  N8_41 
REMARK   13  A    between atoms: C15_45  and  N9_46 
REMARK   14  A    between atoms: C17_51  and  N10_52 
REMARK   15  A    between atoms: C18_57  and  O8_58 
ROOT
HETATM    1  C7  UNL     1      57.428   1.297  52.325  1.00  0.00     0.354 C 
HETATM    2  N5  UNL     1      58.417   2.175  52.861  1.00  0.00    -0.018 N 
ATOM      3  H51 UNL     1      58.729   2.874  52.187  1.00  0.00     0.283 HD
ATOM      4  H52 UNL     1      59.315   1.714  53.006  1.00  0.00     0.283 HD
HETATM    5  C8  UNL     1      57.883   2.770  54.088  1.00  0.00     0.355 C 
HETATM    6  C15 UNL     1      58.100   1.667  55.100  1.00  0.00     0.241 C 
HETATM    7  C16 UNL     1      57.171   0.538  54.716  1.00  0.00     0.074 C 
HETATM    8  C17 UNL     1      56.575   0.629  53.367  1.00  0.00     0.241 C 
ENDROOT
BRANCH   1   9
HETATM    9  O4  UNL     1      57.943   0.381  51.413  1.00  0.00    -0.353 OA
BRANCH   9  10
HETATM   10  C6  UNL     1      58.726   0.982  50.466  1.00  0.00     0.231 C 
BRANCH  10  11
HETATM   11  C5  UNL     1      57.949   1.718  49.430  1.00  0.00     0.289 C 
HETATM   12  O3  UNL     1      58.351   1.495  48.127  1.00  0.00    -0.327 OA
HETATM   13  C4  UNL     1      59.111   2.542  47.719  1.00  0.00     0.320 C 
HETATM   14  C18 UNL     1      59.135   3.482  48.887  1.00  0.00     0.311 C 
HETATM   15  O7  UNL     1      58.079   3.084  49.663  1.00  0.00    -0.325 OA
BRANCH  13  16
HETATM   16  N4  UNL     1      58.585   3.282  46.579  1.00  0.00    -0.087 N 
HETATM   17  C1  UNL     1      57.380   3.349  46.040  1.00  0.00     0.697 A 
HETATM   18  N2  UNL     1      57.470   4.209  44.980  1.00  0.00    -0.167 N 
HETATM   19  C2  UNL     1      58.726   4.669  44.869  1.00  0.00     0.213 A 
ATOM     20  H2  UNL     1      56.696   4.463  44.365  1.00  0.00     0.186 HD
HETATM   21  N3  UNL     1      59.397   4.079  45.871  1.00  0.00    -0.260 N 
ATOM     22  H3  UNL     1      60.388   4.218  46.067  1.00  0.00     0.189 HD
BRANCH  17  23
HETATM   23  N1  UNL     1      56.330   2.732  46.426  1.00  0.00    -0.233 N 
ATOM     24  H12 UNL     1      56.057   1.778  46.190  1.00  0.00     0.174 HD
ATOM     25  H11 UNL     1      55.599   3.105  47.032  1.00  0.00     0.174 HD
ENDBRANCH  17  23
BRANCH  19  26
HETATM   26  C3  UNL     1      59.248   5.603  43.880  1.00  0.00     0.247 C 
HETATM   27  O1  UNL     1      58.512   6.465  43.358  1.00  0.00    -0.642 OA
HETATM   28  O2  UNL     1      60.573   5.539  43.507  1.00  0.00    -0.642 OA
ENDBRANCH  19  26
ENDBRANCH  13  16
BRANCH  14  29
HETATM   29  O8  UNL     1      58.868   4.806  48.492  1.00  0.00    -0.367 OA
ATOM     30  H8  UNL     1      58.301   5.249  49.113  1.00  0.00     0.212 HD
ENDBRANCH  14  29
ENDBRANCH  10  11
ENDBRANCH   9  10
ENDBRANCH   1   9
BRANCH   8  31
HETATM   31  N10 UNL     1      56.341  -0.746  52.895  1.00  0.00    -0.071 N 
ATOM     32 3H10 UNL     1      56.167  -0.804  51.892  1.00  0.00     0.274 HD
ATOM     33 2H10 UNL     1      57.179  -1.327  52.912  1.00  0.00     0.274 HD
ATOM     34 1H10 UNL     1      55.578  -1.120  53.459  1.00  0.00     0.274 HD
ENDBRANCH   8  31
BRANCH   5  35
HETATM   35  O5  UNL     1      58.503   3.911  54.462  1.00  0.00    -0.348 OA
BRANCH  35  36
HETATM   36  C9  UNL     1      59.608   4.321  53.753  1.00  0.00     0.187 C 
HETATM   37  C10 UNL     1      60.629   4.744  54.845  1.00  0.00     0.216 C 
HETATM   38  C11 UNL     1      59.819   5.567  55.787  1.00  0.00     0.070 C 
HETATM   39  C12 UNL     1      59.104   6.721  55.204  1.00  0.00     0.216 C 
HETATM   40  C13 UNL     1      58.778   6.686  53.750  1.00  0.00     0.181 C 
HETATM   41  C14 UNL     1      59.448   5.595  52.976  1.00  0.00     0.244 C 
BRANCH  37  42
HETATM   42  N6  UNL     1      61.263   3.646  55.472  1.00  0.00    -0.072 N 
ATOM     43  H63 UNL     1      60.846   2.765  55.169  1.00  0.00     0.274 HD
ATOM     44  H62 UNL     1      62.208   3.518  55.109  1.00  0.00     0.274 HD
ATOM     45  H61 UNL     1      61.271   3.713  56.489  1.00  0.00     0.274 HD
ENDBRANCH  37  42
BRANCH  39  46
HETATM   46  N7  UNL     1      59.848   7.941  55.557  1.00  0.00    -0.072 N 
ATOM     47  H73 UNL     1      59.326   8.556  56.182  1.00  0.00     0.274 HD
ATOM     48  H72 UNL     1      60.638   7.758  56.175  1.00  0.00     0.274 HD
ATOM     49  H71 UNL     1      60.125   8.402  54.690  1.00  0.00     0.274 HD
ENDBRANCH  39  46
BRANCH  40  50
HETATM   50  O6  UNL     1      57.405   6.627  53.511  1.00  0.00    -0.391 OA
ATOM     51  H6  UNL     1      57.185   6.039  52.798  1.00  0.00     0.210 HD
ENDBRANCH  40  50
BRANCH  41  52
HETATM   52  N8  UNL     1      58.883   5.459  51.664  1.00  0.00    -0.070 N 
ATOM     53  H83 UNL     1      59.181   4.577  51.247  1.00  0.00     0.274 HD
ATOM     54  H82 UNL     1      57.878   5.297  51.733  1.00  0.00     0.274 HD
ATOM     55  H81 UNL     1      59.068   6.228  51.020  1.00  0.00     0.274 HD
ENDBRANCH  41  52
ENDBRANCH  35  36
ENDBRANCH   5  35
BRANCH   6  56
HETATM   56  N9  UNL     1      58.012   2.041  56.460  1.00  0.00    -0.071 N 
ATOM     57  H93 UNL     1      57.672   3.000  56.532  1.00  0.00     0.274 HD
ATOM     58  H92 UNL     1      57.244   1.540  56.906  1.00  0.00     0.274 HD
ATOM     59  H91 UNL     1      58.863   1.934  57.011  1.00  0.00     0.274 HD
ENDBRANCH   6  56
TORSDOF 15
ENDMDL
