MODEL 1
REMARK VINA RESULT: -7.282924113      0.000      0.000
REMARK  10 active torsions:
REMARK  status: ('A' for Active; 'I' for Inactive)
REMARK    1  A    between atoms: C2_7  and  N4_8 
REMARK       I    between atoms: N4_8  and  C3_10 
REMARK       I    between atoms: C3_10  and  N9_18 
REMARK    2  A    between atoms: N5_11  and  N6_13 
REMARK    3  A    between atoms: N9_18  and  C5_20 
REMARK    4  A    between atoms: C5_20  and  C6_21 
REMARK    5  A    between atoms: C5_20  and  C9_30 
REMARK    6  A    between atoms: C8_24  and  N10_25 
REMARK    7  A    between atoms: C10_34  and  C11_35 
REMARK    8  A    between atoms: C11_35  and  O2_36 
REMARK    9  A    between atoms: C11_35  and  O3_38 
REMARK   10  A    between atoms: C12_42  and  N14_43 
ROOT
HETATM    1  C5  UNL     1     -37.334  -1.228  47.862  1.00  0.00     0.206 C 
ENDROOT
BRANCH   1   2
HETATM    2  N9  UNL     1     -38.168  -0.632  48.871  1.00  0.00    -0.209 N 
HETATM    3  C3  UNL     1     -39.457  -1.154  49.112  1.00  0.00     0.708 C 
HETATM    4  N4  UNL     1     -39.991  -2.289  48.474  1.00  0.00    -0.018 N 
HETATM    5  N5  UNL     1     -40.220  -0.557  49.982  1.00  0.00    -0.130 N 
ATOM      6  H4  UNL     1     -39.675  -3.204  48.793  1.00  0.00     0.203 HD
ATOM      7  H5  UNL     1     -41.151  -0.938  50.151  1.00  0.00     0.205 HD
ATOM      8  H9  UNL     1     -37.830   0.165  49.409  1.00  0.00     0.179 HD
BRANCH   4   9
HETATM    9  C2  UNL     1     -40.846  -2.255  47.520  1.00  0.00     0.728 A 
HETATM   10  N3  UNL     1     -40.775  -1.359  46.508  1.00  0.00    -0.114 N 
HETATM   11  N2  UNL     1     -41.774  -1.551  45.672  1.00  0.00    -0.211 N 
ATOM     12  H3  UNL     1     -40.056  -0.642  46.409  1.00  0.00     0.207 HD
HETATM   13  N1  UNL     1     -42.463  -2.567  46.168  1.00  0.00    -0.209 N 
ATOM     14  H2  UNL     1     -41.974  -1.027  44.820  1.00  0.00     0.210 HD
HETATM   15  C1  UNL     1     -43.658  -3.079  45.514  1.00  0.00     0.202 C 
HETATM   16  N15 UNL     1     -41.921  -3.010  47.284  1.00  0.00    -0.113 N 
ATOM     17  H15 UNL     1     -42.260  -3.781  47.859  1.00  0.00     0.207 HD
ENDBRANCH   4   9
BRANCH   5  18
HETATM   18  N6  UNL     1     -39.837   0.561  50.685  1.00  0.00    -0.262 N 
HETATM   19  C4  UNL     1     -39.661   0.489  51.950  1.00  0.00     0.216 C 
HETATM   20  N7  UNL     1     -39.264   1.682  52.625  1.00  0.00    -0.065 NA
HETATM   21  N8  UNL     1     -39.857  -0.731  52.632  1.00  0.00    -0.065 NA
ATOM     22  H6  UNL     1     -39.694   1.446  50.198  1.00  0.00     0.190 HD
ENDBRANCH   5  18
ENDBRANCH   1   2
BRANCH   1  23
HETATM   23  C6  UNL     1     -35.965  -1.559  48.426  1.00  0.00     0.047 A 
HETATM   24  C7  UNL     1     -35.704  -2.776  48.981  1.00  0.00     0.080 A 
HETATM   25  S1  UNL     1     -34.069  -2.621  49.461  1.00  0.00    -0.064 SA
HETATM   26  C8  UNL     1     -33.816  -1.026  48.929  1.00  0.00     0.142 A 
HETATM   27  N11 UNL     1     -34.985  -0.677  48.409  1.00  0.00    -0.338 N 
ATOM     28  H11 UNL     1     -35.122   0.250  48.006  1.00  0.00     0.168 HD
BRANCH  26  29
HETATM   29  N10 UNL     1     -32.713  -0.315  49.018  1.00  0.00    -0.380 N 
ATOM     30 2H10 UNL     1     -31.930  -0.273  48.366  1.00  0.00     0.158 HD
ATOM     31 1H10 UNL     1     -32.445   0.327  49.764  1.00  0.00     0.158 HD
ENDBRANCH  26  29
ENDBRANCH   1  23
BRANCH   1  32
HETATM   32  C9  UNL     1     -37.303  -0.559  46.568  1.00  0.00     0.105 A 
HETATM   33  N12 UNL     1     -37.411   0.806  46.464  1.00  0.00    -0.257 N 
HETATM   34  O1  UNL     1     -37.401   1.467  45.382  1.00  0.00    -0.219 OA
ATOM     35  H12 UNL     1     -37.508   1.333  47.332  1.00  0.00     0.195 HD
HETATM   36  C10 UNL     1     -37.279   0.849  44.235  1.00  0.00     0.203 A 
HETATM   37  N13 UNL     1     -37.166  -0.483  44.217  1.00  0.00    -0.319 N 
HETATM   38  C12 UNL     1     -37.175  -1.210  45.362  1.00  0.00     0.128 A 
ATOM     39  H13 UNL     1     -37.071  -0.963  43.322  1.00  0.00     0.169 HD
BRANCH  36  40
HETATM   40  C11 UNL     1     -37.263   1.592  42.947  1.00  0.00     0.333 C 
BRANCH  40  41
HETATM   41  O2  UNL     1     -37.858   0.852  41.916  1.00  0.00    -0.364 OA
ATOM     42  H2  UNL     1     -37.513   1.097  41.065  1.00  0.00     0.213 HD
ENDBRANCH  40  41
BRANCH  40  43
HETATM   43  O3  UNL     1     -35.963   1.952  42.626  1.00  0.00    -0.364 OA
ATOM     44  H3  UNL     1     -35.784   1.744  41.716  1.00  0.00     0.213 HD
ENDBRANCH  40  43
ENDBRANCH  36  40
BRANCH  38  45
HETATM   45  N14 UNL     1     -37.058  -2.472  45.296  1.00  0.00    -0.384 N 
ATOM     46 2H14 UNL     1     -37.889  -3.055  45.392  1.00  0.00     0.157 HD
ATOM     47 1H14 UNL     1     -36.154  -2.918  45.143  1.00  0.00     0.157 HD
ENDBRANCH  38  45
ENDBRANCH   1  32
TORSDOF 10
ENDMDL
MODEL 2
REMARK VINA RESULT: -7.170960247      3.416      7.668
REMARK  10 active torsions:
REMARK  status: ('A' for Active; 'I' for Inactive)
REMARK    1  A    between atoms: C2_7  and  N4_8 
REMARK       I    between atoms: N4_8  and  C3_10 
REMARK       I    between atoms: C3_10  and  N9_18 
REMARK    2  A    between atoms: N5_11  and  N6_13 
REMARK    3  A    between atoms: N9_18  and  C5_20 
REMARK    4  A    between atoms: C5_20  and  C6_21 
REMARK    5  A    between atoms: C5_20  and  C9_30 
REMARK    6  A    between atoms: C8_24  and  N10_25 
REMARK    7  A    between atoms: C10_34  and  C11_35 
REMARK    8  A    between atoms: C11_35  and  O2_36 
REMARK    9  A    between atoms: C11_35  and  O3_38 
REMARK   10  A    between atoms: C12_42  and  N14_43 
ROOT
HETATM    1  C5  UNL     1     -38.852  -1.606  48.951  1.00  0.00     0.206 C 
ENDROOT
BRANCH   1   2
HETATM    2  N9  UNL     1     -38.537  -0.857  47.764  1.00  0.00    -0.209 N 
HETATM    3  C3  UNL     1     -37.201  -0.786  47.314  1.00  0.00     0.708 C 
HETATM    4  N4  UNL     1     -36.121  -1.463  47.911  1.00  0.00    -0.018 N 
HETATM    5  N5  UNL     1     -36.929  -0.049  46.276  1.00  0.00    -0.130 N 
ATOM      6  H4  UNL     1     -36.023  -2.459  47.719  1.00  0.00     0.203 HD
ATOM      7  H5  UNL     1     -35.962  -0.001  45.957  1.00  0.00     0.205 HD
ATOM      8  H9  UNL     1     -39.277  -0.379  47.249  1.00  0.00     0.179 HD
BRANCH   4   9
HETATM    9  C2  UNL     1     -35.253  -0.917  48.679  1.00  0.00     0.728 A 
HETATM   10  N3  UNL     1     -35.234  -1.117  50.017  1.00  0.00    -0.114 N 
HETATM   11  N2  UNL     1     -34.242  -0.440  50.555  1.00  0.00    -0.211 N 
ATOM     12  H3  UNL     1     -35.891  -1.704  50.532  1.00  0.00     0.207 HD
HETATM   13  N1  UNL     1     -33.647   0.180  49.548  1.00  0.00    -0.209 N 
ATOM     14  H2  UNL     1     -33.985  -0.401  51.542  1.00  0.00     0.210 HD
HETATM   15  C1  UNL     1     -32.490   1.041  49.749  1.00  0.00     0.202 C 
HETATM   16  N15 UNL     1     -34.240  -0.093  48.404  1.00  0.00    -0.113 N 
ATOM     17  H15 UNL     1     -33.975   0.259  47.484  1.00  0.00     0.207 HD
ENDBRANCH   4   9
BRANCH   5  18
HETATM   18  N6  UNL     1     -37.878   0.670  45.588  1.00  0.00    -0.262 N 
HETATM   19  C4  UNL     1     -37.586   1.194  44.459  1.00  0.00     0.216 C 
HETATM   20  N7  UNL     1     -38.612   1.928  43.791  1.00  0.00    -0.065 NA
HETATM   21  N8  UNL     1     -36.294   1.041  43.911  1.00  0.00    -0.065 NA
ATOM     22  H6  UNL     1     -38.814   0.784  45.978  1.00  0.00     0.190 HD
ENDBRANCH   5  18
ENDBRANCH   1   2
BRANCH   1  23
HETATM   23  C6  UNL     1     -39.925  -2.638  48.664  1.00  0.00     0.047 A 
HETATM   24  C7  UNL     1     -39.660  -3.743  47.911  1.00  0.00     0.080 A 
HETATM   25  S1  UNL     1     -41.172  -4.544  47.882  1.00  0.00    -0.064 SA
HETATM   26  C8  UNL     1     -42.046  -3.432  48.824  1.00  0.00     0.142 A 
HETATM   27  N11 UNL     1     -41.153  -2.498  49.122  1.00  0.00    -0.338 N 
ATOM     28  H11 UNL     1     -41.410  -1.691  49.690  1.00  0.00     0.168 HD
BRANCH  26  29
HETATM   29  N10 UNL     1     -43.314  -3.494  49.171  1.00  0.00    -0.380 N 
ATOM     30 2H10 UNL     1     -43.962  -4.274  49.069  1.00  0.00     0.158 HD
ATOM     31 1H10 UNL     1     -43.877  -2.764  49.607  1.00  0.00     0.158 HD
ENDBRANCH  26  29
ENDBRANCH   1  23
BRANCH   1  32
HETATM   32  C9  UNL     1     -39.076  -0.831  50.165  1.00  0.00     0.105 A 
HETATM   33  N12 UNL     1     -39.587   0.443  50.118  1.00  0.00    -0.257 N 
HETATM   34  O1  UNL     1     -39.806   1.188  51.121  1.00  0.00    -0.219 OA
ATOM     35  H12 UNL     1     -39.809   0.822  49.198  1.00  0.00     0.195 HD
HETATM   36  C10 UNL     1     -39.541   0.758  52.329  1.00  0.00     0.203 A 
HETATM   37  N13 UNL     1     -39.040  -0.470  52.493  1.00  0.00    -0.319 N 
HETATM   38  C12 UNL     1     -38.797  -1.284  51.435  1.00  0.00     0.128 A 
ATOM     39  H13 UNL     1     -38.836  -0.803  53.435  1.00  0.00     0.169 HD
BRANCH  36  40
HETATM   40  C11 UNL     1     -39.786   1.603  53.528  1.00  0.00     0.333 C 
BRANCH  40  41
HETATM   41  O2  UNL     1     -41.153   1.852  53.714  1.00  0.00    -0.364 OA
ATOM     42  H2  UNL     1     -41.481   2.488  53.090  1.00  0.00     0.213 HD
ENDBRANCH  40  41
BRANCH  40  43
HETATM   43  O3  UNL     1     -39.066   2.784  53.428  1.00  0.00    -0.364 OA
ATOM     44  H3  UNL     1     -39.599   3.514  53.722  1.00  0.00     0.213 HD
ENDBRANCH  40  43
ENDBRANCH  36  40
BRANCH  38  45
HETATM   45  N14 UNL     1     -38.328  -2.444  51.639  1.00  0.00    -0.384 N 
ATOM     46 2H14 UNL     1     -38.202  -3.077  50.849  1.00  0.00     0.157 HD
ATOM     47 1H14 UNL     1     -38.066  -2.758  52.573  1.00  0.00     0.157 HD
ENDBRANCH  38  45
ENDBRANCH   1  32
TORSDOF 10
ENDMDL
MODEL 3
REMARK VINA RESULT: -7.082535606      1.469      1.757
REMARK  10 active torsions:
REMARK  status: ('A' for Active; 'I' for Inactive)
REMARK    1  A    between atoms: C2_7  and  N4_8 
REMARK       I    between atoms: N4_8  and  C3_10 
REMARK       I    between atoms: C3_10  and  N9_18 
REMARK    2  A    between atoms: N5_11  and  N6_13 
REMARK    3  A    between atoms: N9_18  and  C5_20 
REMARK    4  A    between atoms: C5_20  and  C6_21 
REMARK    5  A    between atoms: C5_20  and  C9_30 
REMARK    6  A    between atoms: C8_24  and  N10_25 
REMARK    7  A    between atoms: C10_34  and  C11_35 
REMARK    8  A    between atoms: C11_35  and  O2_36 
REMARK    9  A    between atoms: C11_35  and  O3_38 
REMARK   10  A    between atoms: C12_42  and  N14_43 
ROOT
HETATM    1  C5  UNL     1     -36.165  -1.506  48.628  1.00  0.00     0.206 C 
ENDROOT
BRANCH   1   2
HETATM    2  N9  UNL     1     -37.188  -1.381  49.632  1.00  0.00    -0.209 N 
HETATM    3  C3  UNL     1     -38.472  -1.917  49.395  1.00  0.00     0.708 C 
HETATM    4  N4  UNL     1     -38.832  -2.647  48.247  1.00  0.00    -0.018 N 
HETATM    5  N5  UNL     1     -39.401  -1.734  50.289  1.00  0.00    -0.130 N 
ATOM      6  H4  UNL     1     -38.531  -3.619  48.190  1.00  0.00     0.203 HD
ATOM      7  H5  UNL     1     -40.327  -2.123  50.110  1.00  0.00     0.205 HD
ATOM      8  H9  UNL     1     -36.986  -0.907  50.512  1.00  0.00     0.179 HD
BRANCH   4   9
HETATM    9  C2  UNL     1     -39.512  -2.178  47.267  1.00  0.00     0.728 A 
HETATM   10  N3  UNL     1     -40.505  -1.274  47.435  1.00  0.00    -0.114 N 
HETATM   11  N2  UNL     1     -41.030  -0.967  46.267  1.00  0.00    -0.211 N 
ATOM     12  H3  UNL     1     -40.803  -0.889  48.332  1.00  0.00     0.207 HD
HETATM   13  N1  UNL     1     -40.360  -1.682  45.377  1.00  0.00    -0.209 N 
ATOM     14  H2  UNL     1     -41.792  -0.314  46.087  1.00  0.00     0.210 HD
HETATM   15  C1  UNL     1     -40.658  -1.614  43.953  1.00  0.00     0.202 C 
HETATM   16  N15 UNL     1     -39.438  -2.422  45.957  1.00  0.00    -0.113 N 
ATOM     17  H15 UNL     1     -38.791  -3.059  45.494  1.00  0.00     0.207 HD
ENDBRANCH   4   9
BRANCH   5  18
HETATM   18  N6  UNL     1     -39.199  -1.043  51.460  1.00  0.00    -0.262 N 
HETATM   19  C4  UNL     1     -39.318   0.230  51.478  1.00  0.00     0.216 C 
HETATM   20  N7  UNL     1     -39.096   0.892  52.723  1.00  0.00    -0.065 NA
HETATM   21  N8  UNL     1     -39.657   0.934  50.303  1.00  0.00    -0.065 NA
ATOM     22  H6  UNL     1     -38.953  -1.546  52.313  1.00  0.00     0.190 HD
ENDBRANCH   5  18
ENDBRANCH   1   2
BRANCH   1  23
HETATM   23  C6  UNL     1     -34.800  -1.204  49.215  1.00  0.00     0.047 A 
HETATM   24  C7  UNL     1     -34.124  -2.131  49.951  1.00  0.00     0.080 A 
HETATM   25  S1  UNL     1     -32.691  -1.298  50.373  1.00  0.00    -0.064 SA
HETATM   26  C8  UNL     1     -33.034   0.173  49.592  1.00  0.00     0.142 A 
HETATM   27  N11 UNL     1     -34.224  -0.030  49.043  1.00  0.00    -0.338 N 
ATOM     28  H11 UNL     1     -34.682   0.703  48.501  1.00  0.00     0.168 HD
BRANCH  26  29
HETATM   29  N10 UNL     1     -32.285   1.254  49.550  1.00  0.00    -0.380 N 
ATOM     30 2H10 UNL     1     -31.285   1.327  49.365  1.00  0.00     0.158 HD
ATOM     31 1H10 UNL     1     -32.577   2.220  49.696  1.00  0.00     0.158 HD
ENDBRANCH  26  29
ENDBRANCH   1  23
BRANCH   1  32
HETATM   32  C9  UNL     1     -36.427  -0.853  47.352  1.00  0.00     0.105 A 
HETATM   33  N12 UNL     1     -37.124   0.327  47.281  1.00  0.00    -0.257 N 
HETATM   34  O1  UNL     1     -37.402   0.957  46.215  1.00  0.00    -0.219 OA
ATOM     35  H12 UNL     1     -37.446   0.732  48.160  1.00  0.00     0.195 HD
HETATM   36  C10 UNL     1     -37.016   0.489  45.055  1.00  0.00     0.203 A 
HETATM   37  N13 UNL     1     -36.329  -0.656  45.006  1.00  0.00    -0.319 N 
HETATM   38  C12 UNL     1     -36.021  -1.347  46.132  1.00  0.00     0.128 A 
ATOM     39  H13 UNL     1     -36.029  -1.019  44.101  1.00  0.00     0.169 HD
BRANCH  36  40
HETATM   40  C11 UNL     1     -37.324   1.201  43.786  1.00  0.00     0.333 C 
BRANCH  40  41
HETATM   41  O2  UNL     1     -36.165   1.717  43.190  1.00  0.00    -0.364 OA
ATOM     42  H2  UNL     1     -36.360   2.457  42.627  1.00  0.00     0.213 HD
ENDBRANCH  40  41
BRANCH  40  43
HETATM   43  O3  UNL     1     -38.259   2.198  44.019  1.00  0.00    -0.364 OA
ATOM     44  H3  UNL     1     -37.842   2.943  44.436  1.00  0.00     0.213 HD
ENDBRANCH  40  43
ENDBRANCH  36  40
BRANCH  38  45
HETATM   45  N14 UNL     1     -35.361  -2.426  46.038  1.00  0.00    -0.384 N 
ATOM     46 2H14 UNL     1     -35.567  -3.194  46.675  1.00  0.00     0.157 HD
ATOM     47 1H14 UNL     1     -34.632  -2.547  45.335  1.00  0.00     0.157 HD
ENDBRANCH  38  45
ENDBRANCH   1  32
TORSDOF 10
ENDMDL
MODEL 4
REMARK VINA RESULT: -6.984885318      0.886      1.048
REMARK  10 active torsions:
REMARK  status: ('A' for Active; 'I' for Inactive)
REMARK    1  A    between atoms: C2_7  and  N4_8 
REMARK       I    between atoms: N4_8  and  C3_10 
REMARK       I    between atoms: C3_10  and  N9_18 
REMARK    2  A    between atoms: N5_11  and  N6_13 
REMARK    3  A    between atoms: N9_18  and  C5_20 
REMARK    4  A    between atoms: C5_20  and  C6_21 
REMARK    5  A    between atoms: C5_20  and  C9_30 
REMARK    6  A    between atoms: C8_24  and  N10_25 
REMARK    7  A    between atoms: C10_34  and  C11_35 
REMARK    8  A    between atoms: C11_35  and  O2_36 
REMARK    9  A    between atoms: C11_35  and  O3_38 
REMARK   10  A    between atoms: C12_42  and  N14_43 
ROOT
HETATM    1  C5  UNL     1     -37.159  -1.044  47.448  1.00  0.00     0.206 C 
ENDROOT
BRANCH   1   2
HETATM    2  N9  UNL     1     -37.990  -0.546  48.511  1.00  0.00    -0.209 N 
HETATM    3  C3  UNL     1     -39.226  -1.169  48.786  1.00  0.00     0.708 C 
HETATM    4  N4  UNL     1     -39.704  -2.318  48.128  1.00  0.00    -0.018 N 
HETATM    5  N5  UNL     1     -39.992  -0.661  49.708  1.00  0.00    -0.130 N 
ATOM      6  H4  UNL     1     -39.309  -3.218  48.400  1.00  0.00     0.203 HD
ATOM      7  H5  UNL     1     -40.885  -1.116  49.900  1.00  0.00     0.205 HD
ATOM      8  H9  UNL     1     -37.687   0.256  49.065  1.00  0.00     0.179 HD
BRANCH   4   9
HETATM    9  C2  UNL     1     -40.599  -2.315  47.211  1.00  0.00     0.728 A 
HETATM   10  N3  UNL     1     -40.795  -1.261  46.386  1.00  0.00    -0.114 N 
HETATM   11  N2  UNL     1     -41.772  -1.529  45.545  1.00  0.00    -0.211 N 
ATOM     12  H3  UNL     1     -40.264  -0.390  46.411  1.00  0.00     0.207 HD
HETATM   13  N1  UNL     1     -42.181  -2.750  45.852  1.00  0.00    -0.209 N 
ATOM     14  H2  UNL     1     -42.137  -0.923  44.810  1.00  0.00     0.210 HD
HETATM   15  C1  UNL     1     -43.266  -3.402  45.133  1.00  0.00     0.202 C 
HETATM   16  N15 UNL     1     -41.487  -3.246  46.856  1.00  0.00    -0.113 N 
ATOM     17  H15 UNL     1     -41.607  -4.166  47.281  1.00  0.00     0.207 HD
ENDBRANCH   4   9
BRANCH   5  18
HETATM   18  N6  UNL     1     -39.661   0.457  50.436  1.00  0.00    -0.262 N 
HETATM   19  C4  UNL     1     -39.633   0.401  51.713  1.00  0.00     0.216 C 
HETATM   20  N7  UNL     1     -39.282   1.594  52.414  1.00  0.00    -0.065 NA
HETATM   21  N8  UNL     1     -39.940  -0.802  52.384  1.00  0.00    -0.065 NA
ATOM     22  H6  UNL     1     -39.437   1.330  49.957  1.00  0.00     0.190 HD
ENDBRANCH   5  18
ENDBRANCH   1   2
BRANCH   1  23
HETATM   23  C6  UNL     1     -35.712  -1.126  47.893  1.00  0.00     0.047 A 
HETATM   24  C7  UNL     1     -34.707  -1.332  46.996  1.00  0.00     0.080 A 
HETATM   25  S1  UNL     1     -33.318  -1.358  47.996  1.00  0.00    -0.064 SA
HETATM   26  C8  UNL     1     -34.095  -1.104  49.487  1.00  0.00     0.142 A 
HETATM   27  N11 UNL     1     -35.378  -1.012  49.163  1.00  0.00    -0.338 N 
ATOM     28  H11 UNL     1     -36.087  -0.856  49.879  1.00  0.00     0.168 HD
BRANCH  26  29
HETATM   29  N10 UNL     1     -33.541  -1.022  50.677  1.00  0.00    -0.380 N 
ATOM     30 2H10 UNL     1     -33.699  -1.612  51.493  1.00  0.00     0.158 HD
ATOM     31 1H10 UNL     1     -32.847  -0.345  50.996  1.00  0.00     0.158 HD
ENDBRANCH  26  29
ENDBRANCH   1  23
BRANCH   1  32
HETATM   32  C9  UNL     1     -37.349  -0.434  46.138  1.00  0.00     0.105 A 
HETATM   33  N12 UNL     1     -37.348   0.929  45.975  1.00  0.00    -0.257 N 
HETATM   34  O1  UNL     1     -37.513   1.541  44.876  1.00  0.00    -0.219 OA
ATOM     35  H12 UNL     1     -37.203   1.498  46.809  1.00  0.00     0.195 HD
HETATM   36  C10 UNL     1     -37.705   0.867  43.771  1.00  0.00     0.203 A 
HETATM   37  N13 UNL     1     -37.725  -0.468  43.812  1.00  0.00    -0.319 N 
HETATM   38  C12 UNL     1     -37.552  -1.144  44.975  1.00  0.00     0.128 A 
ATOM     39  H13 UNL     1     -37.873  -0.991  42.949  1.00  0.00     0.169 HD
BRANCH  36  40
HETATM   40  C11 UNL     1     -37.901   1.552  42.465  1.00  0.00     0.333 C 
BRANCH  40  41
HETATM   41  O2  UNL     1     -36.698   2.074  41.970  1.00  0.00    -0.364 OA
ATOM     42  H2  UNL     1     -36.528   1.781  41.082  1.00  0.00     0.213 HD
ENDBRANCH  40  41
BRANCH  40  43
HETATM   43  O3  UNL     1     -38.867   2.539  42.589  1.00  0.00    -0.364 OA
ATOM     44  H3  UNL     1     -39.467   2.499  41.853  1.00  0.00     0.213 HD
ENDBRANCH  40  43
ENDBRANCH  36  40
BRANCH  38  45
HETATM   45  N14 UNL     1     -37.571  -2.412  44.966  1.00  0.00    -0.384 N 
ATOM     46 2H14 UNL     1     -37.629  -2.917  45.850  1.00  0.00     0.157 HD
ATOM     47 1H14 UNL     1     -37.538  -2.941  44.094  1.00  0.00     0.157 HD
ENDBRANCH  38  45
ENDBRANCH   1  32
TORSDOF 10
ENDMDL
MODEL 5
REMARK VINA RESULT: -6.900132153      0.897      1.028
REMARK  10 active torsions:
REMARK  status: ('A' for Active; 'I' for Inactive)
REMARK    1  A    between atoms: C2_7  and  N4_8 
REMARK       I    between atoms: N4_8  and  C3_10 
REMARK       I    between atoms: C3_10  and  N9_18 
REMARK    2  A    between atoms: N5_11  and  N6_13 
REMARK    3  A    between atoms: N9_18  and  C5_20 
REMARK    4  A    between atoms: C5_20  and  C6_21 
REMARK    5  A    between atoms: C5_20  and  C9_30 
REMARK    6  A    between atoms: C8_24  and  N10_25 
REMARK    7  A    between atoms: C10_34  and  C11_35 
REMARK    8  A    between atoms: C11_35  and  O2_36 
REMARK    9  A    between atoms: C11_35  and  O3_38 
REMARK   10  A    between atoms: C12_42  and  N14_43 
ROOT
HETATM    1  C5  UNL     1     -37.332  -1.245  47.855  1.00  0.00     0.206 C 
ENDROOT
BRANCH   1   2
HETATM    2  N9  UNL     1     -38.155  -0.643  48.869  1.00  0.00    -0.209 N 
HETATM    3  C3  UNL     1     -39.446  -1.156  49.119  1.00  0.00     0.708 C 
HETATM    4  N4  UNL     1     -39.993  -2.287  48.484  1.00  0.00    -0.018 N 
HETATM    5  N5  UNL     1     -40.200  -0.554  49.994  1.00  0.00    -0.130 N 
ATOM      6  H4  UNL     1     -39.681  -3.204  48.801  1.00  0.00     0.203 HD
ATOM      7  H5  UNL     1     -41.132  -0.928  50.168  1.00  0.00     0.205 HD
ATOM      8  H9  UNL     1     -37.807   0.152  49.406  1.00  0.00     0.179 HD
BRANCH   4   9
HETATM    9  C2  UNL     1     -40.853  -2.247  47.535  1.00  0.00     0.728 A 
HETATM   10  N3  UNL     1     -40.790  -1.343  46.530  1.00  0.00    -0.114 N 
HETATM   11  N2  UNL     1     -41.793  -1.530  45.699  1.00  0.00    -0.211 N 
ATOM     12  H3  UNL     1     -40.072  -0.624  46.432  1.00  0.00     0.207 HD
HETATM   13  N1  UNL     1     -42.477  -2.550  46.191  1.00  0.00    -0.209 N 
ATOM     14  H2  UNL     1     -41.999  -0.999  44.852  1.00  0.00     0.210 HD
HETATM   15  C1  UNL     1     -43.676  -3.059  45.540  1.00  0.00     0.202 C 
HETATM   16  N15 UNL     1     -41.929  -3.001  47.300  1.00  0.00    -0.113 N 
ATOM     17  H15 UNL     1     -42.263  -3.777  47.871  1.00  0.00     0.207 HD
ENDBRANCH   4   9
BRANCH   5  18
HETATM   18  N6  UNL     1     -39.804   0.561  50.694  1.00  0.00    -0.262 N 
HETATM   19  C4  UNL     1     -39.663   0.499  51.964  1.00  0.00     0.216 C 
HETATM   20  N7  UNL     1     -39.250   1.688  52.637  1.00  0.00    -0.065 NA
HETATM   21  N8  UNL     1     -39.909  -0.707  52.654  1.00  0.00    -0.065 NA
ATOM     22  H6  UNL     1     -39.624   1.436  50.202  1.00  0.00     0.190 HD
ENDBRANCH   5  18
ENDBRANCH   1   2
BRANCH   1  23
HETATM   23  C6  UNL     1     -35.965  -1.593  48.413  1.00  0.00     0.047 A 
HETATM   24  C7  UNL     1     -34.859  -0.871  48.076  1.00  0.00     0.080 A 
HETATM   25  S1  UNL     1     -33.617  -1.670  48.940  1.00  0.00    -0.064 SA
HETATM   26  C8  UNL     1     -34.574  -2.868  49.675  1.00  0.00     0.142 A 
HETATM   27  N11 UNL     1     -35.797  -2.611  49.233  1.00  0.00    -0.338 N 
ATOM     28  H11 UNL     1     -36.589  -3.188  49.520  1.00  0.00     0.168 HD
BRANCH  26  29
HETATM   29  N10 UNL     1     -34.180  -3.822  50.491  1.00  0.00    -0.380 N 
ATOM     30 2H10 UNL     1     -34.710  -4.288  51.227  1.00  0.00     0.158 HD
ATOM     31 1H10 UNL     1     -33.264  -4.270  50.529  1.00  0.00     0.158 HD
ENDBRANCH  26  29
ENDBRANCH   1  23
BRANCH   1  32
HETATM   32  C9  UNL     1     -37.298  -0.571  46.564  1.00  0.00     0.105 A 
HETATM   33  N12 UNL     1     -37.398   0.794  46.465  1.00  0.00    -0.257 N 
HETATM   34  O1  UNL     1     -37.385   1.460  45.385  1.00  0.00    -0.219 OA
ATOM     35  H12 UNL     1     -37.491   1.319  47.335  1.00  0.00     0.195 HD
HETATM   36  C10 UNL     1     -37.269   0.844  44.235  1.00  0.00     0.203 A 
HETATM   37  N13 UNL     1     -37.164  -0.488  44.212  1.00  0.00    -0.319 N 
HETATM   38  C12 UNL     1     -37.176  -1.219  45.355  1.00  0.00     0.128 A 
ATOM     39  H13 UNL     1     -37.072  -0.965  43.316  1.00  0.00     0.169 HD
BRANCH  36  40
HETATM   40  C11 UNL     1     -37.249   1.592  42.950  1.00  0.00     0.333 C 
BRANCH  40  41
HETATM   41  O2  UNL     1     -37.848   0.858  41.917  1.00  0.00    -0.364 OA
ATOM     42  H2  UNL     1     -37.971   1.387  41.137  1.00  0.00     0.213 HD
ENDBRANCH  40  41
BRANCH  40  43
HETATM   43  O3  UNL     1     -35.947   1.947  42.629  1.00  0.00    -0.364 OA
ATOM     44  H3  UNL     1     -35.716   1.594  41.778  1.00  0.00     0.213 HD
ENDBRANCH  40  43
ENDBRANCH  36  40
BRANCH  38  45
HETATM   45  N14 UNL     1     -37.066  -2.481  45.285  1.00  0.00    -0.384 N 
ATOM     46 2H14 UNL     1     -37.633  -3.066  45.899  1.00  0.00     0.157 HD
ATOM     47 1H14 UNL     1     -36.430  -2.927  44.624  1.00  0.00     0.157 HD
ENDBRANCH  38  45
ENDBRANCH   1  32
TORSDOF 10
ENDMDL
