MODEL 1
REMARK VINA RESULT: -4.598707741      0.000      0.000
REMARK  0 active torsions:
REMARK  status: ('A' for Active; 'I' for Inactive)
ROOT
HETATM    1  N1  UNL     1      87.787 -55.730 -28.487  1.00  0.00    -0.172 NA
HETATM    2  C1  UNL     1      87.084 -55.240 -27.708  1.00  0.00     0.184 C 
HETATM    3  N2  UNL     1      86.209 -54.656 -26.741  1.00  0.00    -0.290 N 
HETATM    4  C2  UNL     1      85.071 -55.456 -26.381  1.00  0.00     0.214 C 
HETATM    5  S1  UNL     1      84.454 -55.081 -24.724  1.00  0.00    -0.143 SA
HETATM    6  C3  UNL     1      84.996 -53.445 -24.289  1.00  0.00     0.058 A 
HETATM    7  C4  UNL     1      84.459 -52.356 -25.182  1.00  0.00     0.027 A 
HETATM    8  C5  UNL     1      85.931 -52.771 -25.130  1.00  0.00     0.040 A 
HETATM    9  C6  UNL     1      86.576 -53.379 -26.274  1.00  0.00     0.082 C 
ENDROOT
TORSDOF 0
ENDMDL
MODEL 2
REMARK VINA RESULT: -4.593751294      2.908      3.650
REMARK  0 active torsions:
REMARK  status: ('A' for Active; 'I' for Inactive)
ROOT
HETATM    1  N1  UNL     1      83.998 -56.865 -24.809  1.00  0.00    -0.172 NA
HETATM    2  C1  UNL     1      84.138 -55.755 -24.514  1.00  0.00     0.184 C 
HETATM    3  N2  UNL     1      84.311 -54.378 -24.170  1.00  0.00    -0.290 N 
HETATM    4  C2  UNL     1      84.995 -53.582 -25.152  1.00  0.00     0.214 C 
HETATM    5  S1  UNL     1      84.550 -51.833 -25.062  1.00  0.00    -0.143 SA
HETATM    6  C3  UNL     1      83.924 -51.505 -23.432  1.00  0.00     0.058 A 
HETATM    7  C4  UNL     1      84.922 -51.731 -22.326  1.00  0.00     0.027 A 
HETATM    8  C5  UNL     1      83.679 -52.595 -22.544  1.00  0.00     0.040 A 
HETATM    9  C6  UNL     1      83.793 -53.987 -22.920  1.00  0.00     0.082 C 
ENDROOT
TORSDOF 0
ENDMDL
MODEL 3
REMARK VINA RESULT: -4.535128708      1.352      2.024
REMARK  0 active torsions:
REMARK  status: ('A' for Active; 'I' for Inactive)
ROOT
HETATM    1  N1  UNL     1      88.006 -55.798 -28.711  1.00  0.00    -0.172 NA
HETATM    2  C1  UNL     1      87.370 -55.257 -27.909  1.00  0.00     0.184 C 
HETATM    3  N2  UNL     1      86.589 -54.569 -26.929  1.00  0.00    -0.290 N 
HETATM    4  C2  UNL     1      86.966 -53.203 -26.693  1.00  0.00     0.214 C 
HETATM    5  S1  UNL     1      85.593 -52.199 -26.081  1.00  0.00    -0.143 SA
HETATM    6  C3  UNL     1      84.394 -53.289 -25.351  1.00  0.00     0.058 A 
HETATM    7  C4  UNL     1      84.900 -54.060 -24.159  1.00  0.00     0.027 A 
HETATM    8  C5  UNL     1      84.546 -54.700 -25.503  1.00  0.00     0.040 A 
HETATM    9  C6  UNL     1      85.561 -55.320 -26.326  1.00  0.00     0.082 C 
ENDROOT
TORSDOF 0
ENDMDL
MODEL 4
REMARK VINA RESULT: -4.204695140      1.084      1.136
REMARK  0 active torsions:
REMARK  status: ('A' for Active; 'I' for Inactive)
ROOT
HETATM    1  N1  UNL     1      86.887 -55.247 -27.964  1.00  0.00    -0.172 NA
HETATM    2  C1  UNL     1      86.326 -54.837 -27.038  1.00  0.00     0.184 C 
HETATM    3  N2  UNL     1      85.628 -54.350 -25.889  1.00  0.00    -0.290 N 
HETATM    4  C2  UNL     1      84.537 -55.171 -25.442  1.00  0.00     0.214 C 
HETATM    5  S1  UNL     1      84.194 -54.971 -23.679  1.00  0.00    -0.143 SA
HETATM    6  C3  UNL     1      84.843 -53.399 -23.165  1.00  0.00     0.058 A 
HETATM    7  C4  UNL     1      84.207 -52.213 -23.842  1.00  0.00     0.027 A 
HETATM    8  C5  UNL     1      85.656 -52.648 -24.066  1.00  0.00     0.040 A 
HETATM    9  C6  UNL     1      86.100 -53.136 -25.353  1.00  0.00     0.082 C 
ENDROOT
TORSDOF 0
ENDMDL
MODEL 5
REMARK VINA RESULT: -4.150009915      2.751      3.594
REMARK  0 active torsions:
REMARK  status: ('A' for Active; 'I' for Inactive)
ROOT
HETATM    1  N1  UNL     1      83.409 -57.676 -23.738  1.00  0.00    -0.172 NA
HETATM    2  C1  UNL     1      83.707 -56.573 -23.921  1.00  0.00     0.184 C 
HETATM    3  N2  UNL     1      84.075 -55.206 -24.125  1.00  0.00    -0.290 N 
HETATM    4  C2  UNL     1      83.729 -54.312 -23.056  1.00  0.00     0.214 C 
HETATM    5  S1  UNL     1      84.807 -52.863 -22.984  1.00  0.00    -0.143 SA
HETATM    6  C3  UNL     1      85.538 -52.639 -24.588  1.00  0.00     0.058 A 
HETATM    7  C4  UNL     1      84.547 -52.358 -25.689  1.00  0.00     0.027 A 
HETATM    8  C5  UNL     1      85.365 -53.647 -25.584  1.00  0.00     0.040 A 
HETATM    9  C6  UNL     1      84.724 -54.921 -25.342  1.00  0.00     0.082 C 
ENDROOT
TORSDOF 0
ENDMDL
