MODEL 1
REMARK VINA RESULT: -3.405243335      0.000      0.000
REMARK  0 active torsions:
REMARK  status: ('A' for Active; 'I' for Inactive)
ROOT
HETATM    1  C1  UNL     1      89.312 -49.111 -29.241  1.00  0.00     0.033 C 
HETATM    2  C2  UNL     1      89.580 -47.843 -28.512  1.00  0.00     0.038 C 
HETATM    3  C3  UNL     1      90.769 -47.070 -28.867  1.00  0.00     0.238 C 
HETATM    4  C4  UNL     1      91.435 -46.678 -27.525  1.00  0.00     0.114 C 
HETATM    5  S1  UNL     1      91.981 -48.418 -27.196  1.00  0.00    -0.101 SA
HETATM    6  C5  UNL     1      92.424 -48.737 -28.903  1.00  0.00     0.523 C 
HETATM    7  N1  UNL     1      91.672 -49.602 -29.698  1.00  0.00     0.160 N 
HETATM    8  C6  UNL     1      90.446 -50.088 -29.220  1.00  0.00     0.279 C 
HETATM    9  C7  UNL     1      91.536 -48.500 -30.663  1.00  0.00     0.551 C 
HETATM   10  N2  UNL     1      91.817 -47.621 -29.587  1.00  0.00     0.166 N 
ENDROOT
TORSDOF 0
ENDMDL
MODEL 2
REMARK VINA RESULT: -3.389028583      1.651      2.763
REMARK  0 active torsions:
REMARK  status: ('A' for Active; 'I' for Inactive)
ROOT
HETATM    1  C1  UNL     1      89.726 -49.627 -28.795  1.00  0.00     0.033 C 
HETATM    2  C2  UNL     1      90.843 -50.026 -29.691  1.00  0.00     0.038 C 
HETATM    3  C3  UNL     1      92.195 -49.576 -29.367  1.00  0.00     0.238 C 
HETATM    4  C4  UNL     1      92.797 -49.054 -30.695  1.00  0.00     0.114 C 
HETATM    5  S1  UNL     1      91.701 -47.560 -30.697  1.00  0.00    -0.101 SA
HETATM    6  C5  UNL     1      91.844 -47.295 -28.930  1.00  0.00     0.523 C 
HETATM    7  N1  UNL     1      90.769 -47.527 -28.072  1.00  0.00     0.160 N 
HETATM    8  C6  UNL     1      89.614 -48.152 -28.566  1.00  0.00     0.279 C 
HETATM    9  C7  UNL     1      91.649 -48.426 -27.309  1.00  0.00     0.551 C 
HETATM   10  N2  UNL     1      92.433 -48.535 -28.485  1.00  0.00     0.166 N 
ENDROOT
TORSDOF 0
ENDMDL
MODEL 3
REMARK VINA RESULT: -3.378832602      1.779      2.879
REMARK  0 active torsions:
REMARK  status: ('A' for Active; 'I' for Inactive)
ROOT
HETATM    1  C1  UNL     1      91.913 -48.317 -27.029  1.00  0.00     0.033 C 
HETATM    2  C2  UNL     1      93.333 -48.575 -27.386  1.00  0.00     0.038 C 
HETATM    3  C3  UNL     1      93.860 -47.994 -28.619  1.00  0.00     0.238 C 
HETATM    4  C4  UNL     1      94.641 -49.132 -29.324  1.00  0.00     0.114 C 
HETATM    5  S1  UNL     1      93.084 -50.037 -29.759  1.00  0.00    -0.101 SA
HETATM    6  C5  UNL     1      92.177 -48.544 -30.162  1.00  0.00     0.523 C 
HETATM    7  N1  UNL     1      91.144 -48.080 -29.346  1.00  0.00     0.160 N 
HETATM    8  C6  UNL     1      90.930 -48.680 -28.097  1.00  0.00     0.279 C 
HETATM    9  C7  UNL     1      91.861 -46.797 -29.272  1.00  0.00     0.551 C 
HETATM   10  N2  UNL     1      93.032 -47.516 -29.621  1.00  0.00     0.166 N 
ENDROOT
TORSDOF 0
ENDMDL
MODEL 4
REMARK VINA RESULT: -3.376665184      1.660      2.777
REMARK  0 active torsions:
REMARK  status: ('A' for Active; 'I' for Inactive)
ROOT
HETATM    1  C1  UNL     1      93.477 -48.472 -27.180  1.00  0.00     0.033 C 
HETATM    2  C2  UNL     1      92.007 -48.290 -27.051  1.00  0.00     0.038 C 
HETATM    3  C3  UNL     1      91.142 -48.826 -28.100  1.00  0.00     0.238 C 
HETATM    4  C4  UNL     1      90.127 -47.702 -28.427  1.00  0.00     0.114 C 
HETATM    5  S1  UNL     1      91.421 -46.664 -29.251  1.00  0.00    -0.101 SA
HETATM    6  C5  UNL     1      92.220 -48.060 -30.041  1.00  0.00     0.523 C 
HETATM    7  N1  UNL     1      93.479 -48.503 -29.633  1.00  0.00     0.160 N 
HETATM    8  C6  UNL     1      94.052 -47.972 -28.468  1.00  0.00     0.279 C 
HETATM    9  C7  UNL     1      92.883 -49.835 -29.445  1.00  0.00     0.551 C 
HETATM   10  N2  UNL     1      91.630 -49.179 -29.348  1.00  0.00     0.166 N 
ENDROOT
TORSDOF 0
ENDMDL
MODEL 5
REMARK VINA RESULT: -3.365983039      1.724      2.522
REMARK  0 active torsions:
REMARK  status: ('A' for Active; 'I' for Inactive)
ROOT
HETATM    1  C1  UNL     1      91.791 -50.175 -29.989  1.00  0.00     0.033 C 
HETATM    2  C2  UNL     1      92.234 -49.224 -28.934  1.00  0.00     0.038 C 
HETATM    3  C3  UNL     1      91.226 -48.635 -28.055  1.00  0.00     0.238 C 
HETATM    4  C4  UNL     1      91.555 -47.123 -27.988  1.00  0.00     0.114 C 
HETATM    5  S1  UNL     1      91.000 -46.844 -29.734  1.00  0.00    -0.101 SA
HETATM    6  C5  UNL     1      89.594 -47.947 -29.599  1.00  0.00     0.523 C 
HETATM    7  N1  UNL     1      89.568 -49.173 -30.264  1.00  0.00     0.160 N 
HETATM    8  C6  UNL     1      90.729 -49.639 -30.898  1.00  0.00     0.279 C 
HETATM    9  C7  UNL     1      89.310 -49.806 -28.961  1.00  0.00     0.551 C 
HETATM   10  N2  UNL     1      89.877 -48.648 -28.370  1.00  0.00     0.166 N 
ENDROOT
TORSDOF 0
ENDMDL
