MODEL 1
REMARK VINA RESULT: -7.541919998      0.000      0.000
REMARK  13 active torsions:
REMARK  status: ('A' for Active; 'I' for Inactive)
REMARK    1  A    between atoms: C3_3  and  C4_4 
REMARK    2  A    between atoms: C4_4  and  C5_5 
REMARK    3  A    between atoms: C5_5  and  C6_6 
REMARK    4  A    between atoms: C8_11  and  C9_12 
REMARK    5  A    between atoms: C12_17  and  O2_18 
REMARK    6  A    between atoms: C13_20  and  C14_21 
REMARK    7  A    between atoms: C14_21  and  C15_22 
REMARK    8  A    between atoms: C18_27  and  O3_28 
REMARK    9  A    between atoms: C19_30  and  C20_31 
REMARK   10  A    between atoms: C20_31  and  C21_32 
REMARK   11  A    between atoms: C24_37  and  O4_38 
REMARK   12  A    between atoms: C25_40  and  C26_41 
REMARK   13  A    between atoms: C26_41  and  C27_42 
ROOT
HETATM    1  C1  UNL     1      20.343  68.144  17.349  1.00  0.00     0.112 C 
HETATM    2  C2  UNL     1      19.401  67.272  18.058  1.00  0.00    -0.111 C 
HETATM    3  C3  UNL     1      18.638  66.551  18.652  1.00  0.00    -0.107 C 
ENDROOT
BRANCH   3   4
HETATM    4  C4  UNL     1      17.719  65.654  19.399  1.00  0.00     0.096 C 
BRANCH   4   5
HETATM    5  C5  UNL     1      17.429  66.228  20.722  1.00  0.00     0.047 C 
BRANCH   5   6
HETATM    6  C6  UNL     1      16.769  65.255  21.723  1.00  0.00     0.177 C 
HETATM    7  N1  UNL     1      15.371  65.513  21.847  1.00  0.00    -0.346 N 
HETATM    8  C7  UNL     1      14.487  65.681  22.923  1.00  0.00     0.241 C 
ATOM      9  H1  UNL     1      14.907  65.595  20.942  1.00  0.00     0.163 HD
HETATM   10  O1  UNL     1      13.573  64.819  22.987  1.00  0.00    -0.271 OA
HETATM   11  C8  UNL     1      14.469  66.710  23.973  1.00  0.00     0.179 C 
HETATM   12  N2  UNL     1      13.937  66.464  25.250  1.00  0.00    -0.359 N 
HETATM   13  C12 UNL     1      13.722  65.475  26.174  1.00  0.00     0.135 C 
ATOM     14  H2  UNL     1      13.579  67.342  25.627  1.00  0.00     0.162 HD
HETATM   15  C13 UNL     1      13.074  64.164  26.273  1.00  0.00     0.158 C 
HETATM   16  N3  UNL     1      13.870  63.189  27.056  1.00  0.00    -0.357 N 
HETATM   17  C18 UNL     1      15.148  63.124  27.521  1.00  0.00     0.159 C 
ATOM     18  H3  UNL     1      13.327  62.363  27.308  1.00  0.00     0.162 HD
HETATM   19  C19 UNL     1      16.469  62.901  26.881  1.00  0.00     0.062 C 
HETATM   20  N4  UNL     1      16.400  62.038  25.723  1.00  0.00    -0.339 N 
HETATM   21  C24 UNL     1      16.328  62.210  24.362  1.00  0.00     0.139 C 
ATOM     22  H4  UNL     1      16.407  61.051  25.982  1.00  0.00     0.167 HD
HETATM   23  C25 UNL     1      17.264  62.583  23.300  1.00  0.00     0.159 C 
HETATM   24  N5  UNL     1      17.992  63.807  23.452  1.00  0.00    -0.347 N 
HETATM   25  C30 UNL     1      17.586  65.032  22.886  1.00  0.00     0.241 C 
ATOM     26  H5  UNL     1      18.851  63.791  24.000  1.00  0.00     0.163 HD
HETATM   27  O5  UNL     1      18.028  66.069  23.518  1.00  0.00    -0.271 OA
BRANCH  11  28
HETATM   28  C9  UNL     1      13.760  67.967  23.371  1.00  0.00     0.009 C 
HETATM   29  C10 UNL     1      14.708  68.957  22.815  1.00  0.00     0.012 C 
HETATM   30  C11 UNL     1      12.814  68.587  24.336  1.00  0.00     0.012 C 
ENDBRANCH  11  28
BRANCH  13  31
HETATM   31  O2  UNL     1      14.254  65.764  27.363  1.00  0.00    -0.348 OA
ATOM     32  H2  UNL     1      13.603  65.794  28.055  1.00  0.00     0.219 HD
ENDBRANCH  13  31
BRANCH  15  33
HETATM   33  C14 UNL     1      11.687  64.237  26.946  1.00  0.00     0.037 C 
BRANCH  33  34
HETATM   34  C15 UNL     1      11.410  63.313  28.040  1.00  0.00    -0.020 C 
HETATM   35  C16 UNL     1      10.438  62.195  27.749  1.00  0.00     0.009 C 
HETATM   36  C17 UNL     1      11.119  63.879  29.385  1.00  0.00     0.009 C 
ENDBRANCH  33  34
ENDBRANCH  15  33
BRANCH  17  37
HETATM   37  O3  UNL     1      15.257  63.288  28.808  1.00  0.00    -0.345 OA
ATOM     38  H3  UNL     1      15.343  62.478  29.298  1.00  0.00     0.219 HD
ENDBRANCH  17  37
BRANCH  19  39
HETATM   39  C20 UNL     1      17.351  64.079  26.733  1.00  0.00     0.065 C 
BRANCH  39  40
HETATM   40  C21 UNL     1      18.855  63.729  26.687  1.00  0.00    -0.017 C 
HETATM   41  C22 UNL     1      19.641  64.971  26.430  1.00  0.00     0.010 C 
HETATM   42  C23 UNL     1      19.176  63.210  28.088  1.00  0.00     0.010 C 
ENDBRANCH  39  40
ENDBRANCH  19  39
BRANCH  21  43
HETATM   43  O4  UNL     1      15.132  61.990  23.867  1.00  0.00    -0.348 OA
ATOM     44  H4  UNL     1      14.970  62.443  23.049  1.00  0.00     0.219 HD
ENDBRANCH  21  43
BRANCH  23  45
HETATM   45  C26 UNL     1      18.309  61.544  22.955  1.00  0.00     0.037 C 
BRANCH  45  46
HETATM   46  C27 UNL     1      18.429  60.359  23.822  1.00  0.00    -0.020 C 
HETATM   47  C28 UNL     1      18.904  59.218  22.863  1.00  0.00     0.009 C 
HETATM   48  C29 UNL     1      19.557  60.400  24.846  1.00  0.00     0.009 C 
ENDBRANCH  45  46
ENDBRANCH  23  45
ENDBRANCH   5   6
ENDBRANCH   4   5
ENDBRANCH   3   4
TORSDOF 13
ENDMDL
MODEL 2
REMARK VINA RESULT: -7.414468835      1.632      2.097
REMARK  13 active torsions:
REMARK  status: ('A' for Active; 'I' for Inactive)
REMARK    1  A    between atoms: C3_3  and  C4_4 
REMARK    2  A    between atoms: C4_4  and  C5_5 
REMARK    3  A    between atoms: C5_5  and  C6_6 
REMARK    4  A    between atoms: C8_11  and  C9_12 
REMARK    5  A    between atoms: C12_17  and  O2_18 
REMARK    6  A    between atoms: C13_20  and  C14_21 
REMARK    7  A    between atoms: C14_21  and  C15_22 
REMARK    8  A    between atoms: C18_27  and  O3_28 
REMARK    9  A    between atoms: C19_30  and  C20_31 
REMARK   10  A    between atoms: C20_31  and  C21_32 
REMARK   11  A    between atoms: C24_37  and  O4_38 
REMARK   12  A    between atoms: C25_40  and  C26_41 
REMARK   13  A    between atoms: C26_41  and  C27_42 
ROOT
HETATM    1  C1  UNL     1      18.520  67.680  18.075  1.00  0.00     0.112 C 
HETATM    2  C2  UNL     1      17.872  66.662  18.908  1.00  0.00    -0.111 C 
HETATM    3  C3  UNL     1      17.350  65.826  19.604  1.00  0.00    -0.107 C 
ENDROOT
BRANCH   3   4
HETATM    4  C4  UNL     1      16.727  64.799  20.479  1.00  0.00     0.096 C 
BRANCH   4   5
HETATM    5  C5  UNL     1      17.761  64.155  21.303  1.00  0.00     0.047 C 
BRANCH   5   6
HETATM    6  C6  UNL     1      17.297  63.732  22.714  1.00  0.00     0.177 C 
HETATM    7  N1  UNL     1      15.876  63.619  22.777  1.00  0.00    -0.346 N 
HETATM    8  C7  UNL     1      14.884  64.085  23.652  1.00  0.00     0.241 C 
ATOM      9  H1  UNL     1      15.492  63.072  22.006  1.00  0.00     0.163 HD
HETATM   10  O1  UNL     1      14.234  63.179  24.234  1.00  0.00    -0.271 OA
HETATM   11  C8  UNL     1      14.492  65.464  23.981  1.00  0.00     0.179 C 
HETATM   12  N2  UNL     1      13.931  65.803  25.223  1.00  0.00    -0.359 N 
HETATM   13  C12 UNL     1      13.906  65.448  26.547  1.00  0.00     0.135 C 
ATOM     14  H2  UNL     1      13.317  66.608  25.092  1.00  0.00     0.162 HD
HETATM   15  C13 UNL     1      13.628  64.276  27.380  1.00  0.00     0.158 C 
HETATM   16  N3  UNL     1      14.580  64.135  28.508  1.00  0.00    -0.357 N 
HETATM   17  C18 UNL     1      15.780  64.684  28.844  1.00  0.00     0.159 C 
ATOM     18  H3  UNL     1      14.259  63.461  29.202  1.00  0.00     0.162 HD
HETATM   19  C19 UNL     1      17.166  64.528  28.333  1.00  0.00     0.062 C 
HETATM   20  N4  UNL     1      17.439  63.200  27.830  1.00  0.00    -0.339 N 
HETATM   21  C24 UNL     1      17.449  62.590  26.600  1.00  0.00     0.139 C 
ATOM     22  H4  UNL     1      17.687  62.553  28.579  1.00  0.00     0.167 HD
HETATM   23  C25 UNL     1      18.344  62.578  25.442  1.00  0.00     0.159 C 
HETATM   24  N5  UNL     1      18.699  63.837  24.860  1.00  0.00    -0.347 N 
HETATM   25  C30 UNL     1      18.033  64.401  23.753  1.00  0.00     0.241 C 
ATOM     26  H5  UNL     1      19.477  64.354  25.268  1.00  0.00     0.163 HD
HETATM   27  O5  UNL     1      18.120  65.689  23.695  1.00  0.00    -0.271 OA
BRANCH  11  28
HETATM   28  C9  UNL     1      13.531  65.950  22.848  1.00  0.00     0.009 C 
HETATM   29  C10 UNL     1      14.137  66.977  21.973  1.00  0.00     0.012 C 
HETATM   30  C11 UNL     1      12.216  66.388  23.387  1.00  0.00     0.012 C 
ENDBRANCH  11  28
BRANCH  13  31
HETATM   31  O2  UNL     1      14.228  66.462  27.353  1.00  0.00    -0.348 OA
ATOM     32  H2  UNL     1      13.580  67.157  27.339  1.00  0.00     0.219 HD
ENDBRANCH  13  31
BRANCH  15  33
HETATM   33  C14 UNL     1      12.215  64.312  28.005  1.00  0.00     0.037 C 
BRANCH  33  34
HETATM   34  C15 UNL     1      11.174  63.503  27.382  1.00  0.00    -0.020 C 
HETATM   35  C16 UNL     1       9.757  64.010  27.515  1.00  0.00     0.009 C 
HETATM   36  C17 UNL     1      11.192  62.033  27.608  1.00  0.00     0.009 C 
ENDBRANCH  33  34
ENDBRANCH  15  33
BRANCH  17  37
HETATM   37  O3  UNL     1      15.722  65.534  29.829  1.00  0.00    -0.345 OA
ATOM     38  H3  UNL     1      15.966  66.421  29.594  1.00  0.00     0.219 HD
ENDBRANCH  17  37
BRANCH  19  39
HETATM   39  C20 UNL     1      17.708  65.633  27.514  1.00  0.00     0.065 C 
BRANCH  39  40
HETATM   40  C21 UNL     1      19.002  66.254  28.085  1.00  0.00    -0.017 C 
HETATM   41  C22 UNL     1      19.893  66.657  26.957  1.00  0.00     0.010 C 
HETATM   42  C23 UNL     1      18.537  67.504  28.830  1.00  0.00     0.010 C 
ENDBRANCH  39  40
ENDBRANCH  19  39
BRANCH  21  43
HETATM   43  O4  UNL     1      16.407  61.820  26.387  1.00  0.00    -0.348 OA
ATOM     44  H4  UNL     1      15.704  61.951  27.010  1.00  0.00     0.219 HD
ENDBRANCH  21  43
BRANCH  23  45
HETATM   45  C26 UNL     1      19.657  61.852  25.638  1.00  0.00     0.037 C 
BRANCH  45  46
HETATM   46  C27 UNL     1      19.859  60.571  24.939  1.00  0.00    -0.020 C 
HETATM   47  C28 UNL     1      19.682  59.484  26.051  1.00  0.00     0.009 C 
HETATM   48  C29 UNL     1      18.772  60.182  23.944  1.00  0.00     0.009 C 
ENDBRANCH  45  46
ENDBRANCH  23  45
ENDBRANCH   5   6
ENDBRANCH   4   5
ENDBRANCH   3   4
TORSDOF 13
ENDMDL
MODEL 3
REMARK VINA RESULT: -7.159182028      2.568      6.573
REMARK  13 active torsions:
REMARK  status: ('A' for Active; 'I' for Inactive)
REMARK    1  A    between atoms: C3_3  and  C4_4 
REMARK    2  A    between atoms: C4_4  and  C5_5 
REMARK    3  A    between atoms: C5_5  and  C6_6 
REMARK    4  A    between atoms: C8_11  and  C9_12 
REMARK    5  A    between atoms: C12_17  and  O2_18 
REMARK    6  A    between atoms: C13_20  and  C14_21 
REMARK    7  A    between atoms: C14_21  and  C15_22 
REMARK    8  A    between atoms: C18_27  and  O3_28 
REMARK    9  A    between atoms: C19_30  and  C20_31 
REMARK   10  A    between atoms: C20_31  and  C21_32 
REMARK   11  A    between atoms: C24_37  and  O4_38 
REMARK   12  A    between atoms: C25_40  and  C26_41 
REMARK   13  A    between atoms: C26_41  and  C27_42 
ROOT
HETATM    1  C1  UNL     1      18.221  59.329  23.322  1.00  0.00     0.112 C 
HETATM    2  C2  UNL     1      18.128  60.771  23.073  1.00  0.00    -0.111 C 
HETATM    3  C3  UNL     1      18.068  61.959  22.871  1.00  0.00    -0.107 C 
ENDROOT
BRANCH   3   4
HETATM    4  C4  UNL     1      18.019  63.424  22.631  1.00  0.00     0.096 C 
BRANCH   4   5
HETATM    5  C5  UNL     1      16.622  63.860  22.497  1.00  0.00     0.047 C 
BRANCH   5   6
HETATM    6  C6  UNL     1      16.022  64.519  23.759  1.00  0.00     0.177 C 
HETATM    7  N1  UNL     1      17.040  64.841  24.705  1.00  0.00    -0.346 N 
HETATM    8  C7  UNL     1      17.212  64.634  26.082  1.00  0.00     0.241 C 
ATOM      9  H1  UNL     1      17.825  65.336  24.282  1.00  0.00     0.163 HD
HETATM   10  O1  UNL     1      17.290  65.689  26.762  1.00  0.00    -0.271 OA
HETATM   11  C8  UNL     1      17.321  63.378  26.838  1.00  0.00     0.179 C 
HETATM   12  N2  UNL     1      16.925  63.279  28.182  1.00  0.00    -0.359 N 
HETATM   13  C12 UNL     1      16.057  63.796  29.108  1.00  0.00     0.135 C 
ATOM     14  H2  UNL     1      17.490  62.561  28.635  1.00  0.00     0.162 HD
HETATM   15  C13 UNL     1      15.682  65.091  29.682  1.00  0.00     0.158 C 
HETATM   16  N3  UNL     1      14.218  65.234  29.870  1.00  0.00    -0.357 N 
HETATM   17  C18 UNL     1      13.112  64.565  29.443  1.00  0.00     0.159 C 
ATOM     18  H3  UNL     1      13.981  66.029  30.463  1.00  0.00     0.162 HD
HETATM   19  C19 UNL     1      12.410  64.456  28.139  1.00  0.00     0.062 C 
HETATM   20  N4  UNL     1      12.507  65.658  27.341  1.00  0.00    -0.339 N 
HETATM   21  C24 UNL     1      13.302  66.102  26.312  1.00  0.00     0.139 C 
ATOM     22  H4  UNL     1      11.809  66.352  27.610  1.00  0.00     0.167 HD
HETATM   23  C25 UNL     1      13.400  65.842  24.875  1.00  0.00     0.159 C 
HETATM   24  N5  UNL     1      13.553  64.482  24.452  1.00  0.00    -0.347 N 
HETATM   25  C30 UNL     1      14.799  63.885  24.174  1.00  0.00     0.241 C 
ATOM     26  H5  UNL     1      12.712  63.914  24.346  1.00  0.00     0.163 HD
HETATM   27  O5  UNL     1      14.804  62.602  24.317  1.00  0.00    -0.271 OA
BRANCH  11  28
HETATM   28  C9  UNL     1      18.803  62.896  26.717  1.00  0.00     0.009 C 
HETATM   29  C10 UNL     1      18.922  61.457  26.397  1.00  0.00     0.012 C 
HETATM   30  C11 UNL     1      19.605  63.266  27.913  1.00  0.00     0.012 C 
ENDBRANCH  11  28
BRANCH  13  31
HETATM   31  O2  UNL     1      15.305  62.855  29.684  1.00  0.00    -0.348 OA
ATOM     32  H2  UNL     1      14.743  63.206  30.365  1.00  0.00     0.219 HD
ENDBRANCH  13  31
BRANCH  15  33
HETATM   33  C14 UNL     1      16.325  65.336  31.065  1.00  0.00     0.037 C 
BRANCH  33  34
HETATM   34  C15 UNL     1      17.680  65.873  31.102  1.00  0.00    -0.020 C 
HETATM   35  C16 UNL     1      18.043  66.862  30.020  1.00  0.00     0.009 C 
HETATM   36  C17 UNL     1      18.809  64.924  31.298  1.00  0.00     0.009 C 
ENDBRANCH  33  34
ENDBRANCH  15  33
BRANCH  17  37
HETATM   37  O3  UNL     1      12.522  63.862  30.368  1.00  0.00    -0.345 OA
ATOM     38  H3  UNL     1      11.574  63.903  30.343  1.00  0.00     0.219 HD
ENDBRANCH  17  37
BRANCH  19  39
HETATM   39  C20 UNL     1      12.576  63.191  27.390  1.00  0.00     0.065 C 
BRANCH  39  40
HETATM   40  C21 UNL     1      11.294  62.333  27.329  1.00  0.00    -0.017 C 
HETATM   41  C22 UNL     1      11.351  61.287  28.393  1.00  0.00     0.010 C 
HETATM   42  C23 UNL     1      10.158  63.307  27.640  1.00  0.00     0.010 C 
ENDBRANCH  39  40
ENDBRANCH  19  39
BRANCH  21  43
HETATM   43  O4  UNL     1      14.202  66.981  26.685  1.00  0.00    -0.348 OA
ATOM     44  H4  UNL     1      14.112  67.824  26.257  1.00  0.00     0.219 HD
ENDBRANCH  21  43
BRANCH  23  45
HETATM   45  C26 UNL     1      12.270  66.391  24.031  1.00  0.00     0.037 C 
BRANCH  45  46
HETATM   46  C27 UNL     1      12.281  66.117  22.584  1.00  0.00    -0.020 C 
HETATM   47  C28 UNL     1      10.831  66.465  22.108  1.00  0.00     0.009 C 
HETATM   48  C29 UNL     1      13.125  67.061  21.737  1.00  0.00     0.009 C 
ENDBRANCH  45  46
ENDBRANCH  23  45
ENDBRANCH   5   6
ENDBRANCH   4   5
ENDBRANCH   3   4
TORSDOF 13
ENDMDL
MODEL 4
REMARK VINA RESULT: -7.089967895      2.054      3.711
REMARK  13 active torsions:
REMARK  status: ('A' for Active; 'I' for Inactive)
REMARK    1  A    between atoms: C3_3  and  C4_4 
REMARK    2  A    between atoms: C4_4  and  C5_5 
REMARK    3  A    between atoms: C5_5  and  C6_6 
REMARK    4  A    between atoms: C8_11  and  C9_12 
REMARK    5  A    between atoms: C12_17  and  O2_18 
REMARK    6  A    between atoms: C13_20  and  C14_21 
REMARK    7  A    between atoms: C14_21  and  C15_22 
REMARK    8  A    between atoms: C18_27  and  O3_28 
REMARK    9  A    between atoms: C19_30  and  C20_31 
REMARK   10  A    between atoms: C20_31  and  C21_32 
REMARK   11  A    between atoms: C24_37  and  O4_38 
REMARK   12  A    between atoms: C25_40  and  C26_41 
REMARK   13  A    between atoms: C26_41  and  C27_42 
ROOT
HETATM    1  C1  UNL     1      13.205  68.180  17.213  1.00  0.00     0.112 C 
HETATM    2  C2  UNL     1      13.315  68.374  18.663  1.00  0.00    -0.111 C 
HETATM    3  C3  UNL     1      13.421  68.526  19.854  1.00  0.00    -0.107 C 
ENDROOT
BRANCH   3   4
HETATM    4  C4  UNL     1      13.574  68.701  21.322  1.00  0.00     0.096 C 
BRANCH   4   5
HETATM    5  C5  UNL     1      14.960  68.410  21.716  1.00  0.00     0.047 C 
BRANCH   5   6
HETATM    6  C6  UNL     1      15.209  66.964  22.198  1.00  0.00     0.177 C 
HETATM    7  N1  UNL     1      14.130  66.497  23.007  1.00  0.00    -0.346 N 
HETATM    8  C7  UNL     1      14.031  65.859  24.252  1.00  0.00     0.241 C 
ATOM      9  H1  UNL     1      13.220  66.668  22.580  1.00  0.00     0.163 HD
HETATM   10  O1  UNL     1      13.511  64.715  24.212  1.00  0.00    -0.271 OA
HETATM   11  C8  UNL     1      14.436  66.330  25.585  1.00  0.00     0.179 C 
HETATM   12  N2  UNL     1      14.810  65.443  26.608  1.00  0.00    -0.359 N 
HETATM   13  C12 UNL     1      15.368  64.214  26.840  1.00  0.00     0.135 C 
ATOM     14  H2  UNL     1      14.583  65.870  27.506  1.00  0.00     0.162 HD
HETATM   15  C13 UNL     1      15.164  62.810  26.473  1.00  0.00     0.158 C 
HETATM   16  N3  UNL     1      16.434  62.099  26.191  1.00  0.00    -0.357 N 
HETATM   17  C18 UNL     1      17.726  62.466  25.968  1.00  0.00     0.159 C 
ATOM     18  H3  UNL     1      16.310  61.088  26.154  1.00  0.00     0.162 HD
HETATM   19  C19 UNL     1      18.436  63.106  24.831  1.00  0.00     0.062 C 
HETATM   20  N4  UNL     1      17.867  62.769  23.545  1.00  0.00    -0.339 N 
HETATM   21  C24 UNL     1      16.981  63.350  22.671  1.00  0.00     0.139 C 
ATOM     22  H4  UNL     1      18.211  61.873  23.199  1.00  0.00     0.167 HD
HETATM   23  C25 UNL     1      17.028  64.450  21.706  1.00  0.00     0.159 C 
HETATM   24  N5  UNL     1      17.459  65.732  22.177  1.00  0.00    -0.347 N 
HETATM   25  C30 UNL     1      16.576  66.750  22.592  1.00  0.00     0.241 C 
ATOM     26  H5  UNL     1      18.461  65.920  22.214  1.00  0.00     0.163 HD
HETATM   27  O5  UNL     1      17.098  67.581  23.431  1.00  0.00    -0.271 OA
BRANCH  11  28
HETATM   28  C9  UNL     1      13.286  67.248  26.115  1.00  0.00     0.009 C 
HETATM   29  C10 UNL     1      13.759  68.586  26.535  1.00  0.00     0.012 C 
HETATM   30  C11 UNL     1      12.491  66.582  27.180  1.00  0.00     0.012 C 
ENDBRANCH  11  28
BRANCH  13  31
HETATM   31  O2  UNL     1      16.429  64.280  27.647  1.00  0.00    -0.348 OA
ATOM     32  H2  UNL     1      16.193  64.503  28.540  1.00  0.00     0.219 HD
ENDBRANCH  13  31
BRANCH  15  33
HETATM   33  C14 UNL     1      14.450  62.004  27.580  1.00  0.00     0.037 C 
BRANCH  33  34
HETATM   34  C15 UNL     1      13.190  62.525  28.098  1.00  0.00    -0.020 C 
HETATM   35  C16 UNL     1      13.019  62.508  29.599  1.00  0.00     0.009 C 
HETATM   36  C17 UNL     1      11.925  62.079  27.456  1.00  0.00     0.009 C 
ENDBRANCH  33  34
ENDBRANCH  15  33
BRANCH  17  37
HETATM   37  O3  UNL     1      18.534  62.202  26.954  1.00  0.00    -0.345 OA
ATOM     38  H3  UNL     1      18.865  61.312  26.960  1.00  0.00     0.219 HD
ENDBRANCH  17  37
BRANCH  19  39
HETATM   39  C20 UNL     1      18.822  64.525  24.994  1.00  0.00     0.065 C 
BRANCH  39  40
HETATM   40  C21 UNL     1      19.749  64.782  26.202  1.00  0.00    -0.017 C 
HETATM   41  C22 UNL     1      21.131  64.327  25.867  1.00  0.00     0.010 C 
HETATM   42  C23 UNL     1      19.748  66.300  26.377  1.00  0.00     0.010 C 
ENDBRANCH  39  40
ENDBRANCH  19  39
BRANCH  21  43
HETATM   43  O4  UNL     1      15.791  62.798  22.684  1.00  0.00    -0.348 OA
ATOM     44  H4  UNL     1      15.200  63.183  23.320  1.00  0.00     0.219 HD
ENDBRANCH  21  43
BRANCH  23  45
HETATM   45  C26 UNL     1      17.847  64.193  20.460  1.00  0.00     0.037 C 
BRANCH  45  46
HETATM   46  C27 UNL     1      17.367  64.747  19.182  1.00  0.00    -0.020 C 
HETATM   47  C28 UNL     1      15.816  64.856  19.360  1.00  0.00     0.009 C 
HETATM   48  C29 UNL     1      17.754  66.193  18.900  1.00  0.00     0.009 C 
ENDBRANCH  45  46
ENDBRANCH  23  45
ENDBRANCH   5   6
ENDBRANCH   4   5
ENDBRANCH   3   4
TORSDOF 13
ENDMDL
MODEL 5
REMARK VINA RESULT: -7.000670994      2.707      7.588
REMARK  13 active torsions:
REMARK  status: ('A' for Active; 'I' for Inactive)
REMARK    1  A    between atoms: C3_3  and  C4_4 
REMARK    2  A    between atoms: C4_4  and  C5_5 
REMARK    3  A    between atoms: C5_5  and  C6_6 
REMARK    4  A    between atoms: C8_11  and  C9_12 
REMARK    5  A    between atoms: C12_17  and  O2_18 
REMARK    6  A    between atoms: C13_20  and  C14_21 
REMARK    7  A    between atoms: C14_21  and  C15_22 
REMARK    8  A    between atoms: C18_27  and  O3_28 
REMARK    9  A    between atoms: C19_30  and  C20_31 
REMARK   10  A    between atoms: C20_31  and  C21_32 
REMARK   11  A    between atoms: C24_37  and  O4_38 
REMARK   12  A    between atoms: C25_40  and  C26_41 
REMARK   13  A    between atoms: C26_41  and  C27_42 
ROOT
HETATM    1  C1  UNL     1      10.584  62.420  27.658  1.00  0.00     0.112 C 
HETATM    2  C2  UNL     1      11.118  63.769  27.439  1.00  0.00    -0.111 C 
HETATM    3  C3  UNL     1      11.555  64.881  27.275  1.00  0.00    -0.107 C 
ENDROOT
BRANCH   3   4
HETATM    4  C4  UNL     1      12.091  66.256  27.100  1.00  0.00     0.096 C 
BRANCH   4   5
HETATM    5  C5  UNL     1      11.780  66.741  25.747  1.00  0.00     0.047 C 
BRANCH   5   6
HETATM    6  C6  UNL     1      13.012  67.049  24.867  1.00  0.00     0.177 C 
HETATM    7  N1  UNL     1      12.666  67.902  23.777  1.00  0.00    -0.346 N 
HETATM    8  C7  UNL     1      12.899  67.883  22.394  1.00  0.00     0.241 C 
ATOM      9  H1  UNL     1      12.122  68.713  24.072  1.00  0.00     0.163 HD
HETATM   10  O1  UNL     1      13.573  68.855  21.965  1.00  0.00    -0.271 OA
HETATM   11  C8  UNL     1      12.470  66.908  21.381  1.00  0.00     0.179 C 
HETATM   12  N2  UNL     1      13.203  66.683  20.204  1.00  0.00    -0.359 N 
HETATM   13  C12 UNL     1      14.469  66.714  19.681  1.00  0.00     0.135 C 
ATOM     14  H2  UNL     1      12.557  66.389  19.471  1.00  0.00     0.162 HD
HETATM   15  C13 UNL     1      15.587  67.648  19.525  1.00  0.00     0.158 C 
HETATM   16  N3  UNL     1      16.904  67.013  19.773  1.00  0.00    -0.357 N 
HETATM   17  C18 UNL     1      17.334  65.844  20.323  1.00  0.00     0.159 C 
ATOM     18  H3  UNL     1      17.678  67.595  19.452  1.00  0.00     0.162 HD
HETATM   19  C19 UNL     1      17.403  65.322  21.711  1.00  0.00     0.062 C 
HETATM   20  N4  UNL     1      17.626  66.357  22.697  1.00  0.00    -0.339 N 
HETATM   21  C24 UNL     1      16.843  67.099  23.546  1.00  0.00     0.139 C 
ATOM     22  H4  UNL     1      18.614  66.595  22.782  1.00  0.00     0.167 HD
HETATM   23  C25 UNL     1      16.147  66.859  24.811  1.00  0.00     0.159 C 
HETATM   24  N5  UNL     1      15.230  65.761  24.870  1.00  0.00    -0.347 N 
HETATM   25  C30 UNL     1      13.841  65.891  24.667  1.00  0.00     0.241 C 
ATOM     26  H5  UNL     1      15.603  64.833  25.070  1.00  0.00     0.163 HD
HETATM   27  O5  UNL     1      13.273  64.808  24.251  1.00  0.00    -0.271 OA
BRANCH  11  28
HETATM   28  C9  UNL     1      10.999  67.268  20.991  1.00  0.00     0.009 C 
HETATM   29  C10 UNL     1      10.908  68.417  20.064  1.00  0.00     0.012 C 
HETATM   30  C11 UNL     1      10.137  67.453  22.189  1.00  0.00     0.012 C 
ENDBRANCH  11  28
BRANCH  13  31
HETATM   31  O2  UNL     1      14.825  65.548  19.136  1.00  0.00    -0.348 OA
ATOM     32  H2  UNL     1      15.763  65.403  19.170  1.00  0.00     0.219 HD
ENDBRANCH  13  31
BRANCH  15  33
HETATM   33  C14 UNL     1      15.657  68.260  18.108  1.00  0.00     0.037 C 
BRANCH  33  34
HETATM   34  C15 UNL     1      14.537  69.082  17.664  1.00  0.00    -0.020 C 
HETATM   35  C16 UNL     1      13.970  70.050  18.675  1.00  0.00     0.009 C 
HETATM   36  C17 UNL     1      13.420  68.420  16.939  1.00  0.00     0.009 C 
ENDBRANCH  33  34
ENDBRANCH  15  33
BRANCH  17  37
HETATM   37  O3  UNL     1      17.792  64.984  19.460  1.00  0.00    -0.345 OA
ATOM     38  H3  UNL     1      17.142  64.667  18.843  1.00  0.00     0.219 HD
ENDBRANCH  17  37
BRANCH  19  39
HETATM   39  C20 UNL     1      16.409  64.295  22.093  1.00  0.00     0.065 C 
BRANCH  39  40
HETATM   40  C21 UNL     1      16.857  63.404  23.272  1.00  0.00    -0.017 C 
HETATM   41  C22 UNL     1      15.777  62.420  23.582  1.00  0.00     0.010 C 
HETATM   42  C23 UNL     1      18.084  62.657  22.751  1.00  0.00     0.010 C 
ENDBRANCH  39  40
ENDBRANCH  19  39
BRANCH  21  43
HETATM   43  O4  UNL     1      16.661  68.336  23.147  1.00  0.00    -0.348 OA
ATOM     44  H4  UNL     1      16.492  68.414  22.216  1.00  0.00     0.219 HD
ENDBRANCH  21  43
BRANCH  23  45
HETATM   45  C26 UNL     1      17.036  66.695  26.026  1.00  0.00     0.037 C 
BRANCH  45  46
HETATM   46  C27 UNL     1      17.445  65.333  26.413  1.00  0.00    -0.020 C 
HETATM   47  C28 UNL     1      18.923  65.211  25.910  1.00  0.00     0.009 C 
HETATM   48  C29 UNL     1      17.600  65.090  27.909  1.00  0.00     0.009 C 
ENDBRANCH  45  46
ENDBRANCH  23  45
ENDBRANCH   5   6
ENDBRANCH   4   5
ENDBRANCH   3   4
TORSDOF 13
ENDMDL
