MODEL 1
REMARK VINA RESULT: -8.511972636      0.000      0.000
REMARK  11 active torsions:
REMARK  status: ('A' for Active; 'I' for Inactive)
REMARK    1  A    between atoms: C2_2  and  C4_4 
REMARK    2  A    between atoms: C4_4  and  C5_5 
REMARK    3  A    between atoms: C5_5  and  N1_6 
REMARK    4  A    between atoms: C5_5  and  C15_21 
REMARK    5  A    between atoms: N1_6  and  C6_8 
REMARK    6  A    between atoms: C6_8  and  O1_9 
REMARK    7  A    between atoms: C7_11  and  N2_12 
REMARK    8  A    between atoms: C7_11  and  C12_18 
REMARK       I    between atoms: N2_12  and  C8_13 
REMARK    9  A    between atoms: C8_13  and  C9_15 
REMARK       I    between atoms: C15_21  and  N3_23 
REMARK   10  A    between atoms: C20_29  and  C21_30 
REMARK       I    between atoms: C21_30  and  N4_32 
REMARK   11  A    between atoms: N4_32  and  C22_34 
ROOT
HETATM    1  C15 UNL     1      15.909  64.083  23.290  1.00  0.00     0.243 C 
HETATM    2  O3  UNL     1      16.076  63.031  22.636  1.00  0.00    -0.271 OA
HETATM    3  N3  UNL     1      15.633  63.986  24.708  1.00  0.00    -0.337 N 
HETATM    4  C16 UNL     1      14.333  63.656  25.232  1.00  0.00     0.128 C 
HETATM    5  C17 UNL     1      13.896  64.731  26.160  1.00  0.00     0.040 C 
HETATM    6  C18 UNL     1      14.915  65.274  27.103  1.00  0.00     0.086 C 
HETATM    7 CL1  UNL     1      14.317  64.972  28.778  1.00  0.00    -0.125 Cl
HETATM    8  C19 UNL     1      16.263  64.712  27.008  1.00  0.00     0.055 C 
HETATM    9  C20 UNL     1      16.685  64.145  25.718  1.00  0.00     0.181 C 
ENDROOT
BRANCH   1  10
HETATM   10  C5  UNL     1      15.986  65.391  22.652  1.00  0.00     0.176 C 
BRANCH  10  11
HETATM   11  C4  UNL     1      14.608  65.951  22.507  1.00  0.00     0.038 C 
BRANCH  11  12
HETATM   12  C2  UNL     1      14.255  67.255  23.089  1.00  0.00    -0.020 C 
HETATM   13  C1  UNL     1      12.763  67.139  23.575  1.00  0.00     0.009 C 
HETATM   14  C3  UNL     1      14.994  67.771  24.262  1.00  0.00     0.009 C 
ENDBRANCH  11  12
ENDBRANCH  10  11
BRANCH  10  15
HETATM   15  N1  UNL     1      16.729  65.519  21.459  1.00  0.00    -0.355 N 
ATOM     16  H1  UNL     1      17.719  65.725  21.586  1.00  0.00     0.162 HD
BRANCH  15  17
HETATM   17  C6  UNL     1      16.308  65.404  20.123  1.00  0.00     0.178 C 
HETATM   18  C7  UNL     1      15.922  66.365  19.211  1.00  0.00     0.163 C 
BRANCH  17  19
HETATM   19  O1  UNL     1      16.306  64.127  19.683  1.00  0.00    -0.344 OA
ATOM     20  H1  UNL     1      17.182  63.784  19.545  1.00  0.00     0.219 HD
ENDBRANCH  17  19
BRANCH  18  21
HETATM   21  N2  UNL     1      14.656  66.954  19.153  1.00  0.00    -0.366 NA
HETATM   22  C8  UNL     1      13.444  67.511  19.138  1.00  0.00     0.295 C 
HETATM   23  O2  UNL     1      12.558  67.833  19.857  1.00  0.00    -0.257 OA
BRANCH  22  24
HETATM   24  C9  UNL     1      13.083  67.869  17.624  1.00  0.00     0.085 C 
HETATM   25  C10 UNL     1      11.707  68.482  17.802  1.00  0.00     0.020 C 
HETATM   26  C11 UNL     1      14.073  68.743  17.077  1.00  0.00     0.020 C 
ENDBRANCH  22  24
ENDBRANCH  18  21
BRANCH  18  27
HETATM   27  C12 UNL     1      16.877  67.557  19.041  1.00  0.00    -0.042 C 
HETATM   28  C13 UNL     1      18.237  67.236  18.607  1.00  0.00     0.046 C 
HETATM   29  C14 UNL     1      16.670  68.609  20.033  1.00  0.00     0.046 C 
ENDBRANCH  18  27
ENDBRANCH  15  17
ENDBRANCH  10  15
ENDBRANCH   1  10
BRANCH   9  30
HETATM   30  C21 UNL     1      17.019  62.646  25.970  1.00  0.00     0.259 C 
HETATM   31  O4  UNL     1      16.602  62.137  27.007  1.00  0.00    -0.270 OA
HETATM   32  N4  UNL     1      17.770  62.002  25.100  1.00  0.00    -0.156 N 
ATOM     33  H4  UNL     1      18.304  62.712  24.600  1.00  0.00     0.187 HD
BRANCH  32  34
HETATM   34  C22 UNL     1      18.106  60.923  24.632  1.00  0.00     0.703 A 
HETATM   35  N5  UNL     1      17.583  60.455  23.476  1.00  0.00    -0.128 N 
HETATM   36  N6  UNL     1      18.013  59.338  23.105  1.00  0.00    -0.237 N 
ATOM     37  H5  UNL     1      16.886  60.975  22.943  1.00  0.00     0.205 HD
HETATM   38  C23 UNL     1      18.944  58.920  24.041  1.00  0.00     0.353 A 
ATOM     39  H6  UNL     1      17.729  58.829  22.268  1.00  0.00     0.192 HD
HETATM   40  O5  UNL     1      19.570  57.857  24.017  1.00  0.00    -0.245 OA
HETATM   41  N7  UNL     1      18.962  59.958  24.968  1.00  0.00    -0.139 N 
ATOM     42  H7  UNL     1      19.555  59.978  25.798  1.00  0.00     0.189 HD
ENDBRANCH  32  34
ENDBRANCH   9  30
TORSDOF 11
ENDMDL
MODEL 2
REMARK VINA RESULT: -8.293756824      1.037      1.172
REMARK  11 active torsions:
REMARK  status: ('A' for Active; 'I' for Inactive)
REMARK    1  A    between atoms: C2_2  and  C4_4 
REMARK    2  A    between atoms: C4_4  and  C5_5 
REMARK    3  A    between atoms: C5_5  and  N1_6 
REMARK    4  A    between atoms: C5_5  and  C15_21 
REMARK    5  A    between atoms: N1_6  and  C6_8 
REMARK    6  A    between atoms: C6_8  and  O1_9 
REMARK    7  A    between atoms: C7_11  and  N2_12 
REMARK    8  A    between atoms: C7_11  and  C12_18 
REMARK       I    between atoms: N2_12  and  C8_13 
REMARK    9  A    between atoms: C8_13  and  C9_15 
REMARK       I    between atoms: C15_21  and  N3_23 
REMARK   10  A    between atoms: C20_29  and  C21_30 
REMARK       I    between atoms: C21_30  and  N4_32 
REMARK   11  A    between atoms: N4_32  and  C22_34 
ROOT
HETATM    1  C15 UNL     1      16.409  64.218  23.451  1.00  0.00     0.243 C 
HETATM    2  O3  UNL     1      16.211  63.064  23.013  1.00  0.00    -0.271 OA
HETATM    3  N3  UNL     1      16.805  64.380  24.834  1.00  0.00    -0.337 N 
HETATM    4  C16 UNL     1      15.871  64.310  25.929  1.00  0.00     0.128 C 
HETATM    5  C17 UNL     1      15.955  65.564  26.721  1.00  0.00     0.040 C 
HETATM    6  C18 UNL     1      17.315  66.109  26.993  1.00  0.00     0.086 C 
HETATM    7 CL1  UNL     1      17.532  66.153  28.783  1.00  0.00    -0.125 Cl
HETATM    8  C19 UNL     1      18.445  65.368  26.431  1.00  0.00     0.055 C 
HETATM    9  C20 UNL     1      18.207  64.556  25.228  1.00  0.00     0.181 C 
ENDROOT
BRANCH   1  10
HETATM   10  C5  UNL     1      16.248  65.389  22.598  1.00  0.00     0.176 C 
BRANCH  10  11
HETATM   11  C4  UNL     1      14.792  65.660  22.403  1.00  0.00     0.038 C 
BRANCH  11  12
HETATM   12  C2  UNL     1      14.136  66.797  23.067  1.00  0.00    -0.020 C 
HETATM   13  C1  UNL     1      13.182  66.188  24.159  1.00  0.00     0.009 C 
HETATM   14  C3  UNL     1      14.945  67.802  23.792  1.00  0.00     0.009 C 
ENDBRANCH  11  12
ENDBRANCH  10  11
BRANCH  10  15
HETATM   15  N1  UNL     1      16.957  65.440  21.379  1.00  0.00    -0.355 N 
ATOM     16  H1  UNL     1      17.960  65.598  21.468  1.00  0.00     0.162 HD
BRANCH  15  17
HETATM   17  C6  UNL     1      16.487  65.305  20.061  1.00  0.00     0.178 C 
HETATM   18  C7  UNL     1      16.076  66.254  19.147  1.00  0.00     0.163 C 
BRANCH  17  19
HETATM   19  O1  UNL     1      16.458  64.021  19.645  1.00  0.00    -0.344 OA
ATOM     20  H1  UNL     1      16.022  63.916  18.808  1.00  0.00     0.219 HD
ENDBRANCH  17  19
BRANCH  18  21
HETATM   21  N2  UNL     1      14.815  66.854  19.124  1.00  0.00    -0.366 NA
HETATM   22  C8  UNL     1      13.606  67.418  19.142  1.00  0.00     0.295 C 
HETATM   23  O2  UNL     1      12.714  67.687  19.875  1.00  0.00    -0.257 OA
BRANCH  22  24
HETATM   24  C9  UNL     1      13.264  67.900  17.658  1.00  0.00     0.085 C 
HETATM   25  C10 UNL     1      11.846  68.404  17.848  1.00  0.00     0.020 C 
HETATM   26  C11 UNL     1      14.208  68.886  17.233  1.00  0.00     0.020 C 
ENDBRANCH  22  24
ENDBRANCH  18  21
BRANCH  18  27
HETATM   27  C12 UNL     1      17.036  67.433  18.921  1.00  0.00    -0.042 C 
HETATM   28  C13 UNL     1      18.395  67.088  18.504  1.00  0.00     0.046 C 
HETATM   29  C14 UNL     1      16.831  68.532  19.862  1.00  0.00     0.046 C 
ENDBRANCH  18  27
ENDBRANCH  15  17
ENDBRANCH  10  15
ENDBRANCH   1  10
BRANCH   9  30
HETATM   30  C21 UNL     1      18.548  63.084  25.600  1.00  0.00     0.259 C 
HETATM   31  O4  UNL     1      18.755  62.830  26.784  1.00  0.00    -0.270 OA
HETATM   32  N4  UNL     1      18.654  62.188  24.640  1.00  0.00    -0.156 N 
ATOM     33  H4  UNL     1      18.854  62.706  23.784  1.00  0.00     0.187 HD
BRANCH  32  34
HETATM   34  C22 UNL     1      18.617  61.006  24.327  1.00  0.00     0.703 A 
HETATM   35  N5  UNL     1      17.804  60.554  23.347  1.00  0.00    -0.128 N 
HETATM   36  N6  UNL     1      17.864  59.322  23.125  1.00  0.00    -0.237 N 
ATOM     37  H5  UNL     1      17.183  61.172  22.824  1.00  0.00     0.205 HD
HETATM   38  C23 UNL     1      18.801  58.788  23.993  1.00  0.00     0.353 A 
ATOM     39  H6  UNL     1      17.321  58.807  22.432  1.00  0.00     0.192 HD
HETATM   40  O5  UNL     1      19.120  57.599  24.074  1.00  0.00    -0.245 OA
HETATM   41  N7  UNL     1      19.242  59.894  24.714  1.00  0.00    -0.139 N 
ATOM     42  H7  UNL     1      19.952  59.857  25.446  1.00  0.00     0.189 HD
ENDBRANCH  32  34
ENDBRANCH   9  30
TORSDOF 11
ENDMDL
MODEL 3
REMARK VINA RESULT: -8.194028819      1.684      2.321
REMARK  11 active torsions:
REMARK  status: ('A' for Active; 'I' for Inactive)
REMARK    1  A    between atoms: C2_2  and  C4_4 
REMARK    2  A    between atoms: C4_4  and  C5_5 
REMARK    3  A    between atoms: C5_5  and  N1_6 
REMARK    4  A    between atoms: C5_5  and  C15_21 
REMARK    5  A    between atoms: N1_6  and  C6_8 
REMARK    6  A    between atoms: C6_8  and  O1_9 
REMARK    7  A    between atoms: C7_11  and  N2_12 
REMARK    8  A    between atoms: C7_11  and  C12_18 
REMARK       I    between atoms: N2_12  and  C8_13 
REMARK    9  A    between atoms: C8_13  and  C9_15 
REMARK       I    between atoms: C15_21  and  N3_23 
REMARK   10  A    between atoms: C20_29  and  C21_30 
REMARK       I    between atoms: C21_30  and  N4_32 
REMARK   11  A    between atoms: N4_32  and  C22_34 
ROOT
HETATM    1  C15 UNL     1      15.924  63.901  23.724  1.00  0.00     0.243 C 
HETATM    2  O3  UNL     1      15.346  63.030  23.041  1.00  0.00    -0.271 OA
HETATM    3  N3  UNL     1      16.868  63.479  24.738  1.00  0.00    -0.337 N 
HETATM    4  C16 UNL     1      16.461  62.982  26.028  1.00  0.00     0.128 C 
HETATM    5  C17 UNL     1      17.101  63.803  27.089  1.00  0.00     0.040 C 
HETATM    6  C18 UNL     1      18.533  64.168  26.898  1.00  0.00     0.086 C 
HETATM    7 CL1  UNL     1      19.458  63.474  28.283  1.00  0.00    -0.125 Cl
HETATM    8  C19 UNL     1      19.171  63.704  25.666  1.00  0.00     0.055 C 
HETATM    9  C20 UNL     1      18.314  63.458  24.496  1.00  0.00     0.181 C 
ENDROOT
BRANCH   1  10
HETATM   10  C5  UNL     1      15.665  65.321  23.519  1.00  0.00     0.176 C 
BRANCH  10  11
HETATM   11  C4  UNL     1      14.191  65.561  23.540  1.00  0.00     0.038 C 
BRANCH  11  12
HETATM   12  C2  UNL     1      13.526  66.088  24.743  1.00  0.00    -0.020 C 
HETATM   13  C1  UNL     1      12.140  66.662  24.271  1.00  0.00     0.009 C 
HETATM   14  C3  UNL     1      13.197  65.184  25.867  1.00  0.00     0.009 C 
ENDBRANCH  11  12
ENDBRANCH  10  11
BRANCH  10  15
HETATM   15  N1  UNL     1      16.284  65.969  22.429  1.00  0.00    -0.355 N 
ATOM     16  H1  UNL     1      16.964  66.686  22.681  1.00  0.00     0.162 HD
BRANCH  15  17
HETATM   17  C6  UNL     1      16.103  65.776  21.049  1.00  0.00     0.178 C 
HETATM   18  C7  UNL     1      15.862  66.678  20.034  1.00  0.00     0.163 C 
BRANCH  17  19
HETATM   19  O1  UNL     1      16.201  64.479  20.685  1.00  0.00    -0.344 OA
ATOM     20  H1  UNL     1      17.087  64.143  20.758  1.00  0.00     0.219 HD
ENDBRANCH  17  19
BRANCH  18  21
HETATM   21  N2  UNL     1      14.614  67.228  19.727  1.00  0.00    -0.366 NA
HETATM   22  C8  UNL     1      13.414  67.752  19.475  1.00  0.00     0.295 C 
HETATM   23  O2  UNL     1      12.427  68.124  20.016  1.00  0.00    -0.257 OA
BRANCH  22  24
HETATM   24  C9  UNL     1      13.281  67.946  17.895  1.00  0.00     0.085 C 
HETATM   25  C10 UNL     1      11.830  68.373  17.786  1.00  0.00     0.020 C 
HETATM   26  C11 UNL     1      14.235  68.908  17.437  1.00  0.00     0.020 C 
ENDBRANCH  22  24
ENDBRANCH  18  21
BRANCH  18  27
HETATM   27  C12 UNL     1      16.810  67.887  19.965  1.00  0.00    -0.042 C 
HETATM   28  C13 UNL     1      16.328  69.119  20.590  1.00  0.00     0.046 C 
HETATM   29  C14 UNL     1      17.559  67.962  18.714  1.00  0.00     0.046 C 
ENDBRANCH  18  27
ENDBRANCH  15  17
ENDBRANCH  10  15
ENDBRANCH   1  10
BRANCH   9  30
HETATM   30  C21 UNL     1      18.483  61.957  24.119  1.00  0.00     0.259 C 
HETATM   31  O4  UNL     1      18.322  61.644  22.943  1.00  0.00    -0.270 OA
HETATM   32  N4  UNL     1      18.736  61.082  25.072  1.00  0.00    -0.156 N 
ATOM     33  H4  UNL     1      18.411  61.502  25.942  1.00  0.00     0.187 HD
BRANCH  32  34
HETATM   34  C22 UNL     1      19.192  59.986  25.367  1.00  0.00     0.703 A 
HETATM   35  N5  UNL     1      19.966  59.807  26.460  1.00  0.00    -0.128 N 
HETATM   36  N6  UNL     1      20.367  58.635  26.649  1.00  0.00    -0.237 N 
ATOM     37  H5  UNL     1      20.208  60.574  27.089  1.00  0.00     0.205 HD
HETATM   38  C23 UNL     1      19.854  57.851  25.629  1.00  0.00     0.353 A 
ATOM     39  H6  UNL     1      20.962  58.317  27.414  1.00  0.00     0.192 HD
HETATM   40  O5  UNL     1      20.048  56.642  25.477  1.00  0.00    -0.245 OA
HETATM   41  N7  UNL     1      19.122  58.754  24.863  1.00  0.00    -0.139 N 
ATOM     42  H7  UNL     1      18.599  58.503  24.023  1.00  0.00     0.189 HD
ENDBRANCH  32  34
ENDBRANCH   9  30
TORSDOF 11
ENDMDL
MODEL 4
REMARK VINA RESULT: -8.060549225      2.489      4.202
REMARK  11 active torsions:
REMARK  status: ('A' for Active; 'I' for Inactive)
REMARK    1  A    between atoms: C2_2  and  C4_4 
REMARK    2  A    between atoms: C4_4  and  C5_5 
REMARK    3  A    between atoms: C5_5  and  N1_6 
REMARK    4  A    between atoms: C5_5  and  C15_21 
REMARK    5  A    between atoms: N1_6  and  C6_8 
REMARK    6  A    between atoms: C6_8  and  O1_9 
REMARK    7  A    between atoms: C7_11  and  N2_12 
REMARK    8  A    between atoms: C7_11  and  C12_18 
REMARK       I    between atoms: N2_12  and  C8_13 
REMARK    9  A    between atoms: C8_13  and  C9_15 
REMARK       I    between atoms: C15_21  and  N3_23 
REMARK   10  A    between atoms: C20_29  and  C21_30 
REMARK       I    between atoms: C21_30  and  N4_32 
REMARK   11  A    between atoms: N4_32  and  C22_34 
ROOT
HETATM    1  C15 UNL     1      16.262  63.033  26.629  1.00  0.00     0.243 C 
HETATM    2  O3  UNL     1      16.366  61.805  26.838  1.00  0.00    -0.271 OA
HETATM    3  N3  UNL     1      17.454  63.853  26.685  1.00  0.00    -0.337 N 
HETATM    4  C16 UNL     1      18.048  64.287  27.924  1.00  0.00     0.128 C 
HETATM    5  C17 UNL     1      18.146  65.770  27.922  1.00  0.00     0.040 C 
HETATM    6  C18 UNL     1      18.599  66.422  26.661  1.00  0.00     0.086 C 
HETATM    7 CL1  UNL     1      20.114  67.328  27.033  1.00  0.00    -0.125 Cl
HETATM    8  C19 UNL     1      18.881  65.539  25.529  1.00  0.00     0.055 C 
HETATM    9  C20 UNL     1      18.190  64.241  25.477  1.00  0.00     0.181 C 
ENDROOT
BRANCH   1  10
HETATM   10  C5  UNL     1      14.973  63.645  26.335  1.00  0.00     0.176 C 
BRANCH  10  11
HETATM   11  C4  UNL     1      13.976  63.214  27.361  1.00  0.00     0.038 C 
BRANCH  11  12
HETATM   12  C2  UNL     1      12.539  63.169  27.050  1.00  0.00    -0.020 C 
HETATM   13  C1  UNL     1      11.949  61.943  27.839  1.00  0.00     0.009 C 
HETATM   14  C3  UNL     1      11.664  64.306  27.410  1.00  0.00     0.009 C 
ENDBRANCH  11  12
ENDBRANCH  10  11
BRANCH  10  15
HETATM   15  N1  UNL     1      14.456  63.533  25.026  1.00  0.00    -0.355 N 
ATOM     16  H1  UNL     1      13.645  62.923  24.932  1.00  0.00     0.162 HD
BRANCH  15  17
HETATM   17  C6  UNL     1      14.891  64.137  23.834  1.00  0.00     0.178 C 
HETATM   18  C7  UNL     1      14.764  65.433  23.379  1.00  0.00     0.163 C 
BRANCH  17  19
HETATM   19  O1  UNL     1      15.555  63.282  23.027  1.00  0.00    -0.344 OA
ATOM     20  H1  UNL     1      15.601  63.586  22.128  1.00  0.00     0.219 HD
ENDBRANCH  17  19
BRANCH  18  21
HETATM   21  N2  UNL     1      13.621  65.965  22.775  1.00  0.00    -0.366 NA
HETATM   22  C8  UNL     1      12.507  66.445  22.222  1.00  0.00     0.295 C 
HETATM   23  O2  UNL     1      11.326  66.343  22.264  1.00  0.00    -0.257 OA
BRANCH  22  24
HETATM   24  C9  UNL     1      12.926  67.541  21.138  1.00  0.00     0.085 C 
HETATM   25  C10 UNL     1      13.168  68.741  22.033  1.00  0.00     0.020 C 
HETATM   26  C11 UNL     1      14.066  67.091  20.402  1.00  0.00     0.020 C 
ENDBRANCH  22  24
ENDBRANCH  18  21
BRANCH  18  27
HETATM   27  C12 UNL     1      15.195  66.538  24.358  1.00  0.00    -0.042 C 
HETATM   28  C13 UNL     1      14.153  67.058  25.242  1.00  0.00     0.046 C 
HETATM   29  C14 UNL     1      16.180  67.457  23.793  1.00  0.00     0.046 C 
ENDBRANCH  18  27
ENDBRANCH  15  17
ENDBRANCH  10  15
ENDBRANCH   1  10
BRANCH   9  30
HETATM   30  C21 UNL     1      19.291  63.141  25.491  1.00  0.00     0.259 C 
HETATM   31  O4  UNL     1      20.440  63.490  25.750  1.00  0.00    -0.270 OA
HETATM   32  N4  UNL     1      18.965  61.904  25.176  1.00  0.00    -0.156 N 
ATOM     33  H4  UNL     1      18.112  61.964  24.620  1.00  0.00     0.187 HD
BRANCH  32  34
HETATM   34  C22 UNL     1      19.239  60.715  25.260  1.00  0.00     0.703 A 
HETATM   35  N5  UNL     1      19.970  60.223  26.285  1.00  0.00    -0.128 N 
HETATM   36  N6  UNL     1      20.179  58.988  26.252  1.00  0.00    -0.237 N 
ATOM     37  H5  UNL     1      20.327  60.816  27.034  1.00  0.00     0.205 HD
HETATM   38  C23 UNL     1      19.552  58.491  25.122  1.00  0.00     0.353 A 
ATOM     39  H6  UNL     1      20.712  58.448  26.934  1.00  0.00     0.192 HD
HETATM   40  O5  UNL     1      19.552  57.314  24.751  1.00  0.00    -0.245 OA
HETATM   41  N7  UNL     1      18.977  59.620  24.546  1.00  0.00    -0.139 N 
ATOM     42  H7  UNL     1      18.424  59.610  23.688  1.00  0.00     0.189 HD
ENDBRANCH  32  34
ENDBRANCH   9  30
TORSDOF 11
ENDMDL
MODEL 5
REMARK VINA RESULT: -8.053112773      1.791      2.292
REMARK  11 active torsions:
REMARK  status: ('A' for Active; 'I' for Inactive)
REMARK    1  A    between atoms: C2_2  and  C4_4 
REMARK    2  A    between atoms: C4_4  and  C5_5 
REMARK    3  A    between atoms: C5_5  and  N1_6 
REMARK    4  A    between atoms: C5_5  and  C15_21 
REMARK    5  A    between atoms: N1_6  and  C6_8 
REMARK    6  A    between atoms: C6_8  and  O1_9 
REMARK    7  A    between atoms: C7_11  and  N2_12 
REMARK    8  A    between atoms: C7_11  and  C12_18 
REMARK       I    between atoms: N2_12  and  C8_13 
REMARK    9  A    between atoms: C8_13  and  C9_15 
REMARK       I    between atoms: C15_21  and  N3_23 
REMARK   10  A    between atoms: C20_29  and  C21_30 
REMARK       I    between atoms: C21_30  and  N4_32 
REMARK   11  A    between atoms: N4_32  and  C22_34 
ROOT
HETATM    1  C15 UNL     1      16.333  63.724  23.670  1.00  0.00     0.243 C 
HETATM    2  O3  UNL     1      16.495  62.759  22.893  1.00  0.00    -0.271 OA
HETATM    3  N3  UNL     1      16.869  63.636  25.012  1.00  0.00    -0.337 N 
HETATM    4  C16 UNL     1      16.221  62.900  26.067  1.00  0.00     0.128 C 
HETATM    5  C17 UNL     1      15.979  63.809  27.217  1.00  0.00     0.040 C 
HETATM    6  C18 UNL     1      17.075  64.748  27.588  1.00  0.00     0.086 C 
HETATM    7 CL1  UNL     1      17.558  64.371  29.285  1.00  0.00    -0.125 Cl
HETATM    8  C19 UNL     1      18.285  64.703  26.766  1.00  0.00     0.055 C 
HETATM    9  C20 UNL     1      18.158  64.234  25.377  1.00  0.00     0.181 C 
ENDROOT
BRANCH   1  10
HETATM   10  C5  UNL     1      15.620  64.924  23.250  1.00  0.00     0.176 C 
BRANCH  10  11
HETATM   11  C4  UNL     1      14.211  64.857  23.741  1.00  0.00     0.038 C 
BRANCH  11  12
HETATM   12  C2  UNL     1      13.765  65.676  24.880  1.00  0.00    -0.020 C 
HETATM   13  C1  UNL     1      14.846  66.804  25.069  1.00  0.00     0.009 C 
HETATM   14  C3  UNL     1      12.475  66.397  24.818  1.00  0.00     0.009 C 
ENDBRANCH  11  12
ENDBRANCH  10  11
BRANCH  10  15
HETATM   15  N1  UNL     1      15.682  65.306  21.893  1.00  0.00    -0.355 N 
ATOM     16  H1  UNL     1      15.537  64.551  21.223  1.00  0.00     0.162 HD
BRANCH  15  17
HETATM   17  C6  UNL     1      15.914  66.571  21.326  1.00  0.00     0.178 C 
HETATM   18  C7  UNL     1      15.061  67.443  20.681  1.00  0.00     0.163 C 
BRANCH  17  19
HETATM   19  O1  UNL     1      17.194  66.979  21.463  1.00  0.00    -0.344 OA
ATOM     20  H1  UNL     1      17.280  67.925  21.466  1.00  0.00     0.219 HD
ENDBRANCH  17  19
BRANCH  18  21
HETATM   21  N2  UNL     1      14.670  67.343  19.343  1.00  0.00    -0.366 NA
HETATM   22  C8  UNL     1      14.308  67.208  18.067  1.00  0.00     0.295 C 
HETATM   23  O2  UNL     1      14.202  66.396  17.209  1.00  0.00    -0.257 OA
BRANCH  22  24
HETATM   24  C9  UNL     1      13.855  68.642  17.527  1.00  0.00     0.085 C 
HETATM   25  C10 UNL     1      12.371  68.601  17.836  1.00  0.00     0.020 C 
HETATM   26  C11 UNL     1      14.589  69.671  18.195  1.00  0.00     0.020 C 
ENDBRANCH  22  24
ENDBRANCH  18  21
BRANCH  18  27
HETATM   27  C12 UNL     1      13.747  67.765  21.412  1.00  0.00    -0.042 C 
HETATM   28  C13 UNL     1      12.601  66.919  21.080  1.00  0.00     0.046 C 
HETATM   29  C14 UNL     1      13.544  69.195  21.630  1.00  0.00     0.046 C 
ENDBRANCH  18  27
ENDBRANCH  15  17
ENDBRANCH  10  15
ENDBRANCH   1  10
BRANCH   9  30
HETATM   30  C21 UNL     1      19.065  62.977  25.239  1.00  0.00     0.259 C 
HETATM   31  O4  UNL     1      20.202  63.043  25.698  1.00  0.00    -0.270 OA
HETATM   32  N4  UNL     1      18.605  61.923  24.596  1.00  0.00    -0.156 N 
ATOM     33  H4  UNL     1      17.863  62.260  23.984  1.00  0.00     0.187 HD
BRANCH  32  34
HETATM   34  C22 UNL     1      18.680  60.715  24.415  1.00  0.00     0.703 A 
HETATM   35  N5  UNL     1      17.971  60.096  23.445  1.00  0.00    -0.128 N 
HETATM   36  N6  UNL     1      18.140  58.857  23.364  1.00  0.00    -0.237 N 
ATOM     37  H5  UNL     1      17.342  60.602  22.821  1.00  0.00     0.205 HD
HETATM   38  C23 UNL     1      19.056  58.498  24.339  1.00  0.00     0.353 A 
ATOM     39  H6  UNL     1      17.686  58.228  22.701  1.00  0.00     0.192 HD
HETATM   40  O5  UNL     1      19.459  57.355  24.569  1.00  0.00    -0.245 OA
HETATM   41  N7  UNL     1      19.361  59.706  24.958  1.00  0.00    -0.139 N 
ATOM     42  H7  UNL     1      20.021  59.807  25.730  1.00  0.00     0.189 HD
ENDBRANCH  32  34
ENDBRANCH   9  30
TORSDOF 11
ENDMDL
