MODEL 1
REMARK VINA RESULT: -8.465355489      0.000      0.000
REMARK  10 active torsions:
REMARK  status: ('A' for Active; 'I' for Inactive)
REMARK    1  A    between atoms: C2_2  and  C3_3 
REMARK    2  A    between atoms: C3_3  and  C4_4 
REMARK    3  A    between atoms: C4_4  and  N1_5 
REMARK       I    between atoms: N1_5  and  C5_7 
REMARK    4  A    between atoms: C5_7  and  C6_9 
REMARK    5  A    between atoms: C8_11  and  C9_12 
REMARK    6  A    between atoms: C9_12  and  O2_13 
REMARK    7  A    between atoms: C9_12  and  C10_15 
REMARK       I    between atoms: C10_15  and  N2_17 
REMARK    8  A    between atoms: N2_17  and  C11_19 
REMARK    9  A    between atoms: C11_19  and  C13_21 
REMARK       I    between atoms: N3_25  and  C17_26 
REMARK       I    between atoms: C17_26  and  N4_28 
REMARK   10  A    between atoms: N4_28  and  C18_30 
ROOT
HETATM    1  C10 UNL     1      17.104  64.511  21.987  1.00  0.00     0.247 C 
HETATM    2  O3  UNL     1      17.690  65.499  22.496  1.00  0.00    -0.271 OA
HETATM    3  N2  UNL     1      16.475  63.568  22.828  1.00  0.00    -0.353 N 
ATOM      4  H2  UNL     1      16.008  62.778  22.383  1.00  0.00     0.163 HD
ENDROOT
BRANCH   3   5
HETATM    5  C11 UNL     1      16.441  63.635  24.253  1.00  0.00     0.103 C 
HETATM    6  C12 UNL     1      15.267  64.448  24.756  1.00  0.00     0.034 C 
BRANCH   5   7
HETATM    7  C13 UNL     1      16.470  62.277  24.915  1.00  0.00     0.111 C 
HETATM    8  C14 UNL     1      16.159  62.387  26.402  1.00  0.00     0.029 C 
HETATM    9  C15 UNL     1      17.478  62.874  26.963  1.00  0.00     0.022 C 
HETATM   10  C16 UNL     1      18.507  62.305  26.010  1.00  0.00     0.128 C 
HETATM   11  N3  UNL     1      17.765  61.682  24.937  1.00  0.00    -0.327 N 
HETATM   12  C17 UNL     1      18.227  60.672  24.068  1.00  0.00     0.337 C 
HETATM   13  O4  UNL     1      17.519  60.181  23.157  1.00  0.00    -0.246 OA
HETATM   14  N4  UNL     1      19.547  60.178  24.217  1.00  0.00    -0.140 N 
ATOM     15  H4  UNL     1      20.313  60.567  23.668  1.00  0.00     0.189 HD
BRANCH  14  16
HETATM   16  C18 UNL     1      19.761  59.215  25.070  1.00  0.00     0.701 A 
HETATM   17  N5  UNL     1      19.329  57.945  25.006  1.00  0.00    -0.185 N 
HETATM   18  C19 UNL     1      19.760  57.270  26.073  1.00  0.00     0.215 A 
ATOM     19  H5  UNL     1      18.758  57.555  24.256  1.00  0.00     0.185 HD
HETATM   20  N6  UNL     1      20.471  58.132  26.815  1.00  0.00    -0.281 N 
HETATM   21  N7  UNL     1      20.475  59.292  26.223  1.00  0.00    -0.131 N 
ATOM     22  H6  UNL     1      20.933  57.914  27.698  1.00  0.00     0.188 HD
ATOM     23  H7  UNL     1      20.943  60.130  26.571  1.00  0.00     0.205 HD
ENDBRANCH  14  16
ENDBRANCH   5   7
ENDBRANCH   3   5
BRANCH   1  24
HETATM   24  C9  UNL     1      17.105  64.387  20.514  1.00  0.00     0.214 C 
BRANCH  24  25
HETATM   25  C8  UNL     1      15.952  65.123  19.874  1.00  0.00     0.025 C 
HETATM   26  C7  UNL     1      16.450  65.804  18.631  1.00  0.00     0.023 C 
HETATM   27  C6  UNL     1      16.498  67.271  18.898  1.00  0.00     0.092 C 
HETATM   28  C21 UNL     1      16.074  67.492  20.332  1.00  0.00     0.071 C 
HETATM   29  C20 UNL     1      15.401  66.206  20.770  1.00  0.00     0.024 C 
HETATM   30 BR1  UNL     1      14.844  68.983  20.391  1.00  0.00    -0.090 Br
BRANCH  27  31
HETATM   31  C5  UNL     1      17.800  67.879  18.579  1.00  0.00     0.223 C 
HETATM   32  N1  UNL     1      18.926  67.086  18.211  1.00  0.00    -0.361 N 
ATOM     33  H1  UNL     1      18.822  66.072  18.168  1.00  0.00     0.162 HD
HETATM   34  O1  UNL     1      17.938  69.117  18.628  1.00  0.00    -0.273 OA
BRANCH  32  35
HETATM   35  C4  UNL     1      20.191  67.662  17.900  1.00  0.00     0.122 C 
BRANCH  35  36
HETATM   36  C3  UNL     1      21.328  66.781  17.611  1.00  0.00     0.019 C 
BRANCH  36  37
HETATM   37  C2  UNL     1      22.494  66.771  18.512  1.00  0.00    -0.003 C 
HETATM   38  C1  UNL     1      23.827  66.835  17.861  1.00  0.00     0.005 C 
ENDBRANCH  36  37
ENDBRANCH  35  36
ENDBRANCH  32  35
ENDBRANCH  27  31
ENDBRANCH  24  25
BRANCH  24  39
HETATM   39  O2  UNL     1      18.320  64.727  19.971  1.00  0.00    -0.386 OA
ATOM     40  H2  UNL     1      18.992  64.863  20.628  1.00  0.00     0.210 HD
ENDBRANCH  24  39
ENDBRANCH   1  24
TORSDOF 10
ENDMDL
MODEL 2
REMARK VINA RESULT: -8.418745738      2.768      4.973
REMARK  10 active torsions:
REMARK  status: ('A' for Active; 'I' for Inactive)
REMARK    1  A    between atoms: C2_2  and  C3_3 
REMARK    2  A    between atoms: C3_3  and  C4_4 
REMARK    3  A    between atoms: C4_4  and  N1_5 
REMARK       I    between atoms: N1_5  and  C5_7 
REMARK    4  A    between atoms: C5_7  and  C6_9 
REMARK    5  A    between atoms: C8_11  and  C9_12 
REMARK    6  A    between atoms: C9_12  and  O2_13 
REMARK    7  A    between atoms: C9_12  and  C10_15 
REMARK       I    between atoms: C10_15  and  N2_17 
REMARK    8  A    between atoms: N2_17  and  C11_19 
REMARK    9  A    between atoms: C11_19  and  C13_21 
REMARK       I    between atoms: N3_25  and  C17_26 
REMARK       I    between atoms: C17_26  and  N4_28 
REMARK   10  A    between atoms: N4_28  and  C18_30 
ROOT
HETATM    1  C10 UNL     1      16.866  64.694  22.584  1.00  0.00     0.247 C 
HETATM    2  O3  UNL     1      17.897  65.113  23.168  1.00  0.00    -0.271 OA
HETATM    3  N2  UNL     1      15.780  64.217  23.351  1.00  0.00    -0.353 N 
ATOM      4  H2  UNL     1      14.959  63.885  22.846  1.00  0.00     0.163 HD
ENDROOT
BRANCH   3   5
HETATM    5  C11 UNL     1      15.743  64.166  24.776  1.00  0.00     0.103 C 
HETATM    6  C12 UNL     1      14.487  64.801  25.335  1.00  0.00     0.034 C 
BRANCH   5   7
HETATM    7  C13 UNL     1      15.926  62.771  25.328  1.00  0.00     0.111 C 
HETATM    8  C14 UNL     1      15.735  62.752  26.839  1.00  0.00     0.029 C 
HETATM    9  C15 UNL     1      17.058  63.299  27.329  1.00  0.00     0.022 C 
HETATM   10  C16 UNL     1      18.040  62.880  26.256  1.00  0.00     0.128 C 
HETATM   11  N3  UNL     1      17.257  62.278  25.201  1.00  0.00    -0.327 N 
HETATM   12  C17 UNL     1      17.714  61.371  24.223  1.00  0.00     0.337 C 
HETATM   13  O4  UNL     1      16.969  60.892  23.336  1.00  0.00    -0.246 OA
HETATM   14  N4  UNL     1      19.074  60.971  24.229  1.00  0.00    -0.140 N 
ATOM     15  H4  UNL     1      19.761  61.457  23.652  1.00  0.00     0.189 HD
BRANCH  14  16
HETATM   16  C18 UNL     1      19.428  59.970  24.986  1.00  0.00     0.701 A 
HETATM   17  N5  UNL     1      19.309  58.658  24.727  1.00  0.00    -0.185 N 
HETATM   18  C19 UNL     1      19.788  57.953  25.753  1.00  0.00     0.215 A 
ATOM     19  H5  UNL     1      18.913  58.260  23.875  1.00  0.00     0.185 HD
HETATM   20  N6  UNL     1      20.211  58.839  26.667  1.00  0.00    -0.281 N 
HETATM   21  N7  UNL     1      20.000  60.043  26.216  1.00  0.00    -0.131 N 
ATOM     22  H6  UNL     1      20.630  58.607  27.568  1.00  0.00     0.188 HD
ATOM     23  H7  UNL     1      20.228  60.905  26.710  1.00  0.00     0.205 HD
ENDBRANCH  14  16
ENDBRANCH   5   7
ENDBRANCH   3   5
BRANCH   1  24
HETATM   24  C9  UNL     1      16.845  64.723  21.107  1.00  0.00     0.214 C 
BRANCH  24  25
HETATM   25  C8  UNL     1      16.766  66.128  20.560  1.00  0.00     0.025 C 
HETATM   26  C7  UNL     1      15.840  66.928  21.430  1.00  0.00     0.023 C 
HETATM   27  C6  UNL     1      14.580  67.167  20.666  1.00  0.00     0.092 C 
HETATM   28  C21 UNL     1      14.712  66.465  19.334  1.00  0.00     0.071 C 
HETATM   29  C20 UNL     1      16.187  66.162  19.166  1.00  0.00     0.024 C 
HETATM   30 BR1  UNL     1      14.076  67.651  17.944  1.00  0.00    -0.090 Br
BRANCH  27  31
HETATM   31  C5  UNL     1      13.368  66.781  21.406  1.00  0.00     0.223 C 
HETATM   32  N1  UNL     1      12.064  67.099  20.925  1.00  0.00    -0.361 N 
ATOM     33  H1  UNL     1      11.974  67.607  20.045  1.00  0.00     0.162 HD
HETATM   34  O1  UNL     1      13.467  66.160  22.482  1.00  0.00    -0.273 OA
BRANCH  32  35
HETATM   35  C4  UNL     1      10.884  66.731  21.633  1.00  0.00     0.122 C 
BRANCH  35  36
HETATM   36  C3  UNL     1       9.735  67.644  21.633  1.00  0.00     0.019 C 
BRANCH  36  37
HETATM   37  C2  UNL     1       9.958  69.101  21.648  1.00  0.00    -0.003 C 
HETATM   38  C1  UNL     1       9.670  69.822  20.382  1.00  0.00     0.005 C 
ENDBRANCH  36  37
ENDBRANCH  35  36
ENDBRANCH  32  35
ENDBRANCH  27  31
ENDBRANCH  24  25
BRANCH  24  39
HETATM   39  O2  UNL     1      17.879  63.998  20.565  1.00  0.00    -0.386 OA
ATOM     40  H2  UNL     1      17.656  63.085  20.430  1.00  0.00     0.210 HD
ENDBRANCH  24  39
ENDBRANCH   1  24
TORSDOF 10
ENDMDL
MODEL 3
REMARK VINA RESULT: -8.332742728      2.860      5.070
REMARK  10 active torsions:
REMARK  status: ('A' for Active; 'I' for Inactive)
REMARK    1  A    between atoms: C2_2  and  C3_3 
REMARK    2  A    between atoms: C3_3  and  C4_4 
REMARK    3  A    between atoms: C4_4  and  N1_5 
REMARK       I    between atoms: N1_5  and  C5_7 
REMARK    4  A    between atoms: C5_7  and  C6_9 
REMARK    5  A    between atoms: C8_11  and  C9_12 
REMARK    6  A    between atoms: C9_12  and  O2_13 
REMARK    7  A    between atoms: C9_12  and  C10_15 
REMARK       I    between atoms: C10_15  and  N2_17 
REMARK    8  A    between atoms: N2_17  and  C11_19 
REMARK    9  A    between atoms: C11_19  and  C13_21 
REMARK       I    between atoms: N3_25  and  C17_26 
REMARK       I    between atoms: C17_26  and  N4_28 
REMARK   10  A    between atoms: N4_28  and  C18_30 
ROOT
HETATM    1  C10 UNL     1      16.823  64.443  22.760  1.00  0.00     0.247 C 
HETATM    2  O3  UNL     1      15.705  64.261  23.304  1.00  0.00    -0.271 OA
HETATM    3  N2  UNL     1      17.973  64.578  23.568  1.00  0.00    -0.353 N 
ATOM      4  H2  UNL     1      18.865  64.724  23.095  1.00  0.00     0.163 HD
ENDROOT
BRANCH   3   5
HETATM    5  C11 UNL     1      17.985  64.527  24.994  1.00  0.00     0.103 C 
HETATM    6  C12 UNL     1      17.074  65.569  25.607  1.00  0.00     0.034 C 
BRANCH   5   7
HETATM    7  C13 UNL     1      17.671  63.155  25.543  1.00  0.00     0.111 C 
HETATM    8  C14 UNL     1      17.878  63.111  27.052  1.00  0.00     0.029 C 
HETATM    9  C15 UNL     1      19.382  62.992  27.159  1.00  0.00     0.022 C 
HETATM   10  C16 UNL     1      19.778  62.268  25.890  1.00  0.00     0.128 C 
HETATM   11  N3  UNL     1      18.573  62.144  25.101  1.00  0.00    -0.327 N 
HETATM   12  C17 UNL     1      18.325  61.201  24.082  1.00  0.00     0.337 C 
HETATM   13  O4  UNL     1      17.249  61.159  23.440  1.00  0.00    -0.246 OA
HETATM   14  N4  UNL     1      19.326  60.252  23.756  1.00  0.00    -0.140 N 
ATOM     15  H4  UNL     1      19.986  60.432  23.000  1.00  0.00     0.189 HD
BRANCH  14  16
HETATM   16  C18 UNL     1      19.384  59.145  24.442  1.00  0.00     0.701 A 
HETATM   17  N5  UNL     1      20.022  58.927  25.604  1.00  0.00    -0.185 N 
HETATM   18  C19 UNL     1      19.842  57.662  25.984  1.00  0.00     0.215 A 
ATOM     19  H5  UNL     1      20.563  59.624  26.117  1.00  0.00     0.185 HD
HETATM   20  N6  UNL     1      19.080  57.080  25.046  1.00  0.00    -0.281 N 
HETATM   21  N7  UNL     1      18.804  57.959  24.125  1.00  0.00    -0.131 N 
ATOM     22  H6  UNL     1      18.768  56.109  25.054  1.00  0.00     0.188 HD
ATOM     23  H7  UNL     1      18.239  57.783  23.293  1.00  0.00     0.205 HD
ENDBRANCH  14  16
ENDBRANCH   5   7
ENDBRANCH   3   5
BRANCH   1  24
HETATM   24  C9  UNL     1      16.875  64.504  21.285  1.00  0.00     0.214 C 
BRANCH  24  25
HETATM   25  C8  UNL     1      16.888  65.923  20.768  1.00  0.00     0.025 C 
HETATM   26  C7  UNL     1      16.052  66.773  21.683  1.00  0.00     0.023 C 
HETATM   27  C6  UNL     1      14.793  67.123  20.963  1.00  0.00     0.092 C 
HETATM   28  C21 UNL     1      14.831  66.444  19.614  1.00  0.00     0.071 C 
HETATM   29  C20 UNL     1      16.272  66.033  19.394  1.00  0.00     0.024 C 
HETATM   30 BR1  UNL     1      14.247  67.705  18.269  1.00  0.00    -0.090 Br
BRANCH  27  31
HETATM   31  C5  UNL     1      13.577  66.815  21.733  1.00  0.00     0.223 C 
HETATM   32  N1  UNL     1      12.302  66.703  21.106  1.00  0.00    -0.361 N 
ATOM     33  H1  UNL     1      12.235  66.841  20.097  1.00  0.00     0.162 HD
HETATM   34  O1  UNL     1      13.648  66.645  22.966  1.00  0.00    -0.273 OA
BRANCH  32  35
HETATM   35  C4  UNL     1      11.118  66.406  21.841  1.00  0.00     0.122 C 
BRANCH  35  36
HETATM   36  C3  UNL     1       9.962  67.302  21.730  1.00  0.00     0.019 C 
BRANCH  36  37
HETATM   37  C2  UNL     1       9.980  68.402  20.749  1.00  0.00    -0.003 C 
HETATM   38  C1  UNL     1       9.412  69.696  21.204  1.00  0.00     0.005 C 
ENDBRANCH  36  37
ENDBRANCH  35  36
ENDBRANCH  32  35
ENDBRANCH  27  31
ENDBRANCH  24  25
BRANCH  24  39
HETATM   39  O2  UNL     1      17.899  63.743  20.775  1.00  0.00    -0.386 OA
ATOM     40  H2  UNL     1      17.733  63.452  19.886  1.00  0.00     0.210 HD
ENDBRANCH  24  39
ENDBRANCH   1  24
TORSDOF 10
ENDMDL
MODEL 4
REMARK VINA RESULT: -8.310381744      5.118      8.669
REMARK  10 active torsions:
REMARK  status: ('A' for Active; 'I' for Inactive)
REMARK    1  A    between atoms: C2_2  and  C3_3 
REMARK    2  A    between atoms: C3_3  and  C4_4 
REMARK    3  A    between atoms: C4_4  and  N1_5 
REMARK       I    between atoms: N1_5  and  C5_7 
REMARK    4  A    between atoms: C5_7  and  C6_9 
REMARK    5  A    between atoms: C8_11  and  C9_12 
REMARK    6  A    between atoms: C9_12  and  O2_13 
REMARK    7  A    between atoms: C9_12  and  C10_15 
REMARK       I    between atoms: C10_15  and  N2_17 
REMARK    8  A    between atoms: N2_17  and  C11_19 
REMARK    9  A    between atoms: C11_19  and  C13_21 
REMARK       I    between atoms: N3_25  and  C17_26 
REMARK       I    between atoms: C17_26  and  N4_28 
REMARK   10  A    between atoms: N4_28  and  C18_30 
ROOT
HETATM    1  C10 UNL     1      17.263  65.762  27.505  1.00  0.00     0.247 C 
HETATM    2  O3  UNL     1      16.065  66.087  27.309  1.00  0.00    -0.271 OA
HETATM    3  N2  UNL     1      18.041  65.296  26.423  1.00  0.00    -0.353 N 
ATOM      4  H2  UNL     1      19.010  65.041  26.616  1.00  0.00     0.163 HD
ENDROOT
BRANCH   3   5
HETATM    5  C11 UNL     1      17.578  65.155  25.081  1.00  0.00     0.103 C 
HETATM    6  C12 UNL     1      17.781  66.420  24.274  1.00  0.00     0.034 C 
BRANCH   5   7
HETATM    7  C13 UNL     1      18.175  63.965  24.366  1.00  0.00     0.111 C 
HETATM    8  C14 UNL     1      17.247  63.467  23.265  1.00  0.00     0.029 C 
HETATM    9  C15 UNL     1      16.216  62.689  24.052  1.00  0.00     0.022 C 
HETATM   10  C16 UNL     1      16.981  62.200  25.263  1.00  0.00     0.128 C 
HETATM   11  N3  UNL     1      18.291  62.806  25.188  1.00  0.00    -0.327 N 
HETATM   12  C17 UNL     1      19.471  62.345  25.807  1.00  0.00     0.337 C 
HETATM   13  O4  UNL     1      20.573  62.930  25.693  1.00  0.00    -0.246 OA
HETATM   14  N4  UNL     1      19.426  61.169  26.597  1.00  0.00    -0.140 N 
ATOM     15  H4  UNL     1      19.290  61.225  27.606  1.00  0.00     0.189 HD
BRANCH  14  16
HETATM   16  C18 UNL     1      19.564  60.015  26.007  1.00  0.00     0.701 A 
HETATM   17  N5  UNL     1      19.095  59.642  24.804  1.00  0.00    -0.185 N 
HETATM   18  C19 UNL     1      19.448  58.380  24.557  1.00  0.00     0.215 A 
ATOM     19  H5  UNL     1      18.551  60.233  24.177  1.00  0.00     0.185 HD
HETATM   20  N6  UNL     1      20.148  57.958  25.620  1.00  0.00    -0.281 N 
HETATM   21  N7  UNL     1      20.221  58.927  26.488  1.00  0.00    -0.131 N 
ATOM     22  H6  UNL     1      20.556  57.030  25.732  1.00  0.00     0.188 HD
ATOM     23  H7  UNL     1      20.697  58.878  27.388  1.00  0.00     0.205 HD
ENDBRANCH  14  16
ENDBRANCH   5   7
ENDBRANCH   3   5
BRANCH   1  24
HETATM   24  C9  UNL     1      17.801  65.888  28.875  1.00  0.00     0.214 C 
BRANCH  24  25
HETATM   25  C8  UNL     1      17.778  64.577  29.625  1.00  0.00     0.025 C 
HETATM   26  C7  UNL     1      16.639  63.748  29.104  1.00  0.00     0.023 C 
HETATM   27  C6  UNL     1      15.577  63.715  30.152  1.00  0.00     0.092 C 
HETATM   28  C21 UNL     1      16.044  64.570  31.307  1.00  0.00     0.071 C 
HETATM   29  C20 UNL     1      17.532  64.771  31.102  1.00  0.00     0.024 C 
HETATM   30 BR1  UNL     1      15.683  63.632  32.959  1.00  0.00    -0.090 Br
BRANCH  27  31
HETATM   31  C5  UNL     1      14.249  64.098  29.647  1.00  0.00     0.223 C 
HETATM   32  N1  UNL     1      13.906  63.971  28.269  1.00  0.00    -0.361 N 
ATOM     33  H1  UNL     1      14.603  63.605  27.620  1.00  0.00     0.162 HD
HETATM   34  O1  UNL     1      13.390  64.547  30.432  1.00  0.00    -0.273 OA
BRANCH  32  35
HETATM   35  C4  UNL     1      12.624  64.339  27.769  1.00  0.00     0.122 C 
BRANCH  35  36
HETATM   36  C3  UNL     1      11.623  63.294  27.525  1.00  0.00     0.019 C 
BRANCH  36  37
HETATM   37  C2  UNL     1      11.930  61.894  27.866  1.00  0.00    -0.003 C 
HETATM   38  C1  UNL     1      10.767  61.026  28.182  1.00  0.00     0.005 C 
ENDBRANCH  36  37
ENDBRANCH  35  36
ENDBRANCH  32  35
ENDBRANCH  27  31
ENDBRANCH  24  25
BRANCH  24  39
HETATM   39  O2  UNL     1      19.037  66.487  28.889  1.00  0.00    -0.386 OA
ATOM     40  H2  UNL     1      19.738  65.889  28.659  1.00  0.00     0.210 HD
ENDBRANCH  24  39
ENDBRANCH   1  24
TORSDOF 10
ENDMDL
MODEL 5
REMARK VINA RESULT: -8.307622801      6.100      9.007
REMARK  10 active torsions:
REMARK  status: ('A' for Active; 'I' for Inactive)
REMARK    1  A    between atoms: C2_2  and  C3_3 
REMARK    2  A    between atoms: C3_3  and  C4_4 
REMARK    3  A    between atoms: C4_4  and  N1_5 
REMARK       I    between atoms: N1_5  and  C5_7 
REMARK    4  A    between atoms: C5_7  and  C6_9 
REMARK    5  A    between atoms: C8_11  and  C9_12 
REMARK    6  A    between atoms: C9_12  and  O2_13 
REMARK    7  A    between atoms: C9_12  and  C10_15 
REMARK       I    between atoms: C10_15  and  N2_17 
REMARK    8  A    between atoms: N2_17  and  C11_19 
REMARK    9  A    between atoms: C11_19  and  C13_21 
REMARK       I    between atoms: N3_25  and  C17_26 
REMARK       I    between atoms: C17_26  and  N4_28 
REMARK   10  A    between atoms: N4_28  and  C18_30 
ROOT
HETATM    1  C10 UNL     1      13.979  63.052  27.675  1.00  0.00     0.247 C 
HETATM    2  O3  UNL     1      14.304  62.904  28.880  1.00  0.00    -0.271 OA
HETATM    3  N2  UNL     1      12.813  63.783  27.356  1.00  0.00    -0.353 N 
ATOM      4  H2  UNL     1      12.578  63.885  26.369  1.00  0.00     0.163 HD
ENDROOT
BRANCH   3   5
HETATM    5  C11 UNL     1      11.941  64.391  28.307  1.00  0.00     0.103 C 
HETATM    6  C12 UNL     1      11.739  65.866  28.031  1.00  0.00     0.034 C 
BRANCH   5   7
HETATM    7  C13 UNL     1      10.610  63.686  28.431  1.00  0.00     0.111 C 
HETATM    8  C14 UNL     1       9.553  64.613  29.017  1.00  0.00     0.029 C 
HETATM    9  C15 UNL     1       9.894  64.586  30.491  1.00  0.00     0.022 C 
HETATM   10  C16 UNL     1      10.509  63.218  30.693  1.00  0.00     0.128 C 
HETATM   11  N3  UNL     1      10.616  62.623  29.380  1.00  0.00    -0.327 N 
HETATM   12  C17 UNL     1      10.708  61.247  29.083  1.00  0.00     0.337 C 
HETATM   13  O4  UNL     1      10.799  60.808  27.912  1.00  0.00    -0.246 OA
HETATM   14  N4  UNL     1      10.699  60.306  30.142  1.00  0.00    -0.140 N 
ATOM     15  H4  UNL     1      11.573  59.960  30.538  1.00  0.00     0.189 HD
BRANCH  14  16
HETATM   16  C18 UNL     1       9.550  59.890  30.598  1.00  0.00     0.701 A 
HETATM   17  N5  UNL     1       8.732  60.513  31.462  1.00  0.00    -0.185 N 
HETATM   18  C19 UNL     1       7.652  59.761  31.679  1.00  0.00     0.215 A 
ATOM     19  H5  UNL     1       8.909  61.423  31.887  1.00  0.00     0.185 HD
HETATM   20  N6  UNL     1       7.799  58.651  30.941  1.00  0.00    -0.281 N 
HETATM   21  N7  UNL     1       8.928  58.722  30.294  1.00  0.00    -0.131 N 
ATOM     22  H6  UNL     1       7.135  57.878  30.893  1.00  0.00     0.188 HD
ATOM     23  H7  UNL     1       9.288  58.010  29.659  1.00  0.00     0.205 HD
ENDBRANCH  14  16
ENDBRANCH   5   7
ENDBRANCH   3   5
BRANCH   1  24
HETATM   24  C9  UNL     1      14.844  62.446  26.643  1.00  0.00     0.214 C 
BRANCH  24  25
HETATM   25  C8  UNL     1      14.858  63.243  25.361  1.00  0.00     0.025 C 
HETATM   26  C7  UNL     1      15.506  62.414  24.289  1.00  0.00     0.023 C 
HETATM   27  C6  UNL     1      16.848  63.001  24.002  1.00  0.00     0.092 C 
HETATM   28  C21 UNL     1      17.048  64.170  24.939  1.00  0.00     0.071 C 
HETATM   29  C20 UNL     1      15.676  64.506  25.485  1.00  0.00     0.024 C 
HETATM   30 BR1  UNL     1      17.786  65.649  23.935  1.00  0.00    -0.090 Br
BRANCH  27  31
HETATM   31  C5  UNL     1      17.939  62.016  24.064  1.00  0.00     0.223 C 
HETATM   32  N1  UNL     1      18.219  61.282  25.254  1.00  0.00    -0.361 N 
ATOM     33  H1  UNL     1      17.646  61.447  26.082  1.00  0.00     0.162 HD
HETATM   34  O1  UNL     1      18.646  61.805  23.059  1.00  0.00    -0.273 OA
BRANCH  32  35
HETATM   35  C4  UNL     1      19.273  60.326  25.326  1.00  0.00     0.122 C 
BRANCH  35  36
HETATM   36  C3  UNL     1      19.167  59.084  24.552  1.00  0.00     0.019 C 
BRANCH  36  37
HETATM   37  C2  UNL     1      19.521  57.798  25.180  1.00  0.00    -0.003 C 
HETATM   38  C1  UNL     1      20.100  57.872  26.545  1.00  0.00     0.005 C 
ENDBRANCH  36  37
ENDBRANCH  35  36
ENDBRANCH  32  35
ENDBRANCH  27  31
ENDBRANCH  24  25
BRANCH  24  39
HETATM   39  O2  UNL     1      16.106  62.184  27.120  1.00  0.00    -0.386 OA
ATOM     40  H2  UNL     1      16.121  61.474  27.751  1.00  0.00     0.210 HD
ENDBRANCH  24  39
ENDBRANCH   1  24
TORSDOF 10
ENDMDL
