MODEL 1
REMARK VINA RESULT: -8.079276685      0.000      0.000
REMARK  11 active torsions:
REMARK  status: ('A' for Active; 'I' for Inactive)
REMARK    1  A    between atoms: C2_2  and  N1_3 
REMARK    2  A    between atoms: C2_2  and  C19_31 
REMARK       I    between atoms: N1_3  and  C3_5 
REMARK    3  A    between atoms: C3_5  and  C4_7 
REMARK       I    between atoms: N2_8  and  C5_10 
REMARK    4  A    between atoms: C5_10  and  C6_12 
REMARK    5  A    between atoms: N3_18  and  C12_19 
REMARK    6  A    between atoms: C12_19  and  O3_20 
REMARK    7  A    between atoms: C12_19  and  N4_22 
REMARK    8  A    between atoms: N4_22  and  C13_24 
REMARK       I    between atoms: C19_31  and  N5_33 
REMARK    9  A    between atoms: N5_33  and  C20_34 
REMARK   10  A    between atoms: C20_34  and  C21_35 
REMARK   11  A    between atoms: C20_34  and  C22_38 
ROOT
HETATM    1  C4  UNL     1      17.497  67.085  22.121  1.00  0.00     0.165 C 
HETATM    2  N2  UNL     1      16.567  67.255  21.158  1.00  0.00    -0.330 N 
ATOM      3  H2  UNL     1      16.467  68.243  20.922  1.00  0.00     0.168 HD
HETATM    4  C5  UNL     1      15.681  66.456  20.372  1.00  0.00     0.249 C 
HETATM    5  O2  UNL     1      15.661  65.241  20.615  1.00  0.00    -0.270 OA
ENDROOT
BRANCH   4   6
HETATM    6  C6  UNL     1      14.899  67.107  19.350  1.00  0.00     0.113 C 
HETATM    7  C7  UNL     1      15.010  66.028  18.182  1.00  0.00     0.049 C 
HETATM    8  C8  UNL     1      15.658  68.329  18.760  1.00  0.00     0.041 C 
HETATM    9  C9  UNL     1      14.895  69.095  17.755  1.00  0.00     0.004 C 
HETATM   10  C10 UNL     1      13.532  68.714  17.367  1.00  0.00     0.020 C 
HETATM   11  C11 UNL     1      12.893  67.648  18.147  1.00  0.00     0.128 C 
HETATM   12  N3  UNL     1      13.549  67.479  19.462  1.00  0.00    -0.330 N 
BRANCH  12  13
HETATM   13  C12 UNL     1      12.767  67.667  20.588  1.00  0.00     0.216 C 
BRANCH  13  14
HETATM   14  O3  UNL     1      12.128  66.624  21.039  1.00  0.00    -0.333 OA
ATOM     15  H3  UNL     1      11.712  66.713  21.888  1.00  0.00     0.220 HD
ENDBRANCH  13  14
BRANCH  13  16
HETATM   16  N4  UNL     1      12.614  68.844  21.296  1.00  0.00    -0.346 N 
ATOM     17  H4  UNL     1      13.153  68.934  22.157  1.00  0.00     0.164 HD
BRANCH  16  18
HETATM   18  C13 UNL     1      11.767  69.964  20.940  1.00  0.00     0.046 C 
HETATM   19  C14 UNL     1      12.472  70.964  20.023  1.00  0.00     0.040 C 
HETATM   20  C15 UNL     1      10.524  69.501  20.168  1.00  0.00     0.032 C 
HETATM   21  C16 UNL     1       9.531  70.634  20.377  1.00  0.00     0.004 C 
HETATM   22  C17 UNL     1       9.874  71.206  21.715  1.00  0.00     0.023 C 
HETATM   23  C18 UNL     1      11.152  70.606  22.147  1.00  0.00     0.110 C 
HETATM   24 CL1  UNL     1      12.246  71.822  22.874  1.00  0.00    -0.122 Cl
ENDBRANCH  16  18
ENDBRANCH  13  16
ENDBRANCH  12  13
ENDBRANCH   4   6
BRANCH   1  25
HETATM   25  C3  UNL     1      17.464  66.544  23.496  1.00  0.00     0.257 C 
HETATM   26  N1  UNL     1      16.557  65.489  23.582  1.00  0.00    -0.342 N 
ATOM     27  H1  UNL     1      16.111  65.405  22.668  1.00  0.00     0.163 HD
HETATM   28  O1  UNL     1      18.165  67.001  24.381  1.00  0.00    -0.267 OA
BRANCH  26  29
HETATM   29  C2  UNL     1      16.009  64.503  24.393  1.00  0.00     0.187 C 
HETATM   30  C1  UNL     1      14.530  64.276  23.766  1.00  0.00     0.043 C 
BRANCH  29  31
HETATM   31  C19 UNL     1      16.625  63.193  24.032  1.00  0.00     0.309 C 
HETATM   32  O4  UNL     1      16.416  62.797  22.823  1.00  0.00    -0.255 OA
HETATM   33  N5  UNL     1      17.446  62.367  24.847  1.00  0.00    -0.398 NA
BRANCH  33  34
HETATM   34  C20 UNL     1      18.228  61.574  25.613  1.00  0.00     0.259 C 
BRANCH  34  35
HETATM   35  C21 UNL     1      19.265  62.576  26.240  1.00  0.00     0.267 C 
HETATM   36  N6  UNL     1      19.314  62.912  27.578  1.00  0.00    -0.059 NA
HETATM   37  O5  UNL     1      20.069  63.077  25.407  1.00  0.00    -0.273 OA
ENDBRANCH  34  35
BRANCH  34  38
HETATM   38  C22 UNL     1      19.090  60.607  24.852  1.00  0.00     0.022 C 
HETATM   39  C23 UNL     1      19.788  59.625  25.695  1.00  0.00     0.013 C 
HETATM   40  C24 UNL     1      18.369  59.828  23.762  1.00  0.00     0.013 C 
ENDBRANCH  34  38
ENDBRANCH  33  34
ENDBRANCH  29  31
ENDBRANCH  26  29
ENDBRANCH   1  25
TORSDOF 11
ENDMDL
MODEL 2
REMARK VINA RESULT: -8.075865849      1.825      2.238
REMARK  11 active torsions:
REMARK  status: ('A' for Active; 'I' for Inactive)
REMARK    1  A    between atoms: C2_2  and  N1_3 
REMARK    2  A    between atoms: C2_2  and  C19_31 
REMARK       I    between atoms: N1_3  and  C3_5 
REMARK    3  A    between atoms: C3_5  and  C4_7 
REMARK       I    between atoms: N2_8  and  C5_10 
REMARK    4  A    between atoms: C5_10  and  C6_12 
REMARK    5  A    between atoms: N3_18  and  C12_19 
REMARK    6  A    between atoms: C12_19  and  O3_20 
REMARK    7  A    between atoms: C12_19  and  N4_22 
REMARK    8  A    between atoms: N4_22  and  C13_24 
REMARK       I    between atoms: C19_31  and  N5_33 
REMARK    9  A    between atoms: N5_33  and  C20_34 
REMARK   10  A    between atoms: C20_34  and  C21_35 
REMARK   11  A    between atoms: C20_34  and  C22_38 
ROOT
HETATM    1  C4  UNL     1      16.503  65.008  20.119  1.00  0.00     0.165 C 
HETATM    2  N2  UNL     1      16.023  66.258  19.943  1.00  0.00    -0.330 N 
ATOM      3  H2  UNL     1      16.476  66.710  19.149  1.00  0.00     0.168 HD
HETATM    4  C5  UNL     1      15.066  67.131  20.544  1.00  0.00     0.249 C 
HETATM    5  O2  UNL     1      14.495  66.716  21.564  1.00  0.00    -0.270 OA
ENDROOT
BRANCH   4   6
HETATM    6  C6  UNL     1      14.817  68.406  19.919  1.00  0.00     0.113 C 
HETATM    7  C7  UNL     1      16.123  68.535  19.015  1.00  0.00     0.049 C 
HETATM    8  C8  UNL     1      14.988  69.569  20.937  1.00  0.00     0.041 C 
HETATM    9  C9  UNL     1      14.681  70.907  20.394  1.00  0.00     0.004 C 
HETATM   10  C10 UNL     1      14.247  71.093  19.004  1.00  0.00     0.020 C 
HETATM   11  C11 UNL     1      13.959  69.881  18.230  1.00  0.00     0.128 C 
HETATM   12  N3  UNL     1      13.708  68.724  19.118  1.00  0.00    -0.330 N 
BRANCH  12  13
HETATM   13  C12 UNL     1      12.472  68.109  19.021  1.00  0.00     0.216 C 
BRANCH  13  14
HETATM   14  O3  UNL     1      11.993  67.945  17.819  1.00  0.00    -0.333 OA
ATOM     15  H3  UNL     1      11.346  67.259  17.708  1.00  0.00     0.220 HD
ENDBRANCH  13  14
BRANCH  13  16
HETATM   16  N4  UNL     1      11.707  67.629  20.067  1.00  0.00    -0.346 N 
ATOM     17  H4  UNL     1      11.665  66.616  20.177  1.00  0.00     0.164 HD
BRANCH  16  18
HETATM   18  C13 UNL     1      10.959  68.418  21.024  1.00  0.00     0.046 C 
HETATM   19  C14 UNL     1      11.841  68.983  22.137  1.00  0.00     0.040 C 
HETATM   20  C15 UNL     1      10.307  69.636  20.355  1.00  0.00     0.032 C 
HETATM   21  C16 UNL     1       9.166  69.993  21.296  1.00  0.00     0.004 C 
HETATM   22  C17 UNL     1       8.753  68.694  21.912  1.00  0.00     0.023 C 
HETATM   23  C18 UNL     1       9.761  67.680  21.541  1.00  0.00     0.110 C 
HETATM   24 CL1  UNL     1      10.185  66.628  22.925  1.00  0.00    -0.122 Cl
ENDBRANCH  16  18
ENDBRANCH  13  16
ENDBRANCH  12  13
ENDBRANCH   4   6
BRANCH   1  25
HETATM   25  C3  UNL     1      17.222  64.330  21.219  1.00  0.00     0.257 C 
HETATM   26  N1  UNL     1      16.564  64.537  22.430  1.00  0.00    -0.342 N 
ATOM     27  H1  UNL     1      15.778  65.158  22.239  1.00  0.00     0.163 HD
HETATM   28  O1  UNL     1      18.239  63.690  21.019  1.00  0.00    -0.267 OA
BRANCH  26  29
HETATM   29  C2  UNL     1      16.533  64.250  23.788  1.00  0.00     0.187 C 
HETATM   30  C1  UNL     1      14.967  64.422  24.177  1.00  0.00     0.043 C 
BRANCH  29  31
HETATM   31  C19 UNL     1      16.662  62.773  23.965  1.00  0.00     0.309 C 
HETATM   32  O4  UNL     1      15.925  62.056  23.189  1.00  0.00    -0.255 OA
HETATM   33  N5  UNL     1      17.532  62.080  24.850  1.00  0.00    -0.398 NA
BRANCH  33  34
HETATM   34  C20 UNL     1      18.355  61.408  25.687  1.00  0.00     0.259 C 
BRANCH  34  35
HETATM   35  C21 UNL     1      19.322  62.525  26.224  1.00  0.00     0.267 C 
HETATM   36  N6  UNL     1      19.404  62.916  27.546  1.00  0.00    -0.059 NA
HETATM   37  O5  UNL     1      20.034  63.065  25.334  1.00  0.00    -0.273 OA
ENDBRANCH  34  35
BRANCH  34  38
HETATM   38  C22 UNL     1      19.282  60.432  25.018  1.00  0.00     0.022 C 
HETATM   39  C23 UNL     1      19.884  59.449  25.929  1.00  0.00     0.013 C 
HETATM   40  C24 UNL     1      18.669  59.655  23.864  1.00  0.00     0.013 C 
ENDBRANCH  34  38
ENDBRANCH  33  34
ENDBRANCH  29  31
ENDBRANCH  26  29
ENDBRANCH   1  25
TORSDOF 11
ENDMDL
MODEL 3
REMARK VINA RESULT: -7.885234236      0.979      1.594
REMARK  11 active torsions:
REMARK  status: ('A' for Active; 'I' for Inactive)
REMARK    1  A    between atoms: C2_2  and  N1_3 
REMARK    2  A    between atoms: C2_2  and  C19_31 
REMARK       I    between atoms: N1_3  and  C3_5 
REMARK    3  A    between atoms: C3_5  and  C4_7 
REMARK       I    between atoms: N2_8  and  C5_10 
REMARK    4  A    between atoms: C5_10  and  C6_12 
REMARK    5  A    between atoms: N3_18  and  C12_19 
REMARK    6  A    between atoms: C12_19  and  O3_20 
REMARK    7  A    between atoms: C12_19  and  N4_22 
REMARK    8  A    between atoms: N4_22  and  C13_24 
REMARK       I    between atoms: C19_31  and  N5_33 
REMARK    9  A    between atoms: N5_33  and  C20_34 
REMARK   10  A    between atoms: C20_34  and  C21_35 
REMARK   11  A    between atoms: C20_34  and  C22_38 
ROOT
HETATM    1  C4  UNL     1      17.372  67.287  22.101  1.00  0.00     0.165 C 
HETATM    2  N2  UNL     1      16.457  67.402  21.115  1.00  0.00    -0.330 N 
ATOM      3  H2  UNL     1      16.288  68.383  20.891  1.00  0.00     0.168 HD
HETATM    4  C5  UNL     1      15.657  66.551  20.292  1.00  0.00     0.249 C 
HETATM    5  O2  UNL     1      15.725  65.333  20.517  1.00  0.00    -0.270 OA
ENDROOT
BRANCH   4   6
HETATM    6  C6  UNL     1      14.855  67.157  19.259  1.00  0.00     0.113 C 
HETATM    7  C7  UNL     1      14.997  66.058  18.113  1.00  0.00     0.049 C 
HETATM    8  C8  UNL     1      15.576  68.389  18.643  1.00  0.00     0.041 C 
HETATM    9  C9  UNL     1      14.790  69.111  17.624  1.00  0.00     0.004 C 
HETATM   10  C10 UNL     1      13.438  68.681  17.246  1.00  0.00     0.020 C 
HETATM   11  C11 UNL     1      12.833  67.613  18.049  1.00  0.00     0.128 C 
HETATM   12  N3  UNL     1      13.495  67.490  19.366  1.00  0.00    -0.330 N 
BRANCH  12  13
HETATM   13  C12 UNL     1      12.709  67.679  20.489  1.00  0.00     0.216 C 
BRANCH  13  14
HETATM   14  O3  UNL     1      12.055  66.639  20.927  1.00  0.00    -0.333 OA
ATOM     15  H3  UNL     1      11.602  66.738  21.756  1.00  0.00     0.220 HD
ENDBRANCH  13  14
BRANCH  13  16
HETATM   16  N4  UNL     1      12.566  68.851  21.206  1.00  0.00    -0.346 N 
ATOM     17  H4  UNL     1      13.125  68.940  22.055  1.00  0.00     0.164 HD
BRANCH  16  18
HETATM   18  C13 UNL     1      11.704  69.968  20.877  1.00  0.00     0.046 C 
HETATM   19  C14 UNL     1      12.364  70.952  19.911  1.00  0.00     0.040 C 
HETATM   20  C15 UNL     1      10.424  69.496  20.175  1.00  0.00     0.032 C 
HETATM   21  C16 UNL     1       9.444  70.635  20.417  1.00  0.00     0.004 C 
HETATM   22  C17 UNL     1       9.855  71.226  21.727  1.00  0.00     0.023 C 
HETATM   23  C18 UNL     1      11.152  70.629  22.103  1.00  0.00     0.110 C 
HETATM   24 CL1  UNL     1      12.283  71.853  22.756  1.00  0.00    -0.122 Cl
ENDBRANCH  16  18
ENDBRANCH  13  16
ENDBRANCH  12  13
ENDBRANCH   4   6
BRANCH   1  25
HETATM   25  C3  UNL     1      17.344  66.722  23.467  1.00  0.00     0.257 C 
HETATM   26  N1  UNL     1      16.290  65.819  23.597  1.00  0.00    -0.342 N 
ATOM     27  H1  UNL     1      15.778  65.830  22.715  1.00  0.00     0.163 HD
HETATM   28  O1  UNL     1      18.164  67.041  24.308  1.00  0.00    -0.267 OA
BRANCH  26  29
HETATM   29  C2  UNL     1      15.648  64.910  24.428  1.00  0.00     0.187 C 
HETATM   30  C1  UNL     1      14.177  64.760  23.759  1.00  0.00     0.043 C 
BRANCH  29  31
HETATM   31  C19 UNL     1      16.181  63.546  24.142  1.00  0.00     0.309 C 
HETATM   32  O4  UNL     1      15.385  62.765  23.496  1.00  0.00    -0.255 OA
HETATM   33  N5  UNL     1      17.469  63.035  24.459  1.00  0.00    -0.398 NA
BRANCH  33  34
HETATM   34  C20 UNL     1      18.691  62.538  24.753  1.00  0.00     0.259 C 
BRANCH  34  35
HETATM   35  C21 UNL     1      18.470  60.982  24.732  1.00  0.00     0.267 C 
HETATM   36  N6  UNL     1      18.001  60.276  23.643  1.00  0.00    -0.059 NA
HETATM   37  O5  UNL     1      18.751  60.405  25.818  1.00  0.00    -0.273 OA
ENDBRANCH  34  35
BRANCH  34  38
HETATM   38  C22 UNL     1      19.165  62.807  26.154  1.00  0.00     0.022 C 
HETATM   39  C23 UNL     1      20.417  63.573  26.234  1.00  0.00     0.013 C 
HETATM   40  C24 UNL     1      18.154  63.509  27.048  1.00  0.00     0.013 C 
ENDBRANCH  34  38
ENDBRANCH  33  34
ENDBRANCH  29  31
ENDBRANCH  26  29
ENDBRANCH   1  25
TORSDOF 11
ENDMDL
MODEL 4
REMARK VINA RESULT: -7.883590603      2.633      4.100
REMARK  11 active torsions:
REMARK  status: ('A' for Active; 'I' for Inactive)
REMARK    1  A    between atoms: C2_2  and  N1_3 
REMARK    2  A    between atoms: C2_2  and  C19_31 
REMARK       I    between atoms: N1_3  and  C3_5 
REMARK    3  A    between atoms: C3_5  and  C4_7 
REMARK       I    between atoms: N2_8  and  C5_10 
REMARK    4  A    between atoms: C5_10  and  C6_12 
REMARK    5  A    between atoms: N3_18  and  C12_19 
REMARK    6  A    between atoms: C12_19  and  O3_20 
REMARK    7  A    between atoms: C12_19  and  N4_22 
REMARK    8  A    between atoms: N4_22  and  C13_24 
REMARK       I    between atoms: C19_31  and  N5_33 
REMARK    9  A    between atoms: N5_33  and  C20_34 
REMARK   10  A    between atoms: C20_34  and  C21_35 
REMARK   11  A    between atoms: C20_34  and  C22_38 
ROOT
HETATM    1  C4  UNL     1      17.319  65.951  20.264  1.00  0.00     0.165 C 
HETATM    2  N2  UNL     1      16.497  66.994  20.022  1.00  0.00    -0.330 N 
ATOM      3  H2  UNL     1      16.660  67.745  20.693  1.00  0.00     0.168 HD
HETATM    4  C5  UNL     1      15.466  67.353  19.101  1.00  0.00     0.249 C 
HETATM    5  O2  UNL     1      15.130  66.491  18.276  1.00  0.00    -0.270 OA
ENDROOT
BRANCH   4   6
HETATM    6  C6  UNL     1      14.911  68.681  19.181  1.00  0.00     0.113 C 
HETATM    7  C7  UNL     1      15.802  69.423  18.087  1.00  0.00     0.049 C 
HETATM    8  C8  UNL     1      15.335  69.385  20.501  1.00  0.00     0.041 C 
HETATM    9  C9  UNL     1      14.750  70.726  20.695  1.00  0.00     0.004 C 
HETATM   10  C10 UNL     1      13.841  71.320  19.706  1.00  0.00     0.020 C 
HETATM   11  C11 UNL     1      13.399  70.455  18.607  1.00  0.00     0.128 C 
HETATM   12  N3  UNL     1      13.570  69.025  18.946  1.00  0.00    -0.330 N 
BRANCH  12  13
HETATM   13  C12 UNL     1      12.433  68.237  18.954  1.00  0.00     0.216 C 
BRANCH  13  14
HETATM   14  O3  UNL     1      11.940  67.909  17.792  1.00  0.00    -0.333 OA
ATOM     15  H3  UNL     1      11.709  66.996  17.669  1.00  0.00     0.220 HD
ENDBRANCH  13  14
BRANCH  13  16
HETATM   16  N4  UNL     1      11.781  67.743  20.068  1.00  0.00    -0.346 N 
ATOM     17  H4  UNL     1      11.865  66.741  20.241  1.00  0.00     0.164 HD
BRANCH  16  18
HETATM   18  C13 UNL     1      10.991  68.502  21.015  1.00  0.00     0.046 C 
HETATM   19  C14 UNL     1      11.832  69.070  22.159  1.00  0.00     0.040 C 
HETATM   20  C15 UNL     1      10.331  69.714  20.346  1.00  0.00     0.032 C 
HETATM   21  C16 UNL     1       9.158  70.034  21.262  1.00  0.00     0.004 C 
HETATM   22  C17 UNL     1       8.758  68.718  21.849  1.00  0.00     0.023 C 
HETATM   23  C18 UNL     1       9.797  67.731  21.491  1.00  0.00     0.110 C 
HETATM   24 CL1  UNL     1      10.208  66.669  22.871  1.00  0.00    -0.122 Cl
ENDBRANCH  16  18
ENDBRANCH  13  16
ENDBRANCH  12  13
ENDBRANCH   4   6
BRANCH   1  25
HETATM   25  C3  UNL     1      17.101  64.535  20.629  1.00  0.00     0.257 C 
HETATM   26  N1  UNL     1      17.545  64.293  21.927  1.00  0.00    -0.342 N 
ATOM     27  H1  UNL     1      17.959  65.161  22.267  1.00  0.00     0.163 HD
HETATM   28  O1  UNL     1      16.591  63.746  19.853  1.00  0.00    -0.267 OA
BRANCH  26  29
HETATM   29  C2  UNL     1      17.658  63.362  22.952  1.00  0.00     0.187 C 
HETATM   30  C1  UNL     1      18.221  64.236  24.198  1.00  0.00     0.043 C 
BRANCH  29  31
HETATM   31  C19 UNL     1      16.292  63.059  23.472  1.00  0.00     0.309 C 
HETATM   32  O4  UNL     1      16.118  61.855  23.899  1.00  0.00    -0.255 OA
HETATM   33  N5  UNL     1      15.192  63.951  23.590  1.00  0.00    -0.398 NA
BRANCH  33  34
HETATM   34  C20 UNL     1      14.139  64.790  23.708  1.00  0.00     0.259 C 
BRANCH  34  35
HETATM   35  C21 UNL     1      14.596  66.067  22.912  1.00  0.00     0.267 C 
HETATM   36  N6  UNL     1      15.691  66.840  23.241  1.00  0.00    -0.059 NA
HETATM   37  O5  UNL     1      13.862  66.352  21.927  1.00  0.00    -0.273 OA
ENDBRANCH  34  35
BRANCH  34  38
HETATM   38  C22 UNL     1      13.894  65.310  25.097  1.00  0.00     0.022 C 
HETATM   39  C23 UNL     1      12.695  66.150  25.226  1.00  0.00     0.013 C 
HETATM   40  C24 UNL     1      13.809  64.241  26.175  1.00  0.00     0.013 C 
ENDBRANCH  34  38
ENDBRANCH  33  34
ENDBRANCH  29  31
ENDBRANCH  26  29
ENDBRANCH   1  25
TORSDOF 11
ENDMDL
MODEL 5
REMARK VINA RESULT: -7.868858229      2.129      3.657
REMARK  11 active torsions:
REMARK  status: ('A' for Active; 'I' for Inactive)
REMARK    1  A    between atoms: C2_2  and  N1_3 
REMARK    2  A    between atoms: C2_2  and  C19_31 
REMARK       I    between atoms: N1_3  and  C3_5 
REMARK    3  A    between atoms: C3_5  and  C4_7 
REMARK       I    between atoms: N2_8  and  C5_10 
REMARK    4  A    between atoms: C5_10  and  C6_12 
REMARK    5  A    between atoms: N3_18  and  C12_19 
REMARK    6  A    between atoms: C12_19  and  O3_20 
REMARK    7  A    between atoms: C12_19  and  N4_22 
REMARK    8  A    between atoms: N4_22  and  C13_24 
REMARK       I    between atoms: C19_31  and  N5_33 
REMARK    9  A    between atoms: N5_33  and  C20_34 
REMARK   10  A    between atoms: C20_34  and  C21_35 
REMARK   11  A    between atoms: C20_34  and  C22_38 
ROOT
HETATM    1  C4  UNL     1      17.579  63.952  22.565  1.00  0.00     0.165 C 
HETATM    2  N2  UNL     1      17.231  64.996  21.782  1.00  0.00    -0.330 N 
ATOM      3  H2  UNL     1      17.410  65.880  22.260  1.00  0.00     0.168 HD
HETATM    4  C5  UNL     1      16.687  65.225  20.482  1.00  0.00     0.249 C 
HETATM    5  O2  UNL     1      16.364  64.222  19.828  1.00  0.00    -0.270 OA
ENDROOT
BRANCH   4   6
HETATM    6  C6  UNL     1      16.573  66.585  20.018  1.00  0.00     0.113 C 
HETATM    7  C7  UNL     1      17.820  66.649  19.027  1.00  0.00     0.049 C 
HETATM    8  C8  UNL     1      16.972  67.591  21.135  1.00  0.00     0.041 C 
HETATM    9  C9  UNL     1      16.815  69.010  20.764  1.00  0.00     0.004 C 
HETATM   10  C10 UNL     1      16.316  69.411  19.443  1.00  0.00     0.020 C 
HETATM   11  C11 UNL     1      15.813  68.343  18.572  1.00  0.00     0.128 C 
HETATM   12  N3  UNL     1      15.467  67.134  19.350  1.00  0.00    -0.330 N 
BRANCH  12  13
HETATM   13  C12 UNL     1      14.154  66.698  19.290  1.00  0.00     0.216 C 
BRANCH  13  14
HETATM   14  O3  UNL     1      13.861  65.852  18.343  1.00  0.00    -0.333 OA
ATOM     15  H3  UNL     1      13.070  65.340  18.459  1.00  0.00     0.220 HD
ENDBRANCH  13  14
BRANCH  13  16
HETATM   16  N4  UNL     1      13.131  67.051  20.149  1.00  0.00    -0.346 N 
ATOM     17  H4  UNL     1      12.891  66.378  20.876  1.00  0.00     0.164 HD
BRANCH  16  18
HETATM   18  C13 UNL     1      12.364  68.279  20.122  1.00  0.00     0.046 C 
HETATM   19  C14 UNL     1      10.907  68.071  20.536  1.00  0.00     0.040 C 
HETATM   20  C15 UNL     1      12.929  69.312  21.106  1.00  0.00     0.032 C 
HETATM   21  C16 UNL     1      12.419  70.639  20.564  1.00  0.00     0.004 C 
HETATM   22  C17 UNL     1      12.311  70.436  19.087  1.00  0.00     0.023 C 
HETATM   23  C18 UNL     1      12.505  68.998  18.814  1.00  0.00     0.110 C 
HETATM   24 CL1  UNL     1      11.341  68.389  17.600  1.00  0.00    -0.122 Cl
ENDBRANCH  16  18
ENDBRANCH  13  16
ENDBRANCH  12  13
ENDBRANCH   4   6
BRANCH   1  25
HETATM   25  C3  UNL     1      16.835  62.818  23.153  1.00  0.00     0.257 C 
HETATM   26  N1  UNL     1      17.709  61.944  23.796  1.00  0.00    -0.342 N 
ATOM     27  H1  UNL     1      18.653  62.299  23.640  1.00  0.00     0.163 HD
HETATM   28  O1  UNL     1      15.624  62.728  23.057  1.00  0.00    -0.267 OA
BRANCH  26  29
HETATM   29  C2  UNL     1      17.832  60.792  24.562  1.00  0.00     0.187 C 
HETATM   30  C1  UNL     1      18.922  59.909  23.746  1.00  0.00     0.043 C 
BRANCH  29  31
HETATM   31  C19 UNL     1      18.641  61.110  25.775  1.00  0.00     0.309 C 
HETATM   32  O4  UNL     1      19.414  60.165  26.188  1.00  0.00    -0.255 OA
HETATM   33  N5  UNL     1      18.689  62.339  26.486  1.00  0.00    -0.398 NA
BRANCH  33  34
HETATM   34  C20 UNL     1      18.743  63.504  27.171  1.00  0.00     0.259 C 
BRANCH  34  35
HETATM   35  C21 UNL     1      17.237  63.944  27.267  1.00  0.00     0.267 C 
HETATM   36  N6  UNL     1      16.571  64.191  28.450  1.00  0.00    -0.059 NA
HETATM   37  O5  UNL     1      16.657  64.049  26.152  1.00  0.00    -0.273 OA
ENDBRANCH  34  35
BRANCH  34  38
HETATM   38  C22 UNL     1      19.396  64.641  26.438  1.00  0.00     0.022 C 
HETATM   39  C23 UNL     1      19.378  65.919  27.164  1.00  0.00     0.013 C 
HETATM   40  C24 UNL     1      20.835  64.388  26.015  1.00  0.00     0.013 C 
ENDBRANCH  34  38
ENDBRANCH  33  34
ENDBRANCH  29  31
ENDBRANCH  26  29
ENDBRANCH   1  25
TORSDOF 11
ENDMDL
