MODEL 1
REMARK VINA RESULT: -7.857176793      0.000      0.000
REMARK  10 active torsions:
REMARK  status: ('A' for Active; 'I' for Inactive)
REMARK    1  A    between atoms: C1_2  and  C2_4 
REMARK    2  A    between atoms: C2_4  and  C3_5 
REMARK    3  A    between atoms: C2_4  and  N4_25 
REMARK    4  A    between atoms: C3_5  and  N2_6 
REMARK       I    between atoms: N2_6  and  C4_8 
REMARK    5  A    between atoms: C4_8  and  C5_10 
REMARK    6  A    between atoms: C10_15  and  C11_16 
REMARK       I    between atoms: C11_16  and  N3_18 
REMARK    7  A    between atoms: N3_18  and  C12_20 
REMARK       I    between atoms: N4_25  and  C17_27 
REMARK    8  A    between atoms: C17_27  and  C18_29 
REMARK    9  A    between atoms: C20_31  and  C21_32 
REMARK   10  A    between atoms: C23_35  and  O5_36 
ROOT
HETATM    1  N2  UNL     1      15.950  65.696  24.084  1.00  0.00    -0.338 N 
ATOM      2  H2  UNL     1      16.735  66.088  24.604  1.00  0.00     0.167 HD
HETATM    3  C4  UNL     1      15.202  64.749  24.803  1.00  0.00     0.226 C 
HETATM    4  O2  UNL     1      14.200  64.199  24.296  1.00  0.00    -0.273 OA
ENDROOT
BRANCH   1   5
HETATM    5  C3  UNL     1      15.815  66.203  22.781  1.00  0.00     0.098 C 
BRANCH   5   6
HETATM    6  C2  UNL     1      16.784  65.884  21.711  1.00  0.00     0.212 C 
BRANCH   6   7
HETATM    7  C1  UNL     1      17.062  64.498  21.369  1.00  0.00     0.259 C 
HETATM    8  N1  UNL     1      18.063  64.143  20.387  1.00  0.00    -0.060 NA
HETATM    9  O1  UNL     1      16.423  63.572  21.924  1.00  0.00    -0.274 OA
ENDBRANCH   6   7
BRANCH   6  10
HETATM   10  N4  UNL     1      16.207  66.575  20.505  1.00  0.00    -0.343 N 
HETATM   11  C17 UNL     1      16.876  67.640  19.875  1.00  0.00     0.225 C 
HETATM   12  O4  UNL     1      17.982  67.984  20.372  1.00  0.00    -0.273 OA
ATOM     13  H4  UNL     1      15.309  66.263  20.136  1.00  0.00     0.163 HD
BRANCH  11  14
HETATM   14  C18 UNL     1      16.271  68.281  18.703  1.00  0.00     0.107 C 
HETATM   15  C19 UNL     1      14.996  67.602  18.243  1.00  0.00     0.022 C 
HETATM   16  C20 UNL     1      14.238  68.669  17.479  1.00  0.00    -0.001 C 
HETATM   17  C22 UNL     1      14.620  69.939  18.164  1.00  0.00     0.038 C 
HETATM   18  C23 UNL     1      15.952  69.724  18.849  1.00  0.00     0.131 C 
BRANCH  16  19
HETATM   19  C21 UNL     1      12.764  68.384  17.535  1.00  0.00     0.089 C 
HETATM   20 BR1  UNL     1      11.913  69.489  18.856  1.00  0.00    -0.096 Br
ENDBRANCH  16  19
BRANCH  18  21
HETATM   21  O5  UNL     1      15.867  70.152  20.169  1.00  0.00    -0.395 OA
ATOM     22  H5  UNL     1      14.979  70.189  20.504  1.00  0.00     0.210 HD
ENDBRANCH  18  21
ENDBRANCH  11  14
ENDBRANCH   6  10
ENDBRANCH   5   6
ENDBRANCH   1   5
BRANCH   3  23
HETATM   23  C5  UNL     1      15.552  64.347  26.196  1.00  0.00     0.091 C 
HETATM   24  C6  UNL     1      14.735  63.169  26.651  1.00  0.00     0.015 C 
HETATM   25  C7  UNL     1      14.965  62.907  28.105  1.00  0.00     0.001 C 
HETATM   26  C8  UNL     1      15.947  63.839  28.741  1.00  0.00     0.001 C 
HETATM   27  C9  UNL     1      17.187  64.090  27.974  1.00  0.00     0.015 C 
HETATM   28  C10 UNL     1      17.002  64.304  26.489  1.00  0.00     0.091 C 
BRANCH  28  29
HETATM   29  C11 UNL     1      17.837  63.422  25.675  1.00  0.00     0.223 C 
HETATM   30  O3  UNL     1      18.490  63.887  24.666  1.00  0.00    -0.273 OA
HETATM   31  N3  UNL     1      18.021  62.039  25.884  1.00  0.00    -0.356 N 
ATOM     32  H3  UNL     1      17.538  61.596  26.665  1.00  0.00     0.162 HD
BRANCH  31  33
HETATM   33  C12 UNL     1      18.857  61.223  25.046  1.00  0.00     0.084 C 
HETATM   34  C13 UNL     1      19.565  60.132  25.768  1.00  0.00     0.025 C 
HETATM   35  C14 UNL     1      19.569  58.908  24.904  1.00  0.00     0.002 C 
HETATM   36  C15 UNL     1      18.920  59.327  23.603  1.00  0.00     0.002 C 
HETATM   37  C16 UNL     1      18.027  60.472  24.024  1.00  0.00     0.025 C 
ENDBRANCH  31  33
ENDBRANCH  28  29
ENDBRANCH   3  23
TORSDOF 10
ENDMDL
MODEL 2
REMARK VINA RESULT: -7.838932187      3.403      8.598
REMARK  10 active torsions:
REMARK  status: ('A' for Active; 'I' for Inactive)
REMARK    1  A    between atoms: C1_2  and  C2_4 
REMARK    2  A    between atoms: C2_4  and  C3_5 
REMARK    3  A    between atoms: C2_4  and  N4_25 
REMARK    4  A    between atoms: C3_5  and  N2_6 
REMARK       I    between atoms: N2_6  and  C4_8 
REMARK    5  A    between atoms: C4_8  and  C5_10 
REMARK    6  A    between atoms: C10_15  and  C11_16 
REMARK       I    between atoms: C11_16  and  N3_18 
REMARK    7  A    between atoms: N3_18  and  C12_20 
REMARK       I    between atoms: N4_25  and  C17_27 
REMARK    8  A    between atoms: C17_27  and  C18_29 
REMARK    9  A    between atoms: C20_31  and  C21_32 
REMARK   10  A    between atoms: C23_35  and  O5_36 
ROOT
HETATM    1  N2  UNL     1      17.273  64.770  22.971  1.00  0.00    -0.338 N 
ATOM      2  H2  UNL     1      16.580  65.438  23.309  1.00  0.00     0.167 HD
HETATM    3  C4  UNL     1      17.247  64.571  21.580  1.00  0.00     0.226 C 
HETATM    4  O2  UNL     1      18.052  63.791  21.025  1.00  0.00    -0.273 OA
ENDROOT
BRANCH   1   5
HETATM    5  C3  UNL     1      18.077  64.218  23.981  1.00  0.00     0.098 C 
BRANCH   5   6
HETATM    6  C2  UNL     1      17.728  62.950  24.656  1.00  0.00     0.212 C 
BRANCH   6   7
HETATM    7  C1  UNL     1      18.776  62.092  25.184  1.00  0.00     0.259 C 
HETATM    8  N1  UNL     1      18.510  60.729  25.591  1.00  0.00    -0.060 NA
HETATM    9  O1  UNL     1      19.946  62.527  25.303  1.00  0.00    -0.274 OA
ENDBRANCH   6   7
BRANCH   6  10
HETATM   10  N4  UNL     1      16.848  63.396  25.793  1.00  0.00    -0.343 N 
HETATM   11  C17 UNL     1      15.444  63.385  25.689  1.00  0.00     0.225 C 
HETATM   12  O4  UNL     1      14.964  62.982  24.595  1.00  0.00    -0.273 OA
ATOM     13  H4  UNL     1      17.279  63.714  26.661  1.00  0.00     0.163 HD
BRANCH  11  14
HETATM   14  C18 UNL     1      14.631  63.831  26.824  1.00  0.00     0.107 C 
HETATM   15  C19 UNL     1      13.148  63.877  26.514  1.00  0.00     0.022 C 
HETATM   16  C20 UNL     1      12.462  63.766  27.861  1.00  0.00    -0.001 C 
HETATM   17  C22 UNL     1      13.390  62.917  28.665  1.00  0.00     0.038 C 
HETATM   18  C23 UNL     1      14.777  63.040  28.073  1.00  0.00     0.131 C 
BRANCH  16  19
HETATM   19  C21 UNL     1      11.099  63.158  27.689  1.00  0.00     0.089 C 
HETATM   20 BR1  UNL     1      11.105  61.320  28.246  1.00  0.00    -0.096 Br
ENDBRANCH  16  19
BRANCH  18  21
HETATM   21  O5  UNL     1      15.310  61.772  27.877  1.00  0.00    -0.395 OA
ATOM     22  H5  UNL     1      14.744  61.187  27.387  1.00  0.00     0.210 HD
ENDBRANCH  18  21
ENDBRANCH  11  14
ENDBRANCH   6  10
ENDBRANCH   5   6
ENDBRANCH   1   5
BRANCH   3  23
HETATM   23  C5  UNL     1      16.272  65.268  20.693  1.00  0.00     0.091 C 
HETATM   24  C6  UNL     1      15.480  66.301  21.447  1.00  0.00     0.015 C 
HETATM   25  C7  UNL     1      14.386  66.848  20.588  1.00  0.00     0.001 C 
HETATM   26  C8  UNL     1      14.353  66.271  19.208  1.00  0.00     0.001 C 
HETATM   27  C9  UNL     1      15.660  66.169  18.521  1.00  0.00     0.015 C 
HETATM   28  C10 UNL     1      16.806  65.672  19.372  1.00  0.00     0.091 C 
BRANCH  28  29
HETATM   29  C11 UNL     1      17.964  66.563  19.348  1.00  0.00     0.223 C 
HETATM   30  O3  UNL     1      18.004  67.605  20.105  1.00  0.00    -0.273 OA
HETATM   31  N3  UNL     1      19.112  66.400  18.543  1.00  0.00    -0.356 N 
ATOM     32  H3  UNL     1      19.157  65.596  17.917  1.00  0.00     0.162 HD
BRANCH  31  33
HETATM   33  C12 UNL     1      20.221  67.314  18.564  1.00  0.00     0.084 C 
HETATM   34  C13 UNL     1      21.545  66.671  18.351  1.00  0.00     0.025 C 
HETATM   35  C14 UNL     1      22.381  67.566  17.486  1.00  0.00     0.002 C 
HETATM   36  C15 UNL     1      21.546  68.808  17.263  1.00  0.00     0.002 C 
HETATM   37  C16 UNL     1      20.131  68.297  17.413  1.00  0.00     0.025 C 
ENDBRANCH  31  33
ENDBRANCH  28  29
ENDBRANCH   3  23
TORSDOF 10
ENDMDL
MODEL 3
REMARK VINA RESULT: -7.668058569      2.321      4.000
REMARK  10 active torsions:
REMARK  status: ('A' for Active; 'I' for Inactive)
REMARK    1  A    between atoms: C1_2  and  C2_4 
REMARK    2  A    between atoms: C2_4  and  C3_5 
REMARK    3  A    between atoms: C2_4  and  N4_25 
REMARK    4  A    between atoms: C3_5  and  N2_6 
REMARK       I    between atoms: N2_6  and  C4_8 
REMARK    5  A    between atoms: C4_8  and  C5_10 
REMARK    6  A    between atoms: C10_15  and  C11_16 
REMARK       I    between atoms: C11_16  and  N3_18 
REMARK    7  A    between atoms: N3_18  and  C12_20 
REMARK       I    between atoms: N4_25  and  C17_27 
REMARK    8  A    between atoms: C17_27  and  C18_29 
REMARK    9  A    between atoms: C20_31  and  C21_32 
REMARK   10  A    between atoms: C23_35  and  O5_36 
ROOT
HETATM    1  N2  UNL     1      17.014  64.712  23.318  1.00  0.00    -0.338 N 
ATOM      2  H2  UNL     1      17.147  65.530  23.913  1.00  0.00     0.167 HD
HETATM    3  C4  UNL     1      17.718  63.573  23.744  1.00  0.00     0.226 C 
HETATM    4  O2  UNL     1      17.636  62.493  23.119  1.00  0.00    -0.273 OA
ENDROOT
BRANCH   1   5
HETATM    5  C3  UNL     1      16.161  64.931  22.224  1.00  0.00     0.098 C 
BRANCH   5   6
HETATM    6  C2  UNL     1      16.570  65.750  21.063  1.00  0.00     0.212 C 
BRANCH   6   7
HETATM    7  C1  UNL     1      17.563  65.245  20.128  1.00  0.00     0.259 C 
HETATM    8  N1  UNL     1      18.075  66.060  19.048  1.00  0.00    -0.060 NA
HETATM    9  O1  UNL     1      17.995  64.073  20.241  1.00  0.00    -0.274 OA
ENDBRANCH   6   7
BRANCH   6  10
HETATM   10  N4  UNL     1      15.278  65.972  20.325  1.00  0.00    -0.343 N 
HETATM   11  C17 UNL     1      14.611  67.211  20.360  1.00  0.00     0.225 C 
HETATM   12  O4  UNL     1      15.153  68.123  21.041  1.00  0.00    -0.273 OA
ATOM     13  H4  UNL     1      14.875  65.206  19.785  1.00  0.00     0.163 HD
BRANCH  11  14
HETATM   14  C18 UNL     1      13.354  67.376  19.624  1.00  0.00     0.107 C 
HETATM   15  C19 UNL     1      12.494  68.504  20.160  1.00  0.00     0.022 C 
HETATM   16  C20 UNL     1      11.605  68.904  18.999  1.00  0.00    -0.001 C 
HETATM   17  C22 UNL     1      12.448  68.642  17.795  1.00  0.00     0.038 C 
HETATM   18  C23 UNL     1      13.485  67.602  18.163  1.00  0.00     0.131 C 
BRANCH  16  19
HETATM   19  C21 UNL     1      11.202  70.344  19.139  1.00  0.00     0.089 C 
HETATM   20 BR1  UNL     1       9.791  70.526  20.431  1.00  0.00    -0.096 Br
ENDBRANCH  16  19
BRANCH  18  21
HETATM   21  O5  UNL     1      14.743  68.046  17.772  1.00  0.00    -0.395 OA
ATOM     22  H5  UNL     1      15.451  67.728  18.320  1.00  0.00     0.210 HD
ENDBRANCH  18  21
ENDBRANCH  11  14
ENDBRANCH   6  10
ENDBRANCH   5   6
ENDBRANCH   1   5
BRANCH   3  23
HETATM   23  C5  UNL     1      18.595  63.582  24.950  1.00  0.00     0.091 C 
HETATM   24  C6  UNL     1      19.177  64.947  25.199  1.00  0.00     0.015 C 
HETATM   25  C7  UNL     1      20.195  64.888  26.293  1.00  0.00     0.001 C 
HETATM   26  C8  UNL     1      20.371  63.524  26.882  1.00  0.00     0.001 C 
HETATM   27  C9  UNL     1      19.125  62.786  27.183  1.00  0.00     0.015 C 
HETATM   28  C10 UNL     1      18.048  62.868  26.126  1.00  0.00     0.091 C 
BRANCH  28  29
HETATM   29  C11 UNL     1      16.759  63.310  26.655  1.00  0.00     0.223 C 
HETATM   30  O3  UNL     1      16.415  64.550  26.588  1.00  0.00    -0.273 OA
HETATM   31  N3  UNL     1      15.792  62.483  27.265  1.00  0.00    -0.356 N 
ATOM     32  H3  UNL     1      15.989  61.487  27.353  1.00  0.00     0.162 HD
BRANCH  31  33
HETATM   33  C12 UNL     1      14.540  62.980  27.768  1.00  0.00     0.084 C 
HETATM   34  C13 UNL     1      13.406  62.854  26.813  1.00  0.00     0.025 C 
HETATM   35  C14 UNL     1      12.177  62.461  27.575  1.00  0.00     0.002 C 
HETATM   36  C15 UNL     1      12.591  62.443  29.031  1.00  0.00     0.002 C 
HETATM   37  C16 UNL     1      14.075  62.163  28.957  1.00  0.00     0.025 C 
ENDBRANCH  31  33
ENDBRANCH  28  29
ENDBRANCH   3  23
TORSDOF 10
ENDMDL
MODEL 4
REMARK VINA RESULT: -7.542605188      3.411      7.596
REMARK  10 active torsions:
REMARK  status: ('A' for Active; 'I' for Inactive)
REMARK    1  A    between atoms: C1_2  and  C2_4 
REMARK    2  A    between atoms: C2_4  and  C3_5 
REMARK    3  A    between atoms: C2_4  and  N4_25 
REMARK    4  A    between atoms: C3_5  and  N2_6 
REMARK       I    between atoms: N2_6  and  C4_8 
REMARK    5  A    between atoms: C4_8  and  C5_10 
REMARK    6  A    between atoms: C10_15  and  C11_16 
REMARK       I    between atoms: C11_16  and  N3_18 
REMARK    7  A    between atoms: N3_18  and  C12_20 
REMARK       I    between atoms: N4_25  and  C17_27 
REMARK    8  A    between atoms: C17_27  and  C18_29 
REMARK    9  A    between atoms: C20_31  and  C21_32 
REMARK   10  A    between atoms: C23_35  and  O5_36 
ROOT
HETATM    1  N2  UNL     1      18.210  62.399  23.230  1.00  0.00    -0.338 N 
ATOM      2  H2  UNL     1      19.074  62.938  23.169  1.00  0.00     0.167 HD
HETATM    3  C4  UNL     1      17.046  63.157  23.019  1.00  0.00     0.226 C 
HETATM    4  O2  UNL     1      15.915  62.623  23.047  1.00  0.00    -0.273 OA
ENDROOT
BRANCH   1   5
HETATM    5  C3  UNL     1      18.403  61.036  23.509  1.00  0.00     0.098 C 
BRANCH   5   6
HETATM    6  C2  UNL     1      18.610  60.540  24.886  1.00  0.00     0.212 C 
BRANCH   6   7
HETATM    7  C1  UNL     1      19.377  59.327  25.117  1.00  0.00     0.259 C 
HETATM    8  N1  UNL     1      19.683  58.405  24.044  1.00  0.00    -0.060 NA
HETATM    9  O1  UNL     1      19.788  59.051  26.269  1.00  0.00    -0.274 OA
ENDBRANCH   6   7
BRANCH   6  10
HETATM   10  N4  UNL     1      19.305  61.690  25.566  1.00  0.00    -0.343 N 
HETATM   11  C17 UNL     1      18.593  62.638  26.325  1.00  0.00     0.225 C 
HETATM   12  O4  UNL     1      17.346  62.474  26.406  1.00  0.00    -0.273 OA
ATOM     13  H4  UNL     1      20.316  61.784  25.475  1.00  0.00     0.163 HD
BRANCH  11  14
HETATM   14  C18 UNL     1      19.316  63.740  26.966  1.00  0.00     0.107 C 
HETATM   15  C19 UNL     1      19.212  65.046  26.203  1.00  0.00     0.022 C 
HETATM   16  C20 UNL     1      19.468  66.125  27.236  1.00  0.00    -0.001 C 
HETATM   17  C22 UNL     1      18.926  65.546  28.500  1.00  0.00     0.038 C 
HETATM   18  C23 UNL     1      18.927  64.038  28.368  1.00  0.00     0.131 C 
BRANCH  16  19
HETATM   19  C21 UNL     1      18.783  67.397  26.823  1.00  0.00     0.089 C 
HETATM   20 BR1  UNL     1      17.000  67.463  27.534  1.00  0.00    -0.096 Br
ENDBRANCH  16  19
BRANCH  18  21
HETATM   21  O5  UNL     1      17.679  63.542  28.724  1.00  0.00    -0.395 OA
ATOM     22  H5  UNL     1      17.385  63.821  29.583  1.00  0.00     0.210 HD
ENDBRANCH  18  21
ENDBRANCH  11  14
ENDBRANCH   6  10
ENDBRANCH   5   6
ENDBRANCH   1   5
BRANCH   3  23
HETATM   23  C5  UNL     1      17.086  64.623  22.751  1.00  0.00     0.091 C 
HETATM   24  C6  UNL     1      16.304  64.980  21.517  1.00  0.00     0.015 C 
HETATM   25  C7  UNL     1      16.516  66.418  21.163  1.00  0.00     0.001 C 
HETATM   26  C8  UNL     1      17.412  67.148  22.111  1.00  0.00     0.001 C 
HETATM   27  C9  UNL     1      17.155  66.916  23.550  1.00  0.00     0.015 C 
HETATM   28  C10 UNL     1      16.881  65.482  23.940  1.00  0.00     0.091 C 
BRANCH  28  29
HETATM   29  C11 UNL     1      15.638  65.322  24.692  1.00  0.00     0.223 C 
HETATM   30  O3  UNL     1      14.582  65.982  24.361  1.00  0.00    -0.273 OA
HETATM   31  N3  UNL     1      15.453  64.474  25.805  1.00  0.00    -0.356 N 
ATOM     32  H3  UNL     1      16.243  63.915  26.128  1.00  0.00     0.162 HD
BRANCH  31  33
HETATM   33  C12 UNL     1      14.202  64.360  26.506  1.00  0.00     0.084 C 
HETATM   34  C13 UNL     1      13.613  62.995  26.483  1.00  0.00     0.025 C 
HETATM   35  C14 UNL     1      13.009  62.710  27.824  1.00  0.00     0.002 C 
HETATM   36  C15 UNL     1      13.177  63.983  28.623  1.00  0.00     0.002 C 
HETATM   37  C16 UNL     1      14.388  64.626  27.986  1.00  0.00     0.025 C 
ENDBRANCH  31  33
ENDBRANCH  28  29
ENDBRANCH   3  23
TORSDOF 10
ENDMDL
MODEL 5
REMARK VINA RESULT: -7.532348480      1.929      2.365
REMARK  10 active torsions:
REMARK  status: ('A' for Active; 'I' for Inactive)
REMARK    1  A    between atoms: C1_2  and  C2_4 
REMARK    2  A    between atoms: C2_4  and  C3_5 
REMARK    3  A    between atoms: C2_4  and  N4_25 
REMARK    4  A    between atoms: C3_5  and  N2_6 
REMARK       I    between atoms: N2_6  and  C4_8 
REMARK    5  A    between atoms: C4_8  and  C5_10 
REMARK    6  A    between atoms: C10_15  and  C11_16 
REMARK       I    between atoms: C11_16  and  N3_18 
REMARK    7  A    between atoms: N3_18  and  C12_20 
REMARK       I    between atoms: N4_25  and  C17_27 
REMARK    8  A    between atoms: C17_27  and  C18_29 
REMARK    9  A    between atoms: C20_31  and  C21_32 
REMARK   10  A    between atoms: C23_35  and  O5_36 
ROOT
HETATM    1  N2  UNL     1      16.430  64.985  22.716  1.00  0.00    -0.338 N 
ATOM      2  H2  UNL     1      16.594  65.820  23.277  1.00  0.00     0.167 HD
HETATM    3  C4  UNL     1      16.149  63.833  23.470  1.00  0.00     0.226 C 
HETATM    4  O2  UNL     1      15.910  62.739  22.913  1.00  0.00    -0.273 OA
ENDROOT
BRANCH   1   5
HETATM    5  C3  UNL     1      16.528  65.197  21.331  1.00  0.00     0.098 C 
BRANCH   5   6
HETATM    6  C2  UNL     1      17.006  66.476  20.766  1.00  0.00     0.212 C 
BRANCH   6   7
HETATM    7  C1  UNL     1      17.852  66.481  19.583  1.00  0.00     0.259 C 
HETATM    8  N1  UNL     1      17.902  67.616  18.688  1.00  0.00    -0.060 NA
HETATM    9  O1  UNL     1      18.560  65.481  19.312  1.00  0.00    -0.274 OA
ENDBRANCH   6   7
BRANCH   6  10
HETATM   10  N4  UNL     1      15.732  67.213  20.453  1.00  0.00    -0.343 N 
HETATM   11  C17 UNL     1      15.095  68.025  21.410  1.00  0.00     0.225 C 
HETATM   12  O4  UNL     1      15.647  68.104  22.540  1.00  0.00    -0.273 OA
ATOM     13  H4  UNL     1      15.319  67.121  19.525  1.00  0.00     0.163 HD
BRANCH  11  14
HETATM   14  C18 UNL     1      13.854  68.721  21.056  1.00  0.00     0.107 C 
HETATM   15  C19 UNL     1      13.722  68.986  19.570  1.00  0.00     0.022 C 
HETATM   16  C20 UNL     1      12.233  69.138  19.330  1.00  0.00    -0.001 C 
HETATM   17  C22 UNL     1      11.613  68.234  20.343  1.00  0.00     0.038 C 
HETATM   18  C23 UNL     1      12.596  68.055  21.480  1.00  0.00     0.131 C 
BRANCH  16  19
HETATM   19  C21 UNL     1      11.904  68.756  17.914  1.00  0.00     0.089 C 
HETATM   20 BR1  UNL     1      13.481  68.157  16.995  1.00  0.00    -0.096 Br
ENDBRANCH  16  19
BRANCH  18  21
HETATM   21  O5  UNL     1      12.742  66.701  21.756  1.00  0.00    -0.395 OA
ATOM     22  H5  UNL     1      11.934  66.272  22.013  1.00  0.00     0.210 HD
ENDBRANCH  18  21
ENDBRANCH  11  14
ENDBRANCH   6  10
ENDBRANCH   5   6
ENDBRANCH   1   5
BRANCH   3  23
HETATM   23  C5  UNL     1      16.116  63.844  24.961  1.00  0.00     0.091 C 
HETATM   24  C6  UNL     1      15.150  62.825  25.499  1.00  0.00     0.015 C 
HETATM   25  C7  UNL     1      14.994  62.985  26.978  1.00  0.00     0.001 C 
HETATM   26  C8  UNL     1      15.833  64.077  27.560  1.00  0.00     0.001 C 
HETATM   27  C9  UNL     1      17.237  64.127  27.097  1.00  0.00     0.015 C 
HETATM   28  C10 UNL     1      17.443  63.913  25.615  1.00  0.00     0.091 C 
BRANCH  28  29
HETATM   29  C11 UNL     1      18.407  62.856  25.317  1.00  0.00     0.223 C 
HETATM   30  O3  UNL     1      19.670  63.110  25.294  1.00  0.00    -0.273 OA
HETATM   31  N3  UNL     1      18.092  61.509  25.038  1.00  0.00    -0.356 N 
ATOM     32  H3  UNL     1      17.111  61.228  25.040  1.00  0.00     0.162 HD
BRANCH  31  33
HETATM   33  C12 UNL     1      19.088  60.513  24.751  1.00  0.00     0.084 C 
HETATM   34  C13 UNL     1      19.570  59.771  25.946  1.00  0.00     0.025 C 
HETATM   35  C14 UNL     1      19.757  58.331  25.574  1.00  0.00     0.002 C 
HETATM   36  C15 UNL     1      19.458  58.253  24.093  1.00  0.00     0.002 C 
HETATM   37  C16 UNL     1      18.516  59.415  23.876  1.00  0.00     0.025 C 
ENDBRANCH  31  33
ENDBRANCH  28  29
ENDBRANCH   3  23
TORSDOF 10
ENDMDL
