MODEL 1
REMARK VINA RESULT: -7.657006673      0.000      0.000
REMARK  8 active torsions:
REMARK  status: ('A' for Active; 'I' for Inactive)
REMARK       I    between atoms: C1_4  and  N2_5 
REMARK       I    between atoms: C1_4  and  N6_25 
REMARK    1  A    between atoms: N2_5  and  C2_7 
REMARK    2  A    between atoms: C2_7  and  C3_8 
REMARK    3  A    between atoms: C3_8  and  C4_9 
REMARK    4  A    between atoms: C4_9  and  C5_10 
REMARK    5  A    between atoms: C5_10  and  C6_11 
REMARK    6  A    between atoms: C6_11  and  N3_12 
REMARK       I    between atoms: N3_12  and  C7_14 
REMARK    7  A    between atoms: C7_14  and  C8_16 
REMARK    8  A    between atoms: C8_16  and  N4_17 
ROOT
HETATM    1  N1  UNL     1      15.972  65.757  23.255  1.00  0.00    -0.235 N 
ATOM      2  H11 UNL     1      16.771  65.195  22.959  1.00  0.00     0.174 HD
ATOM      3  H12 UNL     1      15.568  66.426  22.600  1.00  0.00     0.174 HD
HETATM    4  C1  UNL     1      15.525  65.582  24.440  1.00  0.00     0.670 C 
HETATM    5  N2  UNL     1      14.423  66.358  24.849  1.00  0.00    -0.227 N 
ATOM      6  H2  UNL     1      14.546  67.366  24.948  1.00  0.00     0.177 HD
HETATM    7  N6  UNL     1      16.082  64.663  25.341  1.00  0.00    -0.208 N 
HETATM    8  C15 UNL     1      15.738  63.268  25.250  1.00  0.00     0.161 C 
HETATM    9  C16 UNL     1      15.914  62.637  23.911  1.00  0.00     0.143 C 
HETATM   10  N7  UNL     1      17.269  62.471  23.467  1.00  0.00    -0.360 N 
ATOM     11  H7  UNL     1      17.680  63.262  22.971  1.00  0.00     0.162 HD
HETATM   12  C17 UNL     1      18.100  61.338  23.638  1.00  0.00     0.217 C 
HETATM   13  O2  UNL     1      18.641  60.808  22.599  1.00  0.00    -0.274 OA
HETATM   14  C18 UNL     1      18.415  60.692  24.931  1.00  0.00     0.103 C 
HETATM   15  C19 UNL     1      19.737  61.288  25.447  1.00  0.00     0.009 C 
HETATM   16  C20 UNL     1      19.520  62.060  26.720  1.00  0.00     0.002 C 
HETATM   17  C21 UNL     1      20.270  63.346  26.819  1.00  0.00     0.020 C 
HETATM   18  C22 UNL     1      20.107  64.290  25.680  1.00  0.00     0.122 C 
HETATM   19  N8  UNL     1      19.496  65.557  26.017  1.00  0.00    -0.360 N 
ATOM     20  H8  UNL     1      20.113  66.275  26.398  1.00  0.00     0.162 HD
HETATM   21  C23 UNL     1      18.137  65.904  25.872  1.00  0.00     0.236 C 
HETATM   22  O3  UNL     1      17.847  66.991  25.259  1.00  0.00    -0.272 OA
HETATM   23  C24 UNL     1      16.980  65.126  26.369  1.00  0.00     0.244 C 
ENDROOT
BRANCH   5  24
HETATM   24  C2  UNL     1      13.105  65.780  25.138  1.00  0.00     0.138 C 
BRANCH  24  25
HETATM   25  C3  UNL     1      12.076  66.829  25.314  1.00  0.00     0.020 C 
BRANCH  25  26
HETATM   26  C4  UNL     1      10.729  66.608  24.758  1.00  0.00     0.003 C 
BRANCH  26  27
HETATM   27  C5  UNL     1      10.202  67.418  23.660  1.00  0.00     0.020 C 
BRANCH  27  28
HETATM   28  C6  UNL     1      10.551  67.135  22.255  1.00  0.00     0.122 C 
BRANCH  28  29
HETATM   29  N3  UNL     1      11.658  67.858  21.707  1.00  0.00    -0.360 N 
HETATM   30  C7  UNL     1      12.972  67.291  21.593  1.00  0.00     0.245 C 
HETATM   31  O1  UNL     1      13.120  66.128  21.989  1.00  0.00    -0.272 OA
ATOM     32  H3  UNL     1      11.507  68.814  21.385  1.00  0.00     0.162 HD
BRANCH  30  33
HETATM   33  C8  UNL     1      14.088  68.056  21.031  1.00  0.00     0.362 C 
BRANCH  33  34
HETATM   34  N4  UNL     1      14.120  68.184  19.613  1.00  0.00     0.019 N 
HETATM   35  C9  UNL     1      15.268  68.843  19.064  1.00  0.00     0.261 C 
HETATM   36  C10 UNL     1      14.801  69.440  17.726  1.00  0.00     0.036 C 
HETATM   37  C11 UNL     1      13.838  68.413  17.130  1.00  0.00     0.005 C 
HETATM   38  C12 UNL     1      14.291  67.009  17.500  1.00  0.00     0.036 C 
HETATM   39  C14 UNL     1      12.529  68.618  17.907  1.00  0.00     0.147 C 
HETATM   40  C13 UNL     1      14.053  66.867  19.004  1.00  0.00     0.261 C 
HETATM   41  N5  UNL     1      12.957  68.928  19.266  1.00  0.00    -0.046 NA
ENDBRANCH  33  34
ENDBRANCH  30  33
ENDBRANCH  28  29
ENDBRANCH  27  28
ENDBRANCH  26  27
ENDBRANCH  25  26
ENDBRANCH  24  25
ENDBRANCH   5  24
TORSDOF 8
ENDMDL
MODEL 2
REMARK VINA RESULT: -7.610324424      2.179      8.190
REMARK  8 active torsions:
REMARK  status: ('A' for Active; 'I' for Inactive)
REMARK       I    between atoms: C1_4  and  N2_5 
REMARK       I    between atoms: C1_4  and  N6_25 
REMARK    1  A    between atoms: N2_5  and  C2_7 
REMARK    2  A    between atoms: C2_7  and  C3_8 
REMARK    3  A    between atoms: C3_8  and  C4_9 
REMARK    4  A    between atoms: C4_9  and  C5_10 
REMARK    5  A    between atoms: C5_10  and  C6_11 
REMARK    6  A    between atoms: C6_11  and  N3_12 
REMARK       I    between atoms: N3_12  and  C7_14 
REMARK    7  A    between atoms: C7_14  and  C8_16 
REMARK    8  A    between atoms: C8_16  and  N4_17 
ROOT
HETATM    1  N1  UNL     1      12.645  70.317  20.383  1.00  0.00    -0.235 N 
ATOM      2  H11 UNL     1      12.855  70.324  21.382  1.00  0.00     0.174 HD
ATOM      3  H12 UNL     1      13.011  71.066  19.795  1.00  0.00     0.174 HD
HETATM    4  C1  UNL     1      11.930  69.359  19.930  1.00  0.00     0.670 C 
HETATM    5  N2  UNL     1      11.640  69.350  18.551  1.00  0.00    -0.227 N 
ATOM      6  H2  UNL     1      11.047  70.090  18.173  1.00  0.00     0.177 HD
HETATM    7  N6  UNL     1      11.427  68.330  20.738  1.00  0.00    -0.208 N 
HETATM    8  C15 UNL     1      12.272  67.224  21.104  1.00  0.00     0.161 C 
HETATM    9  C16 UNL     1      13.583  67.578  21.719  1.00  0.00     0.143 C 
HETATM   10  N7  UNL     1      13.528  68.147  23.035  1.00  0.00    -0.360 N 
ATOM     11  H7  UNL     1      13.413  69.159  23.084  1.00  0.00     0.162 HD
HETATM   12  C17 UNL     1      13.614  67.467  24.274  1.00  0.00     0.217 C 
HETATM   13  O2  UNL     1      14.503  67.842  25.123  1.00  0.00    -0.274 OA
HETATM   14  C18 UNL     1      12.754  66.339  24.695  1.00  0.00     0.103 C 
HETATM   15  C19 UNL     1      11.581  66.916  25.507  1.00  0.00     0.009 C 
HETATM   16  C20 UNL     1      10.273  66.692  24.798  1.00  0.00     0.002 C 
HETATM   17  C21 UNL     1       9.324  67.843  24.837  1.00  0.00     0.020 C 
HETATM   18  C22 UNL     1       9.866  69.156  24.390  1.00  0.00     0.122 C 
HETATM   19  N8  UNL     1       9.227  69.716  23.219  1.00  0.00    -0.360 N 
ATOM     20  H8  UNL     1       8.362  70.234  23.374  1.00  0.00     0.162 HD
HETATM   21  C23 UNL     1       9.676  69.619  21.886  1.00  0.00     0.236 C 
HETATM   22  O3  UNL     1       9.773  70.696  21.197  1.00  0.00    -0.272 OA
HETATM   23  C24 UNL     1      10.056  68.376  21.179  1.00  0.00     0.244 C 
ENDROOT
BRANCH   5  24
HETATM   24  C2  UNL     1      12.152  68.323  17.635  1.00  0.00     0.138 C 
BRANCH  24  25
HETATM   25  C3  UNL     1      13.622  68.191  17.734  1.00  0.00     0.020 C 
BRANCH  25  26
HETATM   26  C4  UNL     1      14.211  66.846  17.866  1.00  0.00     0.003 C 
BRANCH  26  27
HETATM   27  C5  UNL     1      15.444  66.611  18.618  1.00  0.00     0.020 C 
BRANCH  27  28
HETATM   28  C6  UNL     1      15.713  65.317  19.275  1.00  0.00     0.122 C 
BRANCH  28  29
HETATM   29  N3  UNL     1      16.239  65.367  20.605  1.00  0.00    -0.360 N 
HETATM   30  C7  UNL     1      17.374  64.590  21.017  1.00  0.00     0.245 C 
HETATM   31  O1  UNL     1      17.898  63.862  20.164  1.00  0.00    -0.272 OA
ATOM     32  H3  UNL     1      15.790  65.979  21.287  1.00  0.00     0.162 HD
BRANCH  30  33
HETATM   33  C8  UNL     1      17.891  64.659  22.386  1.00  0.00     0.362 C 
BRANCH  33  34
HETATM   34  N4  UNL     1      17.117  64.011  23.390  1.00  0.00     0.019 N 
HETATM   35  C9  UNL     1      17.814  63.066  24.213  1.00  0.00     0.261 C 
HETATM   36  C10 UNL     1      16.744  62.074  24.698  1.00  0.00     0.036 C 
HETATM   37  C11 UNL     1      15.489  62.911  24.952  1.00  0.00     0.005 C 
HETATM   38  C12 UNL     1      15.885  64.289  25.459  1.00  0.00     0.036 C 
HETATM   39  C14 UNL     1      14.907  63.162  23.553  1.00  0.00     0.147 C 
HETATM   40  C13 UNL     1      16.540  65.006  24.278  1.00  0.00     0.261 C 
HETATM   41  N5  UNL     1      16.076  63.332  22.697  1.00  0.00    -0.046 NA
ENDBRANCH  33  34
ENDBRANCH  30  33
ENDBRANCH  28  29
ENDBRANCH  27  28
ENDBRANCH  26  27
ENDBRANCH  25  26
ENDBRANCH  24  25
ENDBRANCH   5  24
TORSDOF 8
ENDMDL
MODEL 3
REMARK VINA RESULT: -7.605416178      1.289      1.883
REMARK  8 active torsions:
REMARK  status: ('A' for Active; 'I' for Inactive)
REMARK       I    between atoms: C1_4  and  N2_5 
REMARK       I    between atoms: C1_4  and  N6_25 
REMARK    1  A    between atoms: N2_5  and  C2_7 
REMARK    2  A    between atoms: C2_7  and  C3_8 
REMARK    3  A    between atoms: C3_8  and  C4_9 
REMARK    4  A    between atoms: C4_9  and  C5_10 
REMARK    5  A    between atoms: C5_10  and  C6_11 
REMARK    6  A    between atoms: C6_11  and  N3_12 
REMARK       I    between atoms: N3_12  and  C7_14 
REMARK    7  A    between atoms: C7_14  and  C8_16 
REMARK    8  A    between atoms: C8_16  and  N4_17 
ROOT
HETATM    1  N1  UNL     1      16.687  65.845  22.599  1.00  0.00    -0.235 N 
ATOM      2  H11 UNL     1      17.454  65.187  22.457  1.00  0.00     0.174 HD
ATOM      3  H12 UNL     1      16.453  66.501  21.853  1.00  0.00     0.174 HD
HETATM    4  C1  UNL     1      16.060  65.802  23.712  1.00  0.00     0.670 C 
HETATM    5  N2  UNL     1      15.001  66.711  23.907  1.00  0.00    -0.227 N 
ATOM      6  H2  UNL     1      15.217  67.706  23.965  1.00  0.00     0.177 HD
HETATM    7  N6  UNL     1      16.382  64.901  24.738  1.00  0.00    -0.208 N 
HETATM    8  C15 UNL     1      15.906  63.544  24.678  1.00  0.00     0.161 C 
HETATM    9  C16 UNL     1      16.200  62.802  23.420  1.00  0.00     0.143 C 
HETATM   10  N7  UNL     1      17.578  62.472  23.192  1.00  0.00    -0.360 N 
ATOM     11  H7  UNL     1      18.138  63.180  22.717  1.00  0.00     0.162 HD
HETATM   12  C17 UNL     1      18.250  61.278  23.549  1.00  0.00     0.217 C 
HETATM   13  O2  UNL     1      18.872  60.623  22.635  1.00  0.00    -0.274 OA
HETATM   14  C18 UNL     1      18.308  60.701  24.910  1.00  0.00     0.103 C 
HETATM   15  C19 UNL     1      19.600  61.201  25.581  1.00  0.00     0.009 C 
HETATM   16  C20 UNL     1      19.289  62.081  26.760  1.00  0.00     0.002 C 
HETATM   17  C21 UNL     1      20.152  63.291  26.894  1.00  0.00     0.020 C 
HETATM   18  C22 UNL     1      20.255  64.161  25.690  1.00  0.00     0.122 C 
HETATM   19  N8  UNL     1      19.743  65.503  25.859  1.00  0.00    -0.360 N 
ATOM     20  H8  UNL     1      20.373  66.183  26.285  1.00  0.00     0.162 HD
HETATM   21  C23 UNL     1      18.462  65.970  25.495  1.00  0.00     0.236 C 
HETATM   22  O3  UNL     1      18.382  67.032  24.783  1.00  0.00    -0.272 OA
HETATM   23  C24 UNL     1      17.170  65.348  25.858  1.00  0.00     0.244 C 
ENDROOT
BRANCH   5  24
HETATM   24  C2  UNL     1      13.601  66.287  24.031  1.00  0.00     0.138 C 
BRANCH  24  25
HETATM   25  C3  UNL     1      12.698  67.157  23.247  1.00  0.00     0.020 C 
BRANCH  25  26
HETATM   26  C4  UNL     1      11.438  66.595  22.728  1.00  0.00     0.003 C 
BRANCH  26  27
HETATM   27  C5  UNL     1      10.238  67.415  22.554  1.00  0.00     0.020 C 
BRANCH  27  28
HETATM   28  C6  UNL     1      10.014  68.205  21.328  1.00  0.00     0.122 C 
BRANCH  28  29
HETATM   29  N3  UNL     1      10.798  67.856  20.184  1.00  0.00    -0.360 N 
HETATM   30  C7  UNL     1      11.373  68.840  19.310  1.00  0.00     0.245 C 
HETATM   31  O1  UNL     1      11.167  70.029  19.588  1.00  0.00    -0.272 OA
ATOM     32  H3  UNL     1      10.955  66.869  19.981  1.00  0.00     0.162 HD
BRANCH  30  33
HETATM   33  C8  UNL     1      12.170  68.453  18.143  1.00  0.00     0.362 C 
BRANCH  33  34
HETATM   34  N4  UNL     1      13.553  68.206  18.372  1.00  0.00     0.019 N 
HETATM   35  C9  UNL     1      14.134  67.129  17.625  1.00  0.00     0.261 C 
HETATM   36  C10 UNL     1      15.322  66.636  18.468  1.00  0.00     0.036 C 
HETATM   37  C11 UNL     1      15.938  67.891  19.087  1.00  0.00     0.005 C 
HETATM   38  C12 UNL     1      15.809  69.058  18.119  1.00  0.00     0.036 C 
HETATM   39  C14 UNL     1      15.001  68.245  20.252  1.00  0.00     0.147 C 
HETATM   40  C13 UNL     1      14.319  69.401  18.063  1.00  0.00     0.261 C 
HETATM   41  N5  UNL     1      13.668  67.913  19.760  1.00  0.00    -0.046 NA
ENDBRANCH  33  34
ENDBRANCH  30  33
ENDBRANCH  28  29
ENDBRANCH  27  28
ENDBRANCH  26  27
ENDBRANCH  25  26
ENDBRANCH  24  25
ENDBRANCH   5  24
TORSDOF 8
ENDMDL
MODEL 4
REMARK VINA RESULT: -7.527367750      1.901      4.709
REMARK  8 active torsions:
REMARK  status: ('A' for Active; 'I' for Inactive)
REMARK       I    between atoms: C1_4  and  N2_5 
REMARK       I    between atoms: C1_4  and  N6_25 
REMARK    1  A    between atoms: N2_5  and  C2_7 
REMARK    2  A    between atoms: C2_7  and  C3_8 
REMARK    3  A    between atoms: C3_8  and  C4_9 
REMARK    4  A    between atoms: C4_9  and  C5_10 
REMARK    5  A    between atoms: C5_10  and  C6_11 
REMARK    6  A    between atoms: C6_11  and  N3_12 
REMARK       I    between atoms: N3_12  and  C7_14 
REMARK    7  A    between atoms: C7_14  and  C8_16 
REMARK    8  A    between atoms: C8_16  and  N4_17 
ROOT
HETATM    1  N1  UNL     1      14.805  66.087  24.339  1.00  0.00    -0.235 N 
ATOM      2  H11 UNL     1      15.148  65.706  25.221  1.00  0.00     0.174 HD
ATOM      3  H12 UNL     1      13.899  66.555  24.321  1.00  0.00     0.174 HD
HETATM    4  C1  UNL     1      15.542  65.954  23.303  1.00  0.00     0.670 C 
HETATM    5  N2  UNL     1      15.068  66.480  22.085  1.00  0.00    -0.227 N 
ATOM      6  H2  UNL     1      14.241  66.059  21.661  1.00  0.00     0.177 HD
HETATM    7  N6  UNL     1      16.788  65.310  23.327  1.00  0.00    -0.208 N 
HETATM    8  C15 UNL     1      17.955  66.017  23.787  1.00  0.00     0.161 C 
HETATM    9  C16 UNL     1      17.841  66.667  25.123  1.00  0.00     0.143 C 
HETATM   10  N7  UNL     1      17.768  65.781  26.249  1.00  0.00    -0.360 N 
ATOM     11  H7  UNL     1      16.836  65.456  26.506  1.00  0.00     0.162 HD
HETATM   12  C17 UNL     1      18.838  65.307  27.045  1.00  0.00     0.217 C 
HETATM   13  O2  UNL     1      18.786  65.482  28.317  1.00  0.00    -0.274 OA
HETATM   14  C18 UNL     1      20.040  64.608  26.538  1.00  0.00     0.103 C 
HETATM   15  C19 UNL     1      19.780  63.094  26.628  1.00  0.00     0.009 C 
HETATM   16  C20 UNL     1      19.738  62.472  25.259  1.00  0.00     0.002 C 
HETATM   17  C21 UNL     1      18.671  61.448  25.058  1.00  0.00     0.020 C 
HETATM   18  C22 UNL     1      17.286  61.866  25.411  1.00  0.00     0.122 C 
HETATM   19  N8  UNL     1      16.351  61.881  24.308  1.00  0.00    -0.360 N 
ATOM     20  H8  UNL     1      15.917  60.990  24.065  1.00  0.00     0.162 HD
HETATM   21  C23 UNL     1      15.976  62.999  23.534  1.00  0.00     0.236 C 
HETATM   22  O3  UNL     1      14.727  63.238  23.375  1.00  0.00    -0.272 OA
HETATM   23  C24 UNL     1      16.895  63.948  22.869  1.00  0.00     0.244 C 
ENDROOT
BRANCH   5  24
HETATM   24  C2  UNL     1      15.712  67.609  21.400  1.00  0.00     0.138 C 
BRANCH  24  25
HETATM   25  C3  UNL     1      16.408  67.173  20.170  1.00  0.00     0.020 C 
BRANCH  25  26
HETATM   26  C4  UNL     1      16.082  65.857  19.593  1.00  0.00     0.003 C 
BRANCH  26  27
HETATM   27  C5  UNL     1      15.091  65.703  18.527  1.00  0.00     0.020 C 
BRANCH  27  28
HETATM   28  C6  UNL     1      14.370  66.863  17.970  1.00  0.00     0.122 C 
BRANCH  28  29
HETATM   29  N3  UNL     1      13.113  67.189  18.569  1.00  0.00    -0.360 N 
HETATM   30  C7  UNL     1      12.840  68.479  19.141  1.00  0.00     0.245 C 
HETATM   31  O1  UNL     1      13.748  69.319  19.093  1.00  0.00    -0.272 OA
ATOM     32  H3  UNL     1      12.382  66.479  18.592  1.00  0.00     0.162 HD
BRANCH  30  33
HETATM   33  C8  UNL     1      11.544  68.785  19.751  1.00  0.00     0.362 C 
BRANCH  33  34
HETATM   34  N4  UNL     1      11.387  68.430  21.121  1.00  0.00     0.019 N 
HETATM   35  C9  UNL     1      11.900  69.364  22.079  1.00  0.00     0.261 C 
HETATM   36  C10 UNL     1      12.228  68.533  23.331  1.00  0.00     0.036 C 
HETATM   37  C11 UNL     1      11.122  67.481  23.429  1.00  0.00     0.005 C 
HETATM   38  C12 UNL     1       9.811  68.066  22.926  1.00  0.00     0.036 C 
HETATM   39  C14 UNL     1      11.504  66.423  22.383  1.00  0.00     0.147 C 
HETATM   40  C13 UNL     1       9.976  68.247  21.416  1.00  0.00     0.261 C 
HETATM   41  N5  UNL     1      12.071  67.191  21.279  1.00  0.00    -0.046 NA
ENDBRANCH  33  34
ENDBRANCH  30  33
ENDBRANCH  28  29
ENDBRANCH  27  28
ENDBRANCH  26  27
ENDBRANCH  25  26
ENDBRANCH  24  25
ENDBRANCH   5  24
TORSDOF 8
ENDMDL
MODEL 5
REMARK VINA RESULT: -7.472203148      5.156      8.464
REMARK  8 active torsions:
REMARK  status: ('A' for Active; 'I' for Inactive)
REMARK       I    between atoms: C1_4  and  N2_5 
REMARK       I    between atoms: C1_4  and  N6_25 
REMARK    1  A    between atoms: N2_5  and  C2_7 
REMARK    2  A    between atoms: C2_7  and  C3_8 
REMARK    3  A    between atoms: C3_8  and  C4_9 
REMARK    4  A    between atoms: C4_9  and  C5_10 
REMARK    5  A    between atoms: C5_10  and  C6_11 
REMARK    6  A    between atoms: C6_11  and  N3_12 
REMARK       I    between atoms: N3_12  and  C7_14 
REMARK    7  A    between atoms: C7_14  and  C8_16 
REMARK    8  A    between atoms: C8_16  and  N4_17 
ROOT
HETATM    1  N1  UNL     1      15.417  66.282  27.199  1.00  0.00    -0.235 N 
ATOM      2  H11 UNL     1      15.757  66.069  26.261  1.00  0.00     0.174 HD
ATOM      3  H12 UNL     1      14.852  67.119  27.344  1.00  0.00     0.174 HD
HETATM    4  C1  UNL     1      15.723  65.475  28.143  1.00  0.00     0.670 C 
HETATM    5  N2  UNL     1      15.255  65.769  29.438  1.00  0.00    -0.227 N 
ATOM      6  H2  UNL     1      15.615  66.598  29.911  1.00  0.00     0.177 HD
HETATM    7  N6  UNL     1      16.500  64.324  27.944  1.00  0.00    -0.208 N 
HETATM    8  C15 UNL     1      15.893  63.127  27.425  1.00  0.00     0.161 C 
HETATM    9  C16 UNL     1      15.120  63.282  26.159  1.00  0.00     0.143 C 
HETATM   10  N7  UNL     1      15.890  63.564  24.982  1.00  0.00    -0.360 N 
ATOM     11  H7  UNL     1      16.084  64.549  24.797  1.00  0.00     0.162 HD
HETATM   12  C17 UNL     1      16.412  62.637  24.049  1.00  0.00     0.217 C 
HETATM   13  O2  UNL     1      16.122  62.783  22.806  1.00  0.00    -0.274 OA
HETATM   14  C18 UNL     1      17.284  61.488  24.378  1.00  0.00     0.103 C 
HETATM   15  C19 UNL     1      18.746  61.937  24.200  1.00  0.00     0.009 C 
HETATM   16  C20 UNL     1      19.476  61.929  25.515  1.00  0.00     0.002 C 
HETATM   17  C21 UNL     1      20.385  63.091  25.743  1.00  0.00     0.020 C 
HETATM   18  C22 UNL     1      19.783  64.441  25.565  1.00  0.00     0.122 C 
HETATM   19  N8  UNL     1      19.759  65.263  26.754  1.00  0.00    -0.360 N 
ATOM     20  H8  UNL     1      20.612  65.778  26.972  1.00  0.00     0.162 HD
HETATM   21  C23 UNL     1      18.677  65.427  27.645  1.00  0.00     0.236 C 
HETATM   22  O3  UNL     1      18.312  66.618  27.946  1.00  0.00    -0.272 OA
HETATM   23  C24 UNL     1      17.900  64.342  28.284  1.00  0.00     0.244 C 
ENDROOT
BRANCH   5  24
HETATM   24  C2  UNL     1      14.271  64.933  30.139  1.00  0.00     0.138 C 
BRANCH  24  25
HETATM   25  C3  UNL     1      14.796  64.442  31.432  1.00  0.00     0.020 C 
BRANCH  25  26
HETATM   26  C4  UNL     1      15.256  63.045  31.532  1.00  0.00     0.003 C 
BRANCH  26  27
HETATM   27  C5  UNL     1      15.200  62.300  32.790  1.00  0.00     0.020 C 
BRANCH  27  28
HETATM   28  C6  UNL     1      13.938  62.139  33.537  1.00  0.00     0.122 C 
BRANCH  28  29
HETATM   29  N3  UNL     1      12.804  61.681  32.795  1.00  0.00    -0.360 N 
HETATM   30  C7  UNL     1      11.704  62.540  32.456  1.00  0.00     0.245 C 
HETATM   31  O1  UNL     1      11.771  63.717  32.832  1.00  0.00    -0.272 OA
ATOM     32  H3  UNL     1      12.776  60.707  32.495  1.00  0.00     0.162 HD
BRANCH  30  33
HETATM   33  C8  UNL     1      10.554  62.043  31.697  1.00  0.00     0.362 C 
BRANCH  33  34
HETATM   34  N4  UNL     1      10.694  62.007  30.281  1.00  0.00     0.019 N 
HETATM   35  C9  UNL     1       9.844  61.087  29.584  1.00  0.00     0.261 C 
HETATM   36  C10 UNL     1      10.588  60.739  28.285  1.00  0.00     0.036 C 
HETATM   37  C11 UNL     1      11.264  62.035  27.837  1.00  0.00     0.005 C 
HETATM   38  C12 UNL     1      10.391  63.225  28.207  1.00  0.00     0.036 C 
HETATM   39  C14 UNL     1      12.497  62.159  28.745  1.00  0.00     0.147 C 
HETATM   40  C13 UNL     1      10.434  63.327  29.732  1.00  0.00     0.261 C 
HETATM   41  N5  UNL     1      12.050  61.649  30.037  1.00  0.00    -0.046 NA
ENDBRANCH  33  34
ENDBRANCH  30  33
ENDBRANCH  28  29
ENDBRANCH  27  28
ENDBRANCH  26  27
ENDBRANCH  25  26
ENDBRANCH  24  25
ENDBRANCH   5  24
TORSDOF 8
ENDMDL
