MODEL 1
REMARK VINA RESULT: -7.222330870      0.000      0.000
REMARK  9 active torsions:
REMARK  status: ('A' for Active; 'I' for Inactive)
REMARK    1  A    between atoms: C2_2  and  C4_4 
REMARK    2  A    between atoms: C4_4  and  C5_5 
REMARK    3  A    between atoms: C7_10  and  C8_11 
REMARK    4  A    between atoms: C8_11  and  C9_12 
REMARK    5  A    between atoms: C13_19  and  C14_20 
REMARK    6  A    between atoms: C14_20  and  C16_22 
REMARK    7  A    between atoms: C19_26  and  O3_27 
REMARK    8  A    between atoms: C21_31  and  C22_32 
REMARK    9  A    between atoms: C22_32  and  N5_33 
ROOT
HETATM    1  C5  UNL     1      18.599  63.694  27.257  1.00  0.00     0.180 C 
HETATM    2  N1  UNL     1      18.339  63.814  28.692  1.00  0.00    -0.346 N 
ATOM      3  H1  UNL     1      19.087  63.509  29.315  1.00  0.00     0.163 HD
HETATM    4  C6  UNL     1      17.180  64.299  29.304  1.00  0.00     0.241 C 
HETATM    5  O1  UNL     1      17.363  65.038  30.344  1.00  0.00    -0.271 OA
HETATM    6  C7  UNL     1      15.780  64.090  28.926  1.00  0.00     0.177 C 
HETATM    7  N2  UNL     1      15.312  65.377  28.373  1.00  0.00    -0.346 N 
ATOM      8  H2  UNL     1      15.146  66.143  29.025  1.00  0.00     0.163 HD
HETATM    9  C12 UNL     1      15.078  65.615  27.006  1.00  0.00     0.241 C 
HETATM   10  O2  UNL     1      15.502  66.690  26.521  1.00  0.00    -0.271 OA
HETATM   11  C13 UNL     1      14.368  64.702  26.074  1.00  0.00     0.183 C 
HETATM   12  N3  UNL     1      14.703  64.951  24.712  1.00  0.00    -0.338 N 
HETATM   13  C18 UNL     1      13.659  65.419  23.769  1.00  0.00     0.154 C 
HETATM   14  C19 UNL     1      16.003  64.796  24.117  1.00  0.00     0.219 C 
HETATM   15  N4  UNL     1      16.892  63.705  24.190  1.00  0.00    -0.329 N 
HETATM   16  C20 UNL     1      18.247  63.991  23.670  1.00  0.00     0.155 C 
HETATM   17  C21 UNL     1      16.680  62.382  24.656  1.00  0.00     0.207 C 
HETATM   18  N8  UNL     1      17.172  61.970  25.915  1.00  0.00    -0.336 N 
ATOM     19  H8  UNL     1      16.632  61.198  26.307  1.00  0.00     0.164 HD
HETATM   20  C24 UNL     1      18.202  62.357  26.741  1.00  0.00     0.242 C 
HETATM   21  O4  UNL     1      18.986  61.421  27.165  1.00  0.00    -0.271 OA
ENDROOT
BRANCH  17  22
HETATM   22  C22 UNL     1      17.155  61.412  23.550  1.00  0.00     0.169 C 
BRANCH  22  23
HETATM   23  N5  UNL     1      17.960  60.358  24.109  1.00  0.00    -0.363 N 
HETATM   24  C23 UNL     1      18.787  59.775  23.309  1.00  0.00     0.197 C 
HETATM   25  N6  UNL     1      18.935  60.119  21.938  1.00  0.00    -0.067 NA
HETATM   26  N7  UNL     1      19.593  58.734  23.827  1.00  0.00    -0.067 NA
ATOM     27  H5  UNL     1      17.881  60.086  25.089  1.00  0.00     0.161 HD
ENDBRANCH  22  23
ENDBRANCH  17  22
BRANCH  14  28
HETATM   28  O3  UNL     1      16.336  65.855  23.425  1.00  0.00    -0.332 OA
ATOM     29  H3  UNL     1      17.255  66.067  23.542  1.00  0.00     0.220 HD
ENDBRANCH  14  28
BRANCH   1  30
HETATM   30  C4  UNL     1      20.102  63.833  27.084  1.00  0.00     0.067 C 
BRANCH  30  31
HETATM   31  C2  UNL     1      20.472  65.088  26.446  1.00  0.00    -0.091 C 
HETATM   32  C1  UNL     1      19.704  66.123  26.307  1.00  0.00     0.014 C 
HETATM   33  C3  UNL     1      21.893  65.209  25.930  1.00  0.00     0.042 C 
ENDBRANCH  30  31
ENDBRANCH   1  30
BRANCH  11  34
HETATM   34  C14 UNL     1      12.931  64.714  26.472  1.00  0.00     0.013 C 
HETATM   35  C15 UNL     1      12.407  66.036  26.970  1.00  0.00     0.012 C 
BRANCH  34  36
HETATM   36  C16 UNL     1      12.421  63.508  27.179  1.00  0.00     0.002 C 
HETATM   37  C17 UNL     1      10.968  63.680  27.625  1.00  0.00     0.005 C 
ENDBRANCH  34  36
ENDBRANCH  11  34
BRANCH   6  38
HETATM   38  C8  UNL     1      14.831  63.768  30.043  1.00  0.00     0.038 C 
BRANCH  38  39
HETATM   39  C9  UNL     1      14.570  62.346  30.340  1.00  0.00    -0.020 C 
HETATM   40  C10 UNL     1      15.057  61.793  31.622  1.00  0.00     0.009 C 
HETATM   41  C11 UNL     1      13.040  62.141  30.304  1.00  0.00     0.009 C 
ENDBRANCH  38  39
ENDBRANCH   6  38
TORSDOF 9
ENDMDL
MODEL 2
REMARK VINA RESULT: -7.014867666      4.333      7.684
REMARK  9 active torsions:
REMARK  status: ('A' for Active; 'I' for Inactive)
REMARK    1  A    between atoms: C2_2  and  C4_4 
REMARK    2  A    between atoms: C4_4  and  C5_5 
REMARK    3  A    between atoms: C7_10  and  C8_11 
REMARK    4  A    between atoms: C8_11  and  C9_12 
REMARK    5  A    between atoms: C13_19  and  C14_20 
REMARK    6  A    between atoms: C14_20  and  C16_22 
REMARK    7  A    between atoms: C19_26  and  O3_27 
REMARK    8  A    between atoms: C21_31  and  C22_32 
REMARK    9  A    between atoms: C22_32  and  N5_33 
ROOT
HETATM    1  C5  UNL     1      16.304  66.273  19.916  1.00  0.00     0.180 C 
HETATM    2  N1  UNL     1      16.859  64.923  20.027  1.00  0.00    -0.346 N 
ATOM      3  H1  UNL     1      16.957  64.401  19.157  1.00  0.00     0.163 HD
HETATM    4  C6  UNL     1      17.269  64.271  21.194  1.00  0.00     0.241 C 
HETATM    5  O1  UNL     1      18.345  63.568  21.093  1.00  0.00    -0.271 OA
HETATM    6  C7  UNL     1      16.649  64.276  22.520  1.00  0.00     0.177 C 
HETATM    7  N2  UNL     1      17.531  65.093  23.378  1.00  0.00    -0.346 N 
ATOM      8  H2  UNL     1      18.423  64.690  23.664  1.00  0.00     0.163 HD
HETATM    9  C12 UNL     1      17.222  66.390  23.827  1.00  0.00     0.241 C 
HETATM   10  O2  UNL     1      18.125  67.258  23.766  1.00  0.00    -0.271 OA
HETATM   11  C13 UNL     1      15.913  66.833  24.372  1.00  0.00     0.183 C 
HETATM   12  N3  UNL     1      15.737  68.243  24.280  1.00  0.00    -0.338 N 
HETATM   13  C18 UNL     1      15.613  69.054  25.514  1.00  0.00     0.154 C 
HETATM   14  C19 UNL     1      15.664  69.010  23.065  1.00  0.00     0.219 C 
HETATM   15  N4  UNL     1      14.882  68.785  21.914  1.00  0.00    -0.329 N 
HETATM   16  C20 UNL     1      15.250  69.629  20.756  1.00  0.00     0.155 C 
HETATM   17  C21 UNL     1      13.793  67.901  21.708  1.00  0.00     0.207 C 
HETATM   18  N8  UNL     1      13.959  66.702  20.978  1.00  0.00    -0.336 N 
ATOM     19  H8  UNL     1      13.276  65.991  21.241  1.00  0.00     0.164 HD
HETATM   20  C24 UNL     1      14.820  66.261  19.999  1.00  0.00     0.242 C 
HETATM   21  O4  UNL     1      14.280  65.736  18.949  1.00  0.00    -0.271 OA
ENDROOT
BRANCH  17  22
HETATM   22  C22 UNL     1      12.622  68.726  21.124  1.00  0.00     0.169 C 
BRANCH  22  23
HETATM   23  N5  UNL     1      12.084  68.087  19.952  1.00  0.00    -0.363 N 
HETATM   24  C23 UNL     1      11.850  68.845  18.935  1.00  0.00     0.197 C 
HETATM   25  N6  UNL     1      12.096  70.245  18.922  1.00  0.00    -0.067 NA
HETATM   26  N7  UNL     1      11.321  68.249  17.767  1.00  0.00    -0.067 NA
ATOM     27  H5  UNL     1      11.897  67.084  19.926  1.00  0.00     0.161 HD
ENDBRANCH  22  23
ENDBRANCH  17  22
BRANCH  14  28
HETATM   28  O3  UNL     1      16.460  70.047  23.112  1.00  0.00    -0.332 OA
ATOM     29  H3  UNL     1      15.967  70.856  23.171  1.00  0.00     0.220 HD
ENDBRANCH  14  28
BRANCH   1  30
HETATM   30  C4  UNL     1      16.691  66.780  18.537  1.00  0.00     0.067 C 
BRANCH  30  31
HETATM   31  C2  UNL     1      17.921  67.556  18.557  1.00  0.00    -0.091 C 
HETATM   32  C1  UNL     1      19.105  67.095  18.811  1.00  0.00     0.014 C 
HETATM   33  C3  UNL     1      17.813  69.030  18.214  1.00  0.00     0.042 C 
ENDBRANCH  30  31
ENDBRANCH   1  30
BRANCH  11  34
HETATM   34  C14 UNL     1      15.758  66.177  25.702  1.00  0.00     0.013 C 
HETATM   35  C15 UNL     1      17.041  65.882  26.434  1.00  0.00     0.012 C 
BRANCH  34  36
HETATM   36  C16 UNL     1      14.693  65.143  25.820  1.00  0.00     0.002 C 
HETATM   37  C17 UNL     1      13.738  65.169  24.626  1.00  0.00     0.005 C 
ENDBRANCH  34  36
ENDBRANCH  11  34
BRANCH   6  38
HETATM   38  C8  UNL     1      16.543  62.947  23.209  1.00  0.00     0.038 C 
BRANCH  38  39
HETATM   39  C9  UNL     1      17.443  62.685  24.349  1.00  0.00    -0.020 C 
HETATM   40  C10 UNL     1      16.851  62.221  25.622  1.00  0.00     0.009 C 
HETATM   41  C11 UNL     1      18.458  61.613  23.898  1.00  0.00     0.009 C 
ENDBRANCH  38  39
ENDBRANCH   6  38
TORSDOF 9
ENDMDL
MODEL 3
REMARK VINA RESULT: -6.963521508      1.574      2.096
REMARK  9 active torsions:
REMARK  status: ('A' for Active; 'I' for Inactive)
REMARK    1  A    between atoms: C2_2  and  C4_4 
REMARK    2  A    between atoms: C4_4  and  C5_5 
REMARK    3  A    between atoms: C7_10  and  C8_11 
REMARK    4  A    between atoms: C8_11  and  C9_12 
REMARK    5  A    between atoms: C13_19  and  C14_20 
REMARK    6  A    between atoms: C14_20  and  C16_22 
REMARK    7  A    between atoms: C19_26  and  O3_27 
REMARK    8  A    between atoms: C21_31  and  C22_32 
REMARK    9  A    between atoms: C22_32  and  N5_33 
ROOT
HETATM    1  C5  UNL     1      17.782  64.409  28.197  1.00  0.00     0.180 C 
HETATM    2  N1  UNL     1      17.630  63.877  29.552  1.00  0.00    -0.346 N 
ATOM      3  H1  UNL     1      18.489  63.619  30.038  1.00  0.00     0.163 HD
HETATM    4  C6  UNL     1      16.437  63.683  30.254  1.00  0.00     0.241 C 
HETATM    5  O1  UNL     1      16.470  63.981  31.508  1.00  0.00    -0.271 OA
HETATM    6  C7  UNL     1      15.148  63.189  29.765  1.00  0.00     0.177 C 
HETATM    7  N2  UNL     1      14.247  64.360  29.740  1.00  0.00    -0.346 N 
ATOM      8  H2  UNL     1      13.907  64.717  30.633  1.00  0.00     0.163 HD
HETATM    9  C12 UNL     1      13.827  65.014  28.567  1.00  0.00     0.241 C 
HETATM   10  O2  UNL     1      13.843  66.267  28.562  1.00  0.00    -0.271 OA
HETATM   11  C13 UNL     1      13.361  64.351  27.322  1.00  0.00     0.183 C 
HETATM   12  N3  UNL     1      13.474  65.197  26.183  1.00  0.00    -0.338 N 
HETATM   13  C18 UNL     1      12.256  65.622  25.455  1.00  0.00     0.154 C 
HETATM   14  C19 UNL     1      14.697  65.717  25.631  1.00  0.00     0.219 C 
HETATM   15  N4  UNL     1      15.889  65.037  25.309  1.00  0.00    -0.329 N 
HETATM   16  C20 UNL     1      17.030  65.927  25.003  1.00  0.00     0.155 C 
HETATM   17  C21 UNL     1      16.150  63.647  25.210  1.00  0.00     0.207 C 
HETATM   18  N8  UNL     1      16.860  62.968  26.227  1.00  0.00    -0.336 N 
ATOM     19  H8  UNL     1      16.631  61.975  26.261  1.00  0.00     0.164 HD
HETATM   20  C24 UNL     1      17.784  63.323  27.182  1.00  0.00     0.242 C 
HETATM   21  O4  UNL     1      18.860  62.608  27.239  1.00  0.00    -0.271 OA
ENDROOT
BRANCH  17  22
HETATM   22  C22 UNL     1      16.806  63.389  23.834  1.00  0.00     0.169 C 
BRANCH  22  23
HETATM   23  N5  UNL     1      16.751  61.990  23.498  1.00  0.00    -0.363 N 
HETATM   24  C23 UNL     1      17.855  61.329  23.592  1.00  0.00     0.197 C 
HETATM   25  N6  UNL     1      19.088  61.905  24.001  1.00  0.00    -0.067 NA
HETATM   26  N7  UNL     1      17.836  59.952  23.269  1.00  0.00    -0.067 NA
ATOM     27  H5  UNL     1      15.884  61.544  23.202  1.00  0.00     0.161 HD
ENDBRANCH  22  23
ENDBRANCH  17  22
BRANCH  14  28
HETATM   28  O3  UNL     1      14.613  67.006  25.425  1.00  0.00    -0.332 OA
ATOM     29  H3  UNL     1      15.461  67.424  25.515  1.00  0.00     0.220 HD
ENDBRANCH  14  28
BRANCH   1  30
HETATM   30  C4  UNL     1      19.142  65.087  28.158  1.00  0.00     0.067 C 
BRANCH  30  31
HETATM   31  C2  UNL     1      19.036  66.532  28.024  1.00  0.00    -0.091 C 
HETATM   32  C1  UNL     1      18.126  67.279  28.567  1.00  0.00     0.014 C 
HETATM   33  C3  UNL     1      20.104  67.231  27.206  1.00  0.00     0.042 C 
ENDBRANCH  30  31
ENDBRANCH   1  30
BRANCH  11  34
HETATM   34  C14 UNL     1      12.037  63.738  27.631  1.00  0.00     0.013 C 
HETATM   35  C15 UNL     1      11.215  64.458  28.669  1.00  0.00     0.012 C 
BRANCH  34  36
HETATM   36  C16 UNL     1      11.980  62.252  27.677  1.00  0.00     0.002 C 
HETATM   37  C17 UNL     1      10.589  61.747  28.066  1.00  0.00     0.005 C 
ENDBRANCH  34  36
ENDBRANCH  11  34
BRANCH   6  38
HETATM   38  C8  UNL     1      14.455  62.172  30.624  1.00  0.00     0.038 C 
BRANCH  38  39
HETATM   39  C9  UNL     1      13.261  62.601  31.378  1.00  0.00    -0.020 C 
HETATM   40  C10 UNL     1      12.047  61.760  31.312  1.00  0.00     0.009 C 
HETATM   41  C11 UNL     1      13.667  62.705  32.864  1.00  0.00     0.009 C 
ENDBRANCH  38  39
ENDBRANCH   6  38
TORSDOF 9
ENDMDL
MODEL 4
REMARK VINA RESULT: -6.939919032      2.161      3.950
REMARK  9 active torsions:
REMARK  status: ('A' for Active; 'I' for Inactive)
REMARK    1  A    between atoms: C2_2  and  C4_4 
REMARK    2  A    between atoms: C4_4  and  C5_5 
REMARK    3  A    between atoms: C7_10  and  C8_11 
REMARK    4  A    between atoms: C8_11  and  C9_12 
REMARK    5  A    between atoms: C13_19  and  C14_20 
REMARK    6  A    between atoms: C14_20  and  C16_22 
REMARK    7  A    between atoms: C19_26  and  O3_27 
REMARK    8  A    between atoms: C21_31  and  C22_32 
REMARK    9  A    between atoms: C22_32  and  N5_33 
ROOT
HETATM    1  C5  UNL     1      16.251  65.791  29.418  1.00  0.00     0.180 C 
HETATM    2  N1  UNL     1      14.810  65.747  29.666  1.00  0.00    -0.346 N 
ATOM      3  H1  UNL     1      14.518  65.718  30.643  1.00  0.00     0.163 HD
HETATM    4  C6  UNL     1      13.788  65.738  28.711  1.00  0.00     0.241 C 
HETATM    5  O1  UNL     1      12.750  66.448  28.995  1.00  0.00    -0.271 OA
HETATM    6  C7  UNL     1      13.731  65.036  27.427  1.00  0.00     0.177 C 
HETATM    7  N2  UNL     1      13.880  66.076  26.389  1.00  0.00    -0.346 N 
ATOM      8  H2  UNL     1      13.090  66.698  26.221  1.00  0.00     0.163 HD
HETATM    9  C12 UNL     1      15.041  66.266  25.615  1.00  0.00     0.241 C 
HETATM   10  O2  UNL     1      15.446  67.440  25.451  1.00  0.00    -0.271 OA
HETATM   11  C13 UNL     1      15.839  65.192  24.970  1.00  0.00     0.183 C 
HETATM   12  N3  UNL     1      17.174  65.604  24.690  1.00  0.00    -0.338 N 
HETATM   13  C18 UNL     1      17.642  65.686  23.287  1.00  0.00     0.154 C 
HETATM   14  C19 UNL     1      18.169  65.971  25.663  1.00  0.00     0.219 C 
HETATM   15  N4  UNL     1      18.568  65.289  26.830  1.00  0.00    -0.329 N 
HETATM   16  C20 UNL     1      19.435  66.082  27.728  1.00  0.00     0.155 C 
HETATM   17  C21 UNL     1      18.290  63.965  27.256  1.00  0.00     0.207 C 
HETATM   18  N8  UNL     1      17.342  63.715  28.273  1.00  0.00    -0.336 N 
ATOM     19  H8  UNL     1      16.936  62.782  28.203  1.00  0.00     0.164 HD
HETATM   20  C24 UNL     1      16.833  64.425  29.336  1.00  0.00     0.242 C 
HETATM   21  O4  UNL     1      16.845  63.834  30.485  1.00  0.00    -0.271 OA
ENDROOT
BRANCH  17  22
HETATM   22  C22 UNL     1      19.637  63.290  27.600  1.00  0.00     0.169 C 
BRANCH  22  23
HETATM   23  N5  UNL     1      19.521  61.856  27.526  1.00  0.00    -0.363 N 
HETATM   24  C23 UNL     1      19.657  61.324  26.359  1.00  0.00     0.197 C 
HETATM   25  N6  UNL     1      19.910  62.071  25.176  1.00  0.00    -0.067 NA
HETATM   26  N7  UNL     1      19.549  59.918  26.251  1.00  0.00    -0.067 NA
ATOM     27  H5  UNL     1      19.342  61.290  28.355  1.00  0.00     0.161 HD
ENDBRANCH  22  23
ENDBRANCH  17  22
BRANCH  14  28
HETATM   28  O3  UNL     1      18.740  67.105  25.350  1.00  0.00    -0.332 OA
ATOM     29  H3  UNL     1      19.647  66.975  25.102  1.00  0.00     0.220 HD
ENDBRANCH  14  28
BRANCH   1  30
HETATM   30  C4  UNL     1      16.867  66.490  30.619  1.00  0.00     0.067 C 
BRANCH  30  31
HETATM   31  C2  UNL     1      17.384  67.808  30.288  1.00  0.00    -0.091 C 
HETATM   32  C1  UNL     1      18.252  68.478  30.980  1.00  0.00     0.014 C 
HETATM   33  C3  UNL     1      16.892  68.441  29.000  1.00  0.00     0.042 C 
ENDBRANCH  30  31
ENDBRANCH   1  30
BRANCH  11  34
HETATM   34  C14 UNL     1      15.009  64.650  23.857  1.00  0.00     0.013 C 
HETATM   35  C15 UNL     1      13.914  65.559  23.361  1.00  0.00     0.012 C 
BRANCH  34  36
HETATM   36  C16 UNL     1      14.670  63.202  23.916  1.00  0.00     0.002 C 
HETATM   37  C17 UNL     1      15.406  62.490  25.052  1.00  0.00     0.005 C 
ENDBRANCH  34  36
ENDBRANCH  11  34
BRANCH   6  38
HETATM   38  C8  UNL     1      12.442  64.337  27.108  1.00  0.00     0.038 C 
BRANCH  38  39
HETATM   39  C9  UNL     1      12.378  62.877  27.312  1.00  0.00    -0.020 C 
HETATM   40  C10 UNL     1      13.311  62.260  28.279  1.00  0.00     0.009 C 
HETATM   41  C11 UNL     1      10.946  62.538  27.776  1.00  0.00     0.009 C 
ENDBRANCH  38  39
ENDBRANCH   6  38
TORSDOF 9
ENDMDL
MODEL 5
REMARK VINA RESULT: -6.799296198      2.198      6.099
REMARK  9 active torsions:
REMARK  status: ('A' for Active; 'I' for Inactive)
REMARK    1  A    between atoms: C2_2  and  C4_4 
REMARK    2  A    between atoms: C4_4  and  C5_5 
REMARK    3  A    between atoms: C7_10  and  C8_11 
REMARK    4  A    between atoms: C8_11  and  C9_12 
REMARK    5  A    between atoms: C13_19  and  C14_20 
REMARK    6  A    between atoms: C14_20  and  C16_22 
REMARK    7  A    between atoms: C19_26  and  O3_27 
REMARK    8  A    between atoms: C21_31  and  C22_32 
REMARK    9  A    between atoms: C22_32  and  N5_33 
ROOT
HETATM    1  C5  UNL     1      14.320  65.208  26.922  1.00  0.00     0.180 C 
HETATM    2  N1  UNL     1      14.750  65.162  28.319  1.00  0.00    -0.346 N 
ATOM      3  H1  UNL     1      14.148  65.633  28.995  1.00  0.00     0.163 HD
HETATM    4  C6  UNL     1      15.895  64.545  28.831  1.00  0.00     0.241 C 
HETATM    5  O1  UNL     1      15.746  63.931  29.955  1.00  0.00    -0.271 OA
HETATM    6  C7  UNL     1      17.246  64.494  28.268  1.00  0.00     0.177 C 
HETATM    7  N2  UNL     1      17.436  63.108  27.793  1.00  0.00    -0.346 N 
ATOM      8  H2  UNL     1      17.571  62.379  28.494  1.00  0.00     0.163 HD
HETATM    9  C12 UNL     1      17.444  62.727  26.439  1.00  0.00     0.241 C 
HETATM   10  O2  UNL     1      16.801  61.700  26.119  1.00  0.00    -0.271 OA
HETATM   11  C13 UNL     1      18.151  63.435  25.341  1.00  0.00     0.183 C 
HETATM   12  N3  UNL     1      17.601  63.136  24.062  1.00  0.00    -0.338 N 
HETATM   13  C18 UNL     1      18.425  62.432  23.051  1.00  0.00     0.154 C 
HETATM   14  C19 UNL     1      16.270  63.452  23.616  1.00  0.00     0.219 C 
HETATM   15  N4  UNL     1      15.574  64.676  23.687  1.00  0.00    -0.329 N 
HETATM   16  C20 UNL     1      14.134  64.573  23.367  1.00  0.00     0.155 C 
HETATM   17  C21 UNL     1      16.044  65.979  23.989  1.00  0.00     0.207 C 
HETATM   18  N8  UNL     1      15.795  66.565  25.251  1.00  0.00    -0.336 N 
ATOM     19  H8  UNL     1      16.493  67.268  25.495  1.00  0.00     0.164 HD
HETATM   20  C24 UNL     1      14.840  66.417  26.230  1.00  0.00     0.242 C 
HETATM   21  O4  UNL     1      14.271  67.498  26.650  1.00  0.00    -0.271 OA
ENDROOT
BRANCH  17  22
HETATM   22  C22 UNL     1      15.575  66.922  22.857  1.00  0.00     0.169 C 
BRANCH  22  23
HETATM   23  N5  UNL     1      16.471  66.852  21.733  1.00  0.00    -0.363 N 
HETATM   24  C23 UNL     1      15.932  66.679  20.574  1.00  0.00     0.197 C 
HETATM   25  N6  UNL     1      14.531  66.559  20.365  1.00  0.00    -0.067 NA
HETATM   26  N7  UNL     1      16.784  66.606  19.447  1.00  0.00    -0.067 NA
ATOM     27  H5  UNL     1      17.481  66.936  21.846  1.00  0.00     0.161 HD
ENDBRANCH  22  23
ENDBRANCH  17  22
BRANCH  14  28
HETATM   28  O3  UNL     1      15.691  62.410  23.079  1.00  0.00    -0.332 OA
ATOM     29  H3  UNL     1      14.775  62.582  22.896  1.00  0.00     0.220 HD
ENDBRANCH  14  28
BRANCH   1  30
HETATM   30  C4  UNL     1      12.803  65.301  26.947  1.00  0.00     0.067 C 
BRANCH  30  31
HETATM   31  C2  UNL     1      12.175  64.023  27.246  1.00  0.00    -0.091 C 
HETATM   32  C1  UNL     1      12.750  62.863  27.186  1.00  0.00     0.014 C 
HETATM   33  C3  UNL     1      10.730  64.053  27.704  1.00  0.00     0.042 C 
ENDBRANCH  30  31
ENDBRANCH   1  30
BRANCH  11  34
HETATM   34  C14 UNL     1      19.610  63.222  25.561  1.00  0.00     0.013 C 
HETATM   35  C15 UNL     1      19.996  61.860  26.078  1.00  0.00     0.012 C 
BRANCH  34  36
HETATM   36  C16 UNL     1      20.379  64.368  26.120  1.00  0.00     0.002 C 
HETATM   37  C17 UNL     1      19.687  65.705  25.849  1.00  0.00     0.005 C 
ENDBRANCH  34  36
ENDBRANCH  11  34
BRANCH   6  38
HETATM   38  C8  UNL     1      18.375  64.746  29.224  1.00  0.00     0.038 C 
BRANCH  38  39
HETATM   39  C9  UNL     1      18.677  66.145  29.585  1.00  0.00    -0.020 C 
HETATM   40  C10 UNL     1      18.076  67.226  28.775  1.00  0.00     0.009 C 
HETATM   41  C11 UNL     1      18.216  66.354  31.044  1.00  0.00     0.009 C 
ENDBRANCH  38  39
ENDBRANCH   6  38
TORSDOF 9
ENDMDL
