MODEL 1
REMARK VINA RESULT: -7.292780619      0.000      0.000
REMARK  4 active torsions:
REMARK  status: ('A' for Active; 'I' for Inactive)
REMARK    1  A    between atoms: C2_2  and  S1_3 
REMARK    2  A    between atoms: S1_3  and  N1_6 
REMARK    3  A    between atoms: C10_14  and  N2_15 
REMARK       I    between atoms: N2_15  and  C12_17 
REMARK    4  A    between atoms: C12_17  and  C13_19 
ROOT
HETATM    1  N1  UNL     1      45.305  23.043  -5.846  1.00  0.00    -0.244 N 
HETATM    2  C3  UNL     1      44.534  21.943  -5.625  1.00  0.00     0.035 A 
HETATM    3  C4  UNL     1      45.163  20.880  -6.225  1.00  0.00    -0.024 A 
HETATM    4  C5  UNL     1      46.345  21.343  -6.824  1.00  0.00    -0.003 A 
HETATM    5  C6  UNL     1      46.394  22.700  -6.565  1.00  0.00     0.037 A 
HETATM    6  C7  UNL     1      47.533  23.507  -7.075  1.00  0.00     0.059 C 
HETATM    7  C8  UNL     1      47.942  22.926  -8.417  1.00  0.00     0.008 C 
HETATM    8  C9  UNL     1      48.342  21.501  -8.328  1.00  0.00     0.031 C 
HETATM    9  C10 UNL     1      47.398  20.620  -7.593  1.00  0.00     0.122 C 
HETATM   10  C19 UNL     1      44.614  19.499  -6.194  1.00  0.00     0.041 C 
HETATM   11  C20 UNL     1      43.254  19.450  -5.590  1.00  0.00     0.005 C 
HETATM   12  C21 UNL     1      42.467  20.735  -5.709  1.00  0.00     0.006 C 
HETATM   13  C22 UNL     1      43.247  21.781  -4.901  1.00  0.00     0.059 C 
ENDROOT
BRANCH   9  14
HETATM   14  N2  UNL     1      48.102  19.638  -6.765  1.00  0.00    -0.347 N 
HETATM   15  C11 UNL     1      48.983  20.122  -5.751  1.00  0.00     0.153 C 
HETATM   16  C12 UNL     1      47.913  18.241  -6.954  1.00  0.00     0.224 C 
HETATM   17  O3  UNL     1      47.104  17.867  -7.864  1.00  0.00    -0.273 OA
BRANCH  16  18
HETATM   18  C13 UNL     1      48.631  17.250  -6.120  1.00  0.00     0.078 C 
HETATM   19  C14 UNL     1      48.357  15.858  -6.707  1.00  0.00     0.014 C 
HETATM   20  C15 UNL     1      49.234  15.676  -7.903  1.00  0.00     0.001 C 
HETATM   21  C16 UNL     1      50.649  15.466  -7.407  1.00  0.00     0.000 C 
HETATM   22  C17 UNL     1      50.975  16.323  -6.231  1.00  0.00     0.001 C 
HETATM   23  C18 UNL     1      50.094  17.555  -6.122  1.00  0.00     0.014 C 
ENDBRANCH  16  18
ENDBRANCH   9  14
BRANCH   1  24
HETATM   24  S1  UNL     1      44.903  24.608  -5.266  1.00  0.00     0.258 S 
HETATM   25  O1  UNL     1      43.536  25.045  -5.673  1.00  0.00    -0.201 OA
HETATM   26  O2  UNL     1      45.886  25.627  -5.782  1.00  0.00    -0.201 OA
BRANCH  24  27
HETATM   27  C2  UNL     1      44.967  24.604  -3.512  1.00  0.00     0.122 C 
HETATM   28  C1  UNL     1      45.931  23.982  -2.878  1.00  0.00     0.025 C 
ENDBRANCH  24  27
ENDBRANCH   1  24
TORSDOF 4
ENDMDL
MODEL 2
REMARK VINA RESULT: -7.191479341      2.728      6.383
REMARK  4 active torsions:
REMARK  status: ('A' for Active; 'I' for Inactive)
REMARK    1  A    between atoms: C2_2  and  S1_3 
REMARK    2  A    between atoms: S1_3  and  N1_6 
REMARK    3  A    between atoms: C10_14  and  N2_15 
REMARK       I    between atoms: N2_15  and  C12_17 
REMARK    4  A    between atoms: C12_17  and  C13_19 
ROOT
HETATM    1  N1  UNL     1      46.827  22.224  -6.875  1.00  0.00    -0.244 N 
HETATM    2  C3  UNL     1      46.534  20.929  -7.176  1.00  0.00     0.035 A 
HETATM    3  C4  UNL     1      45.501  20.546  -6.357  1.00  0.00    -0.024 A 
HETATM    4  C5  UNL     1      45.156  21.633  -5.538  1.00  0.00    -0.003 A 
HETATM    5  C6  UNL     1      46.011  22.661  -5.894  1.00  0.00     0.037 A 
HETATM    6  C7  UNL     1      45.916  23.972  -5.201  1.00  0.00     0.059 C 
HETATM    7  C8  UNL     1      45.536  23.700  -3.756  1.00  0.00     0.008 C 
HETATM    8  C9  UNL     1      44.250  22.974  -3.626  1.00  0.00     0.031 C 
HETATM    9  C10 UNL     1      44.111  21.769  -4.484  1.00  0.00     0.122 C 
HETATM   10  C19 UNL     1      44.903  19.185  -6.397  1.00  0.00     0.041 C 
HETATM   11  C20 UNL     1      45.657  18.270  -7.298  1.00  0.00     0.005 C 
HETATM   12  C21 UNL     1      47.114  18.625  -7.478  1.00  0.00     0.006 C 
HETATM   13  C22 UNL     1      47.131  19.997  -8.166  1.00  0.00     0.059 C 
ENDROOT
BRANCH   9  14
HETATM   14  N2  UNL     1      42.760  21.648  -5.036  1.00  0.00    -0.347 N 
HETATM   15  C11 UNL     1      42.276  22.701  -5.869  1.00  0.00     0.153 C 
HETATM   16  C12 UNL     1      41.948  20.512  -4.762  1.00  0.00     0.224 C 
HETATM   17  O3  UNL     1      42.437  19.596  -4.024  1.00  0.00    -0.273 OA
BRANCH  16  18
HETATM   18  C13 UNL     1      40.580  20.394  -5.315  1.00  0.00     0.078 C 
HETATM   19  C14 UNL     1      40.662  19.542  -6.589  1.00  0.00     0.014 C 
HETATM   20  C15 UNL     1      40.758  18.107  -6.185  1.00  0.00     0.001 C 
HETATM   21  C16 UNL     1      39.395  17.678  -5.683  1.00  0.00     0.000 C 
HETATM   22  C17 UNL     1      38.717  18.746  -4.891  1.00  0.00     0.001 C 
HETATM   23  C18 UNL     1      39.680  19.761  -4.303  1.00  0.00     0.014 C 
ENDBRANCH  16  18
ENDBRANCH   9  14
BRANCH   1  24
HETATM   24  S1  UNL     1      48.060  23.119  -7.666  1.00  0.00     0.258 S 
HETATM   25  O1  UNL     1      49.156  22.257  -8.194  1.00  0.00    -0.201 OA
HETATM   26  O2  UNL     1      48.674  24.116  -6.718  1.00  0.00    -0.201 OA
BRANCH  24  27
HETATM   27  C2  UNL     1      47.360  23.989  -9.019  1.00  0.00     0.122 C 
HETATM   28  C1  UNL     1      46.077  24.256  -9.054  1.00  0.00     0.025 C 
ENDBRANCH  24  27
ENDBRANCH   1  24
TORSDOF 4
ENDMDL
MODEL 3
REMARK VINA RESULT: -7.106122162      2.983      6.574
REMARK  4 active torsions:
REMARK  status: ('A' for Active; 'I' for Inactive)
REMARK    1  A    between atoms: C2_2  and  S1_3 
REMARK    2  A    between atoms: S1_3  and  N1_6 
REMARK    3  A    between atoms: C10_14  and  N2_15 
REMARK       I    between atoms: N2_15  and  C12_17 
REMARK    4  A    between atoms: C12_17  and  C13_19 
ROOT
HETATM    1  N1  UNL     1      46.288  23.648  -7.618  1.00  0.00    -0.244 N 
HETATM    2  C3  UNL     1      46.848  22.460  -7.979  1.00  0.00     0.035 A 
HETATM    3  C4  UNL     1      46.358  21.504  -7.123  1.00  0.00    -0.024 A 
HETATM    4  C5  UNL     1      45.479  22.123  -6.221  1.00  0.00    -0.003 A 
HETATM    5  C6  UNL     1      45.465  23.463  -6.564  1.00  0.00     0.037 A 
HETATM    6  C7  UNL     1      44.628  24.415  -5.789  1.00  0.00     0.059 C 
HETATM    7  C8  UNL     1      44.628  23.952  -4.343  1.00  0.00     0.008 C 
HETATM    8  C9  UNL     1      44.099  22.577  -4.180  1.00  0.00     0.031 C 
HETATM    9  C10 UNL     1      44.674  21.561  -5.099  1.00  0.00     0.122 C 
HETATM   10  C19 UNL     1      46.746  20.072  -7.210  1.00  0.00     0.041 C 
HETATM   11  C20 UNL     1      47.828  19.844  -8.208  1.00  0.00     0.005 C 
HETATM   12  C21 UNL     1      48.718  21.040  -8.454  1.00  0.00     0.006 C 
HETATM   13  C22 UNL     1      47.811  22.122  -9.057  1.00  0.00     0.059 C 
ENDROOT
BRANCH   9  14
HETATM   14  N2  UNL     1      43.658  20.620  -5.575  1.00  0.00    -0.347 N 
HETATM   15  C11 UNL     1      44.070  19.292  -5.901  1.00  0.00     0.153 C 
HETATM   16  C12 UNL     1      42.295  21.006  -5.704  1.00  0.00     0.224 C 
HETATM   17  O3  UNL     1      41.981  22.198  -5.385  1.00  0.00    -0.273 OA
BRANCH  16  18
HETATM   18  C13 UNL     1      41.270  20.054  -6.191  1.00  0.00     0.078 C 
HETATM   19  C14 UNL     1      40.952  19.082  -5.047  1.00  0.00     0.014 C 
HETATM   20  C15 UNL     1      40.037  19.772  -4.089  1.00  0.00     0.001 C 
HETATM   21  C16 UNL     1      38.671  19.854  -4.736  1.00  0.00     0.000 C 
HETATM   22  C17 UNL     1      38.748  20.137  -6.199  1.00  0.00     0.001 C 
HETATM   23  C18 UNL     1      40.048  20.803  -6.613  1.00  0.00     0.014 C 
ENDBRANCH  16  18
ENDBRANCH   9  14
BRANCH   1  24
HETATM   24  S1  UNL     1      46.614  25.127  -8.426  1.00  0.00     0.258 S 
HETATM   25  O1  UNL     1      47.939  25.135  -9.111  1.00  0.00    -0.201 OA
HETATM   26  O2  UNL     1      46.593  26.273  -7.449  1.00  0.00    -0.201 OA
BRANCH  24  27
HETATM   27  C2  UNL     1      45.378  25.401  -9.641  1.00  0.00     0.122 C 
HETATM   28  C1  UNL     1      45.373  26.498 -10.358  1.00  0.00     0.025 C 
ENDBRANCH  24  27
ENDBRANCH   1  24
TORSDOF 4
ENDMDL
MODEL 4
REMARK VINA RESULT: -6.902256976      2.688      6.336
REMARK  4 active torsions:
REMARK  status: ('A' for Active; 'I' for Inactive)
REMARK    1  A    between atoms: C2_2  and  S1_3 
REMARK    2  A    between atoms: S1_3  and  N1_6 
REMARK    3  A    between atoms: C10_14  and  N2_15 
REMARK       I    between atoms: N2_15  and  C12_17 
REMARK    4  A    between atoms: C12_17  and  C13_19 
ROOT
HETATM    1  N1  UNL     1      46.874  22.180  -6.856  1.00  0.00    -0.244 N 
HETATM    2  C3  UNL     1      46.574  20.886  -7.157  1.00  0.00     0.035 A 
HETATM    3  C4  UNL     1      45.532  20.512  -6.345  1.00  0.00    -0.024 A 
HETATM    4  C5  UNL     1      45.188  21.603  -5.532  1.00  0.00    -0.003 A 
HETATM    5  C6  UNL     1      46.053  22.624  -5.882  1.00  0.00     0.037 A 
HETATM    6  C7  UNL     1      45.961  23.938  -5.193  1.00  0.00     0.059 C 
HETATM    7  C8  UNL     1      45.568  23.672  -3.751  1.00  0.00     0.008 C 
HETATM    8  C9  UNL     1      44.276  22.955  -3.630  1.00  0.00     0.031 C 
HETATM    9  C10 UNL     1      44.135  21.749  -4.486  1.00  0.00     0.122 C 
HETATM   10  C19 UNL     1      44.925  19.156  -6.387  1.00  0.00     0.041 C 
HETATM   11  C20 UNL     1      45.680  18.233  -7.280  1.00  0.00     0.005 C 
HETATM   12  C21 UNL     1      47.142  18.577  -7.449  1.00  0.00     0.006 C 
HETATM   13  C22 UNL     1      47.173  19.948  -8.139  1.00  0.00     0.059 C 
ENDROOT
BRANCH   9  14
HETATM   14  N2  UNL     1      42.788  21.635  -5.049  1.00  0.00    -0.347 N 
HETATM   15  C11 UNL     1      42.324  22.683  -5.902  1.00  0.00     0.153 C 
HETATM   16  C12 UNL     1      41.961  20.513  -4.767  1.00  0.00     0.224 C 
HETATM   17  O3  UNL     1      42.432  19.601  -4.012  1.00  0.00    -0.273 OA
BRANCH  16  18
HETATM   18  C13 UNL     1      40.596  20.403  -5.331  1.00  0.00     0.078 C 
HETATM   19  C14 UNL     1      40.676  19.516  -6.581  1.00  0.00     0.014 C 
HETATM   20  C15 UNL     1      40.744  18.091  -6.138  1.00  0.00     0.001 C 
HETATM   21  C16 UNL     1      39.369  17.699  -5.639  1.00  0.00     0.000 C 
HETATM   22  C17 UNL     1      38.701  18.798  -4.884  1.00  0.00     0.001 C 
HETATM   23  C18 UNL     1      39.676  19.813  -4.313  1.00  0.00     0.014 C 
ENDBRANCH  16  18
ENDBRANCH   9  14
BRANCH   1  24
HETATM   24  S1  UNL     1      48.120  23.065  -7.638  1.00  0.00     0.258 S 
HETATM   25  O1  UNL     1      48.038  24.533  -7.384  1.00  0.00    -0.201 OA
HETATM   26  O2  UNL     1      48.059  22.851  -9.128  1.00  0.00    -0.201 OA
BRANCH  24  27
HETATM   27  C2  UNL     1      49.676  22.503  -7.054  1.00  0.00     0.122 C 
HETATM   28  C1  UNL     1      49.823  22.103  -5.815  1.00  0.00     0.025 C 
ENDBRANCH  24  27
ENDBRANCH   1  24
TORSDOF 4
ENDMDL
MODEL 5
REMARK VINA RESULT: -6.858549844      6.302      9.430
REMARK  4 active torsions:
REMARK  status: ('A' for Active; 'I' for Inactive)
REMARK    1  A    between atoms: C2_2  and  S1_3 
REMARK    2  A    between atoms: S1_3  and  N1_6 
REMARK    3  A    between atoms: C10_14  and  N2_15 
REMARK       I    between atoms: N2_15  and  C12_17 
REMARK    4  A    between atoms: C12_17  and  C13_19 
ROOT
HETATM    1  N1  UNL     1      48.231  27.387 -13.766  1.00  0.00    -0.244 N 
HETATM    2  C3  UNL     1      48.837  26.238 -13.356  1.00  0.00     0.035 A 
HETATM    3  C4  UNL     1      48.605  26.116 -12.008  1.00  0.00    -0.024 A 
HETATM    4  C5  UNL     1      47.840  27.215 -11.587  1.00  0.00    -0.003 A 
HETATM    5  C6  UNL     1      47.630  27.986 -12.716  1.00  0.00     0.037 A 
HETATM    6  C7  UNL     1      46.850  29.246 -12.615  1.00  0.00     0.059 C 
HETATM    7  C8  UNL     1      47.152  29.864 -11.260  1.00  0.00     0.008 C 
HETATM    8  C9  UNL     1      46.803  28.970 -10.131  1.00  0.00     0.031 C 
HETATM    9  C10 UNL     1      47.307  27.577 -10.243  1.00  0.00     0.122 C 
HETATM   10  C19 UNL     1      49.115  24.975 -11.204  1.00  0.00     0.041 C 
HETATM   11  C20 UNL     1      50.022  24.095 -11.993  1.00  0.00     0.005 C 
HETATM   12  C21 UNL     1      50.728  24.785 -13.137  1.00  0.00     0.006 C 
HETATM   13  C22 UNL     1      49.624  25.227 -14.107  1.00  0.00     0.059 C 
ENDROOT
BRANCH   9  14
HETATM   14  N2  UNL     1      46.324  26.602  -9.765  1.00  0.00    -0.347 N 
HETATM   15  C11 UNL     1      45.080  26.506 -10.459  1.00  0.00     0.153 C 
HETATM   16  C12 UNL     1      46.596  25.764  -8.648  1.00  0.00     0.224 C 
HETATM   17  O3  UNL     1      47.728  25.883  -8.077  1.00  0.00    -0.273 OA
BRANCH  16  18
HETATM   18  C13 UNL     1      45.597  24.784  -8.162  1.00  0.00     0.078 C 
HETATM   19  C14 UNL     1      45.790  23.486  -8.959  1.00  0.00     0.014 C 
HETATM   20  C15 UNL     1      46.965  22.760  -8.390  1.00  0.00     0.001 C 
HETATM   21  C16 UNL     1      46.546  22.177  -7.058  1.00  0.00     0.000 C 
HETATM   22  C17 UNL     1      45.654  23.094  -6.289  1.00  0.00     0.001 C 
HETATM   23  C18 UNL     1      45.792  24.550  -6.700  1.00  0.00     0.014 C 
ENDBRANCH  16  18
ENDBRANCH   9  14
BRANCH   1  24
HETATM   24  S1  UNL     1      48.257  27.938 -15.392  1.00  0.00     0.258 S 
HETATM   25  O1  UNL     1      49.473  27.497 -16.135  1.00  0.00    -0.201 OA
HETATM   26  O2  UNL     1      48.210  29.443 -15.436  1.00  0.00    -0.201 OA
BRANCH  24  27
HETATM   27  C2  UNL     1      46.853  27.307 -16.234  1.00  0.00     0.122 C 
HETATM   28  C1  UNL     1      46.494  26.054 -16.095  1.00  0.00     0.025 C 
ENDBRANCH  24  27
ENDBRANCH   1  24
TORSDOF 4
ENDMDL
