MODEL 1
REMARK VINA RESULT: -7.668225287      0.000      0.000
REMARK  5 active torsions:
REMARK  status: ('A' for Active; 'I' for Inactive)
REMARK    1  A    between atoms: C3_3  and  C4_4 
REMARK    2  A    between atoms: C4_4  and  C5_5 
REMARK    3  A    between atoms: C5_5  and  C6_7 
REMARK    4  A    between atoms: C14_16  and  C15_17 
REMARK    5  A    between atoms: C15_17  and  O4_19 
ROOT
HETATM    1  C6  UNL     1      45.924  21.788  -5.704  1.00  0.00     0.133 C 
HETATM    2  C7  UNL     1      45.911  20.986  -6.978  1.00  0.00     0.139 C 
HETATM    3  O2  UNL     1      46.163  21.333  -8.090  1.00  0.00    -0.297 OA
HETATM    4  C8  UNL     1      45.489  19.644  -6.429  1.00  0.00     0.084 C 
HETATM    5  C9  UNL     1      44.378  20.066  -5.491  1.00  0.00     0.006 C 
HETATM    6  C10 UNL     1      43.018  19.752  -6.083  1.00  0.00    -0.004 C 
HETATM    7  C11 UNL     1      42.825  18.276  -6.256  1.00  0.00     0.006 C 
HETATM    8  C12 UNL     1      41.399  18.052  -6.770  1.00  0.00     0.007 C 
HETATM    9  C13 UNL     1      40.481  18.436  -5.672  1.00  0.00     0.008 C 
HETATM   10  C14 UNL     1      39.031  18.237  -5.976  1.00  0.00     0.090 C 
HETATM   11  C17 UNL     1      38.483  19.629  -6.329  1.00  0.00     0.016 C 
HETATM   12  C18 UNL     1      39.708  20.548  -6.333  1.00  0.00     0.011 C 
HETATM   13  C19 UNL     1      40.619  19.897  -5.336  1.00  0.00    -0.036 C 
HETATM   14  C20 UNL     1      39.946  20.090  -3.968  1.00  0.00     0.016 C 
HETATM   15  C21 UNL     1      41.992  20.426  -5.262  1.00  0.00    -0.002 C 
HETATM   16  C22 UNL     1      42.083  21.905  -5.590  1.00  0.00     0.006 C 
HETATM   17  C23 UNL     1      43.474  22.323  -6.031  1.00  0.00     0.011 C 
HETATM   18  C24 UNL     1      44.508  21.574  -5.268  1.00  0.00    -0.022 C 
HETATM   19  C25 UNL     1      44.408  21.949  -3.807  1.00  0.00     0.016 C 
ENDROOT
BRANCH   1  20
HETATM   20  C5  UNL     1      46.486  23.092  -5.761  1.00  0.00     0.142 C 
HETATM   21  O1  UNL     1      47.655  23.331  -5.493  1.00  0.00    -0.297 OA
BRANCH  20  22
HETATM   22  C4  UNL     1      45.662  24.259  -6.159  1.00  0.00     0.106 C 
BRANCH  22  23
HETATM   23  C3  UNL     1      46.169  24.936  -7.376  1.00  0.00    -0.024 C 
HETATM   24  C2  UNL     1      45.559  24.789  -8.569  1.00  0.00    -0.035 C 
HETATM   25  C1  UNL     1      46.083  25.472  -9.756  1.00  0.00     0.036 C 
ENDBRANCH  22  23
ENDBRANCH  20  22
ENDBRANCH   1  20
BRANCH  10  26
HETATM   26  C15 UNL     1      38.696  17.334  -7.073  1.00  0.00     0.263 C 
HETATM   27  O3  UNL     1      38.760  16.095  -6.999  1.00  0.00    -0.265 OA
BRANCH  26  28
HETATM   28  O4  UNL     1      38.271  17.844  -8.311  1.00  0.00    -0.326 OA
HETATM   29  C16 UNL     1      39.151  17.774  -9.439  1.00  0.00     0.213 C 
ENDBRANCH  26  28
ENDBRANCH  10  26
TORSDOF 5
ENDMDL
MODEL 2
REMARK VINA RESULT: -7.547236745      2.121      7.571
REMARK  5 active torsions:
REMARK  status: ('A' for Active; 'I' for Inactive)
REMARK    1  A    between atoms: C3_3  and  C4_4 
REMARK    2  A    between atoms: C4_4  and  C5_5 
REMARK    3  A    between atoms: C5_5  and  C6_7 
REMARK    4  A    between atoms: C14_16  and  C15_17 
REMARK    5  A    between atoms: C15_17  and  O4_19 
ROOT
HETATM    1  C6  UNL     1      40.247  19.374  -5.422  1.00  0.00     0.133 C 
HETATM    2  C7  UNL     1      41.108  18.439  -4.617  1.00  0.00     0.139 C 
HETATM    3  O2  UNL     1      41.043  18.163  -3.459  1.00  0.00    -0.297 OA
HETATM    4  C8  UNL     1      42.055  17.970  -5.697  1.00  0.00     0.084 C 
HETATM    5  C9  UNL     1      42.362  19.285  -6.383  1.00  0.00     0.006 C 
HETATM    6  C10 UNL     1      43.744  19.783  -6.008  1.00  0.00    -0.004 C 
HETATM    7  C11 UNL     1      44.811  18.848  -6.489  1.00  0.00     0.006 C 
HETATM    8  C12 UNL     1      46.166  19.476  -6.148  1.00  0.00     0.007 C 
HETATM    9  C13 UNL     1      46.305  20.687  -6.991  1.00  0.00     0.008 C 
HETATM   10  C14 UNL     1      47.600  21.414  -6.829  1.00  0.00     0.090 C 
HETATM   11  C17 UNL     1      47.294  22.617  -5.923  1.00  0.00     0.016 C 
HETATM   12  C18 UNL     1      45.833  22.435  -5.502  1.00  0.00     0.011 C 
HETATM   13  C19 UNL     1      45.238  21.699  -6.665  1.00  0.00    -0.036 C 
HETATM   14  C20 UNL     1      45.225  22.701  -7.830  1.00  0.00     0.016 C 
HETATM   15  C21 UNL     1      43.873  21.177  -6.480  1.00  0.00    -0.002 C 
HETATM   16  C22 UNL     1      43.029  22.026  -5.547  1.00  0.00     0.006 C 
HETATM   17  C23 UNL     1      41.868  21.256  -4.943  1.00  0.00     0.011 C 
HETATM   18  C24 UNL     1      41.308  20.299  -5.934  1.00  0.00    -0.022 C 
HETATM   19  C25 UNL     1      40.729  21.076  -7.095  1.00  0.00     0.016 C 
ENDROOT
BRANCH   1  20
HETATM   20  C5  UNL     1      39.073  19.877  -4.801  1.00  0.00     0.142 C 
HETATM   21  O1  UNL     1      39.059  20.885  -4.109  1.00  0.00    -0.297 OA
BRANCH  20  22
HETATM   22  C4  UNL     1      37.770  19.187  -4.964  1.00  0.00     0.106 C 
BRANCH  22  23
HETATM   23  C3  UNL     1      37.896  17.859  -5.611  1.00  0.00    -0.024 C 
HETATM   24  C2  UNL     1      38.326  17.734  -6.882  1.00  0.00    -0.035 C 
HETATM   25  C1  UNL     1      38.442  16.407  -7.495  1.00  0.00     0.036 C 
ENDBRANCH  22  23
ENDBRANCH  20  22
ENDBRANCH   1  20
BRANCH  10  26
HETATM   26  C15 UNL     1      48.710  20.676  -6.232  1.00  0.00     0.263 C 
HETATM   27  O3  UNL     1      49.060  20.785  -5.045  1.00  0.00    -0.265 OA
BRANCH  26  28
HETATM   28  O4  UNL     1      49.463  19.774  -7.004  1.00  0.00    -0.326 OA
HETATM   29  C16 UNL     1      49.710  20.067  -8.384  1.00  0.00     0.213 C 
ENDBRANCH  26  28
ENDBRANCH  10  26
TORSDOF 5
ENDMDL
MODEL 3
REMARK VINA RESULT: -7.353210749      1.270      2.182
REMARK  5 active torsions:
REMARK  status: ('A' for Active; 'I' for Inactive)
REMARK    1  A    between atoms: C3_3  and  C4_4 
REMARK    2  A    between atoms: C4_4  and  C5_5 
REMARK    3  A    between atoms: C5_5  and  C6_7 
REMARK    4  A    between atoms: C14_16  and  C15_17 
REMARK    5  A    between atoms: C15_17  and  O4_19 
ROOT
HETATM    1  C6  UNL     1      45.874  21.814  -5.645  1.00  0.00     0.133 C 
HETATM    2  C7  UNL     1      45.873  21.031  -6.930  1.00  0.00     0.139 C 
HETATM    3  O2  UNL     1      46.125  21.397  -8.036  1.00  0.00    -0.297 OA
HETATM    4  C8  UNL     1      45.466  19.676  -6.402  1.00  0.00     0.084 C 
HETATM    5  C9  UNL     1      44.347  20.071  -5.461  1.00  0.00     0.006 C 
HETATM    6  C10 UNL     1      42.993  19.750  -6.062  1.00  0.00    -0.004 C 
HETATM    7  C11 UNL     1      42.817  18.275  -6.257  1.00  0.00     0.006 C 
HETATM    8  C12 UNL     1      41.396  18.041  -6.779  1.00  0.00     0.007 C 
HETATM    9  C13 UNL     1      40.469  18.398  -5.678  1.00  0.00     0.008 C 
HETATM   10  C14 UNL     1      39.023  18.187  -5.989  1.00  0.00     0.090 C 
HETATM   11  C17 UNL     1      38.460  19.578  -6.324  1.00  0.00     0.016 C 
HETATM   12  C18 UNL     1      39.674  20.511  -6.311  1.00  0.00     0.011 C 
HETATM   13  C19 UNL     1      40.590  19.857  -5.321  1.00  0.00    -0.036 C 
HETATM   14  C20 UNL     1      39.910  20.021  -3.952  1.00  0.00     0.016 C 
HETATM   15  C21 UNL     1      41.956  20.400  -5.234  1.00  0.00    -0.002 C 
HETATM   16  C22 UNL     1      42.031  21.885  -5.541  1.00  0.00     0.006 C 
HETATM   17  C23 UNL     1      43.418  22.325  -5.971  1.00  0.00     0.011 C 
HETATM   18  C24 UNL     1      44.459  21.577  -5.216  1.00  0.00    -0.022 C 
HETATM   19  C25 UNL     1      44.350  21.930  -3.750  1.00  0.00     0.016 C 
ENDROOT
BRANCH   1  20
HETATM   20  C5  UNL     1      46.420  23.125  -5.681  1.00  0.00     0.142 C 
HETATM   21  O1  UNL     1      45.882  24.060  -6.257  1.00  0.00    -0.297 OA
BRANCH  20  22
HETATM   22  C4  UNL     1      47.704  23.434  -5.005  1.00  0.00     0.106 C 
BRANCH  22  23
HETATM   23  C3  UNL     1      47.612  23.358  -3.527  1.00  0.00    -0.024 C 
HETATM   24  C2  UNL     1      46.961  24.298  -2.814  1.00  0.00    -0.035 C 
HETATM   25  C1  UNL     1      46.885  24.196  -1.353  1.00  0.00     0.036 C 
ENDBRANCH  22  23
ENDBRANCH  20  22
ENDBRANCH   1  20
BRANCH  10  26
HETATM   26  C15 UNL     1      38.702  17.296  -7.100  1.00  0.00     0.263 C 
HETATM   27  O3  UNL     1      38.782  16.057  -7.045  1.00  0.00    -0.265 OA
BRANCH  26  28
HETATM   28  O4  UNL     1      38.273  17.819  -8.332  1.00  0.00    -0.326 OA
HETATM   29  C16 UNL     1      39.170  17.815  -9.448  1.00  0.00     0.213 C 
ENDBRANCH  26  28
ENDBRANCH  10  26
TORSDOF 5
ENDMDL
MODEL 4
REMARK VINA RESULT: -7.156490068      3.516      9.844
REMARK  5 active torsions:
REMARK  status: ('A' for Active; 'I' for Inactive)
REMARK    1  A    between atoms: C3_3  and  C4_4 
REMARK    2  A    between atoms: C4_4  and  C5_5 
REMARK    3  A    between atoms: C5_5  and  C6_7 
REMARK    4  A    between atoms: C14_16  and  C15_17 
REMARK    5  A    between atoms: C15_17  and  O4_19 
ROOT
HETATM    1  C6  UNL     1      46.644  22.936  -6.194  1.00  0.00     0.133 C 
HETATM    2  C7  UNL     1      46.465  24.132  -5.299  1.00  0.00     0.139 C 
HETATM    3  O2  UNL     1      45.581  24.380  -4.539  1.00  0.00    -0.297 OA
HETATM    4  C8  UNL     1      47.715  24.903  -5.652  1.00  0.00     0.084 C 
HETATM    5  C9  UNL     1      47.710  24.761  -7.160  1.00  0.00     0.006 C 
HETATM    6  C10 UNL     1      47.264  26.049  -7.825  1.00  0.00    -0.004 C 
HETATM    7  C11 UNL     1      48.226  27.165  -7.555  1.00  0.00     0.006 C 
HETATM    8  C12 UNL     1      47.745  28.392  -8.337  1.00  0.00     0.007 C 
HETATM    9  C13 UNL     1      47.912  28.078  -9.776  1.00  0.00     0.008 C 
HETATM   10  C14 UNL     1      47.535  29.188 -10.703  1.00  0.00     0.090 C 
HETATM   11  C17 UNL     1      46.139  28.829 -11.238  1.00  0.00     0.016 C 
HETATM   12  C18 UNL     1      45.732  27.568 -10.470  1.00  0.00     0.011 C 
HETATM   13  C19 UNL     1      47.048  26.912 -10.180  1.00  0.00    -0.036 C 
HETATM   14  C20 UNL     1      47.583  26.431 -11.537  1.00  0.00     0.016 C 
HETATM   15  C21 UNL     1      47.018  25.767  -9.254  1.00  0.00    -0.002 C 
HETATM   16  C22 UNL     1      45.722  24.979  -9.319  1.00  0.00     0.006 C 
HETATM   17  C23 UNL     1      45.464  24.171  -8.059  1.00  0.00     0.011 C 
HETATM   18  C24 UNL     1      46.740  23.634  -7.516  1.00  0.00    -0.022 C 
HETATM   19  C25 UNL     1      47.329  22.663  -8.514  1.00  0.00     0.016 C 
ENDROOT
BRANCH   1  20
HETATM   20  C5  UNL     1      45.758  21.842  -6.005  1.00  0.00     0.142 C 
HETATM   21  O1  UNL     1      46.124  20.742  -5.617  1.00  0.00    -0.297 OA
BRANCH  20  22
HETATM   22  C4  UNL     1      44.306  21.982  -6.274  1.00  0.00     0.106 C 
BRANCH  22  23
HETATM   23  C3  UNL     1      43.526  20.786  -5.875  1.00  0.00    -0.024 C 
HETATM   24  C2  UNL     1      42.884  20.729  -4.691  1.00  0.00    -0.035 C 
HETATM   25  C1  UNL     1      42.118  19.533  -4.323  1.00  0.00     0.036 C 
ENDBRANCH  22  23
ENDBRANCH  20  22
ENDBRANCH   1  20
BRANCH  10  26
HETATM   26  C15 UNL     1      47.465  30.533 -10.140  1.00  0.00     0.263 C 
HETATM   27  O3  UNL     1      46.414  31.073  -9.753  1.00  0.00    -0.265 OA
BRANCH  26  28
HETATM   28  O4  UNL     1      48.628  31.311 -10.007  1.00  0.00    -0.326 OA
HETATM   29  C16 UNL     1      49.632  31.255 -11.027  1.00  0.00     0.213 C 
ENDBRANCH  26  28
ENDBRANCH  10  26
TORSDOF 5
ENDMDL
MODEL 5
REMARK VINA RESULT: -7.139963661      2.440      7.690
REMARK  5 active torsions:
REMARK  status: ('A' for Active; 'I' for Inactive)
REMARK    1  A    between atoms: C3_3  and  C4_4 
REMARK    2  A    between atoms: C4_4  and  C5_5 
REMARK    3  A    between atoms: C5_5  and  C6_7 
REMARK    4  A    between atoms: C14_16  and  C15_17 
REMARK    5  A    between atoms: C15_17  and  O4_19 
ROOT
HETATM    1  C6  UNL     1      40.633  19.505  -5.183  1.00  0.00     0.133 C 
HETATM    2  C7  UNL     1      41.382  18.278  -4.736  1.00  0.00     0.139 C 
HETATM    3  O2  UNL     1      41.384  17.742  -3.671  1.00  0.00    -0.297 OA
HETATM    4  C8  UNL     1      42.111  17.946  -6.016  1.00  0.00     0.084 C 
HETATM    5  C9  UNL     1      42.586  19.323  -6.429  1.00  0.00     0.006 C 
HETATM    6  C10 UNL     1      44.067  19.493  -6.152  1.00  0.00    -0.004 C 
HETATM    7  C11 UNL     1      44.888  18.549  -6.976  1.00  0.00     0.006 C 
HETATM    8  C12 UNL     1      46.364  18.854  -6.699  1.00  0.00     0.007 C 
HETATM    9  C13 UNL     1      46.638  20.198  -7.263  1.00  0.00     0.008 C 
HETATM   10  C14 UNL     1      48.056  20.651  -7.128  1.00  0.00     0.090 C 
HETATM   11  C17 UNL     1      48.071  21.629  -5.942  1.00  0.00     0.016 C 
HETATM   12  C18 UNL     1      46.652  21.581  -5.369  1.00  0.00     0.011 C 
HETATM   13  C19 UNL     1      45.817  21.254  -6.570  1.00  0.00    -0.036 C 
HETATM   14  C20 UNL     1      45.872  22.499  -7.469  1.00  0.00     0.016 C 
HETATM   15  C21 UNL     1      44.405  20.922  -6.315  1.00  0.00    -0.002 C 
HETATM   16  C22 UNL     1      43.831  21.639  -5.106  1.00  0.00     0.006 C 
HETATM   17  C23 UNL     1      42.614  20.936  -4.531  1.00  0.00     0.011 C 
HETATM   18  C24 UNL     1      41.789  20.349  -5.621  1.00  0.00    -0.022 C 
HETATM   19  C25 UNL     1      41.250  21.467  -6.484  1.00  0.00     0.016 C 
ENDROOT
BRANCH   1  20
HETATM   20  C5  UNL     1      39.641  20.018  -4.305  1.00  0.00     0.142 C 
HETATM   21  O1  UNL     1      39.853  20.271  -3.127  1.00  0.00    -0.297 OA
BRANCH  20  22
HETATM   22  C4  UNL     1      38.262  20.280  -4.784  1.00  0.00     0.106 C 
BRANCH  22  23
HETATM   23  C3  UNL     1      37.804  19.297  -5.794  1.00  0.00    -0.024 C 
HETATM   24  C2  UNL     1      36.994  18.272  -5.462  1.00  0.00    -0.035 C 
HETATM   25  C1  UNL     1      36.557  17.315  -6.483  1.00  0.00     0.036 C 
ENDBRANCH  22  23
ENDBRANCH  20  22
ENDBRANCH   1  20
BRANCH  10  26
HETATM   26  C15 UNL     1      49.064  19.626  -6.874  1.00  0.00     0.263 C 
HETATM   27  O3  UNL     1      49.519  18.865  -7.746  1.00  0.00    -0.265 OA
BRANCH  26  28
HETATM   28  O4  UNL     1      49.585  19.444  -5.582  1.00  0.00    -0.326 OA
HETATM   29  C16 UNL     1      51.002  19.504  -5.381  1.00  0.00     0.213 C 
ENDBRANCH  26  28
ENDBRANCH  10  26
TORSDOF 5
ENDMDL
