MODEL 1
REMARK VINA RESULT: -7.001563087      0.000      0.000
REMARK  5 active torsions:
REMARK  status: ('A' for Active; 'I' for Inactive)
REMARK    1  A    between atoms: O1_2  and  C2_3 
REMARK    2  A    between atoms: C2_3  and  C3_5 
REMARK    3  A    between atoms: C9_11  and  C10_12 
REMARK    4  A    between atoms: C10_12  and  C11_13 
REMARK       I    between atoms: C11_13  and  N1_15 
REMARK    5  A    between atoms: N1_15  and  C13_17 
ROOT
HETATM    1  C3  UNL     1      47.652  25.294  -9.065  1.00  0.00     0.112 C 
HETATM    2  C4  UNL     1      47.745  23.934  -9.693  1.00  0.00     0.028 C 
HETATM    3  C5  UNL     1      47.474  22.845  -8.641  1.00  0.00     0.007 C 
HETATM    4  C6  UNL     1      46.193  23.122  -7.882  1.00  0.00    -0.006 C 
HETATM    5  C7  UNL     1      45.809  21.968  -7.063  1.00  0.00    -0.009 C 
HETATM    6  C8  UNL     1      46.877  21.083  -6.539  1.00  0.00     0.011 C 
HETATM    7  C9  UNL     1      44.737  22.350  -6.034  1.00  0.00     0.006 C 
HETATM    8  C16 UNL     1      45.162  23.463  -5.130  1.00  0.00    -0.043 C 
HETATM    9  C17 UNL     1      45.466  23.084  -3.720  1.00  0.00     0.015 C 
HETATM   10  C18 UNL     1      44.042  24.513  -5.081  1.00  0.00     0.015 C 
HETATM   11  C19 UNL     1      46.371  24.215  -5.650  1.00  0.00     0.014 C 
HETATM   12  C20 UNL     1      46.278  24.435  -7.144  1.00  0.00    -0.004 C 
HETATM   13  C21 UNL     1      47.500  25.138  -7.579  1.00  0.00     0.016 C 
HETATM   14  C22 UNL     1      47.713  26.527  -7.082  1.00  0.00     0.014 C 
HETATM   15  C23 UNL     1      48.869  27.011  -7.964  1.00  0.00     0.080 C 
HETATM   16  C24 UNL     1      48.923  26.068  -9.111  1.00  0.00     0.145 C 
HETATM   17  O4  UNL     1      49.816  25.969  -9.896  1.00  0.00    -0.297 OA
ENDROOT
BRANCH   7  18
HETATM   18  C10 UNL     1      44.335  21.076  -5.389  1.00  0.00     0.108 C 
BRANCH  18  19
HETATM   19  C11 UNL     1      42.931  20.802  -5.131  1.00  0.00     0.220 C 
HETATM   20  O3  UNL     1      42.165  21.631  -4.609  1.00  0.00    -0.273 OA
HETATM   21  N1  UNL     1      42.424  19.516  -5.501  1.00  0.00    -0.352 N 
HETATM   22  C12 UNL     1      43.322  18.563  -6.102  1.00  0.00     0.153 C 
BRANCH  21  23
HETATM   23  C13 UNL     1      41.062  19.144  -5.297  1.00  0.00     0.078 C 
HETATM   24  C14 UNL     1      40.563  18.127  -6.293  1.00  0.00     0.032 C 
HETATM   25  C15 UNL     1      40.838  18.568  -3.903  1.00  0.00     0.032 C 
ENDBRANCH  21  23
ENDBRANCH  18  19
ENDBRANCH   7  18
BRANCH   1  26
HETATM   26  C2  UNL     1      46.620  26.143  -9.698  1.00  0.00     0.275 C 
HETATM   27  O2  UNL     1      45.388  26.061  -9.525  1.00  0.00    -0.264 OA
BRANCH  26  28
HETATM   28  O1  UNL     1      47.040  27.149 -10.587  1.00  0.00    -0.326 OA
HETATM   29  C1  UNL     1      46.459  28.436 -10.542  1.00  0.00     0.213 C 
ENDBRANCH  26  28
ENDBRANCH   1  26
TORSDOF 5
ENDMDL
MODEL 2
REMARK VINA RESULT: -6.902022784      3.822      8.237
REMARK  5 active torsions:
REMARK  status: ('A' for Active; 'I' for Inactive)
REMARK    1  A    between atoms: O1_2  and  C2_3 
REMARK    2  A    between atoms: C2_3  and  C3_5 
REMARK    3  A    between atoms: C9_11  and  C10_12 
REMARK    4  A    between atoms: C10_12  and  C11_13 
REMARK       I    between atoms: C11_13  and  N1_15 
REMARK    5  A    between atoms: N1_15  and  C13_17 
ROOT
HETATM    1  C3  UNL     1      41.458  18.858  -5.793  1.00  0.00     0.112 C 
HETATM    2  C4  UNL     1      42.574  17.855  -5.851  1.00  0.00     0.028 C 
HETATM    3  C5  UNL     1      43.854  18.517  -6.388  1.00  0.00     0.007 C 
HETATM    4  C6  UNL     1      44.168  19.793  -5.636  1.00  0.00    -0.006 C 
HETATM    5  C7  UNL     1      45.508  20.286  -5.976  1.00  0.00    -0.009 C 
HETATM    6  C8  UNL     1      46.048  19.996  -7.325  1.00  0.00     0.011 C 
HETATM    7  C9  UNL     1      45.700  21.735  -5.510  1.00  0.00     0.006 C 
HETATM    8  C16 UNL     1      44.683  22.673  -6.078  1.00  0.00    -0.043 C 
HETATM    9  C17 UNL     1      45.172  23.619  -7.121  1.00  0.00     0.015 C 
HETATM   10  C18 UNL     1      44.106  23.524  -4.936  1.00  0.00     0.015 C 
HETATM   11  C19 UNL     1      43.483  21.956  -6.666  1.00  0.00     0.014 C 
HETATM   12  C20 UNL     1      43.054  20.798  -5.792  1.00  0.00    -0.004 C 
HETATM   13  C21 UNL     1      41.911  20.133  -6.444  1.00  0.00     0.016 C 
HETATM   14  C22 UNL     1      40.641  20.904  -6.570  1.00  0.00     0.014 C 
HETATM   15  C23 UNL     1      39.645  19.817  -6.990  1.00  0.00     0.080 C 
HETATM   16  C24 UNL     1      40.300  18.524  -6.666  1.00  0.00     0.145 C 
HETATM   17  O4  UNL     1      39.948  17.447  -7.042  1.00  0.00    -0.297 OA
ENDROOT
BRANCH   7  18
HETATM   18  C10 UNL     1      47.126  22.049  -5.775  1.00  0.00     0.108 C 
BRANCH  18  19
HETATM   19  C11 UNL     1      48.070  22.124  -4.672  1.00  0.00     0.220 C 
HETATM   20  O3  UNL     1      48.560  21.117  -4.131  1.00  0.00    -0.273 OA
HETATM   21  N1  UNL     1      48.443  23.423  -4.201  1.00  0.00    -0.352 N 
HETATM   22  C12 UNL     1      47.866  24.582  -4.834  1.00  0.00     0.153 C 
BRANCH  21  23
HETATM   23  C13 UNL     1      49.364  23.612  -3.128  1.00  0.00     0.078 C 
HETATM   24  C14 UNL     1      50.306  24.769  -3.344  1.00  0.00     0.032 C 
HETATM   25  C15 UNL     1      48.645  23.847  -1.803  1.00  0.00     0.032 C 
ENDBRANCH  21  23
ENDBRANCH  18  19
ENDBRANCH   7  18
BRANCH   1  26
HETATM   26  C2  UNL     1      40.919  19.028  -4.426  1.00  0.00     0.275 C 
HETATM   27  O2  UNL     1      41.542  19.457  -3.435  1.00  0.00    -0.264 OA
BRANCH  26  28
HETATM   28  O1  UNL     1      39.575  18.683  -4.193  1.00  0.00    -0.326 OA
HETATM   29  C1  UNL     1      38.687  19.611  -3.605  1.00  0.00     0.213 C 
ENDBRANCH  26  28
ENDBRANCH   1  26
TORSDOF 5
ENDMDL
MODEL 3
REMARK VINA RESULT: -6.863667981      2.483      8.542
REMARK  5 active torsions:
REMARK  status: ('A' for Active; 'I' for Inactive)
REMARK    1  A    between atoms: O1_2  and  C2_3 
REMARK    2  A    between atoms: C2_3  and  C3_5 
REMARK    3  A    between atoms: C9_11  and  C10_12 
REMARK    4  A    between atoms: C10_12  and  C11_13 
REMARK       I    between atoms: C11_13  and  N1_15 
REMARK    5  A    between atoms: N1_15  and  C13_17 
ROOT
HETATM    1  C3  UNL     1      40.346  19.967  -5.499  1.00  0.00     0.112 C 
HETATM    2  C4  UNL     1      40.023  21.370  -5.924  1.00  0.00     0.028 C 
HETATM    3  C5  UNL     1      41.272  22.260  -5.806  1.00  0.00     0.007 C 
HETATM    4  C6  UNL     1      42.461  21.631  -6.500  1.00  0.00    -0.006 C 
HETATM    5  C7  UNL     1      43.573  22.583  -6.603  1.00  0.00    -0.009 C 
HETATM    6  C8  UNL     1      43.712  23.625  -5.558  1.00  0.00     0.011 C 
HETATM    7  C9  UNL     1      44.880  21.870  -6.970  1.00  0.00     0.006 C 
HETATM    8  C16 UNL     1      45.255  20.795  -6.001  1.00  0.00    -0.043 C 
HETATM    9  C17 UNL     1      46.414  21.089  -5.110  1.00  0.00     0.015 C 
HETATM   10  C18 UNL     1      45.605  19.522  -6.787  1.00  0.00     0.015 C 
HETATM   11  C19 UNL     1      44.105  20.386  -5.101  1.00  0.00     0.014 C 
HETATM   12  C20 UNL     1      42.808  20.302  -5.875  1.00  0.00    -0.004 C 
HETATM   13  C21 UNL     1      41.736  19.936  -4.931  1.00  0.00     0.016 C 
HETATM   14  C22 UNL     1      41.800  18.586  -4.301  1.00  0.00     0.014 C 
HETATM   15  C23 UNL     1      40.412  18.462  -3.662  1.00  0.00     0.080 C 
HETATM   16  C24 UNL     1      39.576  19.504  -4.312  1.00  0.00     0.145 C 
HETATM   17  O4  UNL     1      38.505  19.877  -3.938  1.00  0.00    -0.297 OA
ENDROOT
BRANCH   7  18
HETATM   18  C10 UNL     1      45.872  22.952  -7.190  1.00  0.00     0.108 C 
BRANCH  18  19
HETATM   19  C11 UNL     1      45.981  23.584  -8.494  1.00  0.00     0.220 C 
HETATM   20  O3  UNL     1      45.665  23.012  -9.552  1.00  0.00    -0.273 OA
HETATM   21  N1  UNL     1      46.475  24.927  -8.545  1.00  0.00    -0.352 N 
HETATM   22  C12 UNL     1      46.841  25.578  -7.313  1.00  0.00     0.153 C 
BRANCH  21  23
HETATM   23  C13 UNL     1      46.619  25.643  -9.771  1.00  0.00     0.078 C 
HETATM   24  C14 UNL     1      45.357  26.345 -10.205  1.00  0.00     0.032 C 
HETATM   25  C15 UNL     1      47.721  26.694  -9.683  1.00  0.00     0.032 C 
ENDBRANCH  21  23
ENDBRANCH  18  19
ENDBRANCH   7  18
BRANCH   1  26
HETATM   26  C2  UNL     1      40.102  18.978  -6.571  1.00  0.00     0.275 C 
HETATM   27  O2  UNL     1      40.834  18.013  -6.865  1.00  0.00    -0.264 OA
BRANCH  26  28
HETATM   28  O1  UNL     1      38.939  19.114  -7.349  1.00  0.00    -0.326 OA
HETATM   29  C1  UNL     1      37.832  18.261  -7.142  1.00  0.00     0.213 C 
ENDBRANCH  26  28
ENDBRANCH   1  26
TORSDOF 5
ENDMDL
MODEL 4
REMARK VINA RESULT: -6.841114901      4.200      8.125
REMARK  5 active torsions:
REMARK  status: ('A' for Active; 'I' for Inactive)
REMARK    1  A    between atoms: O1_2  and  C2_3 
REMARK    2  A    between atoms: C2_3  and  C3_5 
REMARK    3  A    between atoms: C9_11  and  C10_12 
REMARK    4  A    between atoms: C10_12  and  C11_13 
REMARK       I    between atoms: C11_13  and  N1_15 
REMARK    5  A    between atoms: N1_15  and  C13_17 
ROOT
HETATM    1  C3  UNL     1      41.626  19.106  -5.846  1.00  0.00     0.112 C 
HETATM    2  C4  UNL     1      42.367  17.829  -6.120  1.00  0.00     0.028 C 
HETATM    3  C5  UNL     1      43.739  18.134  -6.742  1.00  0.00     0.007 C 
HETATM    4  C6  UNL     1      44.496  19.160  -5.925  1.00  0.00    -0.006 C 
HETATM    5  C7  UNL     1      45.889  19.264  -6.373  1.00  0.00    -0.009 C 
HETATM    6  C8  UNL     1      46.197  18.986  -7.796  1.00  0.00     0.011 C 
HETATM    7  C9  UNL     1      46.559  20.524  -5.811  1.00  0.00     0.006 C 
HETATM    8  C16 UNL     1      45.840  21.784  -6.174  1.00  0.00    -0.043 C 
HETATM    9  C17 UNL     1      46.510  22.655  -7.182  1.00  0.00     0.015 C 
HETATM   10  C18 UNL     1      45.653  22.629  -4.905  1.00  0.00     0.015 C 
HETATM   11  C19 UNL     1      44.432  21.534  -6.680  1.00  0.00     0.014 C 
HETATM   12  C20 UNL     1      43.740  20.464  -5.864  1.00  0.00    -0.004 C 
HETATM   13  C21 UNL     1      42.396  20.253  -6.434  1.00  0.00     0.016 C 
HETATM   14  C22 UNL     1      41.423  21.379  -6.345  1.00  0.00     0.014 C 
HETATM   15  C23 UNL     1      40.107  20.698  -6.740  1.00  0.00     0.080 C 
HETATM   16  C24 UNL     1      40.353  19.239  -6.606  1.00  0.00     0.145 C 
HETATM   17  O4  UNL     1      39.654  18.369  -7.029  1.00  0.00    -0.297 OA
ENDROOT
BRANCH   7  18
HETATM   18  C10 UNL     1      47.985  20.425  -6.210  1.00  0.00     0.108 C 
BRANCH  18  19
HETATM   19  C11 UNL     1      48.863  19.479  -5.542  1.00  0.00     0.220 C 
HETATM   20  O3  UNL     1      48.783  19.222  -4.327  1.00  0.00    -0.273 OA
HETATM   21  N1  UNL     1      49.859  18.821  -6.332  1.00  0.00    -0.352 N 
HETATM   22  C12 UNL     1      49.944  19.129  -7.737  1.00  0.00     0.153 C 
BRANCH  21  23
HETATM   23  C13 UNL     1      50.770  17.872  -5.779  1.00  0.00     0.078 C 
HETATM   24  C14 UNL     1      50.567  16.472  -6.302  1.00  0.00     0.032 C 
HETATM   25  C15 UNL     1      52.220  18.258  -6.052  1.00  0.00     0.032 C 
ENDBRANCH  21  23
ENDBRANCH  18  19
ENDBRANCH   7  18
BRANCH   1  26
HETATM   26  C2  UNL     1      41.283  19.269  -4.417  1.00  0.00     0.275 C 
HETATM   27  O2  UNL     1      41.953  19.881  -3.563  1.00  0.00    -0.264 OA
BRANCH  26  28
HETATM   28  O1  UNL     1      40.090  18.689  -3.949  1.00  0.00    -0.326 OA
HETATM   29  C1  UNL     1      39.068  19.493  -3.397  1.00  0.00     0.213 C 
ENDBRANCH  26  28
ENDBRANCH   1  26
TORSDOF 5
ENDMDL
MODEL 5
REMARK VINA RESULT: -6.837612546      3.843      8.140
REMARK  5 active torsions:
REMARK  status: ('A' for Active; 'I' for Inactive)
REMARK    1  A    between atoms: O1_2  and  C2_3 
REMARK    2  A    between atoms: C2_3  and  C3_5 
REMARK    3  A    between atoms: C9_11  and  C10_12 
REMARK    4  A    between atoms: C10_12  and  C11_13 
REMARK       I    between atoms: C11_13  and  N1_15 
REMARK    5  A    between atoms: N1_15  and  C13_17 
ROOT
HETATM    1  C3  UNL     1      41.471  18.948  -5.775  1.00  0.00     0.112 C 
HETATM    2  C4  UNL     1      42.577  17.936  -5.854  1.00  0.00     0.028 C 
HETATM    3  C5  UNL     1      43.858  18.593  -6.394  1.00  0.00     0.007 C 
HETATM    4  C6  UNL     1      44.190  19.858  -5.630  1.00  0.00    -0.006 C 
HETATM    5  C7  UNL     1      45.531  20.343  -5.975  1.00  0.00    -0.009 C 
HETATM    6  C8  UNL     1      46.058  20.064  -7.332  1.00  0.00     0.011 C 
HETATM    7  C9  UNL     1      45.739  21.785  -5.495  1.00  0.00     0.006 C 
HETATM    8  C16 UNL     1      44.726  22.738  -6.044  1.00  0.00    -0.043 C 
HETATM    9  C17 UNL     1      45.215  23.692  -7.080  1.00  0.00     0.015 C 
HETATM   10  C18 UNL     1      44.165  23.581  -4.888  1.00  0.00     0.015 C 
HETATM   11  C19 UNL     1      43.515  22.038  -6.630  1.00  0.00     0.014 C 
HETATM   12  C20 UNL     1      43.083  20.874  -5.765  1.00  0.00    -0.004 C 
HETATM   13  C21 UNL     1      41.930  20.226  -6.415  1.00  0.00     0.016 C 
HETATM   14  C22 UNL     1      40.666  21.009  -6.523  1.00  0.00     0.014 C 
HETATM   15  C23 UNL     1      39.657  19.936  -6.947  1.00  0.00     0.080 C 
HETATM   16  C24 UNL     1      40.303  18.633  -6.643  1.00  0.00     0.145 C 
HETATM   17  O4  UNL     1      39.939  17.564  -7.028  1.00  0.00    -0.297 OA
ENDROOT
BRANCH   7  18
HETATM   18  C10 UNL     1      47.166  22.090  -5.767  1.00  0.00     0.108 C 
BRANCH  18  19
HETATM   19  C11 UNL     1      48.178  21.781  -4.771  1.00  0.00     0.220 C 
HETATM   20  O3  UNL     1      48.026  22.010  -3.558  1.00  0.00    -0.273 OA
HETATM   21  N1  UNL     1      49.399  21.187  -5.223  1.00  0.00    -0.352 N 
HETATM   22  C12 UNL     1      49.564  20.929  -6.631  1.00  0.00     0.153 C 
BRANCH  21  23
HETATM   23  C13 UNL     1      50.457  20.839  -4.331  1.00  0.00     0.078 C 
HETATM   24  C14 UNL     1      50.382  19.416  -3.838  1.00  0.00     0.032 C 
HETATM   25  C15 UNL     1      51.825  21.028  -4.980  1.00  0.00     0.032 C 
ENDBRANCH  21  23
ENDBRANCH  18  19
ENDBRANCH   7  18
BRANCH   1  26
HETATM   26  C2  UNL     1      40.944  19.107  -4.402  1.00  0.00     0.275 C 
HETATM   27  O2  UNL     1      41.545  19.614  -3.435  1.00  0.00    -0.264 OA
BRANCH  26  28
HETATM   28  O1  UNL     1      39.640  18.654  -4.133  1.00  0.00    -0.326 OA
HETATM   29  C1  UNL     1      38.654  19.546  -3.654  1.00  0.00     0.213 C 
ENDBRANCH  26  28
ENDBRANCH   1  26
TORSDOF 5
ENDMDL
