MODEL 1
REMARK VINA RESULT: -5.914121410      0.000      0.000
REMARK  6 active torsions:
REMARK  status: ('A' for Active; 'I' for Inactive)
REMARK    1  A    between atoms: C2_2  and  N1_3 
REMARK    2  A    between atoms: C5_6  and  C6_7 
REMARK    3  A    between atoms: C7_8  and  C8_9 
REMARK    4  A    between atoms: C8_9  and  O2_11 
REMARK    5  A    between atoms: C10_13  and  C11_14 
REMARK    6  A    between atoms: C19_23  and  C20_24 
ROOT
HETATM    1  C6  UNL     1      45.861  23.838  -8.037  1.00  0.00    -0.057 C 
HETATM    2  C7  UNL     1      45.052  23.601  -6.982  1.00  0.00     0.035 C 
HETATM    3  C10 UNL     1      44.751  22.176  -6.766  1.00  0.00     0.094 C 
HETATM    4  S1  UNL     1      46.372  21.297  -6.785  1.00  0.00    -0.158 SA
HETATM    5  C15 UNL     1      47.077  21.729  -8.446  1.00  0.00     0.079 C 
HETATM    6  C16 UNL     1      46.037  22.631  -8.979  1.00  0.00     0.046 C 
ENDROOT
BRANCH   1   7
HETATM    7  C5  UNL     1      46.414  25.076  -8.524  1.00  0.00    -0.007 C 
HETATM    8  C4  UNL     1      47.474  24.598  -9.605  1.00  0.00     0.042 C 
HETATM    9  C3  UNL     1      47.895  25.714 -10.502  1.00  0.00     0.238 C 
HETATM   10  N1  UNL     1      47.191  26.906 -10.159  1.00  0.00    -0.067 N 
HETATM   11  C18 UNL     1      45.788  26.604 -10.455  1.00  0.00     0.238 C 
HETATM   12  C23 UNL     1      47.398  27.263  -8.800  1.00  0.00     0.243 C 
HETATM   13  C17 UNL     1      45.314  25.782  -9.286  1.00  0.00     0.042 C 
HETATM   14  C19 UNL     1      47.254  26.037  -7.841  1.00  0.00     0.028 C 
BRANCH  10  15
HETATM   15  C2  UNL     1      47.567  28.010 -10.987  1.00  0.00     0.233 C 
HETATM   16  C1  UNL     1      46.593  29.140 -11.010  1.00  0.00     0.035 C 
ENDBRANCH  10  15
BRANCH  14  17
HETATM   17  C20 UNL     1      48.683  25.691  -7.476  1.00  0.00    -0.016 C 
HETATM   18  C21 UNL     1      48.878  24.915  -6.230  1.00  0.00     0.010 C 
HETATM   19  C22 UNL     1      49.370  27.056  -7.200  1.00  0.00     0.010 C 
ENDBRANCH  14  17
ENDBRANCH   1   7
BRANCH   2  20
HETATM   20  C8  UNL     1      44.582  24.671  -6.155  1.00  0.00     0.290 C 
HETATM   21  O1  UNL     1      43.462  25.068  -5.935  1.00  0.00    -0.260 OA
BRANCH  20  22
HETATM   22  O2  UNL     1      45.468  25.492  -5.417  1.00  0.00    -0.323 OA
HETATM   23  C9  UNL     1      45.988  25.155  -4.169  1.00  0.00     0.213 C 
ENDBRANCH  20  22
ENDBRANCH   2  20
BRANCH   3  24
HETATM   24  C11 UNL     1      43.991  21.597  -5.679  1.00  0.00    -0.035 C 
HETATM   25  C12 UNL     1      42.500  21.637  -5.697  1.00  0.00     0.016 C 
HETATM   26  C13 UNL     1      44.316  20.064  -5.799  1.00  0.00     0.016 C 
HETATM   27  C14 UNL     1      44.549  21.924  -4.288  1.00  0.00     0.016 C 
ENDBRANCH   3  24
TORSDOF 6
ENDMDL
MODEL 2
REMARK VINA RESULT: -5.596809990      2.786      6.474
REMARK  6 active torsions:
REMARK  status: ('A' for Active; 'I' for Inactive)
REMARK    1  A    between atoms: C2_2  and  N1_3 
REMARK    2  A    between atoms: C5_6  and  C6_7 
REMARK    3  A    between atoms: C7_8  and  C8_9 
REMARK    4  A    between atoms: C8_9  and  O2_11 
REMARK    5  A    between atoms: C10_13  and  C11_14 
REMARK    6  A    between atoms: C19_23  and  C20_24 
ROOT
HETATM    1  C6  UNL     1      45.911  24.376  -4.309  1.00  0.00    -0.057 C 
HETATM    2  C7  UNL     1      46.854  25.269  -4.677  1.00  0.00     0.035 C 
HETATM    3  C10 UNL     1      47.381  26.077  -3.564  1.00  0.00     0.094 C 
HETATM    4  S1  UNL     1      47.839  24.886  -2.233  1.00  0.00    -0.158 SA
HETATM    5  C15 UNL     1      46.252  23.987  -1.894  1.00  0.00     0.079 C 
HETATM    6  C16 UNL     1      45.351  24.600  -2.890  1.00  0.00     0.046 C 
ENDROOT
BRANCH   1   7
HETATM    7  C5  UNL     1      45.213  23.388  -5.090  1.00  0.00    -0.007 C 
HETATM    8  C4  UNL     1      44.811  22.292  -4.012  1.00  0.00     0.042 C 
HETATM    9  C3  UNL     1      43.759  21.366  -4.526  1.00  0.00     0.238 C 
HETATM   10  N1  UNL     1      43.374  21.751  -5.845  1.00  0.00    -0.067 N 
HETATM   11  C18 UNL     1      42.761  23.071  -5.680  1.00  0.00     0.238 C 
HETATM   12  C23 UNL     1      44.486  21.770  -6.728  1.00  0.00     0.243 C 
HETATM   13  C17 UNL     1      43.921  24.024  -5.555  1.00  0.00     0.042 C 
HETATM   14  C19 UNL     1      45.726  22.486  -6.099  1.00  0.00     0.028 C 
BRANCH  10  15
HETATM   15  C2  UNL     1      42.372  20.887  -6.386  1.00  0.00     0.233 C 
HETATM   16  C1  UNL     1      40.969  21.262  -6.049  1.00  0.00     0.035 C 
ENDBRANCH  10  15
BRANCH  14  17
HETATM   17  C20 UNL     1      46.649  21.347  -5.720  1.00  0.00    -0.016 C 
HETATM   18  C21 UNL     1      48.095  21.660  -5.658  1.00  0.00     0.010 C 
HETATM   19  C22 UNL     1      46.519  20.320  -6.877  1.00  0.00     0.010 C 
ENDBRANCH  14  17
ENDBRANCH   1   7
BRANCH   2  20
HETATM   20  C8  UNL     1      47.295  25.362  -6.035  1.00  0.00     0.290 C 
HETATM   21  O1  UNL     1      48.315  24.986  -6.564  1.00  0.00    -0.260 OA
BRANCH  20  22
HETATM   22  O2  UNL     1      46.510  25.981  -7.037  1.00  0.00    -0.323 OA
HETATM   23  C9  UNL     1      46.530  25.616  -8.382  1.00  0.00     0.213 C 
ENDBRANCH  20  22
ENDBRANCH   2  20
BRANCH   3  24
HETATM   24  C11 UNL     1      48.451  27.051  -3.619  1.00  0.00    -0.035 C 
HETATM   25  C12 UNL     1      48.326  28.259  -4.486  1.00  0.00     0.016 C 
HETATM   26  C13 UNL     1      48.461  27.646  -2.165  1.00  0.00     0.016 C 
HETATM   27  C14 UNL     1      49.851  26.431  -3.711  1.00  0.00     0.016 C 
ENDBRANCH   3  24
TORSDOF 6
ENDMDL
MODEL 3
REMARK VINA RESULT: -5.568462617      4.399      8.418
REMARK  6 active torsions:
REMARK  status: ('A' for Active; 'I' for Inactive)
REMARK    1  A    between atoms: C2_2  and  N1_3 
REMARK    2  A    between atoms: C5_6  and  C6_7 
REMARK    3  A    between atoms: C7_8  and  C8_9 
REMARK    4  A    between atoms: C8_9  and  O2_11 
REMARK    5  A    between atoms: C10_13  and  C11_14 
REMARK    6  A    between atoms: C19_23  and  C20_24 
ROOT
HETATM    1  C6  UNL     1      47.013  28.398 -12.334  1.00  0.00    -0.057 C 
HETATM    2  C7  UNL     1      47.013  28.371 -13.684  1.00  0.00     0.035 C 
HETATM    3  C10 UNL     1      46.947  29.701 -14.311  1.00  0.00     0.094 C 
HETATM    4  S1  UNL     1      48.253  30.720 -13.499  1.00  0.00    -0.158 SA
HETATM    5  C15 UNL     1      47.797  30.653 -11.702  1.00  0.00     0.079 C 
HETATM    6  C16 UNL     1      46.620  29.762 -11.733  1.00  0.00     0.046 C 
ENDROOT
BRANCH   1   7
HETATM    7  C5  UNL     1      47.121  27.322 -11.383  1.00  0.00    -0.007 C 
HETATM    8  C4  UNL     1      47.372  28.078 -10.009  1.00  0.00     0.042 C 
HETATM    9  C3  UNL     1      47.141  27.187  -8.834  1.00  0.00     0.238 C 
HETATM   10  N1  UNL     1      46.715  25.899  -9.276  1.00  0.00    -0.067 N 
HETATM   11  C18 UNL     1      45.418  26.137  -9.915  1.00  0.00     0.238 C 
HETATM   12  C23 UNL     1      47.660  25.312 -10.160  1.00  0.00     0.243 C 
HETATM   13  C17 UNL     1      45.753  26.685 -11.278  1.00  0.00     0.042 C 
HETATM   14  C19 UNL     1      48.158  26.321 -11.245  1.00  0.00     0.028 C 
BRANCH  10  15
HETATM   15  C2  UNL     1      46.488  25.003  -8.185  1.00  0.00     0.233 C 
HETATM   16  C1  UNL     1      45.719  23.773  -8.531  1.00  0.00     0.035 C 
ENDBRANCH  10  15
BRANCH  14  17
HETATM   17  C20 UNL     1      49.545  26.706 -10.775  1.00  0.00    -0.016 C 
HETATM   18  C21 UNL     1      50.489  27.178 -11.814  1.00  0.00     0.010 C 
HETATM   19  C22 UNL     1      50.172  25.387 -10.245  1.00  0.00     0.010 C 
ENDBRANCH  14  17
ENDBRANCH   1   7
BRANCH   2  20
HETATM   20  C8  UNL     1      47.107  27.134 -14.399  1.00  0.00     0.290 C 
HETATM   21  O1  UNL     1      46.247  26.415 -14.853  1.00  0.00    -0.260 OA
BRANCH  20  22
HETATM   22  O2  UNL     1      48.353  26.528 -14.688  1.00  0.00    -0.323 OA
HETATM   23  C9  UNL     1      48.539  25.154 -14.826  1.00  0.00     0.213 C 
ENDBRANCH  20  22
ENDBRANCH   2  20
BRANCH   3  24
HETATM   24  C11 UNL     1      47.016  30.008 -15.724  1.00  0.00    -0.035 C 
HETATM   25  C12 UNL     1      45.899  29.623 -16.634  1.00  0.00     0.016 C 
HETATM   26  C13 UNL     1      46.979  31.579 -15.746  1.00  0.00     0.016 C 
HETATM   27  C14 UNL     1      48.385  29.722 -16.355  1.00  0.00     0.016 C 
ENDBRANCH   3  24
TORSDOF 6
ENDMDL
MODEL 4
REMARK VINA RESULT: -5.523350220      1.575      1.996
REMARK  6 active torsions:
REMARK  status: ('A' for Active; 'I' for Inactive)
REMARK    1  A    between atoms: C2_2  and  N1_3 
REMARK    2  A    between atoms: C5_6  and  C6_7 
REMARK    3  A    between atoms: C7_8  and  C8_9 
REMARK    4  A    between atoms: C8_9  and  O2_11 
REMARK    5  A    between atoms: C10_13  and  C11_14 
REMARK    6  A    between atoms: C19_23  and  C20_24 
ROOT
HETATM    1  C6  UNL     1      47.387  24.522  -8.450  1.00  0.00    -0.057 C 
HETATM    2  C7  UNL     1      46.744  23.971  -7.398  1.00  0.00     0.035 C 
HETATM    3  C10 UNL     1      47.219  22.623  -7.044  1.00  0.00     0.094 C 
HETATM    4  S1  UNL     1      49.056  22.738  -6.928  1.00  0.00    -0.158 SA
HETATM    5  C15 UNL     1      49.557  23.353  -8.605  1.00  0.00     0.079 C 
HETATM    6  C16 UNL     1      48.243  23.525  -9.256  1.00  0.00     0.046 C 
ENDROOT
BRANCH   1   7
HETATM    7  C5  UNL     1      47.244  25.824  -9.048  1.00  0.00    -0.007 C 
HETATM    8  C4  UNL     1      48.256  25.774 -10.271  1.00  0.00     0.042 C 
HETATM    9  C3  UNL     1      48.000  26.872 -11.249  1.00  0.00     0.238 C 
HETATM   10  N1  UNL     1      46.878  27.647 -10.829  1.00  0.00    -0.067 N 
HETATM   11  C18 UNL     1      45.744  26.721 -10.893  1.00  0.00     0.238 C 
HETATM   12  C23 UNL     1      47.073  28.184  -9.529  1.00  0.00     0.243 C 
HETATM   13  C17 UNL     1      45.854  25.887  -9.644  1.00  0.00     0.042 C 
HETATM   14  C19 UNL     1      47.631  27.119  -8.529  1.00  0.00     0.028 C 
BRANCH  10  15
HETATM   15  C2  UNL     1      46.597  28.719 -11.732  1.00  0.00     0.233 C 
HETATM   16  C1  UNL     1      46.538  30.071 -11.106  1.00  0.00     0.035 C 
ENDBRANCH  10  15
BRANCH  14  17
HETATM   17  C20 UNL     1      49.093  27.487  -8.385  1.00  0.00    -0.016 C 
HETATM   18  C21 UNL     1      49.774  27.023  -7.155  1.00  0.00     0.010 C 
HETATM   19  C22 UNL     1      49.111  29.037  -8.282  1.00  0.00     0.010 C 
ENDBRANCH  14  17
ENDBRANCH   1   7
BRANCH   2  20
HETATM   20  C8  UNL     1      45.719  24.687  -6.700  1.00  0.00     0.290 C 
HETATM   21  O1  UNL     1      44.517  24.556  -6.705  1.00  0.00    -0.260 OA
BRANCH  20  22
HETATM   22  O2  UNL     1      46.018  25.760  -5.826  1.00  0.00    -0.323 OA
HETATM   23  C9  UNL     1      47.112  25.784  -4.964  1.00  0.00     0.213 C 
ENDBRANCH  20  22
ENDBRANCH   2  20
BRANCH   3  24
HETATM   24  C11 UNL     1      46.794  21.812  -5.923  1.00  0.00    -0.035 C 
HETATM   25  C12 UNL     1      45.395  21.301  -5.850  1.00  0.00     0.016 C 
HETATM   26  C13 UNL     1      47.651  20.505  -6.090  1.00  0.00     0.016 C 
HETATM   27  C14 UNL     1      47.279  22.329  -4.562  1.00  0.00     0.016 C 
ENDBRANCH   3  24
TORSDOF 6
ENDMDL
MODEL 5
REMARK VINA RESULT: -5.488577812      2.507      6.480
REMARK  6 active torsions:
REMARK  status: ('A' for Active; 'I' for Inactive)
REMARK    1  A    between atoms: C2_2  and  N1_3 
REMARK    2  A    between atoms: C5_6  and  C6_7 
REMARK    3  A    between atoms: C7_8  and  C8_9 
REMARK    4  A    between atoms: C8_9  and  O2_11 
REMARK    5  A    between atoms: C10_13  and  C11_14 
REMARK    6  A    between atoms: C19_23  and  C20_24 
ROOT
HETATM    1  C6  UNL     1      46.606  24.996  -6.279  1.00  0.00    -0.057 C 
HETATM    2  C7  UNL     1      46.971  25.705  -7.368  1.00  0.00     0.035 C 
HETATM    3  C10 UNL     1      47.848  26.850  -7.073  1.00  0.00     0.094 C 
HETATM    4  S1  UNL     1      49.208  26.198  -6.011  1.00  0.00    -0.158 SA
HETATM    5  C15 UNL     1      48.310  25.474  -4.557  1.00  0.00     0.079 C 
HETATM    6  C16 UNL     1      46.903  25.701  -4.941  1.00  0.00     0.046 C 
ENDROOT
BRANCH   1   7
HETATM    7  C5  UNL     1      45.815  23.798  -6.173  1.00  0.00    -0.007 C 
HETATM    8  C4  UNL     1      46.180  23.249  -4.728  1.00  0.00     0.042 C 
HETATM    9  C3  UNL     1      45.199  22.227  -4.257  1.00  0.00     0.238 C 
HETATM   10  N1  UNL     1      44.172  22.053  -5.231  1.00  0.00    -0.067 N 
HETATM   11  C18 UNL     1      43.481  23.344  -5.274  1.00  0.00     0.238 C 
HETATM   12  C23 UNL     1      44.706  21.676  -6.492  1.00  0.00     0.243 C 
HETATM   13  C17 UNL     1      44.365  24.229  -6.113  1.00  0.00     0.042 C 
HETATM   14  C19 UNL     1      45.942  22.547  -6.892  1.00  0.00     0.028 C 
BRANCH  10  15
HETATM   15  C2  UNL     1      43.210  21.075  -4.829  1.00  0.00     0.233 C 
HETATM   16  C1  UNL     1      43.314  19.763  -5.530  1.00  0.00     0.035 C 
ENDBRANCH  10  15
BRANCH  14  17
HETATM   17  C20 UNL     1      47.124  21.634  -6.648  1.00  0.00    -0.016 C 
HETATM   18  C21 UNL     1      48.354  21.923  -7.421  1.00  0.00     0.010 C 
HETATM   19  C22 UNL     1      46.666  20.237  -7.148  1.00  0.00     0.010 C 
ENDBRANCH  14  17
ENDBRANCH   1   7
BRANCH   2  20
HETATM   20  C8  UNL     1      46.546  25.318  -8.679  1.00  0.00     0.290 C 
HETATM   21  O1  UNL     1      47.066  24.599  -9.501  1.00  0.00    -0.260 OA
BRANCH  20  22
HETATM   22  O2  UNL     1      45.335  25.786  -9.243  1.00  0.00    -0.323 OA
HETATM   23  C9  UNL     1      45.253  26.490 -10.443  1.00  0.00     0.213 C 
ENDBRANCH  20  22
ENDBRANCH   2  20
BRANCH   3  24
HETATM   24  C11 UNL     1      48.473  27.743  -8.025  1.00  0.00    -0.035 C 
HETATM   25  C12 UNL     1      47.645  28.693  -8.822  1.00  0.00     0.016 C 
HETATM   26  C13 UNL     1      49.332  28.688  -7.110  1.00  0.00     0.016 C 
HETATM   27  C14 UNL     1      49.555  27.076  -8.884  1.00  0.00     0.016 C 
ENDBRANCH   3  24
TORSDOF 6
ENDMDL
