MODEL 1
REMARK VINA RESULT: -6.824357343      0.000      0.000
REMARK  10 active torsions:
REMARK  status: ('A' for Active; 'I' for Inactive)
REMARK    1  A    between atoms: C2_2  and  N1_4 
REMARK    2  A    between atoms: C2_2  and  C13_25 
REMARK       I    between atoms: N1_4  and  C4_6 
REMARK    3  A    between atoms: C4_6  and  C5_8 
REMARK    4  A    between atoms: C11_21  and  C12_22 
REMARK    5  A    between atoms: C13_25  and  O4_26 
REMARK    6  A    between atoms: C13_25  and  C14_28 
REMARK    7  A    between atoms: C14_28  and  C15_30 
REMARK    8  A    between atoms: C15_30  and  C16_32 
REMARK    9  A    between atoms: C16_32  and  N6_33 
REMARK   10  A    between atoms: C16_32  and  O7_37 
ROOT
HETATM    1  N1  UNL     1     -10.485  31.801   5.087  1.00  0.00    -0.345 N 
ATOM      2  H1  UNL     1     -10.340  30.957   4.533  1.00  0.00     0.163 HD
HETATM    3  C4  UNL     1     -10.937  31.549   6.384  1.00  0.00     0.253 C 
HETATM    4  O1  UNL     1     -11.154  32.466   7.206  1.00  0.00    -0.268 OA
ENDROOT
BRANCH   1   5
HETATM    5  C2  UNL     1     -10.191  32.984   4.395  1.00  0.00     0.059 C 
HETATM    6  C1  UNL     1      -8.811  32.831   3.681  1.00  0.00     0.041 C 
HETATM    7  C3  UNL     1     -10.020  34.182   5.300  1.00  0.00     0.041 C 
BRANCH   5   8
HETATM    8  C13 UNL     1     -11.164  33.370   3.279  1.00  0.00     0.223 C 
BRANCH   8   9
HETATM    9  O4  UNL     1     -10.385  33.336   2.096  1.00  0.00    -0.385 OA
ATOM     10  H4  UNL     1     -10.976  33.624   1.410  1.00  0.00     0.210 HD
ENDBRANCH   8   9
BRANCH   8  11
HETATM   11  C14 UNL     1     -12.186  32.306   3.116  1.00  0.00     0.230 C 
HETATM   12  O5  UNL     1     -13.296  32.459   3.747  1.00  0.00    -0.286 OA
BRANCH  11  13
HETATM   13  C15 UNL     1     -12.085  31.110   2.334  1.00  0.00     0.253 C 
HETATM   14  O6  UNL     1     -10.991  30.521   2.101  1.00  0.00    -0.284 OA
BRANCH  13  15
HETATM   15  C16 UNL     1     -13.273  30.440   1.707  1.00  0.00     0.395 C 
BRANCH  15  16
HETATM   16  N6  UNL     1     -13.871  29.588   2.715  1.00  0.00    -0.045 N 
ATOM     17  H63 UNL     1     -13.349  29.582   3.591  1.00  0.00     0.277 HD
ATOM     18  H62 UNL     1     -14.746  29.961   3.084  1.00  0.00     0.277 HD
ATOM     19  H61 UNL     1     -13.975  28.659   2.306  1.00  0.00     0.277 HD
ENDBRANCH  15  16
BRANCH  15  20
HETATM   20  O7  UNL     1     -14.157  31.359   1.193  1.00  0.00    -0.364 OA
ATOM     21  H7  UNL     1     -14.925  31.450   1.745  1.00  0.00     0.212 HD
ENDBRANCH  15  20
ENDBRANCH  13  15
ENDBRANCH  11  13
ENDBRANCH   8  11
ENDBRANCH   5   8
ENDBRANCH   1   5
BRANCH   3  22
HETATM   22  C5  UNL     1     -11.203  30.161   6.856  1.00  0.00     0.049 A 
HETATM   23  C6  UNL     1     -12.335  29.517   6.301  1.00  0.00     0.050 A 
HETATM   24  C7  UNL     1     -12.586  28.193   6.593  1.00  0.00     0.066 A 
HETATM   25  N2  UNL     1     -13.652  27.529   6.076  1.00  0.00    -0.285 N 
HETATM   26  C9  UNL     1     -11.713  27.541   7.427  1.00  0.00     0.062 A 
HETATM   27  N3  UNL     1     -13.853  26.237   6.375  1.00  0.00    -0.239 N 
ATOM     28  H2  UNL     1     -14.301  28.015   5.457  1.00  0.00     0.188 HD
HETATM   29  N4  UNL     1     -13.036  25.573   7.173  1.00  0.00    -0.251 N 
ATOM     30  H3  UNL     1     -14.658  25.755   5.977  1.00  0.00     0.208 HD
HETATM   31  C8  UNL     1     -11.976  26.207   7.698  1.00  0.00     0.273 A 
ATOM     32  H4  UNL     1     -13.208  24.591   7.387  1.00  0.00     0.192 HD
HETATM   33  O2  UNL     1     -11.168  25.615   8.463  1.00  0.00    -0.266 OA
HETATM   34  C10 UNL     1     -10.620  28.177   7.962  1.00  0.00     0.037 A 
HETATM   35  C11 UNL     1     -10.333  29.536   7.683  1.00  0.00     0.046 A 
BRANCH  35  36
HETATM   36  C12 UNL     1      -9.193  30.149   8.341  1.00  0.00     0.266 C 
HETATM   37  N5  UNL     1      -7.925  30.092   7.734  1.00  0.00    -0.057 NA
HETATM   38  O3  UNL     1      -9.279  30.733   9.436  1.00  0.00    -0.271 OA
ENDBRANCH  35  36
ENDBRANCH   3  22
TORSDOF 10
ENDMDL
MODEL 2
REMARK VINA RESULT: -6.784346038      4.158      8.734
REMARK  10 active torsions:
REMARK  status: ('A' for Active; 'I' for Inactive)
REMARK    1  A    between atoms: C2_2  and  N1_4 
REMARK    2  A    between atoms: C2_2  and  C13_25 
REMARK       I    between atoms: N1_4  and  C4_6 
REMARK    3  A    between atoms: C4_6  and  C5_8 
REMARK    4  A    between atoms: C11_21  and  C12_22 
REMARK    5  A    between atoms: C13_25  and  O4_26 
REMARK    6  A    between atoms: C13_25  and  C14_28 
REMARK    7  A    between atoms: C14_28  and  C15_30 
REMARK    8  A    between atoms: C15_30  and  C16_32 
REMARK    9  A    between atoms: C16_32  and  N6_33 
REMARK   10  A    between atoms: C16_32  and  O7_37 
ROOT
HETATM    1  N1  UNL     1      -8.164  25.730   9.981  1.00  0.00    -0.345 N 
ATOM      2  H1  UNL     1      -8.118  25.345   9.038  1.00  0.00     0.163 HD
HETATM    3  C4  UNL     1      -9.164  26.691  10.146  1.00  0.00     0.253 C 
HETATM    4  O1  UNL     1      -9.372  27.257  11.241  1.00  0.00    -0.268 OA
ENDROOT
BRANCH   1   5
HETATM    5  C2  UNL     1      -7.209  25.190  10.855  1.00  0.00     0.059 C 
HETATM    6  C1  UNL     1      -6.525  26.348  11.646  1.00  0.00     0.041 C 
HETATM    7  C3  UNL     1      -6.074  24.491  10.144  1.00  0.00     0.041 C 
BRANCH   5   8
HETATM    8  C13 UNL     1      -7.744  24.245  11.934  1.00  0.00     0.223 C 
BRANCH   8   9
HETATM    9  O4  UNL     1      -8.409  25.092  12.854  1.00  0.00    -0.385 OA
ATOM     10  H4  UNL     1      -8.281  24.678  13.699  1.00  0.00     0.210 HD
ENDBRANCH   8   9
BRANCH   8  11
HETATM   11  C14 UNL     1      -8.798  23.373  11.358  1.00  0.00     0.230 C 
HETATM   12  O5  UNL     1      -9.972  23.881  11.228  1.00  0.00    -0.286 OA
BRANCH  11  13
HETATM   13  C15 UNL     1      -8.668  22.013  10.927  1.00  0.00     0.253 C 
HETATM   14  O6  UNL     1      -8.240  21.684   9.784  1.00  0.00    -0.284 OA
BRANCH  13  15
HETATM   15  C16 UNL     1      -9.032  20.842  11.792  1.00  0.00     0.395 C 
BRANCH  15  16
HETATM   16  N6  UNL     1     -10.014  21.303  12.753  1.00  0.00    -0.045 N 
ATOM     17  H63 UNL     1     -10.578  22.077  12.405  1.00  0.00     0.277 HD
ATOM     18  H62 UNL     1     -10.774  20.638  12.895  1.00  0.00     0.277 HD
ATOM     19  H61 UNL     1      -9.515  21.528  13.614  1.00  0.00     0.277 HD
ENDBRANCH  15  16
BRANCH  15  20
HETATM   20  O7  UNL     1      -9.477  19.780  11.041  1.00  0.00    -0.364 OA
ATOM     21  H7  UNL     1      -8.761  19.343  10.596  1.00  0.00     0.212 HD
ENDBRANCH  15  20
ENDBRANCH  13  15
ENDBRANCH  11  13
ENDBRANCH   8  11
ENDBRANCH   5   8
ENDBRANCH   1   5
BRANCH   3  22
HETATM   22  C5  UNL     1     -10.034  27.107   9.010  1.00  0.00     0.049 A 
HETATM   23  C6  UNL     1     -11.038  26.189   8.622  1.00  0.00     0.050 A 
HETATM   24  C7  UNL     1     -11.960  26.542   7.659  1.00  0.00     0.066 A 
HETATM   25  N2  UNL     1     -12.949  25.701   7.263  1.00  0.00    -0.285 N 
HETATM   26  C9  UNL     1     -11.864  27.793   7.105  1.00  0.00     0.062 A 
HETATM   27  N3  UNL     1     -13.834  26.090   6.332  1.00  0.00    -0.239 N 
ATOM     28  H2  UNL     1     -13.020  24.770   7.674  1.00  0.00     0.188 HD
HETATM   29  N4  UNL     1     -13.776  27.286   5.774  1.00  0.00    -0.251 N 
ATOM     30  H3  UNL     1     -14.570  25.444   6.047  1.00  0.00     0.208 HD
HETATM   31  C8  UNL     1     -12.807  28.135   6.148  1.00  0.00     0.273 A 
ATOM     32  H4  UNL     1     -14.459  27.560   5.068  1.00  0.00     0.192 HD
HETATM   33  O2  UNL     1     -12.712  29.287   5.645  1.00  0.00    -0.266 OA
HETATM   34  C10 UNL     1     -10.882  28.675   7.487  1.00  0.00     0.037 A 
HETATM   35  C11 UNL     1      -9.920  28.344   8.472  1.00  0.00     0.046 A 
BRANCH  35  36
HETATM   36  C12 UNL     1      -8.878  29.310   8.772  1.00  0.00     0.266 C 
HETATM   37  N5  UNL     1      -7.630  29.208   8.132  1.00  0.00    -0.057 NA
HETATM   38  O3  UNL     1      -9.034  30.241   9.582  1.00  0.00    -0.271 OA
ENDBRANCH  35  36
ENDBRANCH   3  22
TORSDOF 10
ENDMDL
MODEL 3
REMARK VINA RESULT: -6.693607813      2.679      4.314
REMARK  10 active torsions:
REMARK  status: ('A' for Active; 'I' for Inactive)
REMARK    1  A    between atoms: C2_2  and  N1_4 
REMARK    2  A    between atoms: C2_2  and  C13_25 
REMARK       I    between atoms: N1_4  and  C4_6 
REMARK    3  A    between atoms: C4_6  and  C5_8 
REMARK    4  A    between atoms: C11_21  and  C12_22 
REMARK    5  A    between atoms: C13_25  and  O4_26 
REMARK    6  A    between atoms: C13_25  and  C14_28 
REMARK    7  A    between atoms: C14_28  and  C15_30 
REMARK    8  A    between atoms: C15_30  and  C16_32 
REMARK    9  A    between atoms: C16_32  and  N6_33 
REMARK   10  A    between atoms: C16_32  and  O7_37 
ROOT
HETATM    1  N1  UNL     1     -10.860  29.646   4.897  1.00  0.00    -0.345 N 
ATOM      2  H1  UNL     1      -9.905  29.291   4.958  1.00  0.00     0.163 HD
HETATM    3  C4  UNL     1     -11.444  29.898   6.140  1.00  0.00     0.253 C 
HETATM    4  O1  UNL     1     -12.604  30.349   6.254  1.00  0.00    -0.268 OA
ENDROOT
BRANCH   1   5
HETATM    5  C2  UNL     1     -11.325  29.783   3.581  1.00  0.00     0.059 C 
HETATM    6  C1  UNL     1     -10.209  30.437   2.709  1.00  0.00     0.041 C 
HETATM    7  C3  UNL     1     -12.504  30.720   3.458  1.00  0.00     0.041 C 
BRANCH   5   8
HETATM    8  C13 UNL     1     -11.676  28.484   2.853  1.00  0.00     0.223 C 
BRANCH   8   9
HETATM    9  O4  UNL     1     -10.477  27.728   2.870  1.00  0.00    -0.385 OA
ATOM     10  H4  UNL     1     -10.652  27.014   3.472  1.00  0.00     0.210 HD
ENDBRANCH   8   9
BRANCH   8  11
HETATM   11  C14 UNL     1     -12.651  27.706   3.658  1.00  0.00     0.230 C 
HETATM   12  O5  UNL     1     -13.889  27.791   3.320  1.00  0.00    -0.286 OA
BRANCH  11  13
HETATM   13  C15 UNL     1     -12.380  26.863   4.783  1.00  0.00     0.253 C 
HETATM   14  O6  UNL     1     -11.226  26.433   5.069  1.00  0.00    -0.284 OA
BRANCH  13  15
HETATM   15  C16 UNL     1     -13.444  26.400   5.735  1.00  0.00     0.395 C 
BRANCH  15  16
HETATM   16  N6  UNL     1     -13.972  27.576   6.398  1.00  0.00    -0.045 N 
ATOM     17  H63 UNL     1     -13.283  28.044   6.986  1.00  0.00     0.277 HD
ATOM     18  H62 UNL     1     -14.147  28.350   5.757  1.00  0.00     0.277 HD
ATOM     19  H61 UNL     1     -14.805  27.288   6.912  1.00  0.00     0.277 HD
ENDBRANCH  15  16
BRANCH  15  20
HETATM   20  O7  UNL     1     -14.415  25.672   5.089  1.00  0.00    -0.364 OA
ATOM     21  H7  UNL     1     -14.684  24.918   5.601  1.00  0.00     0.212 HD
ENDBRANCH  15  20
ENDBRANCH  13  15
ENDBRANCH  11  13
ENDBRANCH   8  11
ENDBRANCH   5   8
ENDBRANCH   1   5
BRANCH   3  22
HETATM   22  C5  UNL     1     -10.712  29.623   7.409  1.00  0.00     0.049 A 
HETATM   23  C6  UNL     1     -10.760  28.291   7.883  1.00  0.00     0.050 A 
HETATM   24  C7  UNL     1     -10.015  27.925   8.985  1.00  0.00     0.066 A 
HETATM   25  N2  UNL     1     -10.018  26.657   9.470  1.00  0.00    -0.285 N 
HETATM   26  C9  UNL     1      -9.245  28.886   9.589  1.00  0.00     0.062 A 
HETATM   27  N3  UNL     1      -9.269  26.340  10.536  1.00  0.00    -0.239 N 
ATOM     28  H2  UNL     1     -10.591  25.942   9.021  1.00  0.00     0.188 HD
HETATM   29  N4  UNL     1      -8.513  27.235  11.146  1.00  0.00    -0.251 N 
ATOM     30  H3  UNL     1      -9.283  25.381  10.886  1.00  0.00     0.208 HD
HETATM   31  C8  UNL     1      -8.494  28.495  10.687  1.00  0.00     0.273 A 
ATOM     32  H4  UNL     1      -7.951  26.971  11.956  1.00  0.00     0.192 HD
HETATM   33  O2  UNL     1      -7.788  29.384  11.235  1.00  0.00    -0.266 OA
HETATM   34  C10 UNL     1      -9.209  30.178   9.122  1.00  0.00     0.037 A 
HETATM   35  C11 UNL     1      -9.962  30.587   7.994  1.00  0.00     0.046 A 
BRANCH  35  36
HETATM   36  C12 UNL     1      -9.917  31.985   7.605  1.00  0.00     0.266 C 
HETATM   37  N5  UNL     1     -10.936  32.858   8.024  1.00  0.00    -0.057 NA
HETATM   38  O3  UNL     1      -9.006  32.461   6.903  1.00  0.00    -0.271 OA
ENDBRANCH  35  36
ENDBRANCH   3  22
TORSDOF 10
ENDMDL
MODEL 4
REMARK VINA RESULT: -6.668364936      4.220      8.631
REMARK  10 active torsions:
REMARK  status: ('A' for Active; 'I' for Inactive)
REMARK    1  A    between atoms: C2_2  and  N1_4 
REMARK    2  A    between atoms: C2_2  and  C13_25 
REMARK       I    between atoms: N1_4  and  C4_6 
REMARK    3  A    between atoms: C4_6  and  C5_8 
REMARK    4  A    between atoms: C11_21  and  C12_22 
REMARK    5  A    between atoms: C13_25  and  O4_26 
REMARK    6  A    between atoms: C13_25  and  C14_28 
REMARK    7  A    between atoms: C14_28  and  C15_30 
REMARK    8  A    between atoms: C15_30  and  C16_32 
REMARK    9  A    between atoms: C16_32  and  N6_33 
REMARK   10  A    between atoms: C16_32  and  O7_37 
ROOT
HETATM    1  N1  UNL     1      -8.850  26.612  10.952  1.00  0.00    -0.345 N 
ATOM      2  H1  UNL     1      -8.905  27.619  10.801  1.00  0.00     0.163 HD
HETATM    3  C4  UNL     1      -9.545  25.864  10.001  1.00  0.00     0.253 C 
HETATM    4  O1  UNL     1      -9.574  24.614  10.024  1.00  0.00    -0.268 OA
ENDROOT
BRANCH   1   5
HETATM    5  C2  UNL     1      -8.091  26.254  12.076  1.00  0.00     0.059 C 
HETATM    6  C1  UNL     1      -6.929  25.312  11.631  1.00  0.00     0.041 C 
HETATM    7  C3  UNL     1      -8.867  25.448  13.091  1.00  0.00     0.041 C 
BRANCH   5   8
HETATM    8  C13 UNL     1      -7.398  27.403  12.813  1.00  0.00     0.223 C 
BRANCH   8   9
HETATM    9  O4  UNL     1      -6.905  28.244  11.786  1.00  0.00    -0.385 OA
ATOM     10  H4  UNL     1      -6.141  28.663  12.163  1.00  0.00     0.210 HD
ENDBRANCH   8   9
BRANCH   8  11
HETATM   11  C14 UNL     1      -8.409  28.211  13.542  1.00  0.00     0.230 C 
HETATM   12  O5  UNL     1      -9.341  28.752  12.842  1.00  0.00    -0.286 OA
BRANCH  11  13
HETATM   13  C15 UNL     1      -8.472  28.468  14.950  1.00  0.00     0.253 C 
HETATM   14  O6  UNL     1      -7.515  28.236  15.743  1.00  0.00    -0.284 OA
BRANCH  13  15
HETATM   15  C16 UNL     1      -9.686  29.036  15.624  1.00  0.00     0.395 C 
BRANCH  15  16
HETATM   16  N6  UNL     1      -9.764  30.437  15.267  1.00  0.00    -0.045 N 
ATOM     17  H63 UNL     1      -8.973  30.749  14.705  1.00  0.00     0.277 HD
ATOM     18  H62 UNL     1     -10.497  30.635  14.584  1.00  0.00     0.277 HD
ATOM     19  H61 UNL     1      -9.872  30.967  16.132  1.00  0.00     0.277 HD
ENDBRANCH  15  16
BRANCH  15  20
HETATM   20  O7  UNL     1     -10.822  28.336  15.289  1.00  0.00    -0.364 OA
ATOM     21  H7  UNL     1     -11.471  28.374  15.982  1.00  0.00     0.212 HD
ENDBRANCH  15  20
ENDBRANCH  13  15
ENDBRANCH  11  13
ENDBRANCH   8  11
ENDBRANCH   5   8
ENDBRANCH   1   5
BRANCH   3  22
HETATM   22  C5  UNL     1     -10.311  26.523   8.905  1.00  0.00     0.049 A 
HETATM   23  C6  UNL     1     -11.392  25.786   8.367  1.00  0.00     0.050 A 
HETATM   24  C7  UNL     1     -12.225  26.367   7.434  1.00  0.00     0.066 A 
HETATM   25  N2  UNL     1     -13.282  25.705   6.897  1.00  0.00    -0.285 N 
HETATM   26  C9  UNL     1     -11.966  27.661   7.057  1.00  0.00     0.062 A 
HETATM   27  N3  UNL     1     -14.075  26.312   6.002  1.00  0.00    -0.239 N 
ATOM     28  H2  UNL     1     -13.475  24.743   7.177  1.00  0.00     0.188 HD
HETATM   29  N4  UNL     1     -13.860  27.556   5.613  1.00  0.00    -0.251 N 
ATOM     30  H3  UNL     1     -14.865  25.799   5.610  1.00  0.00     0.208 HD
HETATM   31  C8  UNL     1     -12.821  28.231   6.127  1.00  0.00     0.273 A 
ATOM     32  H4  UNL     1     -14.476  27.998   4.930  1.00  0.00     0.192 HD
HETATM   33  O2  UNL     1     -12.576  29.420   5.788  1.00  0.00    -0.266 OA
HETATM   34  C10 UNL     1     -10.910  28.365   7.584  1.00  0.00     0.037 A 
HETATM   35  C11 UNL     1     -10.036  27.798   8.543  1.00  0.00     0.046 A 
BRANCH  35  36
HETATM   36  C12 UNL     1      -8.909  28.589   9.002  1.00  0.00     0.266 C 
HETATM   37  N5  UNL     1      -7.612  28.277   8.557  1.00  0.00    -0.057 NA
HETATM   38  O3  UNL     1      -9.031  29.548   9.786  1.00  0.00    -0.271 OA
ENDBRANCH  35  36
ENDBRANCH   3  22
TORSDOF 10
ENDMDL
MODEL 5
REMARK VINA RESULT: -6.664860473      3.265      7.461
REMARK  10 active torsions:
REMARK  status: ('A' for Active; 'I' for Inactive)
REMARK    1  A    between atoms: C2_2  and  N1_4 
REMARK    2  A    between atoms: C2_2  and  C13_25 
REMARK       I    between atoms: N1_4  and  C4_6 
REMARK    3  A    between atoms: C4_6  and  C5_8 
REMARK    4  A    between atoms: C11_21  and  C12_22 
REMARK    5  A    between atoms: C13_25  and  O4_26 
REMARK    6  A    between atoms: C13_25  and  C14_28 
REMARK    7  A    between atoms: C14_28  and  C15_30 
REMARK    8  A    between atoms: C15_30  and  C16_32 
REMARK    9  A    between atoms: C16_32  and  N6_33 
REMARK   10  A    between atoms: C16_32  and  O7_37 
ROOT
HETATM    1  N1  UNL     1      -8.906  28.631  10.407  1.00  0.00    -0.345 N 
ATOM      2  H1  UNL     1      -9.052  29.517   9.924  1.00  0.00     0.163 HD
HETATM    3  C4  UNL     1      -9.531  27.547   9.788  1.00  0.00     0.253 C 
HETATM    4  O1  UNL     1      -9.447  26.382  10.235  1.00  0.00    -0.268 OA
ENDROOT
BRANCH   1   5
HETATM    5  C2  UNL     1      -8.118  28.743  11.561  1.00  0.00     0.059 C 
HETATM    6  C1  UNL     1      -6.905  27.766  11.451  1.00  0.00     0.041 C 
HETATM    7  C3  UNL     1      -8.836  28.318  12.821  1.00  0.00     0.041 C 
BRANCH   5   8
HETATM    8  C13 UNL     1      -7.489  30.115  11.816  1.00  0.00     0.223 C 
BRANCH   8   9
HETATM    9  O4  UNL     1      -7.124  30.586  10.530  1.00  0.00    -0.385 OA
ATOM     10  H4  UNL     1      -6.187  30.734  10.585  1.00  0.00     0.210 HD
ENDBRANCH   8   9
BRANCH   8  11
HETATM   11  C14 UNL     1      -8.526  31.057  12.307  1.00  0.00     0.230 C 
HETATM   12  O5  UNL     1      -9.410  31.448  11.461  1.00  0.00    -0.286 OA
BRANCH  11  13
HETATM   13  C15 UNL     1      -8.661  31.595  13.628  1.00  0.00     0.253 C 
HETATM   14  O6  UNL     1      -8.124  31.077  14.649  1.00  0.00    -0.284 OA
BRANCH  13  15
HETATM   15  C16 UNL     1      -9.463  32.827  13.931  1.00  0.00     0.395 C 
BRANCH  15  16
HETATM   16  N6  UNL     1      -8.850  33.928  13.217  1.00  0.00    -0.045 N 
ATOM     17  H63 UNL     1      -8.130  33.626  12.562  1.00  0.00     0.277 HD
ATOM     18  H62 UNL     1      -9.475  34.360  12.536  1.00  0.00     0.277 HD
ATOM     19  H61 UNL     1      -8.503  34.588  13.914  1.00  0.00     0.277 HD
ENDBRANCH  15  16
BRANCH  15  20
HETATM   20  O7  UNL     1     -10.789  32.657  13.612  1.00  0.00    -0.364 OA
ATOM     21  H7  UNL     1     -11.333  33.321  14.018  1.00  0.00     0.212 HD
ENDBRANCH  15  20
ENDBRANCH  13  15
ENDBRANCH  11  13
ENDBRANCH   8  11
ENDBRANCH   5   8
ENDBRANCH   1   5
BRANCH   3  22
HETATM   22  C5  UNL     1     -10.354  27.725   8.558  1.00  0.00     0.049 A 
HETATM   23  C6  UNL     1     -11.308  26.716   8.291  1.00  0.00     0.050 A 
HETATM   24  C7  UNL     1     -12.190  26.861   7.241  1.00  0.00     0.066 A 
HETATM   25  N2  UNL     1     -13.131  25.926   6.953  1.00  0.00    -0.285 N 
HETATM   26  C9  UNL     1     -12.103  28.000   6.481  1.00  0.00     0.062 A 
HETATM   27  N3  UNL     1     -13.978  26.113   5.930  1.00  0.00    -0.239 N 
ATOM     28  H2  UNL     1     -13.195  25.079   7.517  1.00  0.00     0.188 HD
HETATM   29  N4  UNL     1     -13.928  27.196   5.174  1.00  0.00    -0.251 N 
ATOM     30  H3  UNL     1     -14.679  25.400   5.729  1.00  0.00     0.208 HD
HETATM   31  C8  UNL     1     -13.006  28.134   5.438  1.00  0.00     0.273 A 
ATOM     32  H4  UNL     1     -14.582  27.317   4.401  1.00  0.00     0.192 HD
HETATM   33  O2  UNL     1     -12.920  29.184   4.746  1.00  0.00    -0.266 OA
HETATM   34  C10 UNL     1     -11.170  28.973   6.748  1.00  0.00     0.037 A 
HETATM   35  C11 UNL     1     -10.250  28.854   7.818  1.00  0.00     0.046 A 
BRANCH  35  36
HETATM   36  C12 UNL     1      -9.255  29.898   7.991  1.00  0.00     0.266 C 
HETATM   37  N5  UNL     1      -7.929  29.670   7.582  1.00  0.00    -0.057 NA
HETATM   38  O3  UNL     1      -9.518  31.005   8.494  1.00  0.00    -0.271 OA
ENDBRANCH  35  36
ENDBRANCH   3  22
TORSDOF 10
ENDMDL
