MODEL 1
REMARK VINA RESULT: -7.739325529      0.000      0.000
REMARK  9 active torsions:
REMARK  status: ('A' for Active; 'I' for Inactive)
REMARK    1  A    between atoms: C4_8  and  C5_9 
REMARK    2  A    between atoms: C5_9  and  N3_10 
REMARK    3  A    between atoms: N6_20  and  C8_22 
REMARK    4  A    between atoms: C8_22  and  C9_23 
REMARK    5  A    between atoms: C9_23  and  O3_24 
REMARK    6  A    between atoms: C9_23  and  C10_26 
REMARK    7  A    between atoms: C10_26  and  O4_27 
REMARK    8  A    between atoms: C10_26  and  C11_29 
REMARK    9  A    between atoms: C11_29  and  N7_30 
ROOT
HETATM    1  C1  UNL     1      -7.099  27.616  12.272  1.00  0.00     0.164 C 
HETATM    2  N1  UNL     1      -7.831  28.280  11.214  1.00  0.00    -0.270 N 
HETATM    3  C2  UNL     1      -7.564  29.567  10.992  1.00  0.00     0.329 A 
HETATM    4  O1  UNL     1      -6.704  30.178  11.681  1.00  0.00    -0.246 OA
HETATM    5  N2  UNL     1      -8.195  30.259  10.033  1.00  0.00    -0.307 N 
ATOM      6  H2  UNL     1      -7.971  31.243   9.885  1.00  0.00     0.170 HD
HETATM    7  C3  UNL     1      -9.112  29.665   9.272  1.00  0.00     0.068 A 
HETATM    8  C4  UNL     1      -9.766  30.369   8.284  1.00  0.00     0.065 A 
HETATM    9  C6  UNL     1     -10.694  29.710   7.538  1.00  0.00     0.277 A 
HETATM   10  O2  UNL     1     -11.306  30.332   6.626  1.00  0.00    -0.266 OA
HETATM   11  N4  UNL     1     -10.999  28.420   7.719  1.00  0.00    -0.212 N 
HETATM   12  N5  UNL     1     -11.905  27.828   6.972  1.00  0.00    -0.255 N 
ATOM     13  H5  UNL     1     -12.384  28.357   6.244  1.00  0.00     0.191 HD
HETATM   14  C7  UNL     1     -12.202  26.537   7.162  1.00  0.00     0.241 A 
HETATM   15  N6  UNL     1     -13.096  26.008   6.401  1.00  0.00    -0.352 N 
ATOM     16  H6  UNL     1     -13.341  25.026   6.527  1.00  0.00     0.163 HD
HETATM   17  O5  UNL     1     -11.614  25.830   8.082  1.00  0.00    -0.259 OA
HETATM   18  C12 UNL     1     -10.678  26.377   8.881  1.00  0.00     0.175 A 
HETATM   19  N8  UNL     1     -10.203  25.576   9.715  1.00  0.00    -0.378 N 
ATOM     20  H81 UNL     1      -9.495  25.990  10.320  1.00  0.00     0.158 HD
ATOM     21  H82 UNL     1     -10.435  24.592   9.856  1.00  0.00     0.158 HD
HETATM   22  C13 UNL     1     -10.374  27.674   8.695  1.00  0.00     0.129 A 
HETATM   23  C14 UNL     1      -9.411  28.300   9.492  1.00  0.00     0.093 A 
HETATM   24  C15 UNL     1      -8.770  27.611  10.462  1.00  0.00     0.266 A 
HETATM   25  O6  UNL     1      -8.913  26.458  10.763  1.00  0.00    -0.267 OA
ENDROOT
BRANCH  15  26
HETATM   26  C8  UNL     1     -13.759  26.776   5.373  1.00  0.00     0.157 C 
BRANCH  26  27
HETATM   27  C9  UNL     1     -12.743  27.478   4.486  1.00  0.00     0.166 C 
BRANCH  27  28
HETATM   28  O3  UNL     1     -11.960  26.535   3.811  1.00  0.00    -0.391 OA
ATOM     29  H3  UNL     1     -12.159  26.550   2.882  1.00  0.00     0.210 HD
ENDBRANCH  27  28
BRANCH  27  30
HETATM   30  C10 UNL     1     -13.493  28.371   3.522  1.00  0.00     0.173 C 
BRANCH  30  31
HETATM   31  O4  UNL     1     -14.832  28.337   3.828  1.00  0.00    -0.391 OA
ATOM     32  H4  UNL     1     -14.937  28.427   4.768  1.00  0.00     0.210 HD
ENDBRANCH  30  31
BRANCH  30  33
HETATM   33  C11 UNL     1     -12.928  29.786   3.605  1.00  0.00     0.263 C 
BRANCH  33  34
HETATM   34  N7  UNL     1     -13.589  30.453   4.712  1.00  0.00    -0.077 N 
ATOM     35  H73 UNL     1     -13.562  31.469   4.638  1.00  0.00     0.274 HD
ATOM     36  H72 UNL     1     -14.603  30.345   4.694  1.00  0.00     0.274 HD
ATOM     37  H71 UNL     1     -13.167  30.106   5.574  1.00  0.00     0.274 HD
ENDBRANCH  33  34
ENDBRANCH  30  33
ENDBRANCH  27  30
ENDBRANCH  26  27
ENDBRANCH  15  26
BRANCH   8  38
HETATM   38  C5  UNL     1      -9.405  31.793   8.109  1.00  0.00     0.276 C 
BRANCH  38  39
HETATM   39  N3  UNL     1     -10.479  32.704   8.317  1.00  0.00    -0.075 N 
ATOM     40  H33 UNL     1     -10.934  32.517   9.211  1.00  0.00     0.274 HD
ATOM     41  H32 UNL     1     -10.120  33.642   8.495  1.00  0.00     0.274 HD
ATOM     42  H31 UNL     1     -11.168  32.724   7.565  1.00  0.00     0.274 HD
ENDBRANCH  38  39
ENDBRANCH   8  38
TORSDOF 9
ENDMDL
MODEL 2
REMARK VINA RESULT: -7.516639716      2.400      6.817
REMARK  9 active torsions:
REMARK  status: ('A' for Active; 'I' for Inactive)
REMARK    1  A    between atoms: C4_8  and  C5_9 
REMARK    2  A    between atoms: C5_9  and  N3_10 
REMARK    3  A    between atoms: N6_20  and  C8_22 
REMARK    4  A    between atoms: C8_22  and  C9_23 
REMARK    5  A    between atoms: C9_23  and  O3_24 
REMARK    6  A    between atoms: C9_23  and  C10_26 
REMARK    7  A    between atoms: C10_26  and  O4_27 
REMARK    8  A    between atoms: C10_26  and  C11_29 
REMARK    9  A    between atoms: C11_29  and  N7_30 
ROOT
HETATM    1  C1  UNL     1     -14.004  28.990   3.394  1.00  0.00     0.164 C 
HETATM    2  N1  UNL     1     -13.074  29.276   4.466  1.00  0.00    -0.270 N 
HETATM    3  C2  UNL     1     -12.587  30.515   4.548  1.00  0.00     0.329 A 
HETATM    4  O1  UNL     1     -12.929  31.401   3.719  1.00  0.00    -0.246 OA
HETATM    5  N2  UNL     1     -11.722  30.866   5.508  1.00  0.00    -0.307 N 
ATOM      6  H2  UNL     1     -11.365  31.821   5.547  1.00  0.00     0.170 HD
HETATM    7  C3  UNL     1     -11.325  29.972   6.412  1.00  0.00     0.068 A 
HETATM    8  C4  UNL     1     -10.435  30.325   7.404  1.00  0.00     0.065 A 
HETATM    9  C6  UNL     1     -10.066  29.370   8.300  1.00  0.00     0.277 A 
HETATM   10  O2  UNL     1      -9.252  29.668   9.217  1.00  0.00    -0.266 OA
HETATM   11  N4  UNL     1     -10.524  28.114   8.263  1.00  0.00    -0.212 N 
HETATM   12  N5  UNL     1     -10.136  27.226   9.152  1.00  0.00    -0.255 N 
ATOM     13  H5  UNL     1      -9.476  27.495   9.881  1.00  0.00     0.191 HD
HETATM   14  C7  UNL     1     -10.601  25.971   9.106  1.00  0.00     0.241 A 
HETATM   15  N6  UNL     1     -10.188  25.145  10.002  1.00  0.00    -0.352 N 
ATOM     16  H6  UNL     1     -10.527  24.183   9.987  1.00  0.00     0.163 HD
HETATM   17  O5  UNL     1     -11.442  25.590   8.190  1.00  0.00    -0.259 OA
HETATM   18  C12 UNL     1     -11.877  26.450   7.250  1.00  0.00     0.175 A 
HETATM   19  N8  UNL     1     -12.681  25.939   6.439  1.00  0.00    -0.378 N 
ATOM     20  H81 UNL     1     -13.010  26.590   5.727  1.00  0.00     0.158 HD
ATOM     21  H82 UNL     1     -13.031  24.981   6.408  1.00  0.00     0.158 HD
HETATM   22  C13 UNL     1     -11.415  27.712   7.291  1.00  0.00     0.129 A 
HETATM   23  C14 UNL     1     -11.829  28.652   6.343  1.00  0.00     0.093 A 
HETATM   24  C15 UNL     1     -12.701  28.308   5.371  1.00  0.00     0.266 A 
HETATM   25  O6  UNL     1     -13.212  27.237   5.185  1.00  0.00    -0.267 OA
ENDROOT
BRANCH  15  26
HETATM   26  C8  UNL     1      -9.256  25.550  11.028  1.00  0.00     0.157 C 
BRANCH  26  27
HETATM   27  C9  UNL     1      -8.777  24.347  11.826  1.00  0.00     0.166 C 
BRANCH  27  28
HETATM   28  O3  UNL     1      -9.470  24.266  13.038  1.00  0.00    -0.391 OA
ATOM     29  H3  UNL     1     -10.303  23.828  12.909  1.00  0.00     0.210 HD
ENDBRANCH  27  28
BRANCH  27  30
HETATM   30  C10 UNL     1      -8.983  23.108  10.982  1.00  0.00     0.173 C 
BRANCH  30  31
HETATM   31  O4  UNL     1      -8.183  23.185   9.868  1.00  0.00    -0.391 OA
ATOM     32  H4  UNL     1      -8.050  22.311   9.521  1.00  0.00     0.210 HD
ENDBRANCH  30  31
BRANCH  30  33
HETATM   33  C11 UNL     1      -8.671  21.872  11.821  1.00  0.00     0.263 C 
BRANCH  33  34
HETATM   34  N7  UNL     1      -9.920  21.419  12.407  1.00  0.00    -0.077 N 
ATOM     35  H73 UNL     1      -9.903  21.415  13.427  1.00  0.00     0.274 HD
ATOM     36  H72 UNL     1     -10.681  22.088  12.289  1.00  0.00     0.274 HD
ATOM     37  H71 UNL     1     -10.129  20.503  12.010  1.00  0.00     0.274 HD
ENDBRANCH  33  34
ENDBRANCH  30  33
ENDBRANCH  27  30
ENDBRANCH  26  27
ENDBRANCH  15  26
BRANCH   8  38
HETATM   38  C5  UNL     1      -9.948  31.722   7.417  1.00  0.00     0.276 C 
BRANCH  38  39
HETATM   39  N3  UNL     1     -10.316  32.464   8.575  1.00  0.00    -0.075 N 
ATOM     40  H33 UNL     1     -10.905  33.256   8.317  1.00  0.00     0.274 HD
ATOM     41  H32 UNL     1     -10.975  31.932   9.144  1.00  0.00     0.274 HD
ATOM     42  H31 UNL     1      -9.529  32.778   9.143  1.00  0.00     0.274 HD
ENDBRANCH  38  39
ENDBRANCH   8  38
TORSDOF 9
ENDMDL
MODEL 3
REMARK VINA RESULT: -7.483309285      2.961      5.531
REMARK  9 active torsions:
REMARK  status: ('A' for Active; 'I' for Inactive)
REMARK    1  A    between atoms: C4_8  and  C5_9 
REMARK    2  A    between atoms: C5_9  and  N3_10 
REMARK    3  A    between atoms: N6_20  and  C8_22 
REMARK    4  A    between atoms: C8_22  and  C9_23 
REMARK    5  A    between atoms: C9_23  and  O3_24 
REMARK    6  A    between atoms: C9_23  and  C10_26 
REMARK    7  A    between atoms: C10_26  and  O4_27 
REMARK    8  A    between atoms: C10_26  and  C11_29 
REMARK    9  A    between atoms: C11_29  and  N7_30 
ROOT
HETATM    1  C1  UNL     1     -12.333  25.792   7.613  1.00  0.00     0.164 C 
HETATM    2  N1  UNL     1     -11.916  27.138   7.278  1.00  0.00    -0.270 N 
HETATM    3  C2  UNL     1     -11.041  27.733   8.089  1.00  0.00     0.329 A 
HETATM    4  O1  UNL     1     -10.596  27.140   9.109  1.00  0.00    -0.246 OA
HETATM    5  N2  UNL     1     -10.602  28.977   7.855  1.00  0.00    -0.307 N 
ATOM      6  H2  UNL     1      -9.932  29.408   8.492  1.00  0.00     0.170 HD
HETATM    7  C3  UNL     1     -11.036  29.651   6.792  1.00  0.00     0.068 A 
HETATM    8  C4  UNL     1     -10.589  30.931   6.543  1.00  0.00     0.065 A 
HETATM    9  C6  UNL     1     -11.067  31.572   5.442  1.00  0.00     0.277 A 
HETATM   10  O2  UNL     1     -10.673  32.745   5.192  1.00  0.00    -0.266 OA
HETATM   11  N4  UNL     1     -11.945  31.020   4.597  1.00  0.00    -0.212 N 
HETATM   12  N5  UNL     1     -12.379  31.682   3.546  1.00  0.00    -0.255 N 
ATOM     13  H5  UNL     1     -12.043  32.629   3.370  1.00  0.00     0.191 HD
HETATM   14  C7  UNL     1     -13.257  31.120   2.706  1.00  0.00     0.241 A 
HETATM   15  N6  UNL     1     -13.646  31.812   1.693  1.00  0.00    -0.352 N 
ATOM     16  H6  UNL     1     -14.316  31.407   1.039  1.00  0.00     0.163 HD
HETATM   17  O5  UNL     1     -13.709  29.916   2.897  1.00  0.00    -0.259 OA
HETATM   18  C12 UNL     1     -13.305  29.186   3.955  1.00  0.00     0.175 A 
HETATM   19  N8  UNL     1     -13.825  28.050   4.006  1.00  0.00    -0.378 N 
ATOM     20  H81 UNL     1     -13.520  27.498   4.807  1.00  0.00     0.158 HD
ATOM     21  H82 UNL     1     -14.495  27.627   3.363  1.00  0.00     0.158 HD
HETATM   22  C13 UNL     1     -12.422  29.743   4.802  1.00  0.00     0.129 A 
HETATM   23  C14 UNL     1     -11.965  29.038   5.919  1.00  0.00     0.093 A 
HETATM   24  C15 UNL     1     -12.402  27.784   6.164  1.00  0.00     0.266 A 
HETATM   25  O6  UNL     1     -13.181  27.136   5.520  1.00  0.00    -0.267 OA
ENDROOT
BRANCH  15  26
HETATM   26  C8  UNL     1     -13.155  33.151   1.463  1.00  0.00     0.157 C 
BRANCH  26  27
HETATM   27  C9  UNL     1     -14.277  34.169   1.609  1.00  0.00     0.166 C 
BRANCH  27  28
HETATM   28  O3  UNL     1     -15.508  33.573   1.312  1.00  0.00    -0.391 OA
ATOM     29  H3  UNL     1     -16.216  34.177   1.502  1.00  0.00     0.210 HD
ENDBRANCH  27  28
BRANCH  27  30
HETATM   30  C10 UNL     1     -14.244  34.708   3.022  1.00  0.00     0.173 C 
BRANCH  30  31
HETATM   31  O4  UNL     1     -14.671  33.728   3.886  1.00  0.00    -0.391 OA
ATOM     32  H4  UNL     1     -13.956  33.123   4.044  1.00  0.00     0.210 HD
ENDBRANCH  30  31
BRANCH  30  33
HETATM   33  C11 UNL     1     -12.830  35.177   3.348  1.00  0.00     0.263 C 
BRANCH  33  34
HETATM   34  N7  UNL     1     -12.636  35.010   4.777  1.00  0.00    -0.077 N 
ATOM     35  H73 UNL     1     -11.981  35.684   5.171  1.00  0.00     0.274 HD
ATOM     36  H72 UNL     1     -13.453  35.282   5.324  1.00  0.00     0.274 HD
ATOM     37  H71 UNL     1     -12.354  34.042   4.936  1.00  0.00     0.274 HD
ENDBRANCH  33  34
ENDBRANCH  30  33
ENDBRANCH  27  30
ENDBRANCH  26  27
ENDBRANCH  15  26
BRANCH   8  38
HETATM   38  C5  UNL     1      -9.618  31.512   7.497  1.00  0.00     0.276 C 
BRANCH  38  39
HETATM   39  N3  UNL     1     -10.136  32.572   8.294  1.00  0.00    -0.075 N 
ATOM     40  H33 UNL     1      -9.518  33.382   8.251  1.00  0.00     0.274 HD
ATOM     41  H32 UNL     1     -10.972  32.966   7.862  1.00  0.00     0.274 HD
ATOM     42  H31 UNL     1     -10.324  32.319   9.264  1.00  0.00     0.274 HD
ENDBRANCH  38  39
ENDBRANCH   8  38
TORSDOF 9
ENDMDL
MODEL 4
REMARK VINA RESULT: -7.293578724      1.671      2.099
REMARK  9 active torsions:
REMARK  status: ('A' for Active; 'I' for Inactive)
REMARK    1  A    between atoms: C4_8  and  C5_9 
REMARK    2  A    between atoms: C5_9  and  N3_10 
REMARK    3  A    between atoms: N6_20  and  C8_22 
REMARK    4  A    between atoms: C8_22  and  C9_23 
REMARK    5  A    between atoms: C9_23  and  O3_24 
REMARK    6  A    between atoms: C9_23  and  C10_26 
REMARK    7  A    between atoms: C10_26  and  O4_27 
REMARK    8  A    between atoms: C10_26  and  C11_29 
REMARK    9  A    between atoms: C11_29  and  N7_30 
ROOT
HETATM    1  C1  UNL     1      -6.460  25.314  13.453  1.00  0.00     0.164 C 
HETATM    2  N1  UNL     1      -7.014  26.314  12.563  1.00  0.00    -0.270 N 
HETATM    3  C2  UNL     1      -6.539  27.556  12.656  1.00  0.00     0.329 A 
HETATM    4  O1  UNL     1      -5.638  27.843  13.490  1.00  0.00    -0.246 OA
HETATM    5  N2  UNL     1      -6.995  28.542  11.872  1.00  0.00    -0.307 N 
ATOM      6  H2  UNL     1      -6.613  29.483  11.965  1.00  0.00     0.170 HD
HETATM    7  C3  UNL     1      -7.945  28.297  10.972  1.00  0.00     0.068 A 
HETATM    8  C4  UNL     1      -8.420  29.305  10.162  1.00  0.00     0.065 A 
HETATM    9  C6  UNL     1      -9.391  28.996   9.260  1.00  0.00     0.277 A 
HETATM   10  O2  UNL     1      -9.843  29.902   8.506  1.00  0.00    -0.266 OA
HETATM   11  N4  UNL     1      -9.902  27.767   9.126  1.00  0.00    -0.212 N 
HETATM   12  N5  UNL     1     -10.841  27.518   8.240  1.00  0.00    -0.255 N 
ATOM     13  H5  UNL     1     -11.188  28.270   7.645  1.00  0.00     0.191 HD
HETATM   14  C7  UNL     1     -11.346  26.285   8.114  1.00  0.00     0.241 A 
HETATM   15  N6  UNL     1     -12.263  26.098   7.230  1.00  0.00    -0.352 N 
ATOM     16  H6  UNL     1     -12.664  25.167   7.115  1.00  0.00     0.163 HD
HETATM   17  O5  UNL     1     -10.932  25.300   8.855  1.00  0.00    -0.259 OA
HETATM   18  C12 UNL     1      -9.973  25.488   9.782  1.00  0.00     0.175 A 
HETATM   19  N8  UNL     1      -9.680  24.451  10.416  1.00  0.00    -0.378 N 
ATOM     20  H81 UNL     1      -8.954  24.594  11.118  1.00  0.00     0.158 HD
ATOM     21  H82 UNL     1     -10.068  23.513  10.316  1.00  0.00     0.158 HD
HETATM   22  C13 UNL     1      -9.461  26.725   9.914  1.00  0.00     0.129 A 
HETATM   23  C14 UNL     1      -8.464  26.985  10.858  1.00  0.00     0.093 A 
HETATM   24  C15 UNL     1      -7.997  25.998  11.653  1.00  0.00     0.266 A 
HETATM   25  O6  UNL     1      -8.335  24.846  11.672  1.00  0.00    -0.267 OA
ENDROOT
BRANCH  15  26
HETATM   26  C8  UNL     1     -12.735  27.179   6.396  1.00  0.00     0.157 C 
BRANCH  26  27
HETATM   27  C9  UNL     1     -13.276  26.644   5.078  1.00  0.00     0.166 C 
BRANCH  27  28
HETATM   28  O3  UNL     1     -14.483  25.969   5.292  1.00  0.00    -0.391 OA
ATOM     29  H3  UNL     1     -14.314  25.059   5.504  1.00  0.00     0.210 HD
ENDBRANCH  27  28
BRANCH  27  30
HETATM   30  C10 UNL     1     -13.450  27.811   4.130  1.00  0.00     0.173 C 
BRANCH  30  31
HETATM   31  O4  UNL     1     -14.792  28.032   3.933  1.00  0.00    -0.391 OA
ATOM     32  H4  UNL     1     -15.285  27.327   4.335  1.00  0.00     0.210 HD
ENDBRANCH  30  31
BRANCH  30  33
HETATM   33  C11 UNL     1     -12.751  29.037   4.710  1.00  0.00     0.263 C 
BRANCH  33  34
HETATM   34  N7  UNL     1     -13.591  30.187   4.429  1.00  0.00    -0.077 N 
ATOM     35  H73 UNL     1     -13.248  30.750   3.650  1.00  0.00     0.274 HD
ATOM     36  H72 UNL     1     -14.492  29.934   4.024  1.00  0.00     0.274 HD
ATOM     37  H71 UNL     1     -13.679  30.719   5.295  1.00  0.00     0.274 HD
ENDBRANCH  33  34
ENDBRANCH  30  33
ENDBRANCH  27  30
ENDBRANCH  26  27
ENDBRANCH  15  26
BRANCH   8  38
HETATM   38  C5  UNL     1      -7.833  30.652  10.335  1.00  0.00     0.276 C 
BRANCH  38  39
HETATM   39  N3  UNL     1      -8.754  31.644  10.778  1.00  0.00    -0.075 N 
ATOM     40  H33 UNL     1      -9.608  31.609  10.222  1.00  0.00     0.274 HD
ATOM     41  H32 UNL     1      -9.130  31.396  11.694  1.00  0.00     0.274 HD
ATOM     42  H31 UNL     1      -8.378  32.592  10.794  1.00  0.00     0.274 HD
ENDBRANCH  38  39
ENDBRANCH   8  38
TORSDOF 9
ENDMDL
MODEL 5
REMARK VINA RESULT: -7.222407628      3.311      6.003
REMARK  9 active torsions:
REMARK  status: ('A' for Active; 'I' for Inactive)
REMARK    1  A    between atoms: C4_8  and  C5_9 
REMARK    2  A    between atoms: C5_9  and  N3_10 
REMARK    3  A    between atoms: N6_20  and  C8_22 
REMARK    4  A    between atoms: C8_22  and  C9_23 
REMARK    5  A    between atoms: C9_23  and  O3_24 
REMARK    6  A    between atoms: C9_23  and  C10_26 
REMARK    7  A    between atoms: C10_26  and  O4_27 
REMARK    8  A    between atoms: C10_26  and  C11_29 
REMARK    9  A    between atoms: C11_29  and  N7_30 
ROOT
HETATM    1  C1  UNL     1      -9.954  27.099   9.470  1.00  0.00     0.164 C 
HETATM    2  N1  UNL     1     -10.696  27.587   8.326  1.00  0.00    -0.270 N 
HETATM    3  C2  UNL     1     -11.537  26.743   7.728  1.00  0.00     0.329 A 
HETATM    4  O1  UNL     1     -11.677  25.563   8.149  1.00  0.00    -0.246 OA
HETATM    5  N2  UNL     1     -12.262  27.111   6.664  1.00  0.00    -0.307 N 
ATOM      6  H2  UNL     1     -12.897  26.444   6.226  1.00  0.00     0.170 HD
HETATM    7  C3  UNL     1     -12.156  28.346   6.176  1.00  0.00     0.068 A 
HETATM    8  C4  UNL     1     -12.898  28.733   5.081  1.00  0.00     0.065 A 
HETATM    9  C6  UNL     1     -12.748  30.007   4.627  1.00  0.00     0.277 A 
HETATM   10  O2  UNL     1     -13.417  30.387   3.626  1.00  0.00    -0.266 OA
HETATM   11  N4  UNL     1     -11.919  30.893   5.190  1.00  0.00    -0.212 N 
HETATM   12  N5  UNL     1     -11.809  32.114   4.712  1.00  0.00    -0.255 N 
ATOM     13  H5  UNL     1     -12.361  32.392   3.901  1.00  0.00     0.191 HD
HETATM   14  C7  UNL     1     -10.976  32.993   5.283  1.00  0.00     0.241 A 
HETATM   15  N6  UNL     1     -10.909  34.174   4.775  1.00  0.00    -0.352 N 
ATOM     16  H6  UNL     1     -10.281  34.861   5.192  1.00  0.00     0.163 HD
HETATM   17  O5  UNL     1     -10.255  32.676   6.317  1.00  0.00    -0.259 OA
HETATM   18  C12 UNL     1     -10.320  31.442   6.854  1.00  0.00     0.175 A 
HETATM   19  N8  UNL     1      -9.570  31.286   7.842  1.00  0.00    -0.378 N 
ATOM     20  H81 UNL     1      -9.620  30.352   8.248  1.00  0.00     0.158 HD
ATOM     21  H82 UNL     1      -8.936  31.960   8.273  1.00  0.00     0.158 HD
HETATM   22  C13 UNL     1     -11.155  30.554   6.286  1.00  0.00     0.129 A 
HETATM   23  C14 UNL     1     -11.269  29.257   6.795  1.00  0.00     0.093 A 
HETATM   24  C15 UNL     1     -10.542  28.876   7.868  1.00  0.00     0.266 A 
HETATM   25  O6  UNL     1      -9.756  29.531   8.496  1.00  0.00    -0.267 OA
ENDROOT
BRANCH  15  26
HETATM   26  C8  UNL     1     -11.704  34.546   3.628  1.00  0.00     0.157 C 
BRANCH  26  27
HETATM   27  C9  UNL     1     -13.022  35.167   4.065  1.00  0.00     0.166 C 
BRANCH  27  28
HETATM   28  O3  UNL     1     -13.009  36.545   3.821  1.00  0.00    -0.391 OA
ATOM     29  H3  UNL     1     -13.895  36.861   3.692  1.00  0.00     0.210 HD
ENDBRANCH  27  28
BRANCH  27  30
HETATM   30  C10 UNL     1     -14.141  34.479   3.314  1.00  0.00     0.173 C 
BRANCH  30  31
HETATM   31  O4  UNL     1     -14.377  33.252   3.887  1.00  0.00    -0.391 OA
ATOM     32  H4  UNL     1     -14.534  33.370   4.816  1.00  0.00     0.210 HD
ENDBRANCH  30  31
BRANCH  30  33
HETATM   33  C11 UNL     1     -15.382  35.366   3.339  1.00  0.00     0.263 C 
BRANCH  33  34
HETATM   34  N7  UNL     1     -15.433  36.075   2.073  1.00  0.00    -0.077 N 
ATOM     35  H73 UNL     1     -14.581  36.598   1.875  1.00  0.00     0.274 HD
ATOM     36  H72 UNL     1     -15.398  35.452   1.266  1.00  0.00     0.274 HD
ATOM     37  H71 UNL     1     -16.266  36.663   2.087  1.00  0.00     0.274 HD
ENDBRANCH  33  34
ENDBRANCH  30  33
ENDBRANCH  27  30
ENDBRANCH  26  27
ENDBRANCH  15  26
BRANCH   8  38
HETATM   38  C5  UNL     1     -13.805  27.730   4.483  1.00  0.00     0.276 C 
BRANCH  38  39
HETATM   39  N3  UNL     1     -13.766  27.673   3.061  1.00  0.00    -0.075 N 
ATOM     40  H33 UNL     1     -13.772  26.703   2.744  1.00  0.00     0.274 HD
ATOM     41  H32 UNL     1     -14.652  27.991   2.668  1.00  0.00     0.274 HD
ATOM     42  H31 UNL     1     -12.988  28.180   2.638  1.00  0.00     0.274 HD
ENDBRANCH  38  39
ENDBRANCH   8  38
TORSDOF 9
ENDMDL
