MODEL 1
REMARK VINA RESULT: -10.386801892      0.000      0.000
REMARK  4 active torsions:
REMARK  status: ('A' for Active; 'I' for Inactive)
REMARK    1  A    between atoms: O1_2  and  C2_3 
REMARK    2  A    between atoms: C3_6  and  N2_7 
REMARK    3  A    between atoms: N2_7  and  C4_9 
REMARK    4  A    between atoms: C4_9  and  C5_10 
ROOT
HETATM    1  C5  UNL     1     -64.771  49.545   1.555  1.00  0.00    -0.039 A 
HETATM    2  C6  UNL     1     -63.632  49.477   2.323  1.00  0.00     0.018 A 
HETATM    3  C7  UNL     1     -63.741  49.159   3.668  1.00  0.00    -0.034 A 
HETATM    4  C8  UNL     1     -62.548  49.070   4.552  1.00  0.00     0.050 C 
HETATM    5  C9  UNL     1     -64.978  48.912   4.232  1.00  0.00     0.058 A 
HETATM    6  N3  UNL     1     -65.127  48.602   5.530  1.00  0.00    -0.307 N 
ATOM      7  H3  UNL     1     -64.293  48.548   6.114  1.00  0.00     0.170 HD
HETATM    8  C10 UNL     1     -66.320  48.359   6.099  1.00  0.00     0.327 A 
HETATM    9  O2  UNL     1     -66.433  48.065   7.334  1.00  0.00    -0.247 OA
HETATM   10  N4  UNL     1     -67.443  48.421   5.360  1.00  0.00    -0.275 N 
ATOM     11  H4  UNL     1     -68.353  48.238   5.783  1.00  0.00     0.173 HD
HETATM   12  C11 UNL     1     -67.346  48.729   4.051  1.00  0.00     0.261 A 
HETATM   13  O3  UNL     1     -68.369  48.804   3.299  1.00  0.00    -0.267 OA
HETATM   14  C12 UNL     1     -66.129  48.980   3.458  1.00  0.00     0.060 A 
HETATM   15  C13 UNL     1     -66.005  49.298   2.119  1.00  0.00     0.028 A 
ENDROOT
BRANCH   1  16
HETATM   16  C4  UNL     1     -64.653  49.886   0.113  1.00  0.00     0.160 C 
BRANCH  16  17
HETATM   17  N2  UNL     1     -65.905  49.571  -0.548  1.00  0.00    -0.370 N 
ATOM     18  H2  UNL     1     -66.766  50.030  -0.252  1.00  0.00     0.161 HD
BRANCH  17  19
HETATM   19  C3  UNL     1     -65.932  48.711  -1.509  1.00  0.00     0.128 A 
HETATM   20  N1  UNL     1     -65.084  48.853  -2.557  1.00  0.00    -0.307 N 
HETATM   21  C2  UNL     1     -65.068  47.990  -3.584  1.00  0.00     0.225 A 
ATOM     22  H1  UNL     1     -64.438  49.642  -2.566  1.00  0.00     0.171 HD
HETATM   23  N5  UNL     1     -65.933  46.951  -3.553  1.00  0.00    -0.324 N 
HETATM   24  C15 UNL     1     -66.792  46.761  -2.545  1.00  0.00     0.034 A 
ATOM     25  H5  UNL     1     -65.930  46.287  -4.327  1.00  0.00     0.169 HD
HETATM   26  C14 UNL     1     -66.814  47.645  -1.486  1.00  0.00     0.100 A 
HETATM   27  C16 UNL     1     -67.738  45.618  -2.518  1.00  0.00     0.070 C 
HETATM   28 CL1  UNL     1     -67.912  47.458  -0.130  1.00  0.00    -0.078 Cl
BRANCH  21  29
HETATM   29  O1  UNL     1     -64.185  48.172  -4.638  1.00  0.00    -0.327 OA
HETATM   30  C1  UNL     1     -63.950  49.477  -5.134  1.00  0.00     0.213 C 
ENDBRANCH  21  29
ENDBRANCH  17  19
ENDBRANCH  16  17
ENDBRANCH   1  16
TORSDOF 4
ENDMDL
MODEL 2
REMARK VINA RESULT: -10.070551771      1.477      2.445
REMARK  4 active torsions:
REMARK  status: ('A' for Active; 'I' for Inactive)
REMARK    1  A    between atoms: O1_2  and  C2_3 
REMARK    2  A    between atoms: C3_6  and  N2_7 
REMARK    3  A    between atoms: N2_7  and  C4_9 
REMARK    4  A    between atoms: C4_9  and  C5_10 
ROOT
HETATM    1  C5  UNL     1     -64.781  49.348   1.912  1.00  0.00    -0.039 A 
HETATM    2  C6  UNL     1     -66.048  49.110   2.391  1.00  0.00     0.018 A 
HETATM    3  C7  UNL     1     -66.228  48.886   3.747  1.00  0.00    -0.034 A 
HETATM    4  C8  UNL     1     -67.572  48.622   4.327  1.00  0.00     0.050 C 
HETATM    5  C9  UNL     1     -65.149  48.901   4.610  1.00  0.00     0.058 A 
HETATM    6  N3  UNL     1     -65.280  48.688   5.929  1.00  0.00    -0.307 N 
ATOM      7  H3  UNL     1     -66.213  48.510   6.301  1.00  0.00     0.170 HD
HETATM    8  C10 UNL     1     -64.244  48.698   6.785  1.00  0.00     0.327 A 
HETATM    9  O2  UNL     1     -64.396  48.494   8.033  1.00  0.00    -0.247 OA
HETATM   10  N4  UNL     1     -62.998  48.930   6.331  1.00  0.00    -0.275 N 
ATOM     11  H4  UNL     1     -62.206  48.939   6.974  1.00  0.00     0.173 HD
HETATM   12  C11 UNL     1     -62.815  49.150   5.014  1.00  0.00     0.261 A 
HETATM   13  O3  UNL     1     -61.663  49.374   4.522  1.00  0.00    -0.267 OA
HETATM   14  C12 UNL     1     -63.868  49.141   4.128  1.00  0.00     0.060 A 
HETATM   15  C13 UNL     1     -63.704  49.363   2.774  1.00  0.00     0.028 A 
ENDROOT
BRANCH   1  16
HETATM   16  C4  UNL     1     -64.589  49.588   0.458  1.00  0.00     0.160 C 
BRANCH  16  17
HETATM   17  N2  UNL     1     -65.852  49.377  -0.224  1.00  0.00    -0.370 N 
ATOM     18  H2  UNL     1     -66.696  49.838   0.115  1.00  0.00     0.161 HD
BRANCH  17  19
HETATM   19  C3  UNL     1     -65.910  48.608  -1.257  1.00  0.00     0.128 A 
HETATM   20  N1  UNL     1     -65.073  48.826  -2.301  1.00  0.00    -0.307 N 
HETATM   21  C2  UNL     1     -65.088  48.058  -3.401  1.00  0.00     0.225 A 
ATOM     22  H1  UNL     1     -64.409  49.599  -2.248  1.00  0.00     0.171 HD
HETATM   23  N5  UNL     1     -65.975  47.038  -3.450  1.00  0.00    -0.324 N 
HETATM   24  C15 UNL     1     -66.825  46.776  -2.451  1.00  0.00     0.034 A 
ATOM     25  H5  UNL     1     -65.996  46.447  -4.280  1.00  0.00     0.169 HD
HETATM   26  C14 UNL     1     -66.815  47.562  -1.317  1.00  0.00     0.100 A 
HETATM   27  C16 UNL     1     -67.796  45.655  -2.513  1.00  0.00     0.070 C 
HETATM   28 CL1  UNL     1     -67.899  47.278   0.032  1.00  0.00    -0.078 Cl
BRANCH  21  29
HETATM   29  O1  UNL     1     -64.214  48.316  -4.447  1.00  0.00    -0.327 OA
HETATM   30  C1  UNL     1     -64.193  49.601  -5.038  1.00  0.00     0.213 C 
ENDBRANCH  21  29
ENDBRANCH  17  19
ENDBRANCH  16  17
ENDBRANCH   1  16
TORSDOF 4
ENDMDL
MODEL 3
REMARK VINA RESULT: -10.057929527      1.290      1.359
REMARK  4 active torsions:
REMARK  status: ('A' for Active; 'I' for Inactive)
REMARK    1  A    between atoms: O1_2  and  C2_3 
REMARK    2  A    between atoms: C3_6  and  N2_7 
REMARK    3  A    between atoms: N2_7  and  C4_9 
REMARK    4  A    between atoms: C4_9  and  C5_10 
ROOT
HETATM    1  C5  UNL     1     -64.548  49.351   1.759  1.00  0.00    -0.039 A 
HETATM    2  C6  UNL     1     -63.330  49.785   2.227  1.00  0.00     0.018 A 
HETATM    3  C7  UNL     1     -62.925  49.419   3.501  1.00  0.00    -0.034 A 
HETATM    4  C8  UNL     1     -61.620  49.856   4.066  1.00  0.00     0.050 C 
HETATM    5  C9  UNL     1     -63.733  48.626   4.293  1.00  0.00     0.058 A 
HETATM    6  N3  UNL     1     -63.379  48.249   5.532  1.00  0.00    -0.307 N 
ATOM      7  H3  UNL     1     -62.479  48.563   5.895  1.00  0.00     0.170 HD
HETATM    8  C10 UNL     1     -64.150  47.479   6.319  1.00  0.00     0.327 A 
HETATM    9  O2  UNL     1     -63.789  47.135   7.491  1.00  0.00    -0.247 OA
HETATM   10  N4  UNL     1     -65.344  47.046   5.874  1.00  0.00    -0.275 N 
ATOM     11  H4  UNL     1     -65.936  46.462   6.465  1.00  0.00     0.173 HD
HETATM   12  C11 UNL     1     -65.745  47.397   4.636  1.00  0.00     0.261 A 
HETATM   13  O3  UNL     1     -66.862  47.021   4.158  1.00  0.00    -0.267 OA
HETATM   14  C12 UNL     1     -64.964  48.186   3.822  1.00  0.00     0.060 A 
HETATM   15  C13 UNL     1     -65.354  48.559   2.550  1.00  0.00     0.028 A 
ENDROOT
BRANCH   1  16
HETATM   16  C4  UNL     1     -64.981  49.744   0.393  1.00  0.00     0.160 C 
BRANCH  16  17
HETATM   17  N2  UNL     1     -66.185  49.011   0.053  1.00  0.00    -0.370 N 
ATOM     18  H2  UNL     1     -67.001  49.063   0.661  1.00  0.00     0.161 HD
BRANCH  17  19
HETATM   19  C3  UNL     1     -66.226  48.293  -1.018  1.00  0.00     0.128 A 
HETATM   20  N1  UNL     1     -65.394  48.581  -2.049  1.00  0.00    -0.307 N 
HETATM   21  C2  UNL     1     -65.393  47.869  -3.186  1.00  0.00     0.225 A 
ATOM     22  H1  UNL     1     -64.749  49.366  -1.958  1.00  0.00     0.171 HD
HETATM   23  N5  UNL     1     -66.256  46.833  -3.286  1.00  0.00    -0.324 N 
HETATM   24  C15 UNL     1     -67.099  46.502  -2.302  1.00  0.00     0.034 A 
ATOM     25  H5  UNL     1     -66.264  46.283  -4.145  1.00  0.00     0.169 HD
HETATM   26  C14 UNL     1     -67.106  47.231  -1.131  1.00  0.00     0.100 A 
HETATM   27  C16 UNL     1     -68.044  45.364  -2.420  1.00  0.00     0.070 C 
HETATM   28 CL1  UNL     1     -68.184  46.855   0.202  1.00  0.00    -0.078 Cl
BRANCH  21  29
HETATM   29  O1  UNL     1     -64.525  48.199  -4.217  1.00  0.00    -0.327 OA
HETATM   30  C1  UNL     1     -64.282  49.560  -4.517  1.00  0.00     0.213 C 
ENDBRANCH  21  29
ENDBRANCH  17  19
ENDBRANCH  16  17
ENDBRANCH   1  16
TORSDOF 4
ENDMDL
MODEL 4
REMARK VINA RESULT: -9.703703940      3.083      7.492
REMARK  4 active torsions:
REMARK  status: ('A' for Active; 'I' for Inactive)
REMARK    1  A    between atoms: O1_2  and  C2_3 
REMARK    2  A    between atoms: C3_6  and  N2_7 
REMARK    3  A    between atoms: N2_7  and  C4_9 
REMARK    4  A    between atoms: C4_9  and  C5_10 
ROOT
HETATM    1  C5  UNL     1     -65.219  49.003   0.868  1.00  0.00    -0.039 A 
HETATM    2  C6  UNL     1     -66.317  48.452   1.487  1.00  0.00     0.018 A 
HETATM    3  C7  UNL     1     -67.203  47.691   0.741  1.00  0.00    -0.034 A 
HETATM    4  C8  UNL     1     -68.409  47.070   1.351  1.00  0.00     0.050 C 
HETATM    5  C9  UNL     1     -66.988  47.485  -0.608  1.00  0.00     0.058 A 
HETATM    6  N3  UNL     1     -67.822  46.755  -1.366  1.00  0.00    -0.307 N 
ATOM      7  H3  UNL     1     -68.642  46.340  -0.923  1.00  0.00     0.170 HD
HETATM    8  C10 UNL     1     -67.632  46.543  -2.679  1.00  0.00     0.327 A 
HETATM    9  O2  UNL     1     -68.439  45.845  -3.376  1.00  0.00    -0.247 OA
HETATM   10  N4  UNL     1     -66.562  47.075  -3.299  1.00  0.00    -0.275 N 
ATOM     11  H4  UNL     1     -66.410  46.919  -4.295  1.00  0.00     0.173 HD
HETATM   12  C11 UNL     1     -65.694  47.816  -2.580  1.00  0.00     0.261 A 
HETATM   13  O3  UNL     1     -64.664  48.346  -3.107  1.00  0.00    -0.267 OA
HETATM   14  C12 UNL     1     -65.880  48.040  -1.235  1.00  0.00     0.060 A 
HETATM   15  C13 UNL     1     -65.005  48.796  -0.479  1.00  0.00     0.028 A 
ENDROOT
BRANCH   1  16
HETATM   16  C4  UNL     1     -64.269  49.818   1.669  1.00  0.00     0.160 C 
BRANCH  16  17
HETATM   17  N2  UNL     1     -63.341  48.932   2.343  1.00  0.00    -0.370 N 
ATOM     18  H2  UNL     1     -63.011  48.088   1.875  1.00  0.00     0.161 HD
BRANCH  17  19
HETATM   19  C3  UNL     1     -62.931  49.207   3.535  1.00  0.00     0.128 A 
HETATM   20  N1  UNL     1     -61.784  49.910   3.702  1.00  0.00    -0.307 N 
HETATM   21  C2  UNL     1     -61.311  50.225   4.917  1.00  0.00     0.225 A 
ATOM     22  H1  UNL     1     -61.264  50.209   2.877  1.00  0.00     0.171 HD
HETATM   23  N5  UNL     1     -62.016  49.820   5.997  1.00  0.00    -0.324 N 
HETATM   24  C15 UNL     1     -63.153  49.124   5.893  1.00  0.00     0.034 A 
ATOM     25  H5  UNL     1     -61.667  50.054   6.926  1.00  0.00     0.169 HD
HETATM   26  C14 UNL     1     -63.646  48.796   4.647  1.00  0.00     0.100 A 
HETATM   27  C16 UNL     1     -63.922  48.682   7.084  1.00  0.00     0.070 C 
HETATM   28 CL1  UNL     1     -65.131  47.887   4.433  1.00  0.00    -0.078 Cl
BRANCH  21  29
HETATM   29  O1  UNL     1     -60.132  50.945   5.044  1.00  0.00    -0.327 OA
HETATM   30  C1  UNL     1     -59.660  51.710   3.950  1.00  0.00     0.213 C 
ENDBRANCH  21  29
ENDBRANCH  17  19
ENDBRANCH  16  17
ENDBRANCH   1  16
TORSDOF 4
ENDMDL
MODEL 5
REMARK VINA RESULT: -9.692229081      1.835      7.881
REMARK  4 active torsions:
REMARK  status: ('A' for Active; 'I' for Inactive)
REMARK    1  A    between atoms: O1_2  and  C2_3 
REMARK    2  A    between atoms: C3_6  and  N2_7 
REMARK    3  A    between atoms: N2_7  and  C4_9 
REMARK    4  A    between atoms: C4_9  and  C5_10 
ROOT
HETATM    1  C5  UNL     1     -67.371  47.637   0.580  1.00  0.00    -0.039 A 
HETATM    2  C6  UNL     1     -67.836  46.575  -0.159  1.00  0.00     0.018 A 
HETATM    3  C7  UNL     1     -67.374  46.397  -1.453  1.00  0.00    -0.034 A 
HETATM    4  C8  UNL     1     -67.838  45.268  -2.304  1.00  0.00     0.050 C 
HETATM    5  C9  UNL     1     -66.455  47.274  -1.997  1.00  0.00     0.058 A 
HETATM    6  N3  UNL     1     -65.982  47.137  -3.247  1.00  0.00    -0.307 N 
ATOM      7  H3  UNL     1     -66.318  46.354  -3.808  1.00  0.00     0.170 HD
HETATM    8  C10 UNL     1     -65.089  47.979  -3.794  1.00  0.00     0.327 A 
HETATM    9  O2  UNL     1     -64.656  47.825  -4.983  1.00  0.00    -0.247 OA
HETATM   10  N4  UNL     1     -64.625  49.023  -3.084  1.00  0.00    -0.275 N 
ATOM     11  H4  UNL     1     -63.947  49.667  -3.492  1.00  0.00     0.173 HD
HETATM   12  C11 UNL     1     -65.069  49.203  -1.824  1.00  0.00     0.261 A 
HETATM   13  O3  UNL     1     -64.668  50.170  -1.100  1.00  0.00    -0.267 OA
HETATM   14  C12 UNL     1     -65.984  48.348  -1.252  1.00  0.00     0.060 A 
HETATM   15  C13 UNL     1     -66.453  48.513   0.036  1.00  0.00     0.028 A 
ENDROOT
BRANCH   1  16
HETATM   16  C4  UNL     1     -67.867  47.828   1.968  1.00  0.00     0.160 C 
BRANCH  16  17
HETATM   17  N2  UNL     1     -67.063  48.844   2.619  1.00  0.00    -0.370 N 
ATOM     18  H2  UNL     1     -67.050  49.795   2.250  1.00  0.00     0.161 HD
BRANCH  17  19
HETATM   19  C3  UNL     1     -66.366  48.549   3.663  1.00  0.00     0.128 A 
HETATM   20  N1  UNL     1     -66.964  47.942   4.717  1.00  0.00    -0.307 N 
HETATM   21  C2  UNL     1     -66.288  47.611   5.827  1.00  0.00     0.225 A 
ATOM     22  H1  UNL     1     -67.960  47.729   4.664  1.00  0.00     0.171 HD
HETATM   23  N5  UNL     1     -64.968  47.901   5.877  1.00  0.00    -0.324 N 
HETATM   24  C15 UNL     1     -64.326  48.500   4.868  1.00  0.00     0.034 A 
ATOM     25  H5  UNL     1     -64.443  47.655   6.715  1.00  0.00     0.169 HD
HETATM   26  C14 UNL     1     -65.014  48.842   3.723  1.00  0.00     0.100 A 
HETATM   27  C16 UNL     1     -62.877  48.815   4.930  1.00  0.00     0.070 C 
HETATM   28 CL1  UNL     1     -64.238  49.628   2.360  1.00  0.00    -0.078 Cl
BRANCH  21  29
HETATM   29  O1  UNL     1     -66.939  46.991   6.884  1.00  0.00    -0.327 OA
HETATM   30  C1  UNL     1     -68.064  46.172   6.627  1.00  0.00     0.213 C 
ENDBRANCH  21  29
ENDBRANCH  17  19
ENDBRANCH  16  17
ENDBRANCH   1  16
TORSDOF 4
ENDMDL
