MODEL 1
REMARK VINA RESULT: -4.780099390      0.000      0.000
REMARK  10 active torsions:
REMARK  status: ('A' for Active; 'I' for Inactive)
REMARK    1  A    between atoms: N1_1  and  C1_5 
REMARK    2  A    between atoms: C1_5  and  C2_6 
REMARK    3  A    between atoms: C2_6  and  N2_7 
REMARK    4  A    between atoms: N2_7  and  C3_9 
REMARK    5  A    between atoms: C3_9  and  N3_11 
REMARK    6  A    between atoms: N3_11  and  N4_13 
REMARK    7  A    between atoms: N4_13  and  C4_15 
REMARK    8  A    between atoms: C4_15  and  N5_17 
REMARK    9  A    between atoms: N5_17  and  C5_19 
REMARK   10  A    between atoms: C5_19  and  C6_20 
ROOT
HETATM    1  N3  UNL     1      40.607  68.998  85.843  1.00  0.00    -0.274 N 
ATOM      2  H3  UNL     1      40.734  68.015  85.604  1.00  0.00     0.189 HD
ENDROOT
BRANCH   1   3
HETATM    3  C3  UNL     1      41.761  69.762  86.051  1.00  0.00     0.186 C 
HETATM    4  S1  UNL     1      42.630  69.588  87.407  1.00  0.00    -0.040 SA
BRANCH   3   5
HETATM    5  N2  UNL     1      42.196  70.710  85.109  1.00  0.00    -0.364 N 
ATOM      6  H2  UNL     1      42.223  71.695  85.373  1.00  0.00     0.162 HD
BRANCH   5   7
HETATM    7  C2  UNL     1      42.610  70.324  83.765  1.00  0.00     0.149 C 
BRANCH   7   8
HETATM    8  C1  UNL     1      41.551  70.759  82.785  1.00  0.00     0.249 C 
BRANCH   8   9
HETATM    9  N1  UNL     1      41.293  72.179  82.939  1.00  0.00    -0.078 N 
ATOM     10  H13 UNL     1      41.685  72.725  82.172  1.00  0.00     0.274 HD
ATOM     11  H12 UNL     1      40.310  72.409  82.794  1.00  0.00     0.274 HD
ATOM     12  H11 UNL     1      41.632  72.496  83.847  1.00  0.00     0.274 HD
ENDBRANCH   8   9
ENDBRANCH   7   8
ENDBRANCH   5   7
ENDBRANCH   3   5
ENDBRANCH   1   3
BRANCH   1  13
HETATM   13  N4  UNL     1      39.309  69.468  85.937  1.00  0.00    -0.274 N 
ATOM     14  H4  UNL     1      39.136  70.303  86.498  1.00  0.00     0.189 HD
BRANCH  13  15
HETATM   15  C4  UNL     1      38.196  68.846  85.289  1.00  0.00     0.186 C 
HETATM   16  S2  UNL     1      37.822  67.268  85.538  1.00  0.00    -0.040 SA
BRANCH  15  17
HETATM   17  N5  UNL     1      37.375  69.593  84.429  1.00  0.00    -0.365 N 
ATOM     18  H5  UNL     1      37.785  70.030  83.604  1.00  0.00     0.161 HD
BRANCH  17  19
HETATM   19  C5  UNL     1      35.969  69.757  84.685  1.00  0.00     0.133 C 
BRANCH  19  20
HETATM   20  C6  UNL     1      35.758  70.413  86.081  1.00  0.00     0.104 C 
HETATM   21 BR1  UNL     1      34.397  69.480  87.049  1.00  0.00    -0.095 Br
ENDBRANCH  19  20
ENDBRANCH  17  19
ENDBRANCH  15  17
ENDBRANCH  13  15
ENDBRANCH   1  13
TORSDOF 10
ENDMDL
MODEL 2
REMARK VINA RESULT: -4.760987584      6.959      9.054
REMARK  10 active torsions:
REMARK  status: ('A' for Active; 'I' for Inactive)
REMARK    1  A    between atoms: N1_1  and  C1_5 
REMARK    2  A    between atoms: C1_5  and  C2_6 
REMARK    3  A    between atoms: C2_6  and  N2_7 
REMARK    4  A    between atoms: N2_7  and  C3_9 
REMARK    5  A    between atoms: C3_9  and  N3_11 
REMARK    6  A    between atoms: N3_11  and  N4_13 
REMARK    7  A    between atoms: N4_13  and  C4_15 
REMARK    8  A    between atoms: C4_15  and  N5_17 
REMARK    9  A    between atoms: N5_17  and  C5_19 
REMARK   10  A    between atoms: C5_19  and  C6_20 
ROOT
HETATM    1  N3  UNL     1      46.089  72.157  88.670  1.00  0.00    -0.274 N 
ATOM      2  H3  UNL     1      46.357  71.177  88.756  1.00  0.00     0.189 HD
ENDROOT
BRANCH   1   3
HETATM    3  C3  UNL     1      45.462  72.549  87.482  1.00  0.00     0.186 C 
HETATM    4  S1  UNL     1      45.886  73.927  86.744  1.00  0.00    -0.040 SA
BRANCH   3   5
HETATM    5  N2  UNL     1      44.441  71.779  86.899  1.00  0.00    -0.364 N 
ATOM      6  H2  UNL     1      43.504  71.811  87.301  1.00  0.00     0.162 HD
BRANCH   5   7
HETATM    7  C2  UNL     1      44.685  70.935  85.735  1.00  0.00     0.149 C 
BRANCH   7   8
HETATM    8  C1  UNL     1      44.720  69.494  86.177  1.00  0.00     0.249 C 
BRANCH   8   9
HETATM    9  N1  UNL     1      46.097  69.044  86.279  1.00  0.00    -0.078 N 
ATOM     10  H13 UNL     1      46.193  68.053  86.062  1.00  0.00     0.274 HD
ATOM     11  H12 UNL     1      46.679  69.417  85.528  1.00  0.00     0.274 HD
ATOM     12  H11 UNL     1      46.467  69.273  87.201  1.00  0.00     0.274 HD
ENDBRANCH   8   9
ENDBRANCH   7   8
ENDBRANCH   5   7
ENDBRANCH   3   5
ENDBRANCH   1   3
BRANCH   1  13
HETATM   13  N4  UNL     1      46.376  72.992  89.736  1.00  0.00    -0.274 N 
ATOM     14  H4  UNL     1      47.034  73.757  89.588  1.00  0.00     0.189 HD
BRANCH  13  15
HETATM   15  C4  UNL     1      45.798  72.838  91.035  1.00  0.00     0.186 C 
HETATM   16  S2  UNL     1      44.386  72.036  91.264  1.00  0.00    -0.040 SA
BRANCH  15  17
HETATM   17  N5  UNL     1      46.451  73.363  92.162  1.00  0.00    -0.365 N 
ATOM     18  H5  UNL     1      47.311  72.922  92.489  1.00  0.00     0.161 HD
BRANCH  17  19
HETATM   19  C5  UNL     1      45.937  74.506  92.866  1.00  0.00     0.133 C 
BRANCH  19  20
HETATM   20  C6  UNL     1      46.026  75.769  91.960  1.00  0.00     0.104 C 
HETATM   21 BR1  UNL     1      44.270  76.384  91.512  1.00  0.00    -0.095 Br
ENDBRANCH  19  20
ENDBRANCH  17  19
ENDBRANCH  15  17
ENDBRANCH  13  15
ENDBRANCH   1  13
TORSDOF 10
ENDMDL
MODEL 3
REMARK VINA RESULT: -4.737760324      7.026      9.242
REMARK  10 active torsions:
REMARK  status: ('A' for Active; 'I' for Inactive)
REMARK    1  A    between atoms: N1_1  and  C1_5 
REMARK    2  A    between atoms: C1_5  and  C2_6 
REMARK    3  A    between atoms: C2_6  and  N2_7 
REMARK    4  A    between atoms: N2_7  and  C3_9 
REMARK    5  A    between atoms: C3_9  and  N3_11 
REMARK    6  A    between atoms: N3_11  and  N4_13 
REMARK    7  A    between atoms: N4_13  and  C4_15 
REMARK    8  A    between atoms: C4_15  and  N5_17 
REMARK    9  A    between atoms: N5_17  and  C5_19 
REMARK   10  A    between atoms: C5_19  and  C6_20 
ROOT
HETATM    1  N3  UNL     1      46.333  72.730  89.590  1.00  0.00    -0.274 N 
ATOM      2  H3  UNL     1      47.086  72.082  89.358  1.00  0.00     0.189 HD
ENDROOT
BRANCH   1   3
HETATM    3  C3  UNL     1      45.610  72.481  90.762  1.00  0.00     0.186 C 
HETATM    4  S1  UNL     1      44.173  71.737  90.700  1.00  0.00    -0.040 SA
BRANCH   3   5
HETATM    5  N2  UNL     1      46.090  72.877  92.022  1.00  0.00    -0.364 N 
ATOM      6  H2  UNL     1      46.653  72.223  92.566  1.00  0.00     0.162 HD
BRANCH   5   7
HETATM    7  C2  UNL     1      45.807  74.197  92.574  1.00  0.00     0.149 C 
BRANCH   7   8
HETATM    8  C1  UNL     1      46.955  75.117  92.249  1.00  0.00     0.249 C 
BRANCH   8   9
HETATM    9  N1  UNL     1      48.215  74.436  92.489  1.00  0.00    -0.078 N 
ATOM     10  H13 UNL     1      48.457  74.415  93.478  1.00  0.00     0.274 HD
ATOM     11  H12 UNL     1      48.143  73.430  92.334  1.00  0.00     0.274 HD
ATOM     12  H11 UNL     1      48.950  74.860  91.922  1.00  0.00     0.274 HD
ENDBRANCH   8   9
ENDBRANCH   7   8
ENDBRANCH   5   7
ENDBRANCH   3   5
ENDBRANCH   1   3
BRANCH   1  13
HETATM   13  N4  UNL     1      46.109  73.783  88.721  1.00  0.00    -0.274 N 
ATOM     14  H4  UNL     1      46.278  74.732  89.057  1.00  0.00     0.189 HD
BRANCH  13  15
HETATM   15  C4  UNL     1      45.653  73.613  87.376  1.00  0.00     0.186 C 
HETATM   16  S2  UNL     1      46.229  74.530  86.144  1.00  0.00    -0.040 SA
BRANCH  15  17
HETATM   17  N5  UNL     1      44.703  72.623  87.076  1.00  0.00    -0.365 N 
ATOM     18  H5  UNL     1      43.765  72.699  87.468  1.00  0.00     0.161 HD
BRANCH  17  19
HETATM   19  C5  UNL     1      45.022  71.506  86.229  1.00  0.00     0.133 C 
BRANCH  19  20
HETATM   20  C6  UNL     1      45.187  70.220  87.089  1.00  0.00     0.104 C 
HETATM   21 BR1  UNL     1      44.051  68.832  86.425  1.00  0.00    -0.095 Br
ENDBRANCH  19  20
ENDBRANCH  17  19
ENDBRANCH  15  17
ENDBRANCH  13  15
ENDBRANCH   1  13
TORSDOF 10
ENDMDL
MODEL 4
REMARK VINA RESULT: -4.702311995      5.841      8.057
REMARK  10 active torsions:
REMARK  status: ('A' for Active; 'I' for Inactive)
REMARK    1  A    between atoms: N1_1  and  C1_5 
REMARK    2  A    between atoms: C1_5  and  C2_6 
REMARK    3  A    between atoms: C2_6  and  N2_7 
REMARK    4  A    between atoms: N2_7  and  C3_9 
REMARK    5  A    between atoms: C3_9  and  N3_11 
REMARK    6  A    between atoms: N3_11  and  N4_13 
REMARK    7  A    between atoms: N4_13  and  C4_15 
REMARK    8  A    between atoms: C4_15  and  N5_17 
REMARK    9  A    between atoms: N5_17  and  C5_19 
REMARK   10  A    between atoms: C5_19  and  C6_20 
ROOT
HETATM    1  N3  UNL     1      44.941  72.451  87.198  1.00  0.00    -0.274 N 
ATOM      2  H3  UNL     1      44.232  73.183  87.148  1.00  0.00     0.189 HD
ENDROOT
BRANCH   1   3
HETATM    3  C3  UNL     1      44.871  71.423  86.251  1.00  0.00     0.186 C 
HETATM    4  S1  UNL     1      45.184  69.892  86.675  1.00  0.00    -0.040 SA
BRANCH   3   5
HETATM    5  N2  UNL     1      44.543  71.679  84.909  1.00  0.00    -0.364 N 
ATOM      6  H2  UNL     1      44.662  72.623  84.541  1.00  0.00     0.162 HD
BRANCH   5   7
HETATM    7  C2  UNL     1      44.039  70.632  84.027  1.00  0.00     0.149 C 
BRANCH   7   8
HETATM    8  C1  UNL     1      42.539  70.568  84.156  1.00  0.00     0.249 C 
BRANCH   8   9
HETATM    9  N1  UNL     1      41.932  71.643  83.392  1.00  0.00    -0.078 N 
ATOM     10  H13 UNL     1      42.132  72.558  83.793  1.00  0.00     0.274 HD
ATOM     11  H12 UNL     1      42.388  71.776  82.488  1.00  0.00     0.274 HD
ATOM     12  H11 UNL     1      40.931  71.476  83.295  1.00  0.00     0.274 HD
ENDBRANCH   8   9
ENDBRANCH   7   8
ENDBRANCH   5   7
ENDBRANCH   3   5
ENDBRANCH   1   3
BRANCH   1  13
HETATM   13  N4  UNL     1      45.895  72.556  88.196  1.00  0.00    -0.274 N 
ATOM     14  H4  UNL     1      46.873  72.647  87.921  1.00  0.00     0.189 HD
BRANCH  13  15
HETATM   15  C4  UNL     1      45.581  72.541  89.591  1.00  0.00     0.186 C 
HETATM   16  S2  UNL     1      44.201  71.861  90.161  1.00  0.00    -0.040 SA
BRANCH  15  17
HETATM   17  N5  UNL     1      46.475  73.100  90.518  1.00  0.00    -0.365 N 
ATOM     18  H5  UNL     1      47.476  73.073  90.324  1.00  0.00     0.161 HD
BRANCH  17  19
HETATM   19  C5  UNL     1      46.013  73.710  91.735  1.00  0.00     0.133 C 
BRANCH  19  20
HETATM   20  C6  UNL     1      46.055  75.260  91.600  1.00  0.00     0.104 C 
HETATM   21 BR1  UNL     1      44.293  75.945  91.310  1.00  0.00    -0.095 Br
ENDBRANCH  19  20
ENDBRANCH  17  19
ENDBRANCH  15  17
ENDBRANCH  13  15
ENDBRANCH   1  13
TORSDOF 10
ENDMDL
MODEL 5
REMARK VINA RESULT: -4.655687787      4.851      7.305
REMARK  10 active torsions:
REMARK  status: ('A' for Active; 'I' for Inactive)
REMARK    1  A    between atoms: N1_1  and  C1_5 
REMARK    2  A    between atoms: C1_5  and  C2_6 
REMARK    3  A    between atoms: C2_6  and  N2_7 
REMARK    4  A    between atoms: N2_7  and  C3_9 
REMARK    5  A    between atoms: C3_9  and  N3_11 
REMARK    6  A    between atoms: N3_11  and  N4_13 
REMARK    7  A    between atoms: N4_13  and  C4_15 
REMARK    8  A    between atoms: C4_15  and  N5_17 
REMARK    9  A    between atoms: N5_17  and  C5_19 
REMARK   10  A    between atoms: C5_19  and  C6_20 
ROOT
HETATM    1  N3  UNL     1      45.193  72.173  85.434  1.00  0.00    -0.274 N 
ATOM      2  H3  UNL     1      45.905  72.637  84.870  1.00  0.00     0.189 HD
ENDROOT
BRANCH   1   3
HETATM    3  C3  UNL     1      44.462  71.145  84.827  1.00  0.00     0.186 C 
HETATM    4  S1  UNL     1      44.606  69.618  85.345  1.00  0.00    -0.040 SA
BRANCH   3   5
HETATM    5  N2  UNL     1      43.596  71.395  83.748  1.00  0.00    -0.364 N 
ATOM      6  H2  UNL     1      43.478  72.353  83.419  1.00  0.00     0.162 HD
BRANCH   5   7
HETATM    7  C2  UNL     1      42.863  70.321  83.087  1.00  0.00     0.149 C 
BRANCH   7   8
HETATM    8  C1  UNL     1      41.414  70.719  82.975  1.00  0.00     0.249 C 
BRANCH   8   9
HETATM    9  N1  UNL     1      41.302  72.166  82.940  1.00  0.00    -0.078 N 
ATOM     10  H13 UNL     1      41.804  72.608  83.709  1.00  0.00     0.274 HD
ATOM     11  H12 UNL     1      41.829  72.573  82.167  1.00  0.00     0.274 HD
ATOM     12  H11 UNL     1      40.318  72.436  82.918  1.00  0.00     0.274 HD
ENDBRANCH   8   9
ENDBRANCH   7   8
ENDBRANCH   5   7
ENDBRANCH   3   5
ENDBRANCH   1   3
BRANCH   1  13
HETATM   13  N4  UNL     1      45.027  72.610  86.736  1.00  0.00    -0.274 N 
ATOM     14  H4  UNL     1      44.348  72.128  87.325  1.00  0.00     0.189 HD
BRANCH  13  15
HETATM   15  C4  UNL     1      45.757  73.703  87.301  1.00  0.00     0.186 C 
HETATM   16  S2  UNL     1      46.133  75.037  86.424  1.00  0.00    -0.040 SA
BRANCH  15  17
HETATM   17  N5  UNL     1      46.155  73.662  88.647  1.00  0.00    -0.365 N 
ATOM     18  H5  UNL     1      47.008  74.144  88.929  1.00  0.00     0.161 HD
BRANCH  17  19
HETATM   19  C5  UNL     1      45.388  72.956  89.637  1.00  0.00     0.133 C 
BRANCH  19  20
HETATM   20  C6  UNL     1      44.399  73.933  90.336  1.00  0.00     0.104 C 
HETATM   21 BR1  UNL     1      42.688  73.861  89.482  1.00  0.00    -0.095 Br
ENDBRANCH  19  20
ENDBRANCH  17  19
ENDBRANCH  15  17
ENDBRANCH  13  15
ENDBRANCH   1  13
TORSDOF 10
ENDMDL
