MODEL 1
REMARK VINA RESULT: -6.728079315      0.000      0.000
REMARK  6 active torsions:
REMARK  status: ('A' for Active; 'I' for Inactive)
REMARK    1  A    between atoms: C3_3  and  N1_4 
REMARK    2  A    between atoms: N1_4  and  C6_7 
REMARK    3  A    between atoms: C6_7  and  C7_8 
REMARK    4  A    between atoms: C7_8  and  N2_9 
REMARK    5  A    between atoms: N2_9  and  C8_11 
REMARK    6  A    between atoms: C10_18  and  N5_19 
REMARK       I    between atoms: N5_19  and  C11_21 
ROOT
HETATM    1  C1  UNL     1      44.642  72.213  91.828  1.00  0.00     0.013 C 
HETATM    2  C2  UNL     1      45.103  72.250  90.724  1.00  0.00    -0.089 C 
HETATM    3  C3  UNL     1      45.689  72.290  89.385  1.00  0.00     0.329 C 
ENDROOT
BRANCH   3   4
HETATM    4  N1  UNL     1      44.715  72.673  88.379  1.00  0.00    -0.063 N 
HETATM    5  C4  UNL     1      44.209  73.996  88.695  1.00  0.00     0.273 C 
HETATM    6  C5  UNL     1      43.572  71.765  88.386  1.00  0.00     0.273 C 
BRANCH   4   7
HETATM    7  C6  UNL     1      45.358  72.742  87.102  1.00  0.00     0.257 C 
BRANCH   7   8
HETATM    8  C7  UNL     1      45.040  71.565  86.213  1.00  0.00     0.166 C 
BRANCH   8   9
HETATM    9  N2  UNL     1      45.020  71.987  84.843  1.00  0.00    -0.224 N 
ATOM     10  H2  UNL     1      45.508  72.850  84.606  1.00  0.00     0.177 HD
BRANCH   9  11
HETATM   11  C8  UNL     1      44.430  71.353  83.894  1.00  0.00     0.695 A 
HETATM   12  N3  UNL     1      45.083  70.827  82.839  1.00  0.00    -0.165 N 
HETATM   13  C9  UNL     1      44.460  70.174  81.864  1.00  0.00     0.208 A 
ATOM     14  H3  UNL     1      46.096  70.935  82.786  1.00  0.00     0.186 HD
HETATM   15 CL1  UNL     1      45.266  69.475  80.476  1.00  0.00    -0.044 Cl
HETATM   16  N4  UNL     1      43.120  70.045  81.956  1.00  0.00    -0.164 N 
HETATM   17  C10 UNL     1      42.444  70.558  82.993  1.00  0.00     0.701 A 
ATOM     18  H4  UNL     1      42.613  69.550  81.223  1.00  0.00     0.186 HD
HETATM   19  N8  UNL     1      43.096  71.223  83.981  1.00  0.00    -0.022 N 
ATOM     20  H8  UNL     1      42.584  71.615  84.772  1.00  0.00     0.203 HD
BRANCH  17  21
HETATM   21  N5  UNL     1      41.169  70.461  83.124  1.00  0.00    -0.163 N 
HETATM   22  C11 UNL     1      40.581  69.268  83.568  1.00  0.00     0.200 C 
HETATM   23  N6  UNL     1      40.085  69.244  84.774  1.00  0.00    -0.373 N 
HETATM   24  N7  UNL     1      40.524  68.123  82.741  1.00  0.00    -0.063 NA
ATOM     25  H62 UNL     1      40.126  70.071  85.371  1.00  0.00     0.158 HD
ATOM     26  H61 UNL     1      39.657  68.376  85.097  1.00  0.00     0.158 HD
ATOM     27  H5  UNL     1      40.578  71.262  82.902  1.00  0.00     0.187 HD
ENDBRANCH  17  21
ENDBRANCH   9  11
ENDBRANCH   8   9
ENDBRANCH   7   8
ENDBRANCH   4   7
ENDBRANCH   3   4
TORSDOF 6
ENDMDL
MODEL 2
REMARK VINA RESULT: -6.612143235      5.086      7.446
REMARK  6 active torsions:
REMARK  status: ('A' for Active; 'I' for Inactive)
REMARK    1  A    between atoms: C3_3  and  N1_4 
REMARK    2  A    between atoms: N1_4  and  C6_7 
REMARK    3  A    between atoms: C6_7  and  C7_8 
REMARK    4  A    between atoms: C7_8  and  N2_9 
REMARK    5  A    between atoms: N2_9  and  C8_11 
REMARK    6  A    between atoms: C10_18  and  N5_19 
REMARK       I    between atoms: N5_19  and  C11_21 
ROOT
HETATM    1  C1  UNL     1      45.374  69.591  86.752  1.00  0.00     0.013 C 
HETATM    2  C2  UNL     1      44.189  69.610  86.924  1.00  0.00    -0.089 C 
HETATM    3  C3  UNL     1      42.747  69.640  87.158  1.00  0.00     0.329 C 
ENDROOT
BRANCH   3   4
HETATM    4  N1  UNL     1      41.998  69.253  85.976  1.00  0.00    -0.063 N 
HETATM    5  C4  UNL     1      42.401  67.916  85.582  1.00  0.00     0.273 C 
HETATM    6  C5  UNL     1      42.300  70.137  84.854  1.00  0.00     0.273 C 
BRANCH   4   7
HETATM    7  C6  UNL     1      40.603  69.217  86.291  1.00  0.00     0.257 C 
BRANCH   7   8
HETATM    8  C7  UNL     1      39.753  68.684  85.164  1.00  0.00     0.166 C 
BRANCH   8   9
HETATM    9  N2  UNL     1      38.410  69.163  85.303  1.00  0.00    -0.224 N 
ATOM     10  H2  UNL     1      38.257  70.169  85.240  1.00  0.00     0.177 HD
BRANCH   9  11
HETATM   11  C8  UNL     1      37.386  68.414  85.504  1.00  0.00     0.695 A 
HETATM   12  N3  UNL     1      36.148  68.721  85.066  1.00  0.00    -0.165 N 
HETATM   13  C9  UNL     1      35.097  67.937  85.281  1.00  0.00     0.208 A 
ATOM     14  H3  UNL     1      36.012  69.591  84.550  1.00  0.00     0.186 HD
HETATM   15 CL1  UNL     1      33.474  68.295  84.732  1.00  0.00    -0.044 Cl
HETATM   16  N4  UNL     1      35.301  66.793  85.966  1.00  0.00    -0.164 N 
HETATM   17  C10 UNL     1      36.520  66.461  86.413  1.00  0.00     0.701 A 
ATOM     18  H4  UNL     1      34.515  66.170  86.147  1.00  0.00     0.186 HD
HETATM   19  N8  UNL     1      37.584  67.274  86.186  1.00  0.00    -0.022 N 
ATOM     20  H8  UNL     1      38.513  67.025  86.526  1.00  0.00     0.203 HD
BRANCH  17  21
HETATM   21  N5  UNL     1      36.763  65.384  87.070  1.00  0.00    -0.163 N 
HETATM   22  C11 UNL     1      36.874  64.151  86.412  1.00  0.00     0.200 C 
HETATM   23  N6  UNL     1      38.061  63.619  86.307  1.00  0.00    -0.373 N 
HETATM   24  N7  UNL     1      35.740  63.498  85.876  1.00  0.00    -0.063 NA
ATOM     25  H62 UNL     1      38.879  64.090  86.694  1.00  0.00     0.158 HD
ATOM     26  H61 UNL     1      38.141  62.722  85.828  1.00  0.00     0.158 HD
ATOM     27  H5  UNL     1      36.878  65.426  88.083  1.00  0.00     0.187 HD
ENDBRANCH  17  21
ENDBRANCH   9  11
ENDBRANCH   8   9
ENDBRANCH   7   8
ENDBRANCH   4   7
ENDBRANCH   3   4
TORSDOF 6
ENDMDL
MODEL 3
REMARK VINA RESULT: -6.535622819      5.257      7.709
REMARK  6 active torsions:
REMARK  status: ('A' for Active; 'I' for Inactive)
REMARK    1  A    between atoms: C3_3  and  N1_4 
REMARK    2  A    between atoms: N1_4  and  C6_7 
REMARK    3  A    between atoms: C6_7  and  C7_8 
REMARK    4  A    between atoms: C7_8  and  N2_9 
REMARK    5  A    between atoms: N2_9  and  C8_11 
REMARK    6  A    between atoms: C10_18  and  N5_19 
REMARK       I    between atoms: N5_19  and  C11_21 
ROOT
HETATM    1  C1  UNL     1      45.086  69.572  86.771  1.00  0.00     0.013 C 
HETATM    2  C2  UNL     1      43.895  69.523  86.881  1.00  0.00    -0.089 C 
HETATM    3  C3  UNL     1      42.443  69.466  87.040  1.00  0.00     0.329 C 
ENDROOT
BRANCH   3   4
HETATM    4  N1  UNL     1      41.776  69.105  85.802  1.00  0.00    -0.063 N 
HETATM    5  C4  UNL     1      42.148  67.747  85.449  1.00  0.00     0.273 C 
HETATM    6  C5  UNL     1      42.207  69.965  84.705  1.00  0.00     0.273 C 
BRANCH   4   7
HETATM    7  C6  UNL     1      40.359  69.133  86.003  1.00  0.00     0.257 C 
BRANCH   7   8
HETATM    8  C7  UNL     1      39.646  67.968  85.362  1.00  0.00     0.166 C 
BRANCH   8   9
HETATM    9  N2  UNL     1      38.331  68.371  84.958  1.00  0.00    -0.224 N 
ATOM     10  H2  UNL     1      38.240  68.885  84.082  1.00  0.00     0.177 HD
BRANCH   9  11
HETATM   11  C8  UNL     1      37.258  68.130  85.623  1.00  0.00     0.695 A 
HETATM   12  N3  UNL     1      36.397  69.093  86.011  1.00  0.00    -0.165 N 
HETATM   13  C9  UNL     1      35.291  68.829  86.699  1.00  0.00     0.208 A 
ATOM     14  H3  UNL     1      36.603  70.062  85.768  1.00  0.00     0.186 HD
HETATM   15 CL1  UNL     1      34.146  70.045  87.223  1.00  0.00    -0.044 Cl
HETATM   16  N4  UNL     1      35.041  67.541  87.009  1.00  0.00    -0.164 N 
HETATM   17  C10 UNL     1      35.879  66.563  86.637  1.00  0.00     0.701 A 
ATOM     18  H4  UNL     1      34.201  67.306  87.537  1.00  0.00     0.186 HD
HETATM   19  N8  UNL     1      37.005  66.849  85.935  1.00  0.00    -0.022 N 
ATOM     20  H8  UNL     1      37.645  66.107  85.650  1.00  0.00     0.203 HD
BRANCH  17  21
HETATM   21  N5  UNL     1      35.683  65.322  86.910  1.00  0.00    -0.163 N 
HETATM   22  C11 UNL     1      36.284  64.315  86.141  1.00  0.00     0.200 C 
HETATM   23  N6  UNL     1      37.263  63.640  86.678  1.00  0.00    -0.373 N 
HETATM   24  N7  UNL     1      35.848  64.033  84.826  1.00  0.00    -0.063 NA
ATOM     25  H62 UNL     1      37.577  63.843  87.628  1.00  0.00     0.158 HD
ATOM     26  H61 UNL     1      37.699  62.906  86.119  1.00  0.00     0.158 HD
ATOM     27  H5  UNL     1      35.084  65.067  87.695  1.00  0.00     0.187 HD
ENDBRANCH  17  21
ENDBRANCH   9  11
ENDBRANCH   8   9
ENDBRANCH   7   8
ENDBRANCH   4   7
ENDBRANCH   3   4
TORSDOF 6
ENDMDL
MODEL 4
REMARK VINA RESULT: -6.438221681      2.708      3.731
REMARK  6 active torsions:
REMARK  status: ('A' for Active; 'I' for Inactive)
REMARK    1  A    between atoms: C3_3  and  N1_4 
REMARK    2  A    between atoms: N1_4  and  C6_7 
REMARK    3  A    between atoms: C6_7  and  C7_8 
REMARK    4  A    between atoms: C7_8  and  N2_9 
REMARK    5  A    between atoms: N2_9  and  C8_11 
REMARK    6  A    between atoms: C10_18  and  N5_19 
REMARK       I    between atoms: N5_19  and  C11_21 
ROOT
HETATM    1  C1  UNL     1      42.214  73.827  89.414  1.00  0.00     0.013 C 
HETATM    2  C2  UNL     1      43.201  74.202  89.978  1.00  0.00    -0.089 C 
HETATM    3  C3  UNL     1      44.392  74.674  90.683  1.00  0.00     0.329 C 
ENDROOT
BRANCH   3   4
HETATM    4  N1  UNL     1      45.614  74.219  90.045  1.00  0.00    -0.063 N 
HETATM    5  C4  UNL     1      45.559  72.776  89.899  1.00  0.00     0.273 C 
HETATM    6  C5  UNL     1      46.779  74.521  90.871  1.00  0.00     0.273 C 
BRANCH   4   7
HETATM    7  C6  UNL     1      45.703  74.790  88.735  1.00  0.00     0.257 C 
BRANCH   7   8
HETATM    8  C7  UNL     1      45.800  73.753  87.642  1.00  0.00     0.166 C 
BRANCH   8   9
HETATM    9  N2  UNL     1      46.254  74.371  86.431  1.00  0.00    -0.224 N 
ATOM     10  H2  UNL     1      46.701  75.285  86.503  1.00  0.00     0.177 HD
BRANCH   9  11
HETATM   11  C8  UNL     1      46.138  73.853  85.261  1.00  0.00     0.695 A 
HETATM   12  N3  UNL     1      46.800  74.313  84.180  1.00  0.00    -0.165 N 
HETATM   13  C9  UNL     1      46.670  73.768  82.975  1.00  0.00     0.208 A 
ATOM     14  H3  UNL     1      47.425  75.112  84.291  1.00  0.00     0.186 HD
HETATM   15 CL1  UNL     1      47.508  74.331  81.545  1.00  0.00    -0.044 Cl
HETATM   16  N4  UNL     1      45.837  72.714  82.853  1.00  0.00    -0.164 N 
HETATM   17  C10 UNL     1      45.166  72.235  83.910  1.00  0.00     0.701 A 
ATOM     18  H4  UNL     1      45.716  72.274  81.942  1.00  0.00     0.186 HD
HETATM   19  N8  UNL     1      45.310  72.804  85.135  1.00  0.00    -0.022 N 
ATOM     20  H8  UNL     1      44.800  72.442  85.941  1.00  0.00     0.203 HD
BRANCH  17  21
HETATM   21  N5  UNL     1      44.362  71.234  83.843  1.00  0.00    -0.163 N 
HETATM   22  C11 UNL     1      44.630  70.154  82.989  1.00  0.00     0.200 C 
HETATM   23  N6  UNL     1      45.002  69.027  83.531  1.00  0.00    -0.373 N 
HETATM   24  N7  UNL     1      44.503  70.275  81.587  1.00  0.00    -0.063 NA
ATOM     25  H62 UNL     1      45.093  68.940  84.544  1.00  0.00     0.158 HD
ATOM     26  H61 UNL     1      45.196  68.241  82.910  1.00  0.00     0.158 HD
ATOM     27  H5  UNL     1      43.520  71.226  84.417  1.00  0.00     0.187 HD
ENDBRANCH  17  21
ENDBRANCH   9  11
ENDBRANCH   8   9
ENDBRANCH   7   8
ENDBRANCH   4   7
ENDBRANCH   3   4
TORSDOF 6
ENDMDL
MODEL 5
REMARK VINA RESULT: -6.406811265      5.015      8.024
REMARK  6 active torsions:
REMARK  status: ('A' for Active; 'I' for Inactive)
REMARK    1  A    between atoms: C3_3  and  N1_4 
REMARK    2  A    between atoms: N1_4  and  C6_7 
REMARK    3  A    between atoms: C6_7  and  C7_8 
REMARK    4  A    between atoms: C7_8  and  N2_9 
REMARK    5  A    between atoms: N2_9  and  C8_11 
REMARK    6  A    between atoms: C10_18  and  N5_19 
REMARK       I    between atoms: N5_19  and  C11_21 
ROOT
HETATM    1  C1  UNL     1      42.658  69.581  81.293  1.00  0.00     0.013 C 
HETATM    2  C2  UNL     1      42.518  69.907  82.437  1.00  0.00    -0.089 C 
HETATM    3  C3  UNL     1      42.354  70.328  83.827  1.00  0.00     0.329 C 
ENDROOT
BRANCH   3   4
HETATM    4  N1  UNL     1      41.990  69.218  84.690  1.00  0.00    -0.063 N 
HETATM    5  C4  UNL     1      42.062  69.655  86.072  1.00  0.00     0.273 C 
HETATM    6  C5  UNL     1      42.929  68.111  84.542  1.00  0.00     0.273 C 
BRANCH   4   7
HETATM    7  C6  UNL     1      40.637  68.835  84.421  1.00  0.00     0.257 C 
BRANCH   7   8
HETATM    8  C7  UNL     1      39.771  68.810  85.657  1.00  0.00     0.166 C 
BRANCH   8   9
HETATM    9  N2  UNL     1      38.425  69.161  85.310  1.00  0.00    -0.224 N 
ATOM     10  H2  UNL     1      38.271  70.068  84.870  1.00  0.00     0.177 HD
BRANCH   9  11
HETATM   11  C8  UNL     1      37.401  68.413  85.515  1.00  0.00     0.695 A 
HETATM   12  N3  UNL     1      36.160  68.727  85.090  1.00  0.00    -0.165 N 
HETATM   13  C9  UNL     1      35.109  67.944  85.309  1.00  0.00     0.208 A 
ATOM     14  H3  UNL     1      36.022  69.600  84.582  1.00  0.00     0.186 HD
HETATM   15 CL1  UNL     1      33.482  68.310  84.778  1.00  0.00    -0.044 Cl
HETATM   16  N4  UNL     1      35.317  66.795  85.986  1.00  0.00    -0.164 N 
HETATM   17  C10 UNL     1      36.539  66.457  86.419  1.00  0.00     0.701 A 
ATOM     18  H4  UNL     1      34.530  66.173  86.170  1.00  0.00     0.186 HD
HETATM   19  N8  UNL     1      37.603  67.269  86.188  1.00  0.00    -0.022 N 
ATOM     20  H8  UNL     1      38.534  67.015  86.517  1.00  0.00     0.203 HD
BRANCH  17  21
HETATM   21  N5  UNL     1      36.785  65.375  87.067  1.00  0.00    -0.163 N 
HETATM   22  C11 UNL     1      36.890  64.146  86.399  1.00  0.00     0.200 C 
HETATM   23  N6  UNL     1      38.077  63.615  86.284  1.00  0.00    -0.373 N 
HETATM   24  N7  UNL     1      35.753  63.498  85.865  1.00  0.00    -0.063 NA
ATOM     25  H62 UNL     1      38.898  64.083  86.670  1.00  0.00     0.158 HD
ATOM     26  H61 UNL     1      38.153  62.721  85.798  1.00  0.00     0.158 HD
ATOM     27  H5  UNL     1      36.905  65.410  88.079  1.00  0.00     0.187 HD
ENDBRANCH  17  21
ENDBRANCH   9  11
ENDBRANCH   8   9
ENDBRANCH   7   8
ENDBRANCH   4   7
ENDBRANCH   3   4
TORSDOF 6
ENDMDL
