MODEL 1
REMARK VINA RESULT: -7.752176771      0.000      0.000
REMARK  5 active torsions:
REMARK  status: ('A' for Active; 'I' for Inactive)
REMARK    1  A    between atoms: N1_2  and  C3_4 
REMARK    2  A    between atoms: C5_6  and  N2_7 
REMARK    3  A    between atoms: N2_7  and  C6_9 
REMARK    4  A    between atoms: C14_19  and  S1_20 
REMARK    5  A    between atoms: S1_20  and  N3_21 
ROOT
HETATM    1  C3  UNL     1     -18.925 -34.903   2.018  1.00  0.00     0.050 A 
HETATM    2  C4  UNL     1     -18.760 -34.193   3.216  1.00  0.00     0.061 A 
HETATM    3  C5  UNL     1     -17.935 -33.103   3.230  1.00  0.00     0.053 A 
HETATM    4  C11 UNL     1     -17.286 -32.720   2.092  1.00  0.00     0.072 A 
HETATM    5 CL1  UNL     1     -16.239 -31.294   2.212  1.00  0.00    -0.081 Cl
HETATM    6  C12 UNL     1     -17.422 -33.407   0.865  1.00  0.00     0.009 A 
HETATM    7  C13 UNL     1     -16.827 -33.105  -0.298  1.00  0.00     0.047 A 
HETATM    8  C14 UNL     1     -17.099 -33.905  -1.374  1.00  0.00     0.121 A 
HETATM    9  S2  UNL     1     -18.173 -35.053  -0.739  1.00  0.00    -0.074 SA
HETATM   10  C15 UNL     1     -18.261 -34.504   0.875  1.00  0.00     0.045 A 
ENDROOT
BRANCH   3  11
HETATM   11  N2  UNL     1     -17.733 -32.373   4.432  1.00  0.00    -0.384 N 
ATOM     12  H2  UNL     1     -18.288 -31.528   4.570  1.00  0.00     0.160 HD
BRANCH  11  13
HETATM   13  C6  UNL     1     -16.815 -32.734   5.457  1.00  0.00     0.085 C 
HETATM   14  C7  UNL     1     -17.544 -33.412   6.632  1.00  0.00     0.051 C 
HETATM   15  C8  UNL     1     -17.329 -34.914   6.625  1.00  0.00     0.169 C 
HETATM   16  O1  UNL     1     -15.991 -35.231   6.869  1.00  0.00    -0.391 OA
HETATM   17  C9  UNL     1     -15.147 -34.273   6.308  1.00  0.00     0.169 C 
HETATM   18  C10 UNL     1     -15.781 -33.744   5.026  1.00  0.00     0.051 C 
ENDBRANCH  11  13
ENDBRANCH   3  11
BRANCH   1  19
HETATM   19  N1  UNL     1     -19.775 -36.032   1.991  1.00  0.00    -0.388 N 
HETATM   20  C1  UNL     1     -19.456 -37.192   2.827  1.00  0.00     0.149 C 
HETATM   21  C2  UNL     1     -20.946 -36.069   1.161  1.00  0.00     0.149 C 
ENDBRANCH   1  19
BRANCH   8  22
HETATM   22  S1  UNL     1     -16.463 -33.749  -3.019  1.00  0.00     0.263 S 
HETATM   23  O2  UNL     1     -16.489 -35.057  -3.737  1.00  0.00    -0.200 OA
HETATM   24  O3  UNL     1     -15.028 -33.318  -2.882  1.00  0.00    -0.200 OA
BRANCH  22  25
HETATM   25  N3  UNL     1     -17.311 -32.513  -3.860  1.00  0.00    -0.324 N 
ATOM     26  H32 UNL     1     -17.072 -31.522  -3.818  1.00  0.00     0.169 HD
ATOM     27  H31 UNL     1     -18.077 -32.920  -4.396  1.00  0.00     0.169 HD
ENDBRANCH  22  25
ENDBRANCH   8  22
TORSDOF 5
ENDMDL
MODEL 2
REMARK VINA RESULT: -7.715296438      2.740      4.508
REMARK  5 active torsions:
REMARK  status: ('A' for Active; 'I' for Inactive)
REMARK    1  A    between atoms: N1_2  and  C3_4 
REMARK    2  A    between atoms: C5_6  and  N2_7 
REMARK    3  A    between atoms: N2_7  and  C6_9 
REMARK    4  A    between atoms: C14_19  and  S1_20 
REMARK    5  A    between atoms: S1_20  and  N3_21 
ROOT
HETATM    1  C3  UNL     1     -18.141 -33.696   2.911  1.00  0.00     0.050 A 
HETATM    2  C4  UNL     1     -19.148 -34.515   3.439  1.00  0.00     0.061 A 
HETATM    3  C5  UNL     1     -19.825 -35.357   2.599  1.00  0.00     0.053 A 
HETATM    4  C11 UNL     1     -19.517 -35.392   1.271  1.00  0.00     0.072 A 
HETATM    5 CL1  UNL     1     -20.449 -36.516   0.265  1.00  0.00    -0.081 Cl
HETATM    6  C12 UNL     1     -18.510 -34.584   0.696  1.00  0.00     0.009 A 
HETATM    7  C13 UNL     1     -18.140 -34.551  -0.592  1.00  0.00     0.047 A 
HETATM    8  C14 UNL     1     -17.135 -33.691  -0.939  1.00  0.00     0.121 A 
HETATM    9  S2  UNL     1     -16.733 -32.953   0.533  1.00  0.00    -0.074 SA
HETATM   10  C15 UNL     1     -17.840 -33.743   1.564  1.00  0.00     0.045 A 
ENDROOT
BRANCH   3  11
HETATM   11  N2  UNL     1     -20.863 -36.186   3.101  1.00  0.00    -0.384 N 
ATOM     12  H2  UNL     1     -21.797 -36.065   2.708  1.00  0.00     0.160 HD
BRANCH  11  13
HETATM   13  C6  UNL     1     -20.697 -37.174   4.113  1.00  0.00     0.085 C 
HETATM   14  C7  UNL     1     -21.664 -36.927   5.284  1.00  0.00     0.051 C 
HETATM   15  C8  UNL     1     -22.830 -37.899   5.253  1.00  0.00     0.169 C 
HETATM   16  O1  UNL     1     -22.399 -39.207   5.481  1.00  0.00    -0.391 OA
HETATM   17  C9  UNL     1     -21.137 -39.414   4.925  1.00  0.00     0.169 C 
HETATM   18  C10 UNL     1     -21.010 -38.577   3.656  1.00  0.00     0.051 C 
ENDBRANCH  11  13
ENDBRANCH   3  11
BRANCH   1  19
HETATM   19  N1  UNL     1     -17.435 -32.822   3.768  1.00  0.00    -0.388 N 
HETATM   20  C1  UNL     1     -16.206 -33.290   4.417  1.00  0.00     0.149 C 
HETATM   21  C2  UNL     1     -17.893 -31.486   4.020  1.00  0.00     0.149 C 
ENDBRANCH   1  19
BRANCH   8  22
HETATM   22  S1  UNL     1     -16.445 -33.436  -2.550  1.00  0.00     0.263 S 
HETATM   23  O2  UNL     1     -16.127 -34.732  -3.217  1.00  0.00    -0.200 OA
HETATM   24  O3  UNL     1     -15.158 -32.684  -2.348  1.00  0.00    -0.200 OA
BRANCH  22  25
HETATM   25  N3  UNL     1     -17.495 -32.447  -3.486  1.00  0.00    -0.324 N 
ATOM     26  H32 UNL     1     -18.378 -32.765  -3.886  1.00  0.00     0.169 HD
ATOM     27  H31 UNL     1     -17.102 -31.511  -3.577  1.00  0.00     0.169 HD
ENDBRANCH  22  25
ENDBRANCH   8  22
TORSDOF 5
ENDMDL
MODEL 3
REMARK VINA RESULT: -7.223541977      3.602      4.781
REMARK  5 active torsions:
REMARK  status: ('A' for Active; 'I' for Inactive)
REMARK    1  A    between atoms: N1_2  and  C3_4 
REMARK    2  A    between atoms: C5_6  and  N2_7 
REMARK    3  A    between atoms: N2_7  and  C6_9 
REMARK    4  A    between atoms: C14_19  and  S1_20 
REMARK    5  A    between atoms: S1_20  and  N3_21 
ROOT
HETATM    1  C3  UNL     1     -18.459 -35.780   5.611  1.00  0.00     0.050 A 
HETATM    2  C4  UNL     1     -17.692 -36.263   6.680  1.00  0.00     0.061 A 
HETATM    3  C5  UNL     1     -16.465 -35.706   6.918  1.00  0.00     0.053 A 
HETATM    4  C11 UNL     1     -16.005 -34.697   6.122  1.00  0.00     0.072 A 
HETATM    5 CL1  UNL     1     -14.405 -34.041   6.512  1.00  0.00    -0.081 Cl
HETATM    6  C12 UNL     1     -16.745 -34.181   5.035  1.00  0.00     0.009 A 
HETATM    7  C13 UNL     1     -16.375 -33.197   4.203  1.00  0.00     0.047 A 
HETATM    8  C14 UNL     1     -17.248 -32.847   3.210  1.00  0.00     0.121 A 
HETATM    9  S2  UNL     1     -18.557 -33.896   3.459  1.00  0.00    -0.074 SA
HETATM   10  C15 UNL     1     -17.980 -34.759   4.814  1.00  0.00     0.045 A 
ENDROOT
BRANCH   3  11
HETATM   11  N2  UNL     1     -15.655 -36.185   7.982  1.00  0.00    -0.384 N 
ATOM     12  H2  UNL     1     -15.180 -37.078   7.849  1.00  0.00     0.160 HD
BRANCH  11  13
HETATM   13  C6  UNL     1     -15.459 -35.512   9.220  1.00  0.00     0.085 C 
HETATM   14  C7  UNL     1     -16.722 -34.732   9.626  1.00  0.00     0.051 C 
HETATM   15  C8  UNL     1     -17.484 -35.445  10.728  1.00  0.00     0.169 C 
HETATM   16  O1  UNL     1     -16.746 -35.472  11.913  1.00  0.00    -0.391 OA
HETATM   17  C9  UNL     1     -15.382 -35.589  11.641  1.00  0.00     0.169 C 
HETATM   18  C10 UNL     1     -15.197 -36.434  10.385  1.00  0.00     0.051 C 
ENDBRANCH  11  13
ENDBRANCH   3  11
BRANCH   1  19
HETATM   19  N1  UNL     1     -19.728 -36.347   5.355  1.00  0.00    -0.388 N 
HETATM   20  C1  UNL     1     -20.898 -35.850   6.085  1.00  0.00     0.149 C 
HETATM   21  C2  UNL     1     -19.899 -37.401   4.396  1.00  0.00     0.149 C 
ENDBRANCH   1  19
BRANCH   8  22
HETATM   22  S1  UNL     1     -17.030 -31.595   1.976  1.00  0.00     0.263 S 
HETATM   23  O2  UNL     1     -17.518 -32.055   0.644  1.00  0.00    -0.200 OA
HETATM   24  O3  UNL     1     -15.549 -31.351   1.875  1.00  0.00    -0.200 OA
BRANCH  22  25
HETATM   25  N3  UNL     1     -17.775 -30.133   2.488  1.00  0.00    -0.324 N 
ATOM     26  H32 UNL     1     -17.316 -29.424   3.059  1.00  0.00     0.169 HD
ATOM     27  H31 UNL     1     -18.732 -30.090   2.138  1.00  0.00     0.169 HD
ENDBRANCH  22  25
ENDBRANCH   8  22
TORSDOF 5
ENDMDL
MODEL 4
REMARK VINA RESULT: -7.215229675      3.435      7.193
REMARK  5 active torsions:
REMARK  status: ('A' for Active; 'I' for Inactive)
REMARK    1  A    between atoms: N1_2  and  C3_4 
REMARK    2  A    between atoms: C5_6  and  N2_7 
REMARK    3  A    between atoms: N2_7  and  C6_9 
REMARK    4  A    between atoms: C14_19  and  S1_20 
REMARK    5  A    between atoms: S1_20  and  N3_21 
ROOT
HETATM    1  C3  UNL     1     -18.212 -34.055   3.110  1.00  0.00     0.050 A 
HETATM    2  C4  UNL     1     -17.916 -33.450   1.881  1.00  0.00     0.061 A 
HETATM    3  C5  UNL     1     -18.572 -33.876   0.759  1.00  0.00     0.053 A 
HETATM    4  C11 UNL     1     -19.498 -34.874   0.845  1.00  0.00     0.072 A 
HETATM    5 CL1  UNL     1     -20.295 -35.354  -0.665  1.00  0.00    -0.081 Cl
HETATM    6  C12 UNL     1     -19.827 -35.511   2.062  1.00  0.00     0.009 A 
HETATM    7  C13 UNL     1     -20.719 -36.496   2.241  1.00  0.00     0.047 A 
HETATM    8  C14 UNL     1     -20.887 -36.974   3.511  1.00  0.00     0.121 A 
HETATM    9  S2  UNL     1     -19.800 -36.043   4.420  1.00  0.00    -0.074 SA
HETATM   10  C15 UNL     1     -19.152 -35.065   3.181  1.00  0.00     0.045 A 
ENDROOT
BRANCH   3  11
HETATM   11  N2  UNL     1     -18.281 -33.294  -0.504  1.00  0.00    -0.384 N 
ATOM     12  H2  UNL     1     -18.982 -32.675  -0.912  1.00  0.00     0.160 HD
BRANCH  11  13
HETATM   13  C6  UNL     1     -17.083 -33.512  -1.241  1.00  0.00     0.085 C 
HETATM   14  C7  UNL     1     -16.776 -35.015  -1.357  1.00  0.00     0.051 C 
HETATM   15  C8  UNL     1     -17.111 -35.544  -2.740  1.00  0.00     0.169 C 
HETATM   16  O1  UNL     1     -16.274 -34.984  -3.708  1.00  0.00    -0.391 OA
HETATM   17  C9  UNL     1     -15.957 -33.665  -3.382  1.00  0.00     0.169 C 
HETATM   18  C10 UNL     1     -17.147 -33.031  -2.670  1.00  0.00     0.051 C 
ENDBRANCH  11  13
ENDBRANCH   3  11
BRANCH   1  19
HETATM   19  N1  UNL     1     -17.541 -33.624   4.277  1.00  0.00    -0.388 N 
HETATM   20  C1  UNL     1     -18.167 -32.613   5.134  1.00  0.00     0.149 C 
HETATM   21  C2  UNL     1     -16.258 -34.153   4.643  1.00  0.00     0.149 C 
ENDBRANCH   1  19
BRANCH   8  22
HETATM   22  S1  UNL     1     -21.984 -38.259   4.042  1.00  0.00     0.263 S 
HETATM   23  O2  UNL     1     -22.874 -37.792   5.143  1.00  0.00    -0.200 OA
HETATM   24  O3  UNL     1     -21.116 -39.365   4.577  1.00  0.00    -0.200 OA
BRANCH  22  25
HETATM   25  N3  UNL     1     -22.858 -38.875   2.696  1.00  0.00    -0.324 N 
ATOM     26  H32 UNL     1     -23.580 -38.357   2.194  1.00  0.00     0.169 HD
ATOM     27  H31 UNL     1     -22.547 -39.822   2.484  1.00  0.00     0.169 HD
ENDBRANCH  22  25
ENDBRANCH   8  22
TORSDOF 5
ENDMDL
MODEL 5
REMARK VINA RESULT: -7.197008672      3.975      7.428
REMARK  5 active torsions:
REMARK  status: ('A' for Active; 'I' for Inactive)
REMARK    1  A    between atoms: N1_2  and  C3_4 
REMARK    2  A    between atoms: C5_6  and  N2_7 
REMARK    3  A    between atoms: N2_7  and  C6_9 
REMARK    4  A    between atoms: C14_19  and  S1_20 
REMARK    5  A    between atoms: S1_20  and  N3_21 
ROOT
HETATM    1  C3  UNL     1     -17.835 -33.727   2.575  1.00  0.00     0.050 A 
HETATM    2  C4  UNL     1     -18.953 -34.453   2.143  1.00  0.00     0.061 A 
HETATM    3  C5  UNL     1     -19.535 -35.345   3.002  1.00  0.00     0.053 A 
HETATM    4  C11 UNL     1     -19.027 -35.519   4.256  1.00  0.00     0.072 A 
HETATM    5 CL1  UNL     1     -19.851 -36.696   5.294  1.00  0.00    -0.081 Cl
HETATM    6  C12 UNL     1     -17.902 -34.809   4.732  1.00  0.00     0.009 A 
HETATM    7  C13 UNL     1     -17.336 -34.913   5.943  1.00  0.00     0.047 A 
HETATM    8  C14 UNL     1     -16.247 -34.128   6.201  1.00  0.00     0.121 A 
HETATM    9  S2  UNL     1     -16.039 -33.268   4.755  1.00  0.00    -0.074 SA
HETATM   10  C15 UNL     1     -17.332 -33.914   3.848  1.00  0.00     0.045 A 
ENDROOT
BRANCH   3  11
HETATM   11  N2  UNL     1     -20.659 -36.109   2.587  1.00  0.00    -0.384 N 
ATOM     12  H2  UNL     1     -21.585 -35.761   2.838  1.00  0.00     0.160 HD
BRANCH  11  13
HETATM   13  C6  UNL     1     -20.588 -37.322   1.848  1.00  0.00     0.085 C 
HETATM   14  C7  UNL     1     -21.629 -38.336   2.357  1.00  0.00     0.051 C 
HETATM   15  C8  UNL     1     -22.813 -38.435   1.413  1.00  0.00     0.169 C 
HETATM   16  O1  UNL     1     -22.432 -38.976   0.184  1.00  0.00    -0.391 OA
HETATM   17  C9  UNL     1     -21.139 -38.575  -0.152  1.00  0.00     0.169 C 
HETATM   18  C10 UNL     1     -20.903 -37.166   0.381  1.00  0.00     0.051 C 
ENDBRANCH  11  13
ENDBRANCH   3  11
BRANCH   1  19
HETATM   19  N1  UNL     1     -17.225 -32.802   1.697  1.00  0.00    -0.388 N 
HETATM   20  C1  UNL     1     -16.722 -33.267   0.401  1.00  0.00     0.149 C 
HETATM   21  C2  UNL     1     -17.085 -31.417   2.045  1.00  0.00     0.149 C 
ENDBRANCH   1  19
BRANCH   8  22
HETATM   22  S1  UNL     1     -15.303 -34.055   7.698  1.00  0.00     0.263 S 
HETATM   23  O2  UNL     1     -15.292 -35.372   8.398  1.00  0.00    -0.200 OA
HETATM   24  O3  UNL     1     -15.994 -33.057   8.588  1.00  0.00    -0.200 OA
BRANCH  22  25
HETATM   25  N3  UNL     1     -13.723 -33.466   7.366  1.00  0.00    -0.324 N 
ATOM     26  H32 UNL     1     -13.316 -33.409   6.433  1.00  0.00     0.169 HD
ATOM     27  H31 UNL     1     -13.267 -33.187   8.234  1.00  0.00     0.169 HD
ENDBRANCH  22  25
ENDBRANCH   8  22
TORSDOF 5
ENDMDL
