MODEL 1
REMARK VINA RESULT: -8.650856392      0.000      0.000
REMARK  6 active torsions:
REMARK  status: ('A' for Active; 'I' for Inactive)
REMARK    1  A    between atoms: C2_2  and  N1_4 
REMARK    2  A    between atoms: N1_4  and  C4_6 
REMARK    3  A    between atoms: C9_16  and  N4_17 
REMARK    4  A    between atoms: C10_20  and  N5_21 
REMARK    5  A    between atoms: N5_21  and  C12_23 
REMARK    6  A    between atoms: C15_26  and  N6_27 
ROOT
HETATM    1  C4  UNL     1     -19.403 -35.937   2.385  1.00  0.00     0.118 A 
HETATM    2  N2  UNL     1     -19.905 -36.907   1.598  1.00  0.00    -0.318 N 
ATOM      3  H2  UNL     1     -20.418 -37.681   2.019  1.00  0.00     0.170 HD
HETATM    4  C5  UNL     1     -19.738 -36.868   0.271  1.00  0.00     0.181 A 
HETATM    5 CL1  UNL     1     -20.421 -38.175  -0.707  1.00  0.00    -0.045 Cl
HETATM    6  N3  UNL     1     -19.064 -35.856  -0.296  1.00  0.00    -0.332 N 
ATOM      7  H3  UNL     1     -18.937 -35.827  -1.308  1.00  0.00     0.168 HD
HETATM    8  C6  UNL     1     -18.554 -34.873   0.484  1.00  0.00     0.050 A 
HETATM    9  C7  UNL     1     -17.876 -33.879  -0.179  1.00  0.00     0.033 A 
HETATM   10  C8  UNL     1     -17.345 -32.881   0.552  1.00  0.00     0.041 A 
HETATM   11  C9  UNL     1     -17.480 -32.857   1.945  1.00  0.00     0.130 A 
HETATM   12  C10 UNL     1     -18.163 -33.850   2.643  1.00  0.00     0.084 A 
HETATM   13  C18 UNL     1     -18.693 -34.856   1.869  1.00  0.00     0.064 A 
ENDROOT
BRANCH  12  14
HETATM   14  N5  UNL     1     -18.285 -33.730   4.041  1.00  0.00    -0.356 N 
HETATM   15  C11 UNL     1     -19.372 -32.963   4.612  1.00  0.00     0.156 C 
BRANCH  14  16
HETATM   16  C12 UNL     1     -17.433 -34.399   5.029  1.00  0.00    -0.011 C 
HETATM   17  C13 UNL     1     -15.974 -34.268   4.823  1.00  0.00     0.054 C 
HETATM   18  C14 UNL     1     -15.114 -34.326   6.022  1.00  0.00     0.038 C 
HETATM   19  C15 UNL     1     -15.758 -34.934   7.233  1.00  0.00     0.184 C 
HETATM   20  C16 UNL     1     -16.994 -34.115   7.507  1.00  0.00     0.038 C 
HETATM   21  C17 UNL     1     -17.972 -34.363   6.405  1.00  0.00     0.054 C 
BRANCH  19  22
HETATM   22  N6  UNL     1     -16.071 -36.318   7.095  1.00  0.00    -0.075 N 
ATOM     23  H63 UNL     1     -17.081 -36.452   7.035  1.00  0.00     0.274 HD
ATOM     24  H62 UNL     1     -15.797 -36.656   6.172  1.00  0.00     0.274 HD
ATOM     25  H61 UNL     1     -15.675 -36.911   7.824  1.00  0.00     0.274 HD
ENDBRANCH  19  22
ENDBRANCH  14  16
ENDBRANCH  12  14
BRANCH  11  26
HETATM   26  N4  UNL     1     -16.884 -31.755   2.548  1.00  0.00    -0.113 N 
HETATM   27  O1  UNL     1     -15.648 -31.821   2.843  1.00  0.00    -0.532 OA
HETATM   28  O2  UNL     1     -17.479 -30.599   2.850  1.00  0.00    -0.532 OA
ENDBRANCH  11  26
BRANCH   1  29
HETATM   29  N1  UNL     1     -19.572 -36.006   3.600  1.00  0.00    -0.371 N 
ATOM     30  H1  UNL     1     -19.244 -35.201   4.133  1.00  0.00     0.161 HD
BRANCH  29  31
HETATM   31  C2  UNL     1     -20.156 -37.044   4.364  1.00  0.00     0.075 C 
HETATM   32  C1  UNL     1     -19.252 -37.640   5.430  1.00  0.00     0.031 C 
HETATM   33  C3  UNL     1     -21.552 -36.763   4.875  1.00  0.00     0.031 C 
ENDBRANCH  29  31
ENDBRANCH   1  29
TORSDOF 6
ENDMDL
MODEL 2
REMARK VINA RESULT: -8.261680614      2.815      4.381
REMARK  6 active torsions:
REMARK  status: ('A' for Active; 'I' for Inactive)
REMARK    1  A    between atoms: C2_2  and  N1_4 
REMARK    2  A    between atoms: N1_4  and  C4_6 
REMARK    3  A    between atoms: C9_16  and  N4_17 
REMARK    4  A    between atoms: C10_20  and  N5_21 
REMARK    5  A    between atoms: N5_21  and  C12_23 
REMARK    6  A    between atoms: C15_26  and  N6_27 
ROOT
HETATM    1  C4  UNL     1     -17.985 -33.763   1.403  1.00  0.00     0.118 A 
HETATM    2  N2  UNL     1     -17.394 -33.363   0.261  1.00  0.00    -0.318 N 
ATOM      3  H2  UNL     1     -16.859 -32.495   0.248  1.00  0.00     0.170 HD
HETATM    4  C5  UNL     1     -17.500 -34.092  -0.857  1.00  0.00     0.181 A 
HETATM    5 CL1  UNL     1     -16.700 -33.510  -2.324  1.00  0.00    -0.045 Cl
HETATM    6  N3  UNL     1     -18.200 -35.236  -0.855  1.00  0.00    -0.332 N 
ATOM      7  H3  UNL     1     -18.281 -35.791  -1.707  1.00  0.00     0.168 HD
HETATM    8  C6  UNL     1     -18.800 -35.650   0.287  1.00  0.00     0.050 A 
HETATM    9  C7  UNL     1     -19.500 -36.829   0.199  1.00  0.00     0.033 A 
HETATM   10  C8  UNL     1     -20.119 -37.281   1.306  1.00  0.00     0.041 A 
HETATM   11  C9  UNL     1     -20.051 -36.571   2.509  1.00  0.00     0.130 A 
HETATM   12  C10 UNL     1     -19.348 -35.374   2.630  1.00  0.00     0.084 A 
HETATM   13  C18 UNL     1     -18.728 -34.938   1.481  1.00  0.00     0.064 A 
ENDROOT
BRANCH  12  14
HETATM   14  N5  UNL     1     -19.300 -34.743   3.887  1.00  0.00    -0.356 N 
HETATM   15  C11 UNL     1     -20.472 -34.072   4.408  1.00  0.00     0.156 C 
BRANCH  14  16
HETATM   16  C12 UNL     1     -18.157 -34.764   4.805  1.00  0.00    -0.011 C 
HETATM   17  C13 UNL     1     -18.161 -33.737   5.871  1.00  0.00     0.054 C 
HETATM   18  C14 UNL     1     -17.470 -34.069   7.133  1.00  0.00     0.038 C 
HETATM   19  C15 UNL     1     -16.492 -35.203   7.038  1.00  0.00     0.184 C 
HETATM   20  C16 UNL     1     -17.274 -36.390   6.534  1.00  0.00     0.038 C 
HETATM   21  C17 UNL     1     -17.667 -36.123   5.118  1.00  0.00     0.054 C 
BRANCH  19  22
HETATM   22  N6  UNL     1     -15.363 -34.934   6.210  1.00  0.00    -0.075 N 
ATOM     23  H63 UNL     1     -14.582 -34.596   6.771  1.00  0.00     0.274 HD
ATOM     24  H62 UNL     1     -14.961 -35.804   5.860  1.00  0.00     0.274 HD
ATOM     25  H61 UNL     1     -15.554 -34.293   5.440  1.00  0.00     0.274 HD
ENDBRANCH  19  22
ENDBRANCH  14  16
ENDBRANCH  12  14
BRANCH  11  26
HETATM   26  N4  UNL     1     -20.735 -37.177   3.557  1.00  0.00    -0.113 N 
HETATM   27  O1  UNL     1     -21.988 -36.979   3.658  1.00  0.00    -0.532 OA
HETATM   28  O2  UNL     1     -20.210 -37.974   4.490  1.00  0.00    -0.532 OA
ENDBRANCH  11  26
BRANCH   1  29
HETATM   29  N1  UNL     1     -17.871 -33.069   2.409  1.00  0.00    -0.371 N 
ATOM     30  H1  UNL     1     -18.526 -33.278   3.162  1.00  0.00     0.161 HD
BRANCH  29  31
HETATM   31  C2  UNL     1     -16.958 -32.019   2.673  1.00  0.00     0.075 C 
HETATM   32  C1  UNL     1     -17.578 -30.769   3.273  1.00  0.00     0.031 C 
HETATM   33  C3  UNL     1     -15.683 -32.433   3.376  1.00  0.00     0.031 C 
ENDBRANCH  29  31
ENDBRANCH   1  29
TORSDOF 6
ENDMDL
MODEL 3
REMARK VINA RESULT: -7.990321929      2.407      3.755
REMARK  6 active torsions:
REMARK  status: ('A' for Active; 'I' for Inactive)
REMARK    1  A    between atoms: C2_2  and  N1_4 
REMARK    2  A    between atoms: N1_4  and  C4_6 
REMARK    3  A    between atoms: C9_16  and  N4_17 
REMARK    4  A    between atoms: C10_20  and  N5_21 
REMARK    5  A    between atoms: N5_21  and  C12_23 
REMARK    6  A    between atoms: C15_26  and  N6_27 
ROOT
HETATM    1  C4  UNL     1     -18.773 -34.324   1.466  1.00  0.00     0.118 A 
HETATM    2  N2  UNL     1     -18.414 -34.188   0.175  1.00  0.00    -0.318 N 
ATOM      3  H2  UNL     1     -19.027 -34.543  -0.558  1.00  0.00     0.170 HD
HETATM    4  C5  UNL     1     -17.262 -33.592  -0.156  1.00  0.00     0.181 A 
HETATM    5 CL1  UNL     1     -16.848 -33.447  -1.870  1.00  0.00    -0.045 Cl
HETATM    6  N3  UNL     1     -16.446 -33.120   0.798  1.00  0.00    -0.332 N 
ATOM      7  H3  UNL     1     -15.568 -32.666   0.545  1.00  0.00     0.168 HD
HETATM    8  C6  UNL     1     -16.796 -33.250   2.100  1.00  0.00     0.050 A 
HETATM    9  C7  UNL     1     -15.900 -32.743   3.011  1.00  0.00     0.033 A 
HETATM   10  C8  UNL     1     -16.200 -32.852   4.319  1.00  0.00     0.041 A 
HETATM   11  C9  UNL     1     -17.386 -33.463   4.738  1.00  0.00     0.130 A 
HETATM   12  C10 UNL     1     -18.313 -33.985   3.839  1.00  0.00     0.084 A 
HETATM   13  C18 UNL     1     -17.979 -33.859   2.510  1.00  0.00     0.064 A 
ENDROOT
BRANCH  12  14
HETATM   14  N5  UNL     1     -19.500 -34.550   4.344  1.00  0.00    -0.356 N 
HETATM   15  C11 UNL     1     -20.706 -33.754   4.425  1.00  0.00     0.156 C 
BRANCH  14  16
HETATM   16  C12 UNL     1     -19.672 -35.951   4.739  1.00  0.00    -0.011 C 
HETATM   17  C13 UNL     1     -18.436 -36.759   4.826  1.00  0.00     0.054 C 
HETATM   18  C14 UNL     1     -18.429 -37.886   5.781  1.00  0.00     0.038 C 
HETATM   19  C15 UNL     1     -19.787 -38.346   6.224  1.00  0.00     0.184 C 
HETATM   20  C16 UNL     1     -20.460 -37.141   6.832  1.00  0.00     0.038 C 
HETATM   21  C17 UNL     1     -20.742 -36.162   5.739  1.00  0.00     0.054 C 
BRANCH  19  22
HETATM   22  N6  UNL     1     -20.579 -38.915   5.184  1.00  0.00    -0.075 N 
ATOM     23  H63 UNL     1     -20.605 -38.295   4.375  1.00  0.00     0.274 HD
ATOM     24  H62 UNL     1     -20.104 -39.719   4.772  1.00  0.00     0.274 HD
ATOM     25  H61 UNL     1     -21.525 -39.169   5.471  1.00  0.00     0.274 HD
ENDBRANCH  19  22
ENDBRANCH  14  16
ENDBRANCH  12  14
BRANCH  11  26
HETATM   26  N4  UNL     1     -17.548 -33.486   6.119  1.00  0.00    -0.113 N 
HETATM   27  O1  UNL     1     -16.925 -34.371   6.788  1.00  0.00    -0.532 OA
HETATM   28  O2  UNL     1     -18.298 -32.652   6.842  1.00  0.00    -0.532 OA
ENDBRANCH  11  26
BRANCH   1  29
HETATM   29  N1  UNL     1     -19.836 -34.879   1.734  1.00  0.00    -0.371 N 
ATOM     30  H1  UNL     1     -20.413 -34.406   2.430  1.00  0.00     0.161 HD
BRANCH  29  31
HETATM   31  C2  UNL     1     -20.373 -36.081   1.216  1.00  0.00     0.075 C 
HETATM   32  C1  UNL     1     -19.396 -37.243   1.152  1.00  0.00     0.031 C 
HETATM   33  C3  UNL     1     -21.720 -36.482   1.777  1.00  0.00     0.031 C 
ENDBRANCH  29  31
ENDBRANCH   1  29
TORSDOF 6
ENDMDL
MODEL 4
REMARK VINA RESULT: -7.903365006      2.902      4.299
REMARK  6 active torsions:
REMARK  status: ('A' for Active; 'I' for Inactive)
REMARK    1  A    between atoms: C2_2  and  N1_4 
REMARK    2  A    between atoms: N1_4  and  C4_6 
REMARK    3  A    between atoms: C9_16  and  N4_17 
REMARK    4  A    between atoms: C10_20  and  N5_21 
REMARK    5  A    between atoms: N5_21  and  C12_23 
REMARK    6  A    between atoms: C15_26  and  N6_27 
ROOT
HETATM    1  C4  UNL     1     -18.309 -34.016   1.847  1.00  0.00     0.118 A 
HETATM    2  N2  UNL     1     -17.670 -33.619   0.730  1.00  0.00    -0.318 N 
ATOM      3  H2  UNL     1     -17.145 -32.744   0.734  1.00  0.00     0.170 HD
HETATM    4  C5  UNL     1     -17.717 -34.358  -0.384  1.00  0.00     0.181 A 
HETATM    5 CL1  UNL     1     -16.857 -33.779  -1.819  1.00  0.00    -0.045 Cl
HETATM    6  N3  UNL     1     -18.404 -35.510  -0.404  1.00  0.00    -0.332 N 
ATOM      7  H3  UNL     1     -18.439 -36.073  -1.254  1.00  0.00     0.168 HD
HETATM    8  C6  UNL     1     -19.050 -35.921   0.713  1.00  0.00     0.050 A 
HETATM    9  C7  UNL     1     -19.732 -37.108   0.603  1.00  0.00     0.033 A 
HETATM   10  C8  UNL     1     -20.396 -37.558   1.685  1.00  0.00     0.041 A 
HETATM   11  C9  UNL     1     -20.391 -36.837   2.884  1.00  0.00     0.130 A 
HETATM   12  C10 UNL     1     -19.708 -35.632   3.026  1.00  0.00     0.084 A 
HETATM   13  C18 UNL     1     -19.041 -35.198   1.903  1.00  0.00     0.064 A 
ENDROOT
BRANCH  12  14
HETATM   14  N5  UNL     1     -19.724 -34.989   4.278  1.00  0.00    -0.356 N 
HETATM   15  C11 UNL     1     -20.733 -33.992   4.569  1.00  0.00     0.156 C 
BRANCH  14  16
HETATM   16  C12 UNL     1     -18.835 -35.296   5.403  1.00  0.00    -0.011 C 
HETATM   17  C13 UNL     1     -17.674 -36.159   5.095  1.00  0.00     0.054 C 
HETATM   18  C14 UNL     1     -16.464 -35.987   5.925  1.00  0.00     0.038 C 
HETATM   19  C15 UNL     1     -16.689 -35.286   7.232  1.00  0.00     0.184 C 
HETATM   20  C16 UNL     1     -17.293 -33.947   6.891  1.00  0.00     0.038 C 
HETATM   21  C17 UNL     1     -18.668 -34.177   6.355  1.00  0.00     0.054 C 
BRANCH  19  22
HETATM   22  N6  UNL     1     -17.509 -36.008   8.149  1.00  0.00    -0.075 N 
ATOM     23  H63 UNL     1     -17.672 -36.956   7.811  1.00  0.00     0.274 HD
ATOM     24  H62 UNL     1     -16.992 -36.215   9.003  1.00  0.00     0.274 HD
ATOM     25  H61 UNL     1     -18.393 -35.549   8.369  1.00  0.00     0.274 HD
ENDBRANCH  19  22
ENDBRANCH  14  16
ENDBRANCH  12  14
BRANCH  11  26
HETATM   26  N4  UNL     1     -21.116 -37.442   3.905  1.00  0.00    -0.113 N 
HETATM   27  O1  UNL     1     -20.541 -38.332   4.611  1.00  0.00    -0.532 OA
HETATM   28  O2  UNL     1     -22.380 -37.180   4.243  1.00  0.00    -0.532 OA
ENDBRANCH  11  26
BRANCH   1  29
HETATM   29  N1  UNL     1     -18.248 -33.311   2.852  1.00  0.00    -0.371 N 
ATOM     30  H1  UNL     1     -18.959 -33.496   3.559  1.00  0.00     0.161 HD
BRANCH  29  31
HETATM   31  C2  UNL     1     -17.332 -32.279   3.167  1.00  0.00     0.075 C 
HETATM   32  C1  UNL     1     -17.901 -31.157   4.020  1.00  0.00     0.031 C 
HETATM   33  C3  UNL     1     -15.974 -32.744   3.646  1.00  0.00     0.031 C 
ENDBRANCH  29  31
ENDBRANCH   1  29
TORSDOF 6
ENDMDL
MODEL 5
REMARK VINA RESULT: -7.753707819      3.465      5.046
REMARK  6 active torsions:
REMARK  status: ('A' for Active; 'I' for Inactive)
REMARK    1  A    between atoms: C2_2  and  N1_4 
REMARK    2  A    between atoms: N1_4  and  C4_6 
REMARK    3  A    between atoms: C9_16  and  N4_17 
REMARK    4  A    between atoms: C10_20  and  N5_21 
REMARK    5  A    between atoms: N5_21  and  C12_23 
REMARK    6  A    between atoms: C15_26  and  N6_27 
ROOT
HETATM    1  C4  UNL     1     -18.819 -34.619   1.563  1.00  0.00     0.118 A 
HETATM    2  N2  UNL     1     -17.943 -33.909   0.827  1.00  0.00    -0.318 N 
ATOM      3  H2  UNL     1     -17.456 -33.118   1.248  1.00  0.00     0.170 HD
HETATM    4  C5  UNL     1     -17.705 -34.229  -0.450  1.00  0.00     0.181 A 
HETATM    5 CL1  UNL     1     -16.543 -33.255  -1.363  1.00  0.00    -0.045 Cl
HETATM    6  N3  UNL     1     -18.338 -35.267  -1.017  1.00  0.00    -0.332 N 
ATOM      7  H3  UNL     1     -18.156 -35.510  -1.991  1.00  0.00     0.168 HD
HETATM    8  C6  UNL     1     -19.222 -35.989  -0.288  1.00  0.00     0.050 A 
HETATM    9  C7  UNL     1     -19.828 -37.030  -0.948  1.00  0.00     0.033 A 
HETATM   10  C8  UNL     1     -20.719 -37.777  -0.268  1.00  0.00     0.041 A 
HETATM   11  C9  UNL     1     -21.017 -37.500   1.070  1.00  0.00     0.130 A 
HETATM   12  C10 UNL     1     -20.418 -36.452   1.766  1.00  0.00     0.084 A 
HETATM   13  C18 UNL     1     -19.514 -35.708   1.044  1.00  0.00     0.064 A 
ENDROOT
BRANCH  12  14
HETATM   14  N5  UNL     1     -20.748 -36.266   3.122  1.00  0.00    -0.356 N 
HETATM   15  C11 UNL     1     -21.625 -35.183   3.513  1.00  0.00     0.156 C 
BRANCH  14  16
HETATM   16  C12 UNL     1     -20.343 -37.144   4.224  1.00  0.00    -0.011 C 
HETATM   17  C13 UNL     1     -18.913 -37.094   4.601  1.00  0.00     0.054 C 
HETATM   18  C14 UNL     1     -18.573 -37.403   6.005  1.00  0.00     0.038 C 
HETATM   19  C15 UNL     1     -19.635 -38.141   6.765  1.00  0.00     0.184 C 
HETATM   20  C16 UNL     1     -20.873 -37.282   6.697  1.00  0.00     0.038 C 
HETATM   21  C17 UNL     1     -21.363 -37.280   5.286  1.00  0.00     0.054 C 
BRANCH  19  22
HETATM   22  N6  UNL     1     -19.890 -39.459   6.284  1.00  0.00    -0.075 N 
ATOM     23  H63 UNL     1     -19.405 -39.616   5.401  1.00  0.00     0.274 HD
ATOM     24  H62 UNL     1     -19.416 -40.149   6.867  1.00  0.00     0.274 HD
ATOM     25  H61 UNL     1     -20.880 -39.686   6.194  1.00  0.00     0.274 HD
ENDBRANCH  19  22
ENDBRANCH  14  16
ENDBRANCH  12  14
BRANCH  11  26
HETATM   26  N4  UNL     1     -21.949 -38.369   1.628  1.00  0.00    -0.113 N 
HETATM   27  O1  UNL     1     -23.183 -38.163   1.399  1.00  0.00    -0.532 OA
HETATM   28  O2  UNL     1     -21.683 -39.430   2.393  1.00  0.00    -0.532 OA
ENDBRANCH  11  26
BRANCH   1  29
HETATM   29  N1  UNL     1     -19.017 -34.296   2.732  1.00  0.00    -0.371 N 
ATOM     30  H1  UNL     1     -19.862 -34.679   3.154  1.00  0.00     0.161 HD
BRANCH  29  31
HETATM   31  C2  UNL     1     -18.238 -33.467   3.575  1.00  0.00     0.075 C 
HETATM   32  C1  UNL     1     -19.000 -32.828   4.724  1.00  0.00     0.031 C 
HETATM   33  C3  UNL     1     -16.911 -34.051   4.009  1.00  0.00     0.031 C 
ENDBRANCH  29  31
ENDBRANCH   1  29
TORSDOF 6
ENDMDL
