MODEL 1
REMARK VINA RESULT: -6.930300878      0.000      0.000
REMARK  9 active torsions:
REMARK  status: ('A' for Active; 'I' for Inactive)
REMARK    1  A    between atoms: C2_2  and  O2_4 
REMARK    2  A    between atoms: O2_4  and  C3_5 
REMARK    3  A    between atoms: C12_15  and  N1_16 
REMARK    4  A    between atoms: N1_16  and  O3_17 
REMARK    5  A    between atoms: C14_20  and  C15_21 
REMARK    6  A    between atoms: C15_21  and  C16_22 
REMARK    7  A    between atoms: C16_22  and  C18_24 
REMARK    8  A    between atoms: C18_24  and  O4_25 
REMARK    9  A    between atoms: C19_27  and  O5_29 
ROOT
HETATM    1  C3  UNL     1     -16.491 -33.697   8.121  1.00  0.00     0.196 C 
HETATM    2  C4  UNL     1     -15.406 -34.006   7.196  1.00  0.00    -0.037 C 
HETATM    3  C5  UNL     1     -14.231 -33.473   7.340  1.00  0.00     0.090 C 
HETATM    4 CL1  UNL     1     -12.899 -33.811   6.261  1.00  0.00    -0.097 Cl
HETATM    5  C6  UNL     1     -15.620 -34.940   6.079  1.00  0.00     0.039 C 
HETATM    6  C7  UNL     1     -16.984 -35.607   6.202  1.00  0.00     0.022 C 
HETATM    7  C8  UNL     1     -18.074 -34.543   6.336  1.00  0.00     0.021 C 
HETATM    8  C9  UNL     1     -19.360 -35.325   6.637  1.00  0.00     0.029 C 
HETATM    9  C10 UNL     1     -19.748 -36.381   5.685  1.00  0.00     0.050 C 
HETATM   10  C11 UNL     1     -19.209 -37.763   5.962  1.00  0.00     0.017 C 
HETATM   11  C12 UNL     1     -19.507 -35.947   4.281  1.00  0.00     0.121 C 
HETATM   12  C13 UNL     1     -18.959 -34.608   4.129  1.00  0.00     0.051 C 
HETATM   13  C14 UNL     1     -18.257 -33.858   5.034  1.00  0.00    -0.043 C 
HETATM   14  C19 UNL     1     -17.872 -33.732   7.568  1.00  0.00     0.096 C 
HETATM   15  C20 UNL     1     -18.782 -34.174   8.756  1.00  0.00     0.050 C 
ENDROOT
BRANCH  13  16
HETATM   16  C15 UNL     1     -17.796 -32.632   4.505  1.00  0.00     0.016 C 
BRANCH  16  17
HETATM   17  C16 UNL     1     -17.155 -31.996   3.610  1.00  0.00    -0.040 C 
HETATM   18  C17 UNL     1     -15.665 -32.658   3.415  1.00  0.00     0.050 C 
BRANCH  17  19
HETATM   19  C18 UNL     1     -17.224 -30.928   2.764  1.00  0.00     0.138 C 
BRANCH  19  20
HETATM   20  O4  UNL     1     -16.314 -30.768   1.794  1.00  0.00    -0.372 OA
ATOM     21  H4  UNL     1     -16.451 -30.128   1.105  1.00  0.00     0.216 HD
ENDBRANCH  19  20
ENDBRANCH  17  19
ENDBRANCH  16  17
ENDBRANCH  13  16
BRANCH  14  22
HETATM   22  O5  UNL     1     -18.368 -32.462   7.340  1.00  0.00    -0.386 OA
ATOM     23  H5  UNL     1     -18.924 -32.166   8.051  1.00  0.00     0.210 HD
ENDBRANCH  14  22
BRANCH   1  24
HETATM   24  O2  UNL     1     -16.414 -34.623   9.237  1.00  0.00    -0.309 OA
BRANCH  24  25
HETATM   25  C2  UNL     1     -15.634 -34.483  10.329  1.00  0.00     0.255 C 
HETATM   26  C1  UNL     1     -15.035 -35.580  11.078  1.00  0.00     0.126 C 
HETATM   27  O1  UNL     1     -15.380 -33.285  10.734  1.00  0.00    -0.266 OA
ENDBRANCH  24  25
ENDBRANCH   1  24
BRANCH  11  28
HETATM   28  N1  UNL     1     -19.737 -36.688   3.345  1.00  0.00    -0.288 NA
BRANCH  28  29
HETATM   29  O3  UNL     1     -20.205 -37.501   2.504  1.00  0.00    -0.218 OA
ATOM     30  H3  UNL     1     -20.638 -37.949   1.788  1.00  0.00     0.261 HD
ENDBRANCH  28  29
ENDBRANCH  11  28
TORSDOF 9
ENDMDL
MODEL 2
REMARK VINA RESULT: -6.672511763      2.974      4.402
REMARK  9 active torsions:
REMARK  status: ('A' for Active; 'I' for Inactive)
REMARK    1  A    between atoms: C2_2  and  O2_4 
REMARK    2  A    between atoms: O2_4  and  C3_5 
REMARK    3  A    between atoms: C12_15  and  N1_16 
REMARK    4  A    between atoms: N1_16  and  O3_17 
REMARK    5  A    between atoms: C14_20  and  C15_21 
REMARK    6  A    between atoms: C15_21  and  C16_22 
REMARK    7  A    between atoms: C16_22  and  C18_24 
REMARK    8  A    between atoms: C18_24  and  O4_25 
REMARK    9  A    between atoms: C19_27  and  O5_29 
ROOT
HETATM    1  C3  UNL     1     -19.982 -35.451   5.800  1.00  0.00     0.196 C 
HETATM    2  C4  UNL     1     -18.603 -35.924   5.819  1.00  0.00    -0.037 C 
HETATM    3  C5  UNL     1     -17.900 -35.898   6.911  1.00  0.00     0.090 C 
HETATM    4 CL1  UNL     1     -16.246 -36.454   6.985  1.00  0.00    -0.097 Cl
HETATM    5  C6  UNL     1     -17.979 -36.454   4.595  1.00  0.00     0.039 C 
HETATM    6  C7  UNL     1     -19.018 -36.590   3.490  1.00  0.00     0.022 C 
HETATM    7  C8  UNL     1     -19.742 -35.260   3.288  1.00  0.00     0.021 C 
HETATM    8  C9  UNL     1     -20.873 -35.568   2.297  1.00  0.00     0.029 C 
HETATM    9  C10 UNL     1     -20.497 -36.180   1.010  1.00  0.00     0.050 C 
HETATM   10  C11 UNL     1     -20.467 -37.689   0.969  1.00  0.00     0.017 C 
HETATM   11  C12 UNL     1     -19.247 -35.572   0.477  1.00  0.00     0.121 C 
HETATM   12  C13 UNL     1     -18.664 -34.523   1.300  1.00  0.00     0.051 C 
HETATM   13  C14 UNL     1     -18.826 -34.292   2.639  1.00  0.00    -0.043 C 
HETATM   14  C19 UNL     1     -20.471 -34.863   4.524  1.00  0.00     0.096 C 
HETATM   15  C20 UNL     1     -21.995 -35.190   4.475  1.00  0.00     0.050 C 
ENDROOT
BRANCH  13  16
HETATM   16  C15 UNL     1     -18.025 -33.233   3.123  1.00  0.00     0.016 C 
BRANCH  16  17
HETATM   17  C16 UNL     1     -17.217 -32.779   3.993  1.00  0.00    -0.040 C 
HETATM   18  C17 UNL     1     -15.802 -32.358   3.273  1.00  0.00     0.050 C 
BRANCH  17  19
HETATM   19  C18 UNL     1     -17.064 -32.543   5.329  1.00  0.00     0.138 C 
BRANCH  19  20
HETATM   20  O4  UNL     1     -18.129 -32.298   6.103  1.00  0.00    -0.372 OA
ATOM     21  H4  UNL     1     -18.049 -32.307   7.050  1.00  0.00     0.216 HD
ENDBRANCH  19  20
ENDBRANCH  17  19
ENDBRANCH  16  17
ENDBRANCH  13  16
BRANCH  14  22
HETATM   22  O5  UNL     1     -20.519 -33.483   4.577  1.00  0.00    -0.386 OA
ATOM     23  H5  UNL     1     -21.296 -33.172   5.027  1.00  0.00     0.210 HD
ENDBRANCH  14  22
BRANCH   1  24
HETATM   24  O2  UNL     1     -20.849 -36.559   6.163  1.00  0.00    -0.309 OA
BRANCH  24  25
HETATM   25  C2  UNL     1     -20.819 -37.237   7.329  1.00  0.00     0.255 C 
HETATM   26  C1  UNL     1     -20.440 -38.638   7.475  1.00  0.00     0.126 C 
HETATM   27  O1  UNL     1     -21.129 -36.596   8.404  1.00  0.00    -0.266 OA
ENDBRANCH  24  25
ENDBRANCH   1  24
BRANCH  11  28
HETATM   28  N1  UNL     1     -18.753 -35.959  -0.565  1.00  0.00    -0.288 NA
BRANCH  28  29
HETATM   29  O3  UNL     1     -18.370 -36.149  -1.749  1.00  0.00    -0.218 OA
ATOM     30  H3  UNL     1     -17.907 -36.213  -2.577  1.00  0.00     0.261 HD
ENDBRANCH  28  29
ENDBRANCH  11  28
TORSDOF 9
ENDMDL
MODEL 3
REMARK VINA RESULT: -6.472396122      2.544      4.812
REMARK  9 active torsions:
REMARK  status: ('A' for Active; 'I' for Inactive)
REMARK    1  A    between atoms: C2_2  and  O2_4 
REMARK    2  A    between atoms: O2_4  and  C3_5 
REMARK    3  A    between atoms: C12_15  and  N1_16 
REMARK    4  A    between atoms: N1_16  and  O3_17 
REMARK    5  A    between atoms: C14_20  and  C15_21 
REMARK    6  A    between atoms: C15_21  and  C16_22 
REMARK    7  A    between atoms: C16_22  and  C18_24 
REMARK    8  A    between atoms: C18_24  and  O4_25 
REMARK    9  A    between atoms: C19_27  and  O5_29 
ROOT
HETATM    1  C3  UNL     1     -16.019 -33.646   8.356  1.00  0.00     0.196 C 
HETATM    2  C4  UNL     1     -17.431 -33.325   8.535  1.00  0.00    -0.037 C 
HETATM    3  C5  UNL     1     -17.971 -33.314   9.716  1.00  0.00     0.090 C 
HETATM    4 CL1  UNL     1     -19.656 -32.935   9.981  1.00  0.00    -0.097 Cl
HETATM    5  C6  UNL     1     -18.274 -32.998   7.373  1.00  0.00     0.039 C 
HETATM    6  C7  UNL     1     -17.418 -32.865   6.120  1.00  0.00     0.022 C 
HETATM    7  C8  UNL     1     -16.571 -34.123   5.933  1.00  0.00     0.021 C 
HETATM    8  C9  UNL     1     -15.630 -33.799   4.764  1.00  0.00     0.029 C 
HETATM    9  C10 UNL     1     -16.248 -33.369   3.497  1.00  0.00     0.050 C 
HETATM   10  C11 UNL     1     -16.468 -31.885   3.328  1.00  0.00     0.017 C 
HETATM   11  C12 UNL     1     -17.475 -34.162   3.208  1.00  0.00     0.121 C 
HETATM   12  C13 UNL     1     -17.809 -35.176   4.196  1.00  0.00     0.051 C 
HETATM   13  C14 UNL     1     -17.441 -35.247   5.513  1.00  0.00    -0.043 C 
HETATM   14  C19 UNL     1     -15.639 -34.307   7.079  1.00  0.00     0.096 C 
HETATM   15  C20 UNL     1     -14.186 -33.824   6.779  1.00  0.00     0.050 C 
ENDROOT
BRANCH  13  16
HETATM   16  C15 UNL     1     -18.033 -36.330   6.200  1.00  0.00     0.016 C 
BRANCH  16  17
HETATM   17  C16 UNL     1     -19.062 -37.027   6.469  1.00  0.00    -0.040 C 
HETATM   18  C17 UNL     1     -19.999 -36.239   7.565  1.00  0.00     0.050 C 
BRANCH  17  19
HETATM   19  C18 UNL     1     -19.673 -38.221   6.218  1.00  0.00     0.138 C 
BRANCH  19  20
HETATM   20  O4  UNL     1     -19.823 -39.128   7.192  1.00  0.00    -0.372 OA
ATOM     21  H4  UNL     1     -19.073 -39.427   7.693  1.00  0.00     0.216 HD
ENDBRANCH  19  20
ENDBRANCH  17  19
ENDBRANCH  16  17
ENDBRANCH  13  16
BRANCH  14  22
HETATM   22  O5  UNL     1     -15.416 -35.661   7.246  1.00  0.00    -0.386 OA
ATOM     23  H5  UNL     1     -15.566 -35.937   8.143  1.00  0.00     0.210 HD
ENDBRANCH  14  22
BRANCH   1  24
HETATM   24  O2  UNL     1     -15.253 -32.419   8.490  1.00  0.00    -0.309 OA
BRANCH  24  25
HETATM   25  C2  UNL     1     -14.961 -31.791   9.648  1.00  0.00     0.255 C 
HETATM   26  C1  UNL     1     -14.918 -30.345   9.830  1.00  0.00     0.126 C 
HETATM   27  O1  UNL     1     -14.718 -32.522  10.681  1.00  0.00    -0.266 OA
ENDBRANCH  24  25
ENDBRANCH   1  24
BRANCH  11  28
HETATM   28  N1  UNL     1     -18.148 -33.942   2.219  1.00  0.00    -0.288 NA
BRANCH  28  29
HETATM   29  O3  UNL     1     -18.713 -33.923   1.094  1.00  0.00    -0.218 OA
ATOM     30  H3  UNL     1     -19.062 -34.094   0.227  1.00  0.00     0.261 HD
ENDBRANCH  28  29
ENDBRANCH  11  28
TORSDOF 9
ENDMDL
MODEL 4
REMARK VINA RESULT: -6.392217662      3.187      5.308
REMARK  9 active torsions:
REMARK  status: ('A' for Active; 'I' for Inactive)
REMARK    1  A    between atoms: C2_2  and  O2_4 
REMARK    2  A    between atoms: O2_4  and  C3_5 
REMARK    3  A    between atoms: C12_15  and  N1_16 
REMARK    4  A    between atoms: N1_16  and  O3_17 
REMARK    5  A    between atoms: C14_20  and  C15_21 
REMARK    6  A    between atoms: C15_21  and  C16_22 
REMARK    7  A    between atoms: C16_22  and  C18_24 
REMARK    8  A    between atoms: C18_24  and  O4_25 
REMARK    9  A    between atoms: C19_27  and  O5_29 
ROOT
HETATM    1  C3  UNL     1     -20.292 -36.227   4.841  1.00  0.00     0.196 C 
HETATM    2  C4  UNL     1     -18.882 -36.540   5.045  1.00  0.00    -0.037 C 
HETATM    3  C5  UNL     1     -18.394 -36.685   6.240  1.00  0.00     0.090 C 
HETATM    4 CL1  UNL     1     -16.714 -37.061   6.536  1.00  0.00    -0.097 Cl
HETATM    5  C6  UNL     1     -17.980 -36.708   3.893  1.00  0.00     0.039 C 
HETATM    6  C7  UNL     1     -18.777 -36.703   2.595  1.00  0.00     0.022 C 
HETATM    7  C8  UNL     1     -19.645 -35.448   2.522  1.00  0.00     0.021 C 
HETATM    8  C9  UNL     1     -20.526 -35.644   1.280  1.00  0.00     0.029 C 
HETATM    9  C10 UNL     1     -19.842 -35.905  -0.000  1.00  0.00     0.050 C 
HETATM   10  C11 UNL     1     -19.580 -37.353  -0.336  1.00  0.00     0.017 C 
HETATM   11  C12 UNL     1     -18.623 -35.061  -0.134  1.00  0.00     0.121 C 
HETATM   12  C13 UNL     1     -18.357 -34.168   0.984  1.00  0.00     0.051 C 
HETATM   13  C14 UNL     1     -18.785 -34.265   2.281  1.00  0.00    -0.043 C 
HETATM   14  C19 UNL     1     -20.631 -35.422   3.637  1.00  0.00     0.096 C 
HETATM   15  C20 UNL     1     -22.057 -35.892   3.214  1.00  0.00     0.050 C 
ENDROOT
BRANCH  13  16
HETATM   16  C15 UNL     1     -18.249 -33.263   3.121  1.00  0.00     0.016 C 
BRANCH  16  17
HETATM   17  C16 UNL     1     -17.421 -32.913   4.019  1.00  0.00    -0.040 C 
HETATM   18  C17 UNL     1     -16.088 -32.253   3.323  1.00  0.00     0.050 C 
BRANCH  17  19
HETATM   19  C18 UNL     1     -17.200 -32.915   5.366  1.00  0.00     0.138 C 
BRANCH  19  20
HETATM   20  O4  UNL     1     -17.986 -32.205   6.186  1.00  0.00    -0.372 OA
ATOM     21  H4  UNL     1     -17.818 -31.282   6.338  1.00  0.00     0.216 HD
ENDBRANCH  19  20
ENDBRANCH  17  19
ENDBRANCH  16  17
ENDBRANCH  13  16
BRANCH  14  22
HETATM   22  O5  UNL     1     -20.894 -34.103   3.955  1.00  0.00    -0.386 OA
ATOM     23  H5  UNL     1     -21.194 -33.609   3.201  1.00  0.00     0.210 HD
ENDBRANCH  14  22
BRANCH   1  24
HETATM   24  O2  UNL     1     -21.033 -37.475   4.789  1.00  0.00    -0.309 OA
BRANCH  24  25
HETATM   25  C2  UNL     1     -21.181 -38.349   5.807  1.00  0.00     0.255 C 
HETATM   26  C1  UNL     1     -20.715 -39.730   5.800  1.00  0.00     0.126 C 
HETATM   27  O1  UNL     1     -21.763 -37.928   6.878  1.00  0.00    -0.266 OA
ENDBRANCH  24  25
ENDBRANCH   1  24
BRANCH  11  28
HETATM   28  N1  UNL     1     -17.902 -35.146  -1.110  1.00  0.00    -0.288 NA
BRANCH  28  29
HETATM   29  O3  UNL     1     -16.965 -35.153  -1.951  1.00  0.00    -0.218 OA
ATOM     30  H3  UNL     1     -16.339 -34.984  -2.645  1.00  0.00     0.261 HD
ENDBRANCH  28  29
ENDBRANCH  11  28
TORSDOF 9
ENDMDL
MODEL 5
REMARK VINA RESULT: -6.364764693      3.412      7.190
REMARK  9 active torsions:
REMARK  status: ('A' for Active; 'I' for Inactive)
REMARK    1  A    between atoms: C2_2  and  O2_4 
REMARK    2  A    between atoms: O2_4  and  C3_5 
REMARK    3  A    between atoms: C12_15  and  N1_16 
REMARK    4  A    between atoms: N1_16  and  O3_17 
REMARK    5  A    between atoms: C14_20  and  C15_21 
REMARK    6  A    between atoms: C15_21  and  C16_22 
REMARK    7  A    between atoms: C16_22  and  C18_24 
REMARK    8  A    between atoms: C18_24  and  O4_25 
REMARK    9  A    between atoms: C19_27  and  O5_29 
ROOT
HETATM    1  C3  UNL     1     -20.599 -36.703   4.366  1.00  0.00     0.196 C 
HETATM    2  C4  UNL     1     -20.200 -37.955   4.999  1.00  0.00    -0.037 C 
HETATM    3  C5  UNL     1     -20.913 -39.032   4.861  1.00  0.00     0.090 C 
HETATM    4 CL1  UNL     1     -20.477 -40.555   5.597  1.00  0.00    -0.097 Cl
HETATM    5  C6  UNL     1     -18.969 -38.026   5.803  1.00  0.00     0.039 C 
HETATM    6  C7  UNL     1     -18.178 -36.731   5.674  1.00  0.00     0.022 C 
HETATM    7  C8  UNL     1     -19.072 -35.539   6.015  1.00  0.00     0.021 C 
HETATM    8  C9  UNL     1     -18.233 -34.300   5.673  1.00  0.00     0.029 C 
HETATM    9  C10 UNL     1     -16.908 -34.183   6.308  1.00  0.00     0.050 C 
HETATM   10  C11 UNL     1     -15.749 -34.796   5.559  1.00  0.00     0.017 C 
HETATM   11  C12 UNL     1     -16.960 -34.621   7.731  1.00  0.00     0.121 C 
HETATM   12  C13 UNL     1     -18.266 -35.058   8.201  1.00  0.00     0.051 C 
HETATM   13  C14 UNL     1     -19.330 -35.518   7.475  1.00  0.00    -0.043 C 
HETATM   14  C19 UNL     1     -20.216 -35.448   5.067  1.00  0.00     0.096 C 
HETATM   15  C20 UNL     1     -20.002 -34.393   3.938  1.00  0.00     0.050 C 
ENDROOT
BRANCH  13  16
HETATM   16  C15 UNL     1     -20.412 -35.945   8.279  1.00  0.00     0.016 C 
BRANCH  16  17
HETATM   17  C16 UNL     1     -21.271 -36.832   8.578  1.00  0.00    -0.040 C 
HETATM   18  C17 UNL     1     -20.904 -37.496  10.035  1.00  0.00     0.050 C 
BRANCH  17  19
HETATM   19  C18 UNL     1     -22.382 -37.480   8.120  1.00  0.00     0.138 C 
BRANCH  19  20
HETATM   20  O4  UNL     1     -23.046 -37.021   7.052  1.00  0.00    -0.372 OA
ATOM     21  H4  UNL     1     -23.947 -36.730   7.131  1.00  0.00     0.216 HD
ENDBRANCH  19  20
ENDBRANCH  17  19
ENDBRANCH  16  17
ENDBRANCH  13  16
BRANCH  14  22
HETATM   22  O5  UNL     1     -21.287 -34.880   5.731  1.00  0.00    -0.386 OA
ATOM     23  H5  UNL     1     -21.698 -35.492   6.331  1.00  0.00     0.210 HD
ENDBRANCH  14  22
BRANCH   1  24
HETATM   24  O2  UNL     1     -20.044 -36.673   3.025  1.00  0.00    -0.309 OA
BRANCH  24  25
HETATM   25  C2  UNL     1     -20.696 -37.009   1.892  1.00  0.00     0.255 C 
HETATM   26  C1  UNL     1     -20.087 -37.103   0.571  1.00  0.00     0.126 C 
HETATM   27  O1  UNL     1     -21.952 -37.287   1.983  1.00  0.00    -0.266 OA
ENDBRANCH  24  25
ENDBRANCH   1  24
BRANCH  11  28
HETATM   28  N1  UNL     1     -15.961 -34.627   8.425  1.00  0.00    -0.288 NA
BRANCH  28  29
HETATM   29  O3  UNL     1     -14.908 -34.378   9.069  1.00  0.00    -0.218 OA
ATOM     30  H3  UNL     1     -14.175 -34.342   9.671  1.00  0.00     0.261 HD
ENDBRANCH  28  29
ENDBRANCH  11  28
TORSDOF 9
ENDMDL
