MODEL 1
REMARK VINA RESULT: -7.621422274      0.000      0.000
REMARK  7 active torsions:
REMARK  status: ('A' for Active; 'I' for Inactive)
REMARK    1  A    between atoms: O1_2  and  C2_3 
REMARK    2  A    between atoms: C5_6  and  S1_7 
REMARK    3  A    between atoms: S1_7  and  C6_10 
REMARK    4  A    between atoms: C6_10  and  C7_11 
REMARK    5  A    between atoms: C7_11  and  O4_12 
REMARK    6  A    between atoms: N1_14  and  O5_16 
REMARK    7  A    between atoms: C10_20  and  C11_21 
ROOT
HETATM    1  C6  UNL     1     -18.370 -35.083   5.655  1.00  0.00     0.134 C 
HETATM    2  C8  UNL     1     -18.705 -33.584   5.882  1.00  0.00     0.035 C 
HETATM    3  C9  UNL     1     -17.631 -32.830   5.117  1.00  0.00     0.007 C 
HETATM    4  C10 UNL     1     -18.078 -32.889   3.662  1.00  0.00    -0.007 C 
HETATM    5  C15 UNL     1     -18.433 -34.309   3.271  1.00  0.00     0.007 C 
HETATM    6  C16 UNL     1     -17.893 -35.306   4.281  1.00  0.00     0.035 C 
ENDROOT
BRANCH   1   7
HETATM    7  S1  UNL     1     -19.800 -35.986   6.157  1.00  0.00     0.193 S 
HETATM    8  O2  UNL     1     -19.496 -36.845   7.378  1.00  0.00    -0.221 OA
HETATM    9  O3  UNL     1     -20.868 -35.014   6.616  1.00  0.00    -0.221 OA
BRANCH   7  10
HETATM   10  C5  UNL     1     -20.510 -36.978   4.927  1.00  0.00     0.076 A 
HETATM   11  C4  UNL     1     -21.133 -36.450   3.823  1.00  0.00     0.029 A 
HETATM   12  C3  UNL     1     -21.692 -37.252   2.850  1.00  0.00     0.057 A 
HETATM   13  C2  UNL     1     -21.589 -38.616   3.050  1.00  0.00     0.141 A 
HETATM   14  N2  UNL     1     -20.980 -39.128   4.127  1.00  0.00    -0.345 N 
HETATM   15  C17 UNL     1     -20.449 -38.338   5.052  1.00  0.00     0.113 A 
ATOM     16  H2  UNL     1     -20.923 -40.141   4.238  1.00  0.00     0.167 HD
BRANCH  13  17
HETATM   17  O1  UNL     1     -22.153 -39.448   2.065  1.00  0.00    -0.341 OA
HETATM   18  C1  UNL     1     -22.357 -38.964   0.755  1.00  0.00     0.211 C 
ENDBRANCH  13  17
ENDBRANCH   7  10
ENDBRANCH   1   7
BRANCH   1  19
HETATM   19  C7  UNL     1     -17.308 -35.404   6.639  1.00  0.00     0.160 C 
HETATM   20  N1  UNL     1     -16.642 -36.493   6.716  1.00  0.00    -0.250 N 
ATOM     21  H1  UNL     1     -15.930 -36.595   7.439  1.00  0.00     0.196 HD
BRANCH  19  22
HETATM   22  O4  UNL     1     -17.027 -34.381   7.585  1.00  0.00    -0.347 OA
ATOM     23  H4  UNL     1     -17.422 -34.501   8.441  1.00  0.00     0.219 HD
ENDBRANCH  19  22
BRANCH  20  24
HETATM   24  O5  UNL     1     -16.866 -37.513   5.852  1.00  0.00    -0.288 OA
ATOM     25  H5  UNL     1     -16.582 -38.396   6.053  1.00  0.00     0.244 HD
ENDBRANCH  20  24
ENDBRANCH   1  19
BRANCH   4  26
HETATM   26  C11 UNL     1     -17.070 -32.256   2.754  1.00  0.00    -0.048 C 
HETATM   27  C12 UNL     1     -17.162 -32.964   1.413  1.00  0.00     0.015 C 
HETATM   28  C13 UNL     1     -17.267 -30.776   2.589  1.00  0.00     0.015 C 
HETATM   29  C14 UNL     1     -15.679 -32.476   3.293  1.00  0.00     0.015 C 
ENDBRANCH   4  26
TORSDOF 7
ENDMDL
MODEL 2
REMARK VINA RESULT: -7.608600672      2.612      3.367
REMARK  7 active torsions:
REMARK  status: ('A' for Active; 'I' for Inactive)
REMARK    1  A    between atoms: O1_2  and  C2_3 
REMARK    2  A    between atoms: C5_6  and  S1_7 
REMARK    3  A    between atoms: S1_7  and  C6_10 
REMARK    4  A    between atoms: C6_10  and  C7_11 
REMARK    5  A    between atoms: C7_11  and  O4_12 
REMARK    6  A    between atoms: N1_14  and  O5_16 
REMARK    7  A    between atoms: C10_20  and  C11_21 
ROOT
HETATM    1  C6  UNL     1     -18.340 -34.979   6.286  1.00  0.00     0.134 C 
HETATM    2  C8  UNL     1     -18.180 -33.437   6.378  1.00  0.00     0.035 C 
HETATM    3  C9  UNL     1     -17.035 -33.112   5.433  1.00  0.00     0.007 C 
HETATM    4  C10 UNL     1     -17.661 -33.139   4.044  1.00  0.00    -0.007 C 
HETATM    5  C15 UNL     1     -18.472 -34.404   3.849  1.00  0.00     0.007 C 
HETATM    6  C16 UNL     1     -18.130 -35.441   4.905  1.00  0.00     0.035 C 
ENDROOT
BRANCH   1   7
HETATM    7  S1  UNL     1     -19.898 -35.354   7.024  1.00  0.00     0.193 S 
HETATM    8  O2  UNL     1     -20.172 -34.434   8.206  1.00  0.00    -0.221 OA
HETATM    9  O3  UNL     1     -21.003 -35.058   6.031  1.00  0.00    -0.221 OA
BRANCH   7  10
HETATM   10  C5  UNL     1     -20.093 -37.001   7.527  1.00  0.00     0.076 A 
HETATM   11  C4  UNL     1     -20.127 -38.045   6.635  1.00  0.00     0.029 A 
HETATM   12  C3  UNL     1     -20.281 -39.351   7.049  1.00  0.00     0.057 A 
HETATM   13  C2  UNL     1     -20.397 -39.549   8.413  1.00  0.00     0.141 A 
HETATM   14  N2  UNL     1     -20.363 -38.529   9.280  1.00  0.00    -0.345 N 
HETATM   15  C17 UNL     1     -20.215 -37.279   8.859  1.00  0.00     0.113 A 
ATOM     16  H2  UNL     1     -20.451 -38.715  10.279  1.00  0.00     0.167 HD
BRANCH  13  17
HETATM   17  O1  UNL     1     -20.554 -40.876   8.851  1.00  0.00    -0.341 OA
HETATM   18  C1  UNL     1     -21.699 -41.254   9.587  1.00  0.00     0.211 C 
ENDBRANCH  13  17
ENDBRANCH   7  10
ENDBRANCH   1   7
BRANCH   1  19
HETATM   19  C7  UNL     1     -17.306 -35.538   7.190  1.00  0.00     0.160 C 
HETATM   20  N1  UNL     1     -16.613 -36.595   6.997  1.00  0.00    -0.250 N 
ATOM     21  H1  UNL     1     -15.926 -36.879   7.695  1.00  0.00     0.196 HD
BRANCH  19  22
HETATM   22  O4  UNL     1     -17.088 -34.807   8.390  1.00  0.00    -0.347 OA
ATOM     23  H4  UNL     1     -17.830 -34.769   8.982  1.00  0.00     0.219 HD
ENDBRANCH  19  22
BRANCH  20  24
HETATM   24  O5  UNL     1     -16.778 -37.345   5.880  1.00  0.00    -0.288 OA
ATOM     25  H5  UNL     1     -16.161 -37.292   5.160  1.00  0.00     0.244 HD
ENDBRANCH  20  24
ENDBRANCH   1  19
BRANCH   4  26
HETATM   26  C11 UNL     1     -16.635 -32.919   2.977  1.00  0.00    -0.048 C 
HETATM   27  C12 UNL     1     -15.293 -33.350   3.545  1.00  0.00     0.015 C 
HETATM   28  C13 UNL     1     -16.935 -33.659   1.704  1.00  0.00     0.015 C 
HETATM   29  C14 UNL     1     -16.542 -31.452   2.644  1.00  0.00     0.015 C 
ENDBRANCH   4  26
TORSDOF 7
ENDMDL
MODEL 3
REMARK VINA RESULT: -7.591363254      3.640      4.867
REMARK  7 active torsions:
REMARK  status: ('A' for Active; 'I' for Inactive)
REMARK    1  A    between atoms: O1_2  and  C2_3 
REMARK    2  A    between atoms: C5_6  and  S1_7 
REMARK    3  A    between atoms: S1_7  and  C6_10 
REMARK    4  A    between atoms: C6_10  and  C7_11 
REMARK    5  A    between atoms: C7_11  and  O4_12 
REMARK    6  A    between atoms: N1_14  and  O5_16 
REMARK    7  A    between atoms: C10_20  and  C11_21 
ROOT
HETATM    1  C6  UNL     1     -17.204 -33.036   3.000  1.00  0.00     0.134 C 
HETATM    2  C8  UNL     1     -15.719 -33.441   3.207  1.00  0.00     0.035 C 
HETATM    3  C9  UNL     1     -15.474 -33.257   4.695  1.00  0.00     0.007 C 
HETATM    4  C10 UNL     1     -16.083 -34.494   5.343  1.00  0.00    -0.007 C 
HETATM    5  C15 UNL     1     -17.489 -34.729   4.828  1.00  0.00     0.007 C 
HETATM    6  C16 UNL     1     -18.029 -33.492   4.130  1.00  0.00     0.035 C 
ENDROOT
BRANCH   1   7
HETATM    7  S1  UNL     1     -17.653 -33.622   1.398  1.00  0.00     0.193 S 
HETATM    8  O2  UNL     1     -18.111 -32.473   0.510  1.00  0.00    -0.221 OA
HETATM    9  O3  UNL     1     -16.426 -34.184   0.711  1.00  0.00    -0.221 OA
BRANCH   7  10
HETATM   10  C5  UNL     1     -18.859 -34.867   1.384  1.00  0.00     0.076 A 
HETATM   11  C4  UNL     1     -19.870 -34.924   2.312  1.00  0.00     0.029 A 
HETATM   12  C3  UNL     1     -20.824 -35.918   2.288  1.00  0.00     0.057 A 
HETATM   13  C2  UNL     1     -20.705 -36.854   1.276  1.00  0.00     0.141 A 
HETATM   14  N2  UNL     1     -19.718 -36.795   0.372  1.00  0.00    -0.345 N 
HETATM   15  C17 UNL     1     -18.810 -35.829   0.415  1.00  0.00     0.113 A 
ATOM     16  H2  UNL     1     -19.665 -37.503  -0.360  1.00  0.00     0.167 HD
BRANCH  13  17
HETATM   17  O1  UNL     1     -21.672 -37.875   1.238  1.00  0.00    -0.341 OA
HETATM   18  C1  UNL     1     -22.128 -38.471   2.434  1.00  0.00     0.211 C 
ENDBRANCH  13  17
ENDBRANCH   7  10
ENDBRANCH   1   7
BRANCH   1  19
HETATM   19  C7  UNL     1     -17.202 -31.555   2.916  1.00  0.00     0.160 C 
HETATM   20  N1  UNL     1     -16.460 -30.834   2.165  1.00  0.00    -0.250 N 
ATOM     21  H1  UNL     1     -16.554 -29.818   2.195  1.00  0.00     0.196 HD
BRANCH  19  22
HETATM   22  O4  UNL     1     -18.123 -30.897   3.775  1.00  0.00    -0.347 OA
ATOM     23  H4  UNL     1     -19.031 -31.160   3.674  1.00  0.00     0.219 HD
ENDBRANCH  19  22
BRANCH  20  24
HETATM   24  O5  UNL     1     -15.553 -31.396   1.329  1.00  0.00    -0.288 OA
ATOM     25  H5  UNL     1     -14.953 -30.859   0.825  1.00  0.00     0.244 HD
ENDBRANCH  20  24
ENDBRANCH   1  19
BRANCH   4  26
HETATM   26  C11 UNL     1     -16.000 -34.427   6.836  1.00  0.00    -0.048 C 
HETATM   27  C12 UNL     1     -14.570 -34.060   7.194  1.00  0.00     0.015 C 
HETATM   28  C13 UNL     1     -16.968 -33.449   7.440  1.00  0.00     0.015 C 
HETATM   29  C14 UNL     1     -16.288 -35.782   7.431  1.00  0.00     0.015 C 
ENDBRANCH   4  26
TORSDOF 7
ENDMDL
MODEL 4
REMARK VINA RESULT: -7.528479177      2.771      5.783
REMARK  7 active torsions:
REMARK  status: ('A' for Active; 'I' for Inactive)
REMARK    1  A    between atoms: O1_2  and  C2_3 
REMARK    2  A    between atoms: C5_6  and  S1_7 
REMARK    3  A    between atoms: S1_7  and  C6_10 
REMARK    4  A    between atoms: C6_10  and  C7_11 
REMARK    5  A    between atoms: C7_11  and  O4_12 
REMARK    6  A    between atoms: N1_14  and  O5_16 
REMARK    7  A    between atoms: C10_20  and  C11_21 
ROOT
HETATM    1  C6  UNL     1     -18.094 -35.236   6.338  1.00  0.00     0.134 C 
HETATM    2  C8  UNL     1     -17.703 -36.161   5.153  1.00  0.00     0.035 C 
HETATM    3  C9  UNL     1     -18.581 -37.390   5.317  1.00  0.00     0.007 C 
HETATM    4  C10 UNL     1     -19.939 -36.970   4.769  1.00  0.00    -0.007 C 
HETATM    5  C15 UNL     1     -20.368 -35.644   5.363  1.00  0.00     0.007 C 
HETATM    6  C16 UNL     1     -19.542 -35.303   6.592  1.00  0.00     0.035 C 
ENDROOT
BRANCH   1   7
HETATM    7  S1  UNL     1     -17.423 -33.649   5.963  1.00  0.00     0.193 S 
HETATM    8  O2  UNL     1     -18.301 -32.542   6.533  1.00  0.00    -0.221 OA
HETATM    9  O3  UNL     1     -16.089 -33.493   6.664  1.00  0.00    -0.221 OA
BRANCH   7  10
HETATM   10  C5  UNL     1     -17.151 -33.348   4.278  1.00  0.00     0.076 A 
HETATM   11  C4  UNL     1     -18.053 -33.713   3.309  1.00  0.00     0.029 A 
HETATM   12  C3  UNL     1     -17.824 -33.465   1.972  1.00  0.00     0.057 A 
HETATM   13  C2  UNL     1     -16.637 -32.827   1.664  1.00  0.00     0.141 A 
HETATM   14  N2  UNL     1     -15.760 -32.470   2.611  1.00  0.00    -0.345 N 
HETATM   15  C17 UNL     1     -15.999 -32.720   3.892  1.00  0.00     0.113 A 
ATOM     16  H2  UNL     1     -14.895 -32.000   2.344  1.00  0.00     0.167 HD
BRANCH  13  17
HETATM   17  O1  UNL     1     -16.389 -32.565   0.303  1.00  0.00    -0.341 OA
HETATM   18  C1  UNL     1     -17.002 -33.352  -0.696  1.00  0.00     0.211 C 
ENDBRANCH  13  17
ENDBRANCH   7  10
ENDBRANCH   1   7
BRANCH   1  19
HETATM   19  C7  UNL     1     -17.333 -35.745   7.505  1.00  0.00     0.160 C 
HETATM   20  N1  UNL     1     -17.542 -35.465   8.734  1.00  0.00    -0.250 N 
ATOM     21  H1  UNL     1     -16.948 -35.882   9.451  1.00  0.00     0.196 HD
BRANCH  19  22
HETATM   22  O4  UNL     1     -16.262 -36.627   7.193  1.00  0.00    -0.347 OA
ATOM     23  H4  UNL     1     -16.520 -37.514   6.968  1.00  0.00     0.219 HD
ENDBRANCH  19  22
BRANCH  20  24
HETATM   24  O5  UNL     1     -18.539 -34.622   9.100  1.00  0.00    -0.288 OA
ATOM     25  H5  UNL     1     -18.720 -33.834   8.603  1.00  0.00     0.244 HD
ENDBRANCH  20  24
ENDBRANCH   1  19
BRANCH   4  26
HETATM   26  C11 UNL     1     -20.956 -38.055   4.937  1.00  0.00    -0.048 C 
HETATM   27  C12 UNL     1     -20.388 -39.058   5.927  1.00  0.00     0.015 C 
HETATM   28  C13 UNL     1     -22.292 -37.548   5.402  1.00  0.00     0.015 C 
HETATM   29  C14 UNL     1     -21.169 -38.772   3.628  1.00  0.00     0.015 C 
ENDBRANCH   4  26
TORSDOF 7
ENDMDL
MODEL 5
REMARK VINA RESULT: -7.528080363      0.550      1.270
REMARK  7 active torsions:
REMARK  status: ('A' for Active; 'I' for Inactive)
REMARK    1  A    between atoms: O1_2  and  C2_3 
REMARK    2  A    between atoms: C5_6  and  S1_7 
REMARK    3  A    between atoms: S1_7  and  C6_10 
REMARK    4  A    between atoms: C6_10  and  C7_11 
REMARK    5  A    between atoms: C7_11  and  O4_12 
REMARK    6  A    between atoms: N1_14  and  O5_16 
REMARK    7  A    between atoms: C10_20  and  C11_21 
ROOT
HETATM    1  C6  UNL     1     -18.338 -35.090   5.673  1.00  0.00     0.134 C 
HETATM    2  C8  UNL     1     -18.638 -33.583   5.897  1.00  0.00     0.035 C 
HETATM    3  C9  UNL     1     -17.567 -32.855   5.104  1.00  0.00     0.007 C 
HETATM    4  C10 UNL     1     -18.049 -32.915   3.659  1.00  0.00    -0.007 C 
HETATM    5  C15 UNL     1     -18.441 -34.329   3.286  1.00  0.00     0.007 C 
HETATM    6  C16 UNL     1     -17.897 -35.331   4.290  1.00  0.00     0.035 C 
ENDROOT
BRANCH   1   7
HETATM    7  S1  UNL     1     -19.773 -35.961   6.214  1.00  0.00     0.193 S 
HETATM    8  O2  UNL     1     -19.470 -36.783   7.460  1.00  0.00    -0.221 OA
HETATM    9  O3  UNL     1     -20.828 -34.964   6.649  1.00  0.00    -0.221 OA
BRANCH   7  10
HETATM   10  C5  UNL     1     -20.502 -36.986   5.022  1.00  0.00     0.076 A 
HETATM   11  C4  UNL     1     -20.406 -38.355   5.068  1.00  0.00     0.029 A 
HETATM   12  C3  UNL     1     -20.994 -39.158   4.114  1.00  0.00     0.057 A 
HETATM   13  C2  UNL     1     -21.685 -38.507   3.109  1.00  0.00     0.141 A 
HETATM   14  N2  UNL     1     -21.777 -37.171   3.067  1.00  0.00    -0.345 N 
HETATM   15  C17 UNL     1     -21.203 -36.417   3.995  1.00  0.00     0.113 A 
ATOM     16  H2  UNL     1     -22.297 -36.727   2.310  1.00  0.00     0.167 HD
BRANCH  13  17
HETATM   17  O1  UNL     1     -22.291 -39.313   2.128  1.00  0.00    -0.341 OA
HETATM   18  C1  UNL     1     -22.355 -38.876   0.787  1.00  0.00     0.211 C 
ENDBRANCH  13  17
ENDBRANCH   7  10
ENDBRANCH   1   7
BRANCH   1  19
HETATM   19  C7  UNL     1     -17.260 -35.426   6.634  1.00  0.00     0.160 C 
HETATM   20  N1  UNL     1     -16.610 -36.525   6.700  1.00  0.00    -0.250 N 
ATOM     21  H1  UNL     1     -15.884 -36.637   7.408  1.00  0.00     0.196 HD
BRANCH  19  22
HETATM   22  O4  UNL     1     -16.941 -34.405   7.570  1.00  0.00    -0.347 OA
ATOM     23  H4  UNL     1     -16.404 -34.681   8.304  1.00  0.00     0.219 HD
ENDBRANCH  19  22
BRANCH  20  24
HETATM   24  O5  UNL     1     -16.870 -37.544   5.844  1.00  0.00    -0.288 OA
ATOM     25  H5  UNL     1     -17.732 -37.653   5.460  1.00  0.00     0.244 HD
ENDBRANCH  20  24
ENDBRANCH   1  19
BRANCH   4  26
HETATM   26  C11 UNL     1     -17.050 -32.307   2.724  1.00  0.00    -0.048 C 
HETATM   27  C12 UNL     1     -15.673 -32.530   3.326  1.00  0.00     0.015 C 
HETATM   28  C13 UNL     1     -17.120 -32.873   1.333  1.00  0.00     0.015 C 
HETATM   29  C14 UNL     1     -17.273 -30.819   2.625  1.00  0.00     0.015 C 
ENDBRANCH   4  26
TORSDOF 7
ENDMDL
