MODEL 1
REMARK VINA RESULT: -8.654097232      0.000      0.000
REMARK  6 active torsions:
REMARK  status: ('A' for Active; 'I' for Inactive)
REMARK    1  A    between atoms: C2_2  and  C3_3 
REMARK    2  A    between atoms: C3_3  and  C4_4 
REMARK    3  A    between atoms: C4_4  and  C5_5 
REMARK    4  A    between atoms: C6_7  and  N1_8 
REMARK    5  A    between atoms: N3_19  and  C13_20 
REMARK    6  A    between atoms: C16_23  and  N4_24 
ROOT
HETATM    1  C5  UNL     1     -17.922 -33.562   0.037  1.00  0.00    -0.005 A 
HETATM    2  S1  UNL     1     -17.164 -32.482   1.128  1.00  0.00    -0.058 SA
HETATM    3  C6  UNL     1     -17.392 -32.878   2.756  1.00  0.00     0.143 A 
HETATM    4  N2  UNL     1     -18.126 -33.967   2.945  1.00  0.00    -0.335 N 
ATOM      5  H2  UNL     1     -18.282 -34.230   3.918  1.00  0.00     0.168 HD
HETATM    6  C7  UNL     1     -18.685 -34.760   2.035  1.00  0.00     0.070 A 
HETATM    7  C8  UNL     1     -18.608 -34.603   0.658  1.00  0.00    -0.015 A 
HETATM    8  C9  UNL     1     -19.161 -35.617  -0.275  1.00  0.00     0.047 C 
HETATM    9  C10 UNL     1     -20.192 -36.491   0.336  1.00  0.00     0.047 C 
HETATM   10  C11 UNL     1     -20.157 -36.687   1.782  1.00  0.00    -0.010 A 
HETATM   11  C12 UNL     1     -20.785 -37.651   2.585  1.00  0.00     0.120 A 
HETATM   12  N3  UNL     1     -20.478 -37.361   3.844  1.00  0.00    -0.296 N 
HETATM   13  N5  UNL     1     -19.708 -36.291   3.860  1.00  0.00    -0.296 N 
ATOM     14  H5  UNL     1     -19.332 -35.858   4.704  1.00  0.00     0.187 HD
HETATM   15  C19 UNL     1     -19.490 -35.852   2.610  1.00  0.00     0.083 A 
ENDROOT
BRANCH  12  16
HETATM   16  C13 UNL     1     -20.947 -38.142   4.995  1.00  0.00     0.126 C 
HETATM   17  C14 UNL     1     -22.436 -38.013   5.090  1.00  0.00     0.031 C 
HETATM   18  C15 UNL     1     -22.880 -38.210   6.510  1.00  0.00     0.035 C 
HETATM   19  C16 UNL     1     -21.980 -39.141   7.292  1.00  0.00     0.185 C 
HETATM   20  C17 UNL     1     -20.577 -38.609   7.388  1.00  0.00     0.055 C 
HETATM   21  C18 UNL     1     -20.226 -37.703   6.232  1.00  0.00     0.109 C 
HETATM   22 CL1  UNL     1     -18.481 -37.744   5.912  1.00  0.00    -0.123 Cl
BRANCH  19  23
HETATM   23  N4  UNL     1     -22.013 -40.492   6.729  1.00  0.00    -0.075 N 
ATOM     24  H43 UNL     1     -21.535 -40.537   5.829  1.00  0.00     0.274 HD
ATOM     25  H42 UNL     1     -21.416 -41.133   7.251  1.00  0.00     0.274 HD
ATOM     26  H41 UNL     1     -22.971 -40.835   6.665  1.00  0.00     0.274 HD
ENDBRANCH  19  23
ENDBRANCH  12  16
BRANCH   3  27
HETATM   27  N1  UNL     1     -16.903 -32.191   3.719  1.00  0.00    -0.380 N 
ATOM     28  H12 UNL     1     -17.042 -31.184   3.810  1.00  0.00     0.158 HD
ATOM     29  H11 UNL     1     -16.339 -32.598   4.465  1.00  0.00     0.158 HD
ENDBRANCH   3  27
BRANCH   1  30
HETATM   30  C4  UNL     1     -17.868 -33.343  -1.424  1.00  0.00     0.047 C 
BRANCH  30  31
HETATM   31  C3  UNL     1     -16.523 -33.272  -2.041  1.00  0.00     0.005 C 
BRANCH  31  32
HETATM   32  C2  UNL     1     -16.358 -34.068  -3.317  1.00  0.00    -0.004 C 
HETATM   33  C1  UNL     1     -16.634 -35.532  -3.110  1.00  0.00     0.005 C 
ENDBRANCH  31  32
ENDBRANCH  30  31
ENDBRANCH   1  30
TORSDOF 6
ENDMDL
MODEL 2
REMARK VINA RESULT: -8.567624091      1.510      1.872
REMARK  6 active torsions:
REMARK  status: ('A' for Active; 'I' for Inactive)
REMARK    1  A    between atoms: C2_2  and  C3_3 
REMARK    2  A    between atoms: C3_3  and  C4_4 
REMARK    3  A    between atoms: C4_4  and  C5_5 
REMARK    4  A    between atoms: C6_7  and  N1_8 
REMARK    5  A    between atoms: N3_19  and  C13_20 
REMARK    6  A    between atoms: C16_23  and  N4_24 
ROOT
HETATM    1  C5  UNL     1     -18.589 -34.836   0.922  1.00  0.00    -0.005 A 
HETATM    2  S1  UNL     1     -17.912 -33.790   2.096  1.00  0.00    -0.058 SA
HETATM    3  C6  UNL     1     -18.388 -34.138   3.681  1.00  0.00     0.143 A 
HETATM    4  N2  UNL     1     -19.215 -35.170   3.778  1.00  0.00    -0.335 N 
ATOM      5  H2  UNL     1     -19.521 -35.404   4.723  1.00  0.00     0.168 HD
HETATM    6  C7  UNL     1     -19.700 -35.940   2.808  1.00  0.00     0.070 A 
HETATM    7  C8  UNL     1     -19.425 -35.815   1.453  1.00  0.00    -0.015 A 
HETATM    8  C9  UNL     1     -19.916 -36.807   0.463  1.00  0.00     0.047 C 
HETATM    9  C10 UNL     1     -21.079 -37.596   0.935  1.00  0.00     0.047 C 
HETATM   10  C11 UNL     1     -21.256 -37.767   2.374  1.00  0.00    -0.010 A 
HETATM   11  C12 UNL     1     -22.053 -38.669   3.092  1.00  0.00     0.120 A 
HETATM   12  N3  UNL     1     -21.901 -38.378   4.379  1.00  0.00    -0.296 N 
HETATM   13  N5  UNL     1     -21.068 -37.363   4.490  1.00  0.00    -0.296 N 
ATOM     14  H5  UNL     1     -20.780 -36.940   5.373  1.00  0.00     0.187 HD
HETATM   15  C19 UNL     1     -20.651 -36.964   3.278  1.00  0.00     0.083 A 
ENDROOT
BRANCH  12  16
HETATM   16  C13 UNL     1     -22.577 -39.102   5.461  1.00  0.00     0.126 C 
HETATM   17  C14 UNL     1     -23.588 -38.195   6.092  1.00  0.00     0.031 C 
HETATM   18  C15 UNL     1     -23.825 -38.598   7.517  1.00  0.00     0.035 C 
HETATM   19  C16 UNL     1     -23.634 -40.080   7.757  1.00  0.00     0.185 C 
HETATM   20  C17 UNL     1     -22.229 -40.518   7.451  1.00  0.00     0.055 C 
HETATM   21  C18 UNL     1     -21.561 -39.631   6.427  1.00  0.00     0.109 C 
HETATM   22 CL1  UNL     1     -20.337 -40.538   5.518  1.00  0.00    -0.123 Cl
BRANCH  19  23
HETATM   23  N4  UNL     1     -24.622 -40.859   7.008  1.00  0.00    -0.075 N 
ATOM     24  H43 UNL     1     -25.350 -41.232   7.618  1.00  0.00     0.274 HD
ATOM     25  H42 UNL     1     -25.206 -40.264   6.420  1.00  0.00     0.274 HD
ATOM     26  H41 UNL     1     -24.169 -41.596   6.468  1.00  0.00     0.274 HD
ENDBRANCH  19  23
ENDBRANCH  12  16
BRANCH   3  27
HETATM   27  N1  UNL     1     -17.987 -33.467   4.696  1.00  0.00    -0.380 N 
ATOM     28  H12 UNL     1     -17.074 -33.609   5.129  1.00  0.00     0.158 HD
ATOM     29  H11 UNL     1     -18.549 -32.744   5.145  1.00  0.00     0.158 HD
ENDBRANCH   3  27
BRANCH   1  30
HETATM   30  C4  UNL     1     -18.321 -34.650  -0.520  1.00  0.00     0.047 C 
BRANCH  30  31
HETATM   31  C3  UNL     1     -17.149 -33.818  -0.881  1.00  0.00     0.005 C 
BRANCH  31  32
HETATM   32  C2  UNL     1     -16.722 -33.904  -2.330  1.00  0.00    -0.004 C 
HETATM   33  C1  UNL     1     -16.774 -35.314  -2.852  1.00  0.00     0.005 C 
ENDBRANCH  31  32
ENDBRANCH  30  31
ENDBRANCH   1  30
TORSDOF 6
ENDMDL
MODEL 3
REMARK VINA RESULT: -8.473003949      1.217      1.396
REMARK  6 active torsions:
REMARK  status: ('A' for Active; 'I' for Inactive)
REMARK    1  A    between atoms: C2_2  and  C3_3 
REMARK    2  A    between atoms: C3_3  and  C4_4 
REMARK    3  A    between atoms: C4_4  and  C5_5 
REMARK    4  A    between atoms: C6_7  and  N1_8 
REMARK    5  A    between atoms: N3_19  and  C13_20 
REMARK    6  A    between atoms: C16_23  and  N4_24 
ROOT
HETATM    1  C5  UNL     1     -17.989 -33.827   0.505  1.00  0.00    -0.005 A 
HETATM    2  S1  UNL     1     -17.194 -32.660   1.474  1.00  0.00    -0.058 SA
HETATM    3  C6  UNL     1     -17.274 -32.977   3.133  1.00  0.00     0.143 A 
HETATM    4  N2  UNL     1     -17.942 -34.082   3.437  1.00  0.00    -0.335 N 
ATOM      5  H2  UNL     1     -18.009 -34.299   4.431  1.00  0.00     0.168 HD
HETATM    6  C7  UNL     1     -18.537 -34.944   2.617  1.00  0.00     0.070 A 
HETATM    7  C8  UNL     1     -18.578 -34.858   1.233  1.00  0.00    -0.015 A 
HETATM    8  C9  UNL     1     -19.159 -35.942   0.400  1.00  0.00     0.047 C 
HETATM    9  C10 UNL     1     -20.098 -36.822   1.137  1.00  0.00     0.047 C 
HETATM   10  C11 UNL     1     -19.940 -36.939   2.584  1.00  0.00    -0.010 A 
HETATM   11  C12 UNL     1     -20.459 -37.882   3.482  1.00  0.00     0.120 A 
HETATM   12  N3  UNL     1     -20.065 -37.513   4.696  1.00  0.00    -0.296 N 
HETATM   13  N5  UNL     1     -19.344 -36.415   4.595  1.00  0.00    -0.296 N 
ATOM     14  H5  UNL     1     -18.920 -35.922   5.382  1.00  0.00     0.187 HD
HETATM   15  C19 UNL     1     -19.246 -36.035   3.311  1.00  0.00     0.083 A 
ENDROOT
BRANCH  12  16
HETATM   16  C13 UNL     1     -20.407 -38.248   5.919  1.00  0.00     0.126 C 
HETATM   17  C14 UNL     1     -20.387 -39.716   5.622  1.00  0.00     0.031 C 
HETATM   18  C15 UNL     1     -21.304 -40.444   6.559  1.00  0.00     0.035 C 
HETATM   19  C16 UNL     1     -21.429 -39.776   7.911  1.00  0.00     0.185 C 
HETATM   20  C17 UNL     1     -22.001 -38.390   7.796  1.00  0.00     0.055 C 
HETATM   21  C18 UNL     1     -21.719 -37.761   6.452  1.00  0.00     0.109 C 
HETATM   22 CL1  UNL     1     -21.652 -35.994   6.589  1.00  0.00    -0.123 Cl
BRANCH  19  23
HETATM   23  N4  UNL     1     -20.144 -39.778   8.613  1.00  0.00    -0.075 N 
ATOM     24  H43 UNL     1     -19.672 -40.679   8.533  1.00  0.00     0.274 HD
ATOM     25  H42 UNL     1     -19.452 -39.201   8.136  1.00  0.00     0.274 HD
ATOM     26  H41 UNL     1     -20.262 -39.499   9.586  1.00  0.00     0.274 HD
ENDBRANCH  19  23
ENDBRANCH  12  16
BRANCH   3  27
HETATM   27  N1  UNL     1     -16.739 -32.221   4.017  1.00  0.00    -0.380 N 
ATOM     28  H12 UNL     1     -15.911 -31.654   3.835  1.00  0.00     0.158 HD
ATOM     29  H11 UNL     1     -17.101 -32.129   4.967  1.00  0.00     0.158 HD
ENDBRANCH   3  27
BRANCH   1  30
HETATM   30  C4  UNL     1     -18.062 -33.685  -0.965  1.00  0.00     0.047 C 
BRANCH  30  31
HETATM   31  C3  UNL     1     -16.807 -33.324  -1.665  1.00  0.00     0.005 C 
BRANCH  31  32
HETATM   32  C2  UNL     1     -16.554 -34.070  -2.956  1.00  0.00    -0.004 C 
HETATM   33  C1  UNL     1     -16.870 -35.536  -2.833  1.00  0.00     0.005 C 
ENDBRANCH  31  32
ENDBRANCH  30  31
ENDBRANCH   1  30
TORSDOF 6
ENDMDL
MODEL 4
REMARK VINA RESULT: -8.438158521      3.844      5.424
REMARK  6 active torsions:
REMARK  status: ('A' for Active; 'I' for Inactive)
REMARK    1  A    between atoms: C2_2  and  C3_3 
REMARK    2  A    between atoms: C3_3  and  C4_4 
REMARK    3  A    between atoms: C4_4  and  C5_5 
REMARK    4  A    between atoms: C6_7  and  N1_8 
REMARK    5  A    between atoms: N3_19  and  C13_20 
REMARK    6  A    between atoms: C16_23  and  N4_24 
ROOT
HETATM    1  C5  UNL     1     -18.415 -34.022   1.217  1.00  0.00    -0.005 A 
HETATM    2  S1  UNL     1     -19.631 -35.225   1.306  1.00  0.00    -0.058 SA
HETATM    3  C6  UNL     1     -19.798 -35.920   2.839  1.00  0.00     0.143 A 
HETATM    4  N2  UNL     1     -18.961 -35.429   3.744  1.00  0.00    -0.335 N 
ATOM      5  H2  UNL     1     -19.037 -35.830   4.679  1.00  0.00     0.168 HD
HETATM    6  C7  UNL     1     -18.036 -34.485   3.594  1.00  0.00     0.070 A 
HETATM    7  C8  UNL     1     -17.752 -33.799   2.422  1.00  0.00    -0.015 A 
HETATM    8  C9  UNL     1     -16.786 -32.672   2.391  1.00  0.00     0.047 C 
HETATM    9  C10 UNL     1     -15.827 -32.678   3.522  1.00  0.00     0.047 C 
HETATM   10  C11 UNL     1     -16.227 -33.338   4.760  1.00  0.00    -0.010 A 
HETATM   11  C12 UNL     1     -15.684 -33.258   6.050  1.00  0.00     0.120 A 
HETATM   12  N3  UNL     1     -16.377 -34.096   6.813  1.00  0.00    -0.296 N 
HETATM   13  N5  UNL     1     -17.302 -34.677   6.074  1.00  0.00    -0.296 N 
ATOM     14  H5  UNL     1     -17.971 -35.368   6.417  1.00  0.00     0.187 HD
HETATM   15  C19 UNL     1     -17.238 -34.234   4.809  1.00  0.00     0.083 A 
ENDROOT
BRANCH  12  16
HETATM   16  C13 UNL     1     -16.114 -34.303   8.241  1.00  0.00     0.126 C 
HETATM   17  C14 UNL     1     -15.366 -35.589   8.413  1.00  0.00     0.031 C 
HETATM   18  C15 UNL     1     -15.629 -36.159   9.775  1.00  0.00     0.035 C 
HETATM   19  C16 UNL     1     -15.903 -35.101  10.822  1.00  0.00     0.185 C 
HETATM   20  C17 UNL     1     -17.126 -34.293  10.490  1.00  0.00     0.055 C 
HETATM   21  C18 UNL     1     -17.401 -34.249   9.006  1.00  0.00     0.109 C 
HETATM   22 CL1  UNL     1     -18.254 -32.755   8.571  1.00  0.00    -0.123 Cl
BRANCH  19  23
HETATM   23  N4  UNL     1     -14.728 -34.252  11.023  1.00  0.00    -0.075 N 
ATOM     24  H43 UNL     1     -13.957 -34.769  11.447  1.00  0.00     0.274 HD
ATOM     25  H42 UNL     1     -14.282 -34.009  10.139  1.00  0.00     0.274 HD
ATOM     26  H41 UNL     1     -14.969 -33.422  11.565  1.00  0.00     0.274 HD
ENDBRANCH  19  23
ENDBRANCH  12  16
BRANCH   3  27
HETATM   27  N1  UNL     1     -20.653 -36.835   3.104  1.00  0.00    -0.380 N 
ATOM     28  H12 UNL     1     -21.018 -37.474   2.398  1.00  0.00     0.158 HD
ATOM     29  H11 UNL     1     -21.030 -36.993   4.038  1.00  0.00     0.158 HD
ENDBRANCH   3  27
BRANCH   1  30
HETATM   30  C4  UNL     1     -18.098 -33.343  -0.057  1.00  0.00     0.047 C 
BRANCH  30  31
HETATM   31  C3  UNL     1     -17.218 -34.070  -1.002  1.00  0.00     0.005 C 
BRANCH  31  32
HETATM   32  C2  UNL     1     -16.687 -33.242  -2.152  1.00  0.00    -0.004 C 
HETATM   33  C1  UNL     1     -16.318 -34.093  -3.336  1.00  0.00     0.005 C 
ENDBRANCH  31  32
ENDBRANCH  30  31
ENDBRANCH   1  30
TORSDOF 6
ENDMDL
MODEL 5
REMARK VINA RESULT: -8.394298978      2.715      3.803
REMARK  6 active torsions:
REMARK  status: ('A' for Active; 'I' for Inactive)
REMARK    1  A    between atoms: C2_2  and  C3_3 
REMARK    2  A    between atoms: C3_3  and  C4_4 
REMARK    3  A    between atoms: C4_4  and  C5_5 
REMARK    4  A    between atoms: C6_7  and  N1_8 
REMARK    5  A    between atoms: N3_19  and  C13_20 
REMARK    6  A    between atoms: C16_23  and  N4_24 
ROOT
HETATM    1  C5  UNL     1     -19.409 -35.157   0.605  1.00  0.00    -0.005 A 
HETATM    2  S1  UNL     1     -19.732 -36.295  -0.633  1.00  0.00    -0.058 SA
HETATM    3  C6  UNL     1     -20.626 -37.634  -0.118  1.00  0.00     0.143 A 
HETATM    4  N2  UNL     1     -20.943 -37.605   1.170  1.00  0.00    -0.335 N 
ATOM      5  H2  UNL     1     -21.482 -38.401   1.511  1.00  0.00     0.168 HD
HETATM    6  C7  UNL     1     -20.651 -36.675   2.075  1.00  0.00     0.070 A 
HETATM    7  C8  UNL     1     -19.934 -35.510   1.846  1.00  0.00    -0.015 A 
HETATM    8  C9  UNL     1     -19.772 -34.473   2.898  1.00  0.00     0.047 C 
HETATM    9  C10 UNL     1     -19.977 -34.984   4.275  1.00  0.00     0.047 C 
HETATM   10  C11 UNL     1     -20.821 -36.161   4.453  1.00  0.00    -0.010 A 
HETATM   11  C12 UNL     1     -21.422 -36.683   5.607  1.00  0.00     0.120 A 
HETATM   12  N3  UNL     1     -22.041 -37.802   5.247  1.00  0.00    -0.296 N 
HETATM   13  N5  UNL     1     -21.858 -37.993   3.955  1.00  0.00    -0.296 N 
ATOM     14  H5  UNL     1     -22.228 -38.782   3.425  1.00  0.00     0.187 HD
HETATM   15  C19 UNL     1     -21.113 -37.003   3.437  1.00  0.00     0.083 A 
ENDROOT
BRANCH  12  16
HETATM   16  C13 UNL     1     -22.795 -38.650   6.177  1.00  0.00     0.126 C 
HETATM   17  C14 UNL     1     -23.730 -37.787   6.967  1.00  0.00     0.031 C 
HETATM   18  C15 UNL     1     -24.023 -38.425   8.293  1.00  0.00     0.035 C 
HETATM   19  C16 UNL     1     -23.969 -39.936   8.253  1.00  0.00     0.185 C 
HETATM   20  C17 UNL     1     -22.604 -40.435   7.869  1.00  0.00     0.055 C 
HETATM   21  C18 UNL     1     -21.844 -39.438   7.025  1.00  0.00     0.109 C 
HETATM   22 CL1  UNL     1     -20.693 -40.268   5.960  1.00  0.00    -0.123 Cl
BRANCH  19  23
HETATM   23  N4  UNL     1     -25.011 -40.471   7.374  1.00  0.00    -0.075 N 
ATOM     24  H43 UNL     1     -25.775 -40.888   7.906  1.00  0.00     0.274 HD
ATOM     25  H42 UNL     1     -25.534 -39.727   6.913  1.00  0.00     0.274 HD
ATOM     26  H41 UNL     1     -24.617 -41.129   6.702  1.00  0.00     0.274 HD
ENDBRANCH  19  23
ENDBRANCH  12  16
BRANCH   3  27
HETATM   27  N1  UNL     1     -20.967 -38.591  -0.898  1.00  0.00    -0.380 N 
ATOM     28  H12 UNL     1     -21.926 -38.930  -0.975  1.00  0.00     0.158 HD
ATOM     29  H11 UNL     1     -20.306 -39.084  -1.499  1.00  0.00     0.158 HD
ENDBRANCH   3  27
BRANCH   1  30
HETATM   30  C4  UNL     1     -18.598 -33.949   0.346  1.00  0.00     0.047 C 
BRANCH  30  31
HETATM   31  C3  UNL     1     -17.126 -34.109   0.390  1.00  0.00     0.005 C 
BRANCH  31  32
HETATM   32  C2  UNL     1     -16.433 -33.380   1.521  1.00  0.00    -0.004 C 
HETATM   33  C1  UNL     1     -17.013 -32.011   1.750  1.00  0.00     0.005 C 
ENDBRANCH  31  32
ENDBRANCH  30  31
ENDBRANCH   1  30
TORSDOF 6
ENDMDL
