MODEL 1
REMARK VINA RESULT: -7.209854783      0.000      0.000
REMARK  5 active torsions:
REMARK  status: ('A' for Active; 'I' for Inactive)
REMARK    1  A    between atoms: C2_2  and  C3_3 
REMARK    2  A    between atoms: C3_3  and  C6_6 
REMARK    3  A    between atoms: N3_14  and  C10_15 
REMARK    4  A    between atoms: C14_19  and  N4_20 
REMARK    5  A    between atoms: N5_23  and  O1_24 
ROOT
HETATM    1  C6  UNL     1      16.296 -31.249  18.143  1.00  0.00     0.121 A 
HETATM    2  N1  UNL     1      17.001 -32.318  18.520  1.00  0.00    -0.327 N 
ATOM      3  H1  UNL     1      17.737 -32.183  19.212  1.00  0.00     0.169 HD
HETATM    4  C7  UNL     1      16.801 -33.575  18.042  1.00  0.00     0.140 A 
HETATM    5  C8  UNL     1      15.779 -33.683  17.094  1.00  0.00     0.072 A 
HETATM    6  C9  UNL     1      15.784 -35.021  16.784  1.00  0.00     0.126 A 
HETATM    7  N2  UNL     1      16.720 -35.658  17.479  1.00  0.00    -0.306 N 
ATOM      8  H2  UNL     1      16.918 -36.657  17.426  1.00  0.00     0.186 HD
HETATM    9  N3  UNL     1      17.358 -34.783  18.257  1.00  0.00    -0.267 N 
HETATM   10  C14 UNL     1      15.056 -32.587  16.696  1.00  0.00     0.145 A 
HETATM   11  N5  UNL     1      15.339 -31.365  17.251  1.00  0.00    -0.194 N 
ENDROOT
BRANCH   1  12
HETATM   12  C3  UNL     1      16.641 -29.913  18.716  1.00  0.00     0.013 C 
HETATM   13  C4  UNL     1      17.735 -30.054  19.771  1.00  0.00     0.023 C 
HETATM   14  C5  UNL     1      17.075 -29.007  17.620  1.00  0.00     0.023 C 
BRANCH  12  15
HETATM   15  C2  UNL     1      15.451 -29.341  19.500  1.00  0.00     0.012 C 
HETATM   16  C1  UNL     1      15.803 -29.403  20.977  1.00  0.00     0.006 C 
ENDBRANCH  12  15
ENDBRANCH   1  12
BRANCH  11  17
HETATM   17  O1  UNL     1      14.517 -30.356  16.797  1.00  0.00    -0.280 OA
ATOM     18  H1  UNL     1      14.583 -29.908  15.962  1.00  0.00     0.245 HD
ENDBRANCH  11  17
BRANCH  10  19
HETATM   19  N4  UNL     1      14.214 -32.639  15.784  1.00  0.00    -0.378 N 
HETATM   20  C15 UNL     1      14.165 -32.835  14.402  1.00  0.00     0.147 C 
ATOM     21  H4  UNL     1      13.276 -32.494  16.157  1.00  0.00     0.160 HD
ENDBRANCH  10  19
BRANCH   9  22
HETATM   22  C10 UNL     1      18.424 -35.105  19.129  1.00  0.00     0.044 C 
HETATM   23  C11 UNL     1      19.775 -34.682  18.619  1.00  0.00     0.039 C 
HETATM   24  C12 UNL     1      18.148 -34.625  20.534  1.00  0.00     0.039 C 
HETATM   25  C13 UNL     1      18.493 -36.627  19.246  1.00  0.00     0.039 C 
ENDBRANCH   9  22
TORSDOF 5
ENDMDL
MODEL 2
REMARK VINA RESULT: -7.104136134      2.048      4.886
REMARK  5 active torsions:
REMARK  status: ('A' for Active; 'I' for Inactive)
REMARK    1  A    between atoms: C2_2  and  C3_3 
REMARK    2  A    between atoms: C3_3  and  C6_6 
REMARK    3  A    between atoms: N3_14  and  C10_15 
REMARK    4  A    between atoms: C14_19  and  N4_20 
REMARK    5  A    between atoms: N5_23  and  O1_24 
ROOT
HETATM    1  C6  UNL     1      15.378 -33.712  15.038  1.00  0.00     0.121 A 
HETATM    2  N1  UNL     1      16.436 -33.965  15.812  1.00  0.00    -0.327 N 
ATOM      3  H1  UNL     1      16.836 -34.903  15.781  1.00  0.00     0.169 HD
HETATM    4  C7  UNL     1      17.015 -33.055  16.640  1.00  0.00     0.140 A 
HETATM    5  C8  UNL     1      16.409 -31.794  16.634  1.00  0.00     0.072 A 
HETATM    6  C9  UNL     1      17.169 -31.082  17.531  1.00  0.00     0.126 A 
HETATM    7  N2  UNL     1      18.137 -31.842  18.029  1.00  0.00    -0.306 N 
ATOM      8  H2  UNL     1      18.833 -31.541  18.712  1.00  0.00     0.186 HD
HETATM    9  N3  UNL     1      18.057 -33.061  17.494  1.00  0.00    -0.267 N 
HETATM   10  C14 UNL     1      15.319 -31.530  15.846  1.00  0.00     0.145 A 
HETATM   11  N5  UNL     1      14.821 -32.524  15.041  1.00  0.00    -0.194 N 
ENDROOT
BRANCH   1  12
HETATM   12  C3  UNL     1      14.813 -34.813  14.199  1.00  0.00     0.013 C 
HETATM   13  C4  UNL     1      14.818 -34.413  12.726  1.00  0.00     0.023 C 
HETATM   14  C5  UNL     1      15.607 -36.050  14.415  1.00  0.00     0.023 C 
BRANCH  12  15
HETATM   15  C2  UNL     1      13.325 -35.019  14.516  1.00  0.00     0.012 C 
HETATM   16  C1  UNL     1      12.967 -36.443  14.127  1.00  0.00     0.006 C 
ENDBRANCH  12  15
ENDBRANCH   1  12
BRANCH  11  17
HETATM   17  O1  UNL     1      13.751 -32.119  14.273  1.00  0.00    -0.280 OA
ATOM     18  H1  UNL     1      13.102 -31.466  14.508  1.00  0.00     0.245 HD
ENDBRANCH  11  17
BRANCH  10  19
HETATM   19  N4  UNL     1      14.704 -30.451  15.898  1.00  0.00    -0.378 N 
HETATM   20  C15 UNL     1      14.974 -29.080  15.901  1.00  0.00     0.147 C 
ATOM     21  H4  UNL     1      13.699 -30.617  15.957  1.00  0.00     0.160 HD
ENDBRANCH  10  19
BRANCH   9  22
HETATM   22  C10 UNL     1      18.921 -34.137  17.801  1.00  0.00     0.044 C 
HETATM   23  C11 UNL     1      18.449 -34.989  18.948  1.00  0.00     0.039 C 
HETATM   24  C12 UNL     1      19.254 -34.941  16.567  1.00  0.00     0.039 C 
HETATM   25  C13 UNL     1      20.258 -33.551  18.254  1.00  0.00     0.039 C 
ENDBRANCH   9  22
TORSDOF 5
ENDMDL
MODEL 3
REMARK VINA RESULT: -7.054781047      2.078      4.988
REMARK  5 active torsions:
REMARK  status: ('A' for Active; 'I' for Inactive)
REMARK    1  A    between atoms: C2_2  and  C3_3 
REMARK    2  A    between atoms: C3_3  and  C6_6 
REMARK    3  A    between atoms: N3_14  and  C10_15 
REMARK    4  A    between atoms: C14_19  and  N4_20 
REMARK    5  A    between atoms: N5_23  and  O1_24 
ROOT
HETATM    1  C6  UNL     1      15.327 -33.813  14.958  1.00  0.00     0.121 A 
HETATM    2  N1  UNL     1      16.370 -34.087  15.744  1.00  0.00    -0.327 N 
ATOM      3  H1  UNL     1      16.759 -35.029  15.709  1.00  0.00     0.169 HD
HETATM    4  C7  UNL     1      16.949 -33.192  16.590  1.00  0.00     0.140 A 
HETATM    5  C8  UNL     1      16.360 -31.923  16.588  1.00  0.00     0.072 A 
HETATM    6  C9  UNL     1      17.115 -31.230  17.502  1.00  0.00     0.126 A 
HETATM    7  N2  UNL     1      18.067 -32.007  18.006  1.00  0.00    -0.306 N 
ATOM      8  H2  UNL     1      18.757 -31.721  18.701  1.00  0.00     0.186 HD
HETATM    9  N3  UNL     1      17.979 -33.220  17.458  1.00  0.00    -0.267 N 
HETATM   10  C14 UNL     1      15.283 -31.637  15.787  1.00  0.00     0.145 A 
HETATM   11  N5  UNL     1      14.784 -32.617  14.966  1.00  0.00    -0.194 N 
ENDROOT
BRANCH   1  12
HETATM   12  C3  UNL     1      14.759 -34.897  14.101  1.00  0.00     0.013 C 
HETATM   13  C4  UNL     1      15.669 -36.123  14.125  1.00  0.00     0.023 C 
HETATM   14  C5  UNL     1      13.396 -35.239  14.584  1.00  0.00     0.023 C 
BRANCH  12  15
HETATM   15  C2  UNL     1      14.759 -34.472  12.626  1.00  0.00     0.012 C 
HETATM   16  C1  UNL     1      15.687 -35.414  11.877  1.00  0.00     0.006 C 
ENDBRANCH  12  15
ENDBRANCH   1  12
BRANCH  11  17
HETATM   17  O1  UNL     1      13.731 -32.191  14.187  1.00  0.00    -0.280 OA
ATOM     18  H1  UNL     1      13.371 -32.639  13.430  1.00  0.00     0.245 HD
ENDBRANCH  11  17
BRANCH  10  19
HETATM   19  N4  UNL     1      14.681 -30.552  15.842  1.00  0.00    -0.378 N 
HETATM   20  C15 UNL     1      14.968 -29.184  15.853  1.00  0.00     0.147 C 
ATOM     21  H4  UNL     1      13.674 -30.706  15.895  1.00  0.00     0.160 HD
ENDBRANCH  10  19
BRANCH   9  22
HETATM   22  C10 UNL     1      18.825 -34.309  17.765  1.00  0.00     0.044 C 
HETATM   23  C11 UNL     1      18.290 -35.209  18.846  1.00  0.00     0.039 C 
HETATM   24  C12 UNL     1      19.227 -35.060  16.518  1.00  0.00     0.039 C 
HETATM   25  C13 UNL     1      20.134 -33.746  18.317  1.00  0.00     0.039 C 
ENDBRANCH   9  22
TORSDOF 5
ENDMDL
MODEL 4
REMARK VINA RESULT: -7.038459308      3.252      6.155
REMARK  5 active torsions:
REMARK  status: ('A' for Active; 'I' for Inactive)
REMARK    1  A    between atoms: C2_2  and  C3_3 
REMARK    2  A    between atoms: C3_3  and  C6_6 
REMARK    3  A    between atoms: N3_14  and  C10_15 
REMARK    4  A    between atoms: C14_19  and  N4_20 
REMARK    5  A    between atoms: N5_23  and  O1_24 
ROOT
HETATM    1  C6  UNL     1      14.571 -36.468  15.263  1.00  0.00     0.121 A 
HETATM    2  N1  UNL     1      15.282 -35.588  15.973  1.00  0.00    -0.327 N 
ATOM      3  H1  UNL     1      15.110 -34.597  15.810  1.00  0.00     0.169 HD
HETATM    4  C7  UNL     1      16.220 -35.928  16.897  1.00  0.00     0.140 A 
HETATM    5  C8  UNL     1      16.404 -37.305  17.061  1.00  0.00     0.072 A 
HETATM    6  C9  UNL     1      17.378 -37.373  18.027  1.00  0.00     0.126 A 
HETATM    7  N2  UNL     1      17.745 -36.155  18.407  1.00  0.00    -0.306 N 
ATOM      8  H2  UNL     1      18.450 -35.943  19.113  1.00  0.00     0.186 HD
HETATM    9  N3  UNL     1      17.044 -35.252  17.720  1.00  0.00    -0.267 N 
HETATM   10  C14 UNL     1      15.682 -38.214  16.330  1.00  0.00     0.145 A 
HETATM   11  N5  UNL     1      14.754 -37.758  15.428  1.00  0.00    -0.194 N 
ENDROOT
BRANCH   1  12
HETATM   12  C3  UNL     1      13.596 -35.965  14.249  1.00  0.00     0.013 C 
HETATM   13  C4  UNL     1      14.064 -36.320  12.840  1.00  0.00     0.023 C 
HETATM   14  C5  UNL     1      12.257 -36.549  14.525  1.00  0.00     0.023 C 
BRANCH  12  15
HETATM   15  C2  UNL     1      13.567 -34.430  14.247  1.00  0.00     0.012 C 
HETATM   16  C1  UNL     1      14.288 -33.959  12.995  1.00  0.00     0.006 C 
ENDBRANCH  12  15
ENDBRANCH   1  12
BRANCH  11  17
HETATM   17  O1  UNL     1      14.071 -38.770  14.789  1.00  0.00    -0.280 OA
ATOM     18  H1  UNL     1      13.153 -38.990  14.901  1.00  0.00     0.245 HD
ENDBRANCH  11  17
BRANCH  10  19
HETATM   19  N4  UNL     1      15.899 -39.436  16.385  1.00  0.00    -0.378 N 
HETATM   20  C15 UNL     1      16.844 -40.362  15.938  1.00  0.00     0.147 C 
ATOM     21  H4  UNL     1      15.165 -39.904  16.917  1.00  0.00     0.160 HD
ENDBRANCH  10  19
BRANCH   9  22
HETATM   22  C10 UNL     1      17.178 -33.851  17.856  1.00  0.00     0.044 C 
HETATM   23  C11 UNL     1      17.738 -33.173  16.635  1.00  0.00     0.039 C 
HETATM   24  C12 UNL     1      15.895 -33.222  18.343  1.00  0.00     0.039 C 
HETATM   25  C13 UNL     1      18.190 -33.581  18.969  1.00  0.00     0.039 C 
ENDBRANCH   9  22
TORSDOF 5
ENDMDL
MODEL 5
REMARK VINA RESULT: -6.979041133      1.965      5.127
REMARK  5 active torsions:
REMARK  status: ('A' for Active; 'I' for Inactive)
REMARK    1  A    between atoms: C2_2  and  C3_3 
REMARK    2  A    between atoms: C3_3  and  C6_6 
REMARK    3  A    between atoms: N3_14  and  C10_15 
REMARK    4  A    between atoms: C14_19  and  N4_20 
REMARK    5  A    between atoms: N5_23  and  O1_24 
ROOT
HETATM    1  C6  UNL     1      17.446 -33.652  18.278  1.00  0.00     0.121 A 
HETATM    2  N1  UNL     1      16.515 -34.044  17.405  1.00  0.00    -0.327 N 
ATOM      3  H1  UNL     1      16.368 -35.045  17.282  1.00  0.00     0.169 HD
HETATM    4  C7  UNL     1      15.751 -33.194  16.668  1.00  0.00     0.140 A 
HETATM    5  C8  UNL     1      16.013 -31.837  16.885  1.00  0.00     0.072 A 
HETATM    6  C9  UNL     1      15.127 -31.212  16.041  1.00  0.00     0.126 A 
HETATM    7  N2  UNL     1      14.402 -32.107  15.379  1.00  0.00    -0.306 N 
ATOM      8  H2  UNL     1      13.676 -31.891  14.696  1.00  0.00     0.186 HD
HETATM    9  N3  UNL     1      14.774 -33.333  15.750  1.00  0.00    -0.267 N 
HETATM   10  C14 UNL     1      16.972 -31.429  17.776  1.00  0.00     0.145 A 
HETATM   11  N5  UNL     1      17.681 -32.376  18.472  1.00  0.00    -0.194 N 
ENDROOT
BRANCH   1  12
HETATM   12  C3  UNL     1      18.246 -34.689  18.999  1.00  0.00     0.013 C 
HETATM   13  C4  UNL     1      19.722 -34.575  18.625  1.00  0.00     0.023 C 
HETATM   14  C5  UNL     1      18.057 -34.521  20.464  1.00  0.00     0.023 C 
BRANCH  12  15
HETATM   15  C2  UNL     1      17.857 -36.095  18.523  1.00  0.00     0.012 C 
HETATM   16  C1  UNL     1      18.907 -37.062  19.045  1.00  0.00     0.006 C 
ENDBRANCH  12  15
ENDBRANCH   1  12
BRANCH  11  17
HETATM   17  O1  UNL     1      18.585 -31.835  19.361  1.00  0.00    -0.280 OA
ATOM     18  H1  UNL     1      19.211 -31.144  19.179  1.00  0.00     0.245 HD
ENDBRANCH  11  17
BRANCH  10  19
HETATM   19  N4  UNL     1      17.292 -30.236  17.911  1.00  0.00    -0.378 N 
HETATM   20  C15 UNL     1      17.976 -29.240  17.210  1.00  0.00     0.147 C 
ATOM     21  H4  UNL     1      16.954 -29.876  18.804  1.00  0.00     0.160 HD
ENDBRANCH  10  19
BRANCH   9  22
HETATM   22  C10 UNL     1      14.225 -34.532  15.243  1.00  0.00     0.044 C 
HETATM   23  C11 UNL     1      15.234 -35.434  14.585  1.00  0.00     0.039 C 
HETATM   24  C12 UNL     1      13.395 -35.240  16.287  1.00  0.00     0.039 C 
HETATM   25  C13 UNL     1      13.230 -34.165  14.142  1.00  0.00     0.039 C 
ENDBRANCH   9  22
TORSDOF 5
ENDMDL
