MODEL 1
REMARK VINA RESULT: -8.655136901      0.000      0.000
REMARK  2 active torsions:
REMARK  status: ('A' for Active; 'I' for Inactive)
REMARK    1  A    between atoms: C5_6  and  O1_7 
REMARK    2  A    between atoms: N2_9  and  C6_10 
ROOT
HETATM    1  C1  UNL     1      12.768 -37.308  15.312  1.00  0.00     0.027 C 
HETATM    2  C2  UNL     1      13.591 -36.344  14.935  1.00  0.00     0.006 A 
HETATM    3  C3  UNL     1      14.338 -36.284  13.779  1.00  0.00     0.107 A 
HETATM    4  C4  UNL     1      14.343 -37.296  12.761  1.00  0.00     0.104 C 
HETATM    5  N1  UNL     1      14.328 -38.120  11.928  1.00  0.00    -0.191 NA
HETATM    6  C5  UNL     1      15.034 -35.099  13.830  1.00  0.00     0.169 A 
HETATM    7  N2  UNL     1      14.747 -34.433  14.962  1.00  0.00    -0.289 N 
HETATM    8  C17 UNL     1      13.867 -35.173  15.654  1.00  0.00     0.043 A 
HETATM    9  C18 UNL     1      13.327 -34.880  16.825  1.00  0.00     0.044 C 
ENDROOT
BRANCH   6  10
HETATM   10  O1  UNL     1      15.901 -34.673  12.843  1.00  0.00    -0.345 OA
ATOM     11  H1  UNL     1      16.531 -35.239  12.412  1.00  0.00     0.219 HD
ENDBRANCH   6  10
BRANCH   7  12
HETATM   12  C6  UNL     1      15.237 -33.173  15.422  1.00  0.00     0.070 A 
HETATM   13  C7  UNL     1      14.615 -31.944  15.371  1.00  0.00     0.121 A 
HETATM   14  N3  UNL     1      15.400 -30.994  15.907  1.00  0.00    -0.358 N 
HETATM   15  C8  UNL     1      15.081 -29.562  16.032  1.00  0.00     0.156 C 
HETATM   16  C9  UNL     1      16.535 -31.586  16.311  1.00  0.00     0.047 A 
HETATM   17  C10 UNL     1      17.692 -31.099  16.928  1.00  0.00     0.038 A 
HETATM   18  C16 UNL     1      16.462 -32.933  16.023  1.00  0.00     0.020 A 
HETATM   19  C11 UNL     1      18.722 -31.974  17.231  1.00  0.00    -0.054 A 
HETATM   20  C12 UNL     1      19.964 -31.469  17.889  1.00  0.00     0.049 C 
HETATM   21  C13 UNL     1      18.645 -33.319  16.942  1.00  0.00    -0.055 A 
HETATM   22  C14 UNL     1      19.785 -34.223  17.290  1.00  0.00     0.049 C 
HETATM   23  C15 UNL     1      17.506 -33.792  16.336  1.00  0.00     0.023 A 
ENDBRANCH   7  12
TORSDOF 2
ENDMDL
MODEL 2
REMARK VINA RESULT: -8.543741565      2.509      3.267
REMARK  2 active torsions:
REMARK  status: ('A' for Active; 'I' for Inactive)
REMARK    1  A    between atoms: C5_6  and  O1_7 
REMARK    2  A    between atoms: N2_9  and  C6_10 
ROOT
HETATM    1  C1  UNL     1      15.430 -38.450  12.069  1.00  0.00     0.027 C 
HETATM    2  C2  UNL     1      15.124 -37.974  13.264  1.00  0.00     0.006 A 
HETATM    3  C3  UNL     1      14.336 -38.567  14.227  1.00  0.00     0.107 A 
HETATM    4  C4  UNL     1      13.698 -39.845  14.081  1.00  0.00     0.104 C 
HETATM    5  N1  UNL     1      13.195 -40.896  13.959  1.00  0.00    -0.191 NA
HETATM    6  C5  UNL     1      14.308 -37.698  15.292  1.00  0.00     0.169 A 
HETATM    7  N2  UNL     1      15.042 -36.603  15.026  1.00  0.00    -0.289 N 
HETATM    8  C17 UNL     1      15.550 -36.747  13.793  1.00  0.00     0.043 A 
HETATM    9  C18 UNL     1      16.329 -35.896  13.148  1.00  0.00     0.044 C 
ENDROOT
BRANCH   6  10
HETATM   10  O1  UNL     1      13.617 -37.939  16.463  1.00  0.00    -0.345 OA
ATOM     11  H1  UNL     1      13.493 -37.291  17.147  1.00  0.00     0.219 HD
ENDBRANCH   6  10
BRANCH   7  12
HETATM   12  C6  UNL     1      15.288 -35.456  15.841  1.00  0.00     0.070 A 
HETATM   13  C7  UNL     1      14.706 -34.209  15.760  1.00  0.00     0.121 A 
HETATM   14  N3  UNL     1      15.202 -33.394  16.705  1.00  0.00    -0.358 N 
HETATM   15  C8  UNL     1      14.827 -31.988  16.934  1.00  0.00     0.156 C 
HETATM   16  C9  UNL     1      16.107 -34.092  17.410  1.00  0.00     0.047 A 
HETATM   17  C10 UNL     1      16.926 -33.761  18.495  1.00  0.00     0.038 A 
HETATM   18  C16 UNL     1      16.181 -35.370  16.897  1.00  0.00     0.020 A 
HETATM   19  C11 UNL     1      17.779 -34.717  19.020  1.00  0.00    -0.054 A 
HETATM   20  C12 UNL     1      18.659 -34.379  20.178  1.00  0.00     0.049 C 
HETATM   21  C13 UNL     1      17.850 -35.993  18.505  1.00  0.00    -0.055 A 
HETATM   22  C14 UNL     1      18.789 -36.990  19.108  1.00  0.00     0.049 C 
HETATM   23  C15 UNL     1      17.043 -36.312  17.439  1.00  0.00     0.023 A 
ENDBRANCH   7  12
TORSDOF 2
ENDMDL
MODEL 3
REMARK VINA RESULT: -8.454255395      1.571      2.181
REMARK  2 active torsions:
REMARK  status: ('A' for Active; 'I' for Inactive)
REMARK    1  A    between atoms: C5_6  and  O1_7 
REMARK    2  A    between atoms: N2_9  and  C6_10 
ROOT
HETATM    1  C1  UNL     1      14.367 -37.636  12.075  1.00  0.00     0.027 C 
HETATM    2  C2  UNL     1      14.389 -36.952  13.206  1.00  0.00     0.006 A 
HETATM    3  C3  UNL     1      13.922 -37.355  14.439  1.00  0.00     0.107 A 
HETATM    4  C4  UNL     1      13.315 -38.629  14.701  1.00  0.00     0.104 C 
HETATM    5  N1  UNL     1      12.834 -39.677  14.908  1.00  0.00    -0.191 NA
HETATM    6  C5  UNL     1      14.161 -36.312  15.302  1.00  0.00     0.169 A 
HETATM    7  N2  UNL     1      14.753 -35.292  14.656  1.00  0.00    -0.289 N 
HETATM    8  C17 UNL     1      14.902 -35.658  13.374  1.00  0.00     0.043 A 
HETATM    9  C18 UNL     1      15.441 -34.945  12.399  1.00  0.00     0.044 C 
ENDROOT
BRANCH   6  10
HETATM   10  O1  UNL     1      13.832 -36.332  16.643  1.00  0.00    -0.345 OA
ATOM     11  H1  UNL     1      14.368 -36.740  17.313  1.00  0.00     0.219 HD
ENDBRANCH   6  10
BRANCH   7  12
HETATM   12  C6  UNL     1      15.175 -34.024  15.157  1.00  0.00     0.070 A 
HETATM   13  C7  UNL     1      14.494 -32.825  15.135  1.00  0.00     0.121 A 
HETATM   14  N3  UNL     1      15.226 -31.854  15.707  1.00  0.00    -0.358 N 
HETATM   15  C8  UNL     1      14.836 -30.444  15.870  1.00  0.00     0.156 C 
HETATM   16  C9  UNL     1      16.385 -32.402  16.107  1.00  0.00     0.047 A 
HETATM   17  C10 UNL     1      17.511 -31.877  16.751  1.00  0.00     0.038 A 
HETATM   18  C16 UNL     1      16.381 -33.742  15.780  1.00  0.00     0.020 A 
HETATM   19  C11 UNL     1      18.579 -32.709  17.041  1.00  0.00    -0.054 A 
HETATM   20  C12 UNL     1      19.787 -32.164  17.729  1.00  0.00     0.049 C 
HETATM   21  C13 UNL     1      18.571 -34.047  16.713  1.00  0.00    -0.055 A 
HETATM   22  C14 UNL     1      19.751 -34.904  17.047  1.00  0.00     0.049 C 
HETATM   23  C15 UNL     1      17.463 -34.557  16.080  1.00  0.00     0.023 A 
ENDBRANCH   7  12
TORSDOF 2
ENDMDL
MODEL 4
REMARK VINA RESULT: -8.269374949      6.203      9.632
REMARK  2 active torsions:
REMARK  status: ('A' for Active; 'I' for Inactive)
REMARK    1  A    between atoms: C5_6  and  O1_7 
REMARK    2  A    between atoms: N2_9  and  C6_10 
ROOT
HETATM    1  C1  UNL     1      16.276 -29.812  20.960  1.00  0.00     0.027 C 
HETATM    2  C2  UNL     1      15.700 -29.008  20.082  1.00  0.00     0.006 A 
HETATM    3  C3  UNL     1      15.238 -29.333  18.825  1.00  0.00     0.107 A 
HETATM    4  C4  UNL     1      15.309 -30.645  18.247  1.00  0.00     0.104 C 
HETATM    5  N1  UNL     1      15.357 -31.723  17.790  1.00  0.00    -0.191 NA
HETATM    6  C5  UNL     1      14.725 -28.174  18.292  1.00  0.00     0.169 A 
HETATM    7  N2  UNL     1      14.852 -27.158  19.162  1.00  0.00    -0.289 N 
HETATM    8  C17 UNL     1      15.445 -27.641  20.264  1.00  0.00     0.043 A 
HETATM    9  C18 UNL     1      15.755 -26.972  21.361  1.00  0.00     0.044 C 
ENDROOT
BRANCH   6  10
HETATM   10  O1  UNL     1      14.161 -28.091  17.033  1.00  0.00    -0.345 OA
ATOM     11  H1  UNL     1      13.243 -27.905  16.876  1.00  0.00     0.219 HD
ENDBRANCH   6  10
BRANCH   7  12
HETATM   12  C6  UNL     1      14.459 -25.792  19.026  1.00  0.00     0.070 A 
HETATM   13  C7  UNL     1      15.147 -24.760  18.423  1.00  0.00     0.121 A 
HETATM   14  N3  UNL     1      14.446 -23.617  18.497  1.00  0.00    -0.358 N 
HETATM   15  C8  UNL     1      14.853 -22.304  17.968  1.00  0.00     0.156 C 
HETATM   16  C9  UNL     1      13.299 -23.885  19.143  1.00  0.00     0.047 A 
HETATM   17  C10 UNL     1      12.205 -23.092  19.503  1.00  0.00     0.038 A 
HETATM   18  C16 UNL     1      13.281 -25.222  19.482  1.00  0.00     0.020 A 
HETATM   19  C11 UNL     1      11.142 -23.665  20.181  1.00  0.00    -0.054 A 
HETATM   20  C12 UNL     1       9.966 -22.831  20.571  1.00  0.00     0.049 C 
HETATM   21  C13 UNL     1      11.127 -25.001  20.518  1.00  0.00    -0.055 A 
HETATM   22  C14 UNL     1       9.955 -25.572  21.251  1.00  0.00     0.049 C 
HETATM   23  C15 UNL     1      12.205 -25.775  20.162  1.00  0.00     0.023 A 
ENDBRANCH   7  12
TORSDOF 2
ENDMDL
MODEL 5
REMARK VINA RESULT: -8.195792691      1.548      1.555
REMARK  2 active torsions:
REMARK  status: ('A' for Active; 'I' for Inactive)
REMARK    1  A    between atoms: C5_6  and  O1_7 
REMARK    2  A    between atoms: N2_9  and  C6_10 
ROOT
HETATM    1  C1  UNL     1      13.207 -38.253  15.166  1.00  0.00     0.027 C 
HETATM    2  C2  UNL     1      14.062 -37.256  15.007  1.00  0.00     0.006 A 
HETATM    3  C3  UNL     1      15.119 -37.191  14.125  1.00  0.00     0.107 A 
HETATM    4  C4  UNL     1      15.474 -38.233  13.204  1.00  0.00     0.104 C 
HETATM    5  N1  UNL     1      15.746 -39.082  12.444  1.00  0.00    -0.191 NA
HETATM    6  C5  UNL     1      15.715 -35.968  14.327  1.00  0.00     0.169 A 
HETATM    7  N2  UNL     1      15.072 -35.284  15.289  1.00  0.00    -0.289 N 
HETATM    8  C17 UNL     1      14.058 -36.050  15.721  1.00  0.00     0.043 A 
HETATM    9  C18 UNL     1      13.179 -35.751  16.662  1.00  0.00     0.044 C 
ENDROOT
BRANCH   6  10
HETATM   10  O1  UNL     1      16.819 -35.526  13.625  1.00  0.00    -0.345 OA
ATOM     11  H1  UNL     1      17.027 -35.798  12.739  1.00  0.00     0.219 HD
ENDBRANCH   6  10
BRANCH   7  12
HETATM   12  C6  UNL     1      15.345 -33.985  15.815  1.00  0.00     0.070 A 
HETATM   13  C7  UNL     1      14.897 -32.765  15.356  1.00  0.00     0.121 A 
HETATM   14  N3  UNL     1      15.373 -31.768  16.120  1.00  0.00    -0.358 N 
HETATM   15  C8  UNL     1      15.114 -30.329  15.943  1.00  0.00     0.156 C 
HETATM   16  C9  UNL     1      16.132 -32.319  17.081  1.00  0.00     0.047 A 
HETATM   17  C10 UNL     1      16.867 -31.775  18.139  1.00  0.00     0.038 A 
HETATM   18  C16 UNL     1      16.133 -33.689  16.916  1.00  0.00     0.020 A 
HETATM   19  C11 UNL     1      17.567 -32.618  18.986  1.00  0.00    -0.054 A 
HETATM   20  C12 UNL     1      18.356 -32.052  20.121  1.00  0.00     0.049 C 
HETATM   21  C13 UNL     1      17.565 -33.986  18.818  1.00  0.00    -0.055 A 
HETATM   22  C14 UNL     1      18.339 -34.853  19.760  1.00  0.00     0.049 C 
HETATM   23  C15 UNL     1      16.842 -34.515  17.777  1.00  0.00     0.023 A 
ENDBRANCH   7  12
TORSDOF 2
ENDMDL
