MODEL 1
REMARK VINA RESULT: -8.469439848      0.000      0.000
REMARK  3 active torsions:
REMARK  status: ('A' for Active; 'I' for Inactive)
REMARK    1  A    between atoms: O1_2  and  C2_3 
REMARK    2  A    between atoms: N1_11  and  O2_12 
REMARK    3  A    between atoms: N2_20  and  O3_21 
ROOT
HETATM    1  C2  UNL     1      14.418 -39.704  13.078  1.00  0.00     0.069 A 
HETATM    2  C3  UNL     1      13.693 -39.737  14.248  1.00  0.00     0.039 A 
HETATM    3  C4  UNL     1      13.461 -38.609  15.013  1.00  0.00     0.036 A 
HETATM    4  C5  UNL     1      13.960 -37.407  14.614  1.00  0.00     0.076 A 
HETATM    5  C6  UNL     1      14.688 -37.350  13.448  1.00  0.00     0.036 A 
HETATM    6  C7  UNL     1      14.920 -38.490  12.680  1.00  0.00     0.053 A 
HETATM    7  C8  UNL     1      15.261 -36.217  12.907  1.00  0.00     0.142 C 
HETATM    8  S1  UNL     1      16.157 -36.469  11.569  1.00  0.00    -0.057 SA
HETATM    9  N1  UNL     1      15.182 -34.939  13.326  1.00  0.00    -0.211 N 
HETATM   10  C9  UNL     1      14.753 -34.490  14.521  1.00  0.00     0.093 A 
HETATM   11  C10 UNL     1      15.099 -33.166  14.725  1.00  0.00     0.034 A 
HETATM   12  C11 UNL     1      14.749 -32.520  15.892  1.00  0.00     0.002 A 
HETATM   13  C12 UNL     1      14.038 -33.186  16.895  1.00  0.00     0.002 A 
HETATM   14  C13 UNL     1      13.695 -34.492  16.698  1.00  0.00     0.034 A 
HETATM   15  C14 UNL     1      14.048 -35.136  15.526  1.00  0.00     0.092 A 
HETATM   16  N2  UNL     1      13.643 -36.421  15.470  1.00  0.00    -0.222 N 
ENDROOT
BRANCH   1  17
HETATM   17  O1  UNL     1      14.615 -40.875  12.356  1.00  0.00    -0.356 OA
HETATM   18  C1  UNL     1      15.920 -41.442  12.379  1.00  0.00     0.210 C 
ENDBRANCH   1  17
BRANCH  16  19
HETATM   19  O3  UNL     1      12.747 -36.718  16.496  1.00  0.00    -0.282 OA
ATOM     20  H3  UNL     1      12.004 -36.138  16.614  1.00  0.00     0.245 HD
ENDBRANCH  16  19
BRANCH   9  21
HETATM   21  O2  UNL     1      15.582 -33.960  12.447  1.00  0.00    -0.281 OA
ATOM     22  H2  UNL     1      14.940 -33.303  12.205  1.00  0.00     0.245 HD
ENDBRANCH   9  21
TORSDOF 3
ENDMDL
MODEL 2
REMARK VINA RESULT: -7.910297868      4.459      5.261
REMARK  3 active torsions:
REMARK  status: ('A' for Active; 'I' for Inactive)
REMARK    1  A    between atoms: O1_2  and  C2_3 
REMARK    2  A    between atoms: N1_11  and  O2_12 
REMARK    3  A    between atoms: N2_20  and  O3_21 
ROOT
HETATM    1  C2  UNL     1      15.581 -37.924  16.918  1.00  0.00     0.069 A 
HETATM    2  C3  UNL     1      14.960 -37.012  16.095  1.00  0.00     0.039 A 
HETATM    3  C4  UNL     1      15.446 -35.731  15.904  1.00  0.00     0.036 A 
HETATM    4  C5  UNL     1      16.580 -35.334  16.544  1.00  0.00     0.076 A 
HETATM    5  C6  UNL     1      17.217 -36.231  17.372  1.00  0.00     0.036 A 
HETATM    6  C7  UNL     1      16.724 -37.521  17.563  1.00  0.00     0.053 A 
HETATM    7  C8  UNL     1      18.369 -35.989  18.091  1.00  0.00     0.142 C 
HETATM    8  S1  UNL     1      18.838 -37.203  19.072  1.00  0.00    -0.057 SA
HETATM    9  N1  UNL     1      19.157 -34.896  18.095  1.00  0.00    -0.211 N 
HETATM   10  C9  UNL     1      18.872 -33.674  17.608  1.00  0.00     0.093 A 
HETATM   11  C10 UNL     1      19.770 -32.721  18.056  1.00  0.00     0.034 A 
HETATM   12  C11 UNL     1      19.648 -31.403  17.668  1.00  0.00     0.002 A 
HETATM   13  C12 UNL     1      18.617 -30.999  16.816  1.00  0.00     0.002 A 
HETATM   14  C13 UNL     1      17.729 -31.935  16.372  1.00  0.00     0.034 A 
HETATM   15  C14 UNL     1      17.854 -33.256  16.762  1.00  0.00     0.092 A 
HETATM   16  N2  UNL     1      16.909 -34.066  16.247  1.00  0.00    -0.222 N 
ENDROOT
BRANCH   1  17
HETATM   17  O1  UNL     1      15.040 -39.196  17.067  1.00  0.00    -0.356 OA
HETATM   18  C1  UNL     1      14.408 -39.772  15.930  1.00  0.00     0.210 C 
ENDBRANCH   1  17
BRANCH  16  19
HETATM   19  O3  UNL     1      16.183 -33.428  15.243  1.00  0.00    -0.282 OA
ATOM     20  H3  UNL     1      15.679 -32.659  15.484  1.00  0.00     0.245 HD
ENDBRANCH  16  19
BRANCH   9  21
HETATM   21  O2  UNL     1      20.406 -35.020  18.658  1.00  0.00    -0.281 OA
ATOM     22  H2  UNL     1      20.465 -35.463  19.496  1.00  0.00     0.245 HD
ENDBRANCH   9  21
TORSDOF 3
ENDMDL
MODEL 3
REMARK VINA RESULT: -7.683896578      2.171      5.703
REMARK  3 active torsions:
REMARK  status: ('A' for Active; 'I' for Inactive)
REMARK    1  A    between atoms: O1_2  and  C2_3 
REMARK    2  A    between atoms: N1_11  and  O2_12 
REMARK    3  A    between atoms: N2_20  and  O3_21 
ROOT
HETATM    1  C2  UNL     1      15.439 -34.834  14.724  1.00  0.00     0.069 A 
HETATM    2  C3  UNL     1      15.240 -35.144  16.050  1.00  0.00     0.039 A 
HETATM    3  C4  UNL     1      15.136 -36.447  16.504  1.00  0.00     0.036 A 
HETATM    4  C5  UNL     1      15.231 -37.479  15.622  1.00  0.00     0.076 A 
HETATM    5  C6  UNL     1      15.430 -37.193  14.290  1.00  0.00     0.036 A 
HETATM    6  C7  UNL     1      15.533 -35.878  13.838  1.00  0.00     0.053 A 
HETATM    7  C8  UNL     1      15.546 -38.118  13.273  1.00  0.00     0.142 C 
HETATM    8  S1  UNL     1      15.671 -37.485  11.776  1.00  0.00    -0.057 SA
HETATM    9  N1  UNL     1      15.572 -39.463  13.344  1.00  0.00    -0.211 N 
HETATM   10  C9  UNL     1      15.222 -40.239  14.386  1.00  0.00     0.093 A 
HETATM   11  C10 UNL     1      15.073 -41.563  14.012  1.00  0.00     0.034 A 
HETATM   12  C11 UNL     1      14.716 -42.519  14.940  1.00  0.00     0.002 A 
HETATM   13  C12 UNL     1      14.496 -42.175  16.276  1.00  0.00     0.002 A 
HETATM   14  C13 UNL     1      14.642 -40.871  16.650  1.00  0.00     0.034 A 
HETATM   15  C14 UNL     1      15.000 -39.915  15.717  1.00  0.00     0.092 A 
HETATM   16  N2  UNL     1      15.107 -38.672  16.228  1.00  0.00    -0.222 N 
ENDROOT
BRANCH   1  17
HETATM   17  O1  UNL     1      15.535 -33.504  14.334  1.00  0.00    -0.356 OA
HETATM   18  C1  UNL     1      14.317 -32.795  14.135  1.00  0.00     0.210 C 
ENDBRANCH   1  17
BRANCH  16  19
HETATM   19  O3  UNL     1      15.079 -38.689  17.621  1.00  0.00    -0.282 OA
ATOM     20  H3  UNL     1      14.683 -39.441  18.045  1.00  0.00     0.245 HD
ENDBRANCH  16  19
BRANCH   9  21
HETATM   21  O2  UNL     1      16.005 -40.145  12.231  1.00  0.00    -0.281 OA
ATOM     22  H2  UNL     1      16.723 -40.756  12.346  1.00  0.00     0.245 HD
ENDBRANCH   9  21
TORSDOF 3
ENDMDL
MODEL 4
REMARK VINA RESULT: -7.646503335      2.505      6.120
REMARK  3 active torsions:
REMARK  status: ('A' for Active; 'I' for Inactive)
REMARK    1  A    between atoms: O1_2  and  C2_3 
REMARK    2  A    between atoms: N1_11  and  O2_12 
REMARK    3  A    between atoms: N2_20  and  O3_21 
ROOT
HETATM    1  C2  UNL     1      15.417 -35.112  12.981  1.00  0.00     0.069 A 
HETATM    2  C3  UNL     1      15.354 -35.935  11.879  1.00  0.00     0.039 A 
HETATM    3  C4  UNL     1      15.366 -37.315  11.978  1.00  0.00     0.036 A 
HETATM    4  C5  UNL     1      15.441 -37.905  13.202  1.00  0.00     0.076 A 
HETATM    5  C6  UNL     1      15.505 -37.101  14.318  1.00  0.00     0.036 A 
HETATM    6  C7  UNL     1      15.494 -35.711  14.214  1.00  0.00     0.053 A 
HETATM    7  C8  UNL     1      15.586 -37.537  15.625  1.00  0.00     0.142 C 
HETATM    8  S1  UNL     1      15.756 -36.357  16.736  1.00  0.00    -0.057 SA
HETATM    9  N1  UNL     1      15.544 -38.794  16.107  1.00  0.00    -0.211 N 
HETATM   10  C9  UNL     1      15.684 -39.944  15.422  1.00  0.00     0.093 A 
HETATM   11  C10 UNL     1      15.899 -41.020  16.264  1.00  0.00     0.034 A 
HETATM   12  C11 UNL     1      16.068 -42.290  15.753  1.00  0.00     0.002 A 
HETATM   13  C12 UNL     1      16.025 -42.520  14.375  1.00  0.00     0.002 A 
HETATM   14  C13 UNL     1      15.812 -41.462  13.540  1.00  0.00     0.034 A 
HETATM   15  C14 UNL     1      15.643 -40.190  14.056  1.00  0.00     0.092 A 
HETATM   16  N2  UNL     1      15.442 -39.245  13.116  1.00  0.00    -0.222 N 
ENDROOT
BRANCH   1  17
HETATM   17  O1  UNL     1      15.402 -33.733  12.812  1.00  0.00    -0.356 OA
HETATM   18  C1  UNL     1      14.437 -32.998  13.556  1.00  0.00     0.210 C 
ENDBRANCH   1  17
BRANCH  16  19
HETATM   19  O3  UNL     1      15.199 -39.813  11.867  1.00  0.00    -0.282 OA
ATOM     20  H3  UNL     1      14.293 -39.938  11.608  1.00  0.00     0.245 HD
ENDBRANCH  16  19
BRANCH   9  21
HETATM   21  O2  UNL     1      15.334 -38.945  17.458  1.00  0.00    -0.281 OA
ATOM     22  H2  UNL     1      15.823 -39.628  17.902  1.00  0.00     0.245 HD
ENDBRANCH   9  21
TORSDOF 3
ENDMDL
MODEL 5
REMARK VINA RESULT: -7.527362173      3.278      6.412
REMARK  3 active torsions:
REMARK  status: ('A' for Active; 'I' for Inactive)
REMARK    1  A    between atoms: O1_2  and  C2_3 
REMARK    2  A    between atoms: N1_11  and  O2_12 
REMARK    3  A    between atoms: N2_20  and  O3_21 
ROOT
HETATM    1  C2  UNL     1      18.311 -32.258  16.867  1.00  0.00     0.069 A 
HETATM    2  C3  UNL     1      17.372 -31.528  16.174  1.00  0.00     0.039 A 
HETATM    3  C4  UNL     1      16.204 -32.086  15.688  1.00  0.00     0.036 A 
HETATM    4  C5  UNL     1      15.951 -33.409  15.890  1.00  0.00     0.076 A 
HETATM    5  C6  UNL     1      16.877 -34.158  16.580  1.00  0.00     0.036 A 
HETATM    6  C7  UNL     1      18.053 -33.591  17.068  1.00  0.00     0.053 A 
HETATM    7  C8  UNL     1      16.775 -35.504  16.868  1.00  0.00     0.142 C 
HETATM    8  S1  UNL     1      18.074 -36.152  17.609  1.00  0.00    -0.057 SA
HETATM    9  N1  UNL     1      15.756 -36.352  16.625  1.00  0.00    -0.211 N 
HETATM   10  C9  UNL     1      14.705 -36.162  15.806  1.00  0.00     0.093 A 
HETATM   11  C10 UNL     1      14.029 -37.344  15.558  1.00  0.00     0.034 A 
HETATM   12  C11 UNL     1      12.919 -37.360  14.739  1.00  0.00     0.002 A 
HETATM   13  C12 UNL     1      12.451 -36.186  14.142  1.00  0.00     0.002 A 
HETATM   14  C13 UNL     1      13.115 -35.018  14.384  1.00  0.00     0.034 A 
HETATM   15  C14 UNL     1      14.227 -35.006  15.206  1.00  0.00     0.092 A 
HETATM   16  N2  UNL     1      14.778 -33.785  15.354  1.00  0.00    -0.222 N 
ENDROOT
BRANCH   1  17
HETATM   17  O1  UNL     1      19.465 -31.636  17.328  1.00  0.00    -0.356 OA
HETATM   18  C1  UNL     1      19.515 -31.301  18.710  1.00  0.00     0.210 C 
ENDBRANCH   1  17
BRANCH  16  19
HETATM   19  O3  UNL     1      13.948 -32.786  14.850  1.00  0.00    -0.282 OA
ATOM     20  H3  UNL     1      13.155 -32.585  15.334  1.00  0.00     0.245 HD
ENDBRANCH  16  19
BRANCH   9  21
HETATM   21  O2  UNL     1      15.771 -37.561  17.281  1.00  0.00    -0.281 OA
ATOM     22  H2  UNL     1      15.224 -37.644  18.054  1.00  0.00     0.245 HD
ENDBRANCH   9  21
TORSDOF 3
ENDMDL
