MODEL 1
REMARK VINA RESULT: -8.390055247      0.000      0.000
REMARK  3 active torsions:
REMARK  status: ('A' for Active; 'I' for Inactive)
REMARK    1  A    between atoms: O1_2  and  C2_3 
REMARK    2  A    between atoms: C6_7  and  C7_8 
REMARK    3  A    between atoms: C8_9  and  C9_10 
ROOT
HETATM    1  C2  UNL     1      18.545 -31.502  16.856  1.00  0.00     0.090 A 
HETATM    2  C3  UNL     1      19.790 -31.966  17.199  1.00  0.00     0.038 A 
HETATM    3  C4  UNL     1      20.126 -33.301  17.206  1.00  0.00     0.004 A 
HETATM    4  C5  UNL     1      19.181 -34.238  16.854  1.00  0.00     0.022 A 
HETATM    5  C6  UNL     1      17.921 -33.803  16.504  1.00  0.00     0.041 A 
HETATM    6  C17 UNL     1      17.607 -32.464  16.504  1.00  0.00     0.096 A 
HETATM    7  C18 UNL     1      16.303 -31.964  16.146  1.00  0.00     0.103 C 
HETATM    8  N3  UNL     1      15.257 -31.549  15.868  1.00  0.00    -0.191 NA
ENDROOT
BRANCH   1   9
HETATM    9  O1  UNL     1      18.257 -30.156  16.864  1.00  0.00    -0.354 OA
HETATM   10  C1  UNL     1      18.300 -29.450  18.088  1.00  0.00     0.210 C 
ENDBRANCH   1   9
BRANCH   5  11
HETATM   11  C7  UNL     1      16.892 -34.755  16.127  1.00  0.00    -0.060 C 
HETATM   12  C8  UNL     1      16.031 -35.551  15.835  1.00  0.00    -0.059 C 
BRANCH  12  13
HETATM   13  C9  UNL     1      15.009 -36.508  15.510  1.00  0.00     0.047 A 
HETATM   14  C10 UNL     1      13.809 -36.095  14.967  1.00  0.00     0.023 A 
HETATM   15  C11 UNL     1      12.835 -37.012  14.657  1.00  0.00     0.004 A 
HETATM   16  C12 UNL     1      13.075 -38.346  14.896  1.00  0.00     0.032 A 
HETATM   17  C13 UNL     1      14.258 -38.793  15.437  1.00  0.00     0.063 A 
HETATM   18  C14 UNL     1      15.226 -37.851  15.741  1.00  0.00     0.079 A 
HETATM   19  N2  UNL     1      14.714 -40.027  15.756  1.00  0.00    -0.346 N 
HETATM   20  N1  UNL     1      16.258 -38.571  16.247  1.00  0.00    -0.349 N 
HETATM   21  C15 UNL     1      15.947 -39.882  16.255  1.00  0.00     0.183 A 
ATOM     22  H1  UNL     1      17.141 -38.178  16.574  1.00  0.00     0.166 HD
HETATM   23  C16 UNL     1      13.939 -41.248  15.561  1.00  0.00     0.157 C 
ENDBRANCH  12  13
ENDBRANCH   5  11
TORSDOF 3
ENDMDL
MODEL 2
REMARK VINA RESULT: -8.354397369      2.756      8.004
REMARK  3 active torsions:
REMARK  status: ('A' for Active; 'I' for Inactive)
REMARK    1  A    between atoms: O1_2  and  C2_3 
REMARK    2  A    between atoms: C6_7  and  C7_8 
REMARK    3  A    between atoms: C8_9  and  C9_10 
ROOT
HETATM    1  C2  UNL     1      14.489 -38.945  14.324  1.00  0.00     0.090 A 
HETATM    2  C3  UNL     1      14.361 -38.794  12.966  1.00  0.00     0.038 A 
HETATM    3  C4  UNL     1      14.943 -37.766  12.259  1.00  0.00     0.004 A 
HETATM    4  C5  UNL     1      15.697 -36.828  12.927  1.00  0.00     0.022 A 
HETATM    5  C6  UNL     1      15.845 -36.953  14.292  1.00  0.00     0.041 A 
HETATM    6  C17 UNL     1      15.255 -37.989  14.978  1.00  0.00     0.096 A 
HETATM    7  C18 UNL     1      15.383 -38.158  16.404  1.00  0.00     0.103 C 
HETATM    8  N3  UNL     1      15.471 -38.302  17.550  1.00  0.00    -0.191 NA
ENDROOT
BRANCH   1   9
HETATM    9  O1  UNL     1      13.889 -39.991  14.987  1.00  0.00    -0.354 OA
HETATM   10  C1  UNL     1      13.698 -41.217  14.310  1.00  0.00     0.210 C 
ENDBRANCH   1   9
BRANCH   5  11
HETATM   11  C7  UNL     1      16.630 -35.987  15.038  1.00  0.00    -0.060 C 
HETATM   12  C8  UNL     1      17.288 -35.172  15.640  1.00  0.00    -0.059 C 
BRANCH  12  13
HETATM   13  C9  UNL     1      18.081 -34.196  16.336  1.00  0.00     0.047 A 
HETATM   14  C10 UNL     1      19.256 -34.563  16.961  1.00  0.00     0.023 A 
HETATM   15  C11 UNL     1      20.012 -33.628  17.624  1.00  0.00     0.004 A 
HETATM   16  C12 UNL     1      19.580 -32.321  17.654  1.00  0.00     0.032 A 
HETATM   17  C13 UNL     1      18.414 -31.919  17.043  1.00  0.00     0.063 A 
HETATM   18  C14 UNL     1      17.669 -32.879  16.380  1.00  0.00     0.079 A 
HETATM   19  N2  UNL     1      17.799 -30.719  16.940  1.00  0.00    -0.346 N 
HETATM   20  N1  UNL     1      16.601 -32.203  15.888  1.00  0.00    -0.349 N 
HETATM   21  C15 UNL     1      16.682 -30.902  16.227  1.00  0.00     0.183 A 
ATOM     22  H1  UNL     1      15.847 -32.620  15.342  1.00  0.00     0.166 HD
HETATM   23  C16 UNL     1      18.323 -29.491  17.529  1.00  0.00     0.157 C 
ENDBRANCH  12  13
ENDBRANCH   5  11
TORSDOF 3
ENDMDL
MODEL 3
REMARK VINA RESULT: -8.251130638      2.624      8.032
REMARK  3 active torsions:
REMARK  status: ('A' for Active; 'I' for Inactive)
REMARK    1  A    between atoms: O1_2  and  C2_3 
REMARK    2  A    between atoms: C6_7  and  C7_8 
REMARK    3  A    between atoms: C8_9  and  C9_10 
ROOT
HETATM    1  C2  UNL     1      13.588 -37.726  15.470  1.00  0.00     0.090 A 
HETATM    2  C3  UNL     1      12.724 -37.134  14.585  1.00  0.00     0.038 A 
HETATM    3  C4  UNL     1      12.858 -35.836  14.146  1.00  0.00     0.004 A 
HETATM    4  C5  UNL     1      13.906 -35.072  14.606  1.00  0.00     0.022 A 
HETATM    5  C6  UNL     1      14.793 -35.639  15.496  1.00  0.00     0.041 A 
HETATM    6  C17 UNL     1      14.640 -36.938  15.921  1.00  0.00     0.096 A 
HETATM    7  C18 UNL     1      15.542 -37.571  16.850  1.00  0.00     0.103 C 
HETATM    8  N3  UNL     1      16.254 -38.090  17.602  1.00  0.00    -0.191 NA
ENDROOT
BRANCH   1   9
HETATM    9  O1  UNL     1      13.412 -39.029  15.879  1.00  0.00    -0.354 OA
HETATM   10  C1  UNL     1      13.243 -40.039  14.905  1.00  0.00     0.210 C 
ENDBRANCH   1   9
BRANCH   5  11
HETATM   11  C7  UNL     1      15.913 -34.871  16.009  1.00  0.00    -0.060 C 
HETATM   12  C8  UNL     1      16.858 -34.250  16.434  1.00  0.00    -0.059 C 
BRANCH  12  13
HETATM   13  C9  UNL     1      17.993 -33.533  16.946  1.00  0.00     0.047 A 
HETATM   14  C10 UNL     1      19.273 -34.009  16.745  1.00  0.00     0.023 A 
HETATM   15  C11 UNL     1      20.355 -33.321  17.236  1.00  0.00     0.004 A 
HETATM   16  C12 UNL     1      20.143 -32.151  17.929  1.00  0.00     0.032 A 
HETATM   17  C13 UNL     1      18.882 -31.647  18.150  1.00  0.00     0.063 A 
HETATM   18  C14 UNL     1      17.805 -32.358  17.646  1.00  0.00     0.079 A 
HETATM   19  N2  UNL     1      18.433 -30.542  18.789  1.00  0.00    -0.346 N 
HETATM   20  N1  UNL     1      16.718 -31.635  18.010  1.00  0.00    -0.349 N 
HETATM   21  C15 UNL     1      17.099 -30.541  18.699  1.00  0.00     0.183 A 
ATOM     22  H1  UNL     1      15.752 -31.883  17.794  1.00  0.00     0.166 HD
HETATM   23  C16 UNL     1      19.312 -29.573  19.436  1.00  0.00     0.157 C 
ENDBRANCH  12  13
ENDBRANCH   5  11
TORSDOF 3
ENDMDL
MODEL 4
REMARK VINA RESULT: -8.174902114      3.067      7.886
REMARK  3 active torsions:
REMARK  status: ('A' for Active; 'I' for Inactive)
REMARK    1  A    between atoms: O1_2  and  C2_3 
REMARK    2  A    between atoms: C6_7  and  C7_8 
REMARK    3  A    between atoms: C8_9  and  C9_10 
ROOT
HETATM    1  C2  UNL     1      13.968 -37.173  13.771  1.00  0.00     0.090 A 
HETATM    2  C3  UNL     1      12.873 -37.372  14.573  1.00  0.00     0.038 A 
HETATM    3  C4  UNL     1      12.748 -36.833  15.834  1.00  0.00     0.004 A 
HETATM    4  C5  UNL     1      13.761 -36.051  16.338  1.00  0.00     0.022 A 
HETATM    5  C6  UNL     1      14.875 -35.831  15.557  1.00  0.00     0.041 A 
HETATM    6  C17 UNL     1      14.979 -36.380  14.299  1.00  0.00     0.096 A 
HETATM    7  C18 UNL     1      16.125 -36.177  13.448  1.00  0.00     0.103 C 
HETATM    8  N3  UNL     1      17.043 -36.029  12.756  1.00  0.00    -0.191 NA
ENDROOT
BRANCH   1   9
HETATM    9  O1  UNL     1      14.047 -37.733  12.517  1.00  0.00    -0.354 OA
HETATM   10  C1  UNL     1      14.446 -39.083  12.388  1.00  0.00     0.210 C 
ENDBRANCH   1   9
BRANCH   5  11
HETATM   11  C7  UNL     1      15.969 -35.014  16.047  1.00  0.00    -0.060 C 
HETATM   12  C8  UNL     1      16.891 -34.351  16.462  1.00  0.00    -0.059 C 
BRANCH  12  13
HETATM   13  C9  UNL     1      17.994 -33.583  16.969  1.00  0.00     0.047 A 
HETATM   14  C10 UNL     1      19.294 -33.993  16.750  1.00  0.00     0.023 A 
HETATM   15  C11 UNL     1      20.346 -33.256  17.235  1.00  0.00     0.004 A 
HETATM   16  C12 UNL     1      20.084 -32.103  17.941  1.00  0.00     0.032 A 
HETATM   17  C13 UNL     1      18.801 -31.665  18.179  1.00  0.00     0.063 A 
HETATM   18  C14 UNL     1      17.756 -32.424  17.680  1.00  0.00     0.079 A 
HETATM   19  N2  UNL     1      18.305 -30.588  18.831  1.00  0.00    -0.346 N 
HETATM   20  N1  UNL     1      16.638 -31.758  18.061  1.00  0.00    -0.349 N 
HETATM   21  C15 UNL     1      16.972 -30.653  18.755  1.00  0.00     0.183 A 
ATOM     22  H1  UNL     1      15.683 -32.052  17.853  1.00  0.00     0.166 HD
HETATM   23  C16 UNL     1      19.142 -29.582  19.478  1.00  0.00     0.157 C 
ENDBRANCH  12  13
ENDBRANCH   5  11
TORSDOF 3
ENDMDL
MODEL 5
REMARK VINA RESULT: -8.164525343      4.866      9.926
REMARK  3 active torsions:
REMARK  status: ('A' for Active; 'I' for Inactive)
REMARK    1  A    between atoms: O1_2  and  C2_3 
REMARK    2  A    between atoms: C6_7  and  C7_8 
REMARK    3  A    between atoms: C8_9  and  C9_10 
ROOT
HETATM    1  C2  UNL     1      16.327 -32.212  16.647  1.00  0.00     0.090 A 
HETATM    2  C3  UNL     1      16.795 -33.200  17.475  1.00  0.00     0.038 A 
HETATM    3  C4  UNL     1      16.924 -33.051  18.838  1.00  0.00     0.004 A 
HETATM    4  C5  UNL     1      16.570 -31.856  19.423  1.00  0.00     0.022 A 
HETATM    5  C6  UNL     1      16.095 -30.843  18.617  1.00  0.00     0.041 A 
HETATM    6  C17 UNL     1      15.975 -31.015  17.258  1.00  0.00     0.096 A 
HETATM    7  C18 UNL     1      15.483 -29.985  16.378  1.00  0.00     0.103 C 
HETATM    8  N3  UNL     1      15.097 -29.163  15.658  1.00  0.00    -0.191 NA
ENDROOT
BRANCH   1   9
HETATM    9  O1  UNL     1      16.216 -32.410  15.289  1.00  0.00    -0.354 OA
HETATM   10  C1  UNL     1      15.196 -33.257  14.798  1.00  0.00     0.210 C 
ENDBRANCH   1   9
BRANCH   5  11
HETATM   11  C7  UNL     1      15.711 -29.567  19.190  1.00  0.00    -0.060 C 
HETATM   12  C8  UNL     1      15.371 -28.504  19.656  1.00  0.00    -0.059 C 
BRANCH  12  13
HETATM   13  C9  UNL     1      14.952 -27.238  20.192  1.00  0.00     0.047 A 
HETATM   14  C10 UNL     1      15.713 -26.593  21.146  1.00  0.00     0.023 A 
HETATM   15  C11 UNL     1      15.309 -25.384  21.655  1.00  0.00     0.004 A 
HETATM   16  C12 UNL     1      14.136 -24.826  21.199  1.00  0.00     0.032 A 
HETATM   17  C13 UNL     1      13.352 -25.441  20.251  1.00  0.00     0.063 A 
HETATM   18  C14 UNL     1      13.779 -26.660  19.751  1.00  0.00     0.079 A 
HETATM   19  N2  UNL     1      12.184 -25.096  19.661  1.00  0.00    -0.346 N 
HETATM   20  N1  UNL     1      12.826 -27.014  18.854  1.00  0.00    -0.349 N 
HETATM   21  C15 UNL     1      11.866 -26.070  18.802  1.00  0.00     0.183 A 
ATOM     22  H1  UNL     1      12.834 -27.871  18.300  1.00  0.00     0.166 HD
HETATM   23  C16 UNL     1      11.462 -23.864  19.963  1.00  0.00     0.157 C 
ENDBRANCH  12  13
ENDBRANCH   5  11
TORSDOF 3
ENDMDL
