MODEL 1
REMARK VINA RESULT: -9.418129187      0.000      0.000
REMARK  5 active torsions:
REMARK  status: ('A' for Active; 'I' for Inactive)
REMARK    1  A    between atoms: C1_2  and  C2_3 
REMARK    2  A    between atoms: C1_2  and  C17_21 
REMARK    3  A    between atoms: C2_3  and  C3_4 
REMARK    4  A    between atoms: C8_9  and  N1_10 
REMARK       I    between atoms: N1_10  and  C9_12 
REMARK    5  A    between atoms: C9_12  and  C10_14 
ROOT
HETATM    1  C3  UNL     1       2.466   5.428  -1.681  1.00  0.00    -0.005 C 
HETATM    2  C4  UNL     1       2.253   6.789  -1.009  1.00  0.00     0.005 C 
HETATM    3  C5  UNL     1       2.399   6.659   0.492  1.00  0.00     0.000 C 
HETATM    4  C6  UNL     1       1.518   5.616   1.096  1.00  0.00     0.002 C 
HETATM    5  C7  UNL     1       1.947   4.204   0.775  1.00  0.00     0.025 C 
HETATM    6  C8  UNL     1       1.223   3.649  -0.429  1.00  0.00     0.084 C 
HETATM    7  C16 UNL     1       1.199   4.610  -1.579  1.00  0.00     0.030 C 
ENDROOT
BRANCH   6   8
HETATM    8  N1  UNL     1      -0.137   3.225  -0.100  1.00  0.00    -0.356 N 
HETATM    9  C9  UNL     1      -0.459   1.850   0.059  1.00  0.00     0.222 C 
HETATM   10  O2  UNL     1       0.427   0.964  -0.083  1.00  0.00    -0.273 OA
ATOM     11  H1  UNL     1      -0.867   3.927   0.019  1.00  0.00     0.162 HD
BRANCH   9  12
HETATM   12  C10 UNL     1      -1.830   1.461   0.389  1.00  0.00     0.078 C 
HETATM   13  C11 UNL     1      -2.350   2.317   1.550  1.00  0.00     0.014 C 
HETATM   14  C12 UNL     1      -3.689   1.766   1.942  1.00  0.00     0.001 C 
HETATM   15  C13 UNL     1      -4.678   1.718   0.819  1.00  0.00     0.000 C 
HETATM   16  C14 UNL     1      -4.099   1.118  -0.440  1.00  0.00     0.001 C 
HETATM   17  C15 UNL     1      -2.764   1.733  -0.781  1.00  0.00     0.014 C 
ENDBRANCH   9  12
ENDBRANCH   6   8
BRANCH   1  18
HETATM   18  C2  UNL     1       2.716   5.730  -3.137  1.00  0.00     0.089 C 
BRANCH  18  19
HETATM   19  C1  UNL     1       4.047   6.293  -3.421  1.00  0.00     0.166 C 
HETATM   20  O1  UNL     1       5.006   6.310  -2.611  1.00  0.00    -0.292 OA
BRANCH  19  21
HETATM   21  C17 UNL     1       4.274   6.876  -4.746  1.00  0.00     0.050 A 
HETATM   22  C18 UNL     1       3.466   7.739  -5.431  1.00  0.00     0.023 A 
HETATM   23  C19 UNL     1       3.880   8.147  -6.641  1.00  0.00     0.009 A 
HETATM   24  C20 UNL     1       5.078   7.664  -7.091  1.00  0.00     0.050 A 
HETATM   25  S1  UNL     1       5.587   6.657  -5.811  1.00  0.00    -0.098 SA
ENDBRANCH  19  21
ENDBRANCH  18  19
ENDBRANCH   1  18
TORSDOF 5
ENDMDL
MODEL 2
REMARK VINA RESULT: -9.362366113      4.677      7.116
REMARK  5 active torsions:
REMARK  status: ('A' for Active; 'I' for Inactive)
REMARK    1  A    between atoms: C1_2  and  C2_3 
REMARK    2  A    between atoms: C1_2  and  C17_21 
REMARK    3  A    between atoms: C2_3  and  C3_4 
REMARK    4  A    between atoms: C8_9  and  N1_10 
REMARK       I    between atoms: N1_10  and  C9_12 
REMARK    5  A    between atoms: C9_12  and  C10_14 
ROOT
HETATM    1  C3  UNL     1       1.346   6.992   0.181  1.00  0.00    -0.005 C 
HETATM    2  C4  UNL     1       1.676   6.620  -1.269  1.00  0.00     0.005 C 
HETATM    3  C5  UNL     1       1.312   5.175  -1.535  1.00  0.00     0.000 C 
HETATM    4  C6  UNL     1       1.930   4.211  -0.576  1.00  0.00     0.002 C 
HETATM    5  C7  UNL     1       1.333   4.271   0.810  1.00  0.00     0.025 C 
HETATM    6  C8  UNL     1       2.117   5.178   1.728  1.00  0.00     0.084 C 
HETATM    7  C16 UNL     1       2.445   6.495   1.093  1.00  0.00     0.030 C 
ENDROOT
BRANCH   6   8
HETATM    8  N1  UNL     1       3.337   4.538   2.216  1.00  0.00    -0.356 N 
HETATM    9  C9  UNL     1       3.431   4.058   3.550  1.00  0.00     0.222 C 
HETATM   10  O2  UNL     1       2.458   4.177   4.344  1.00  0.00    -0.273 OA
ATOM     11  H1  UNL     1       4.134   4.433   1.589  1.00  0.00     0.162 HD
BRANCH   9  12
HETATM   12  C10 UNL     1       4.667   3.421   4.005  1.00  0.00     0.078 C 
HETATM   13  C11 UNL     1       5.109   2.357   2.993  1.00  0.00     0.014 C 
HETATM   14  C12 UNL     1       6.282   1.638   3.590  1.00  0.00     0.001 C 
HETATM   15  C13 UNL     1       7.420   2.537   3.964  1.00  0.00     0.000 C 
HETATM   16  C14 UNL     1       6.971   3.752   4.739  1.00  0.00     0.001 C 
HETATM   17  C15 UNL     1       5.802   4.433   4.070  1.00  0.00     0.014 C 
ENDBRANCH   9  12
ENDBRANCH   6   8
BRANCH   1  18
HETATM   18  C2  UNL     1       1.344   8.499   0.223  1.00  0.00     0.089 C 
BRANCH  18  19
HETATM   19  C1  UNL     1       0.145   9.122  -0.364  1.00  0.00     0.166 C 
HETATM   20  O1  UNL     1      -0.861   8.494  -0.774  1.00  0.00    -0.292 OA
BRANCH  19  21
HETATM   21  C17 UNL     1       0.120  10.582  -0.479  1.00  0.00     0.050 A 
HETATM   22  C18 UNL     1       1.096  11.467  -0.120  1.00  0.00     0.023 A 
HETATM   23  C19 UNL     1       0.854  12.773  -0.319  1.00  0.00     0.009 A 
HETATM   24  C20 UNL     1      -0.354  13.110  -0.867  1.00  0.00     0.050 A 
HETATM   25  S1  UNL     1      -1.109  11.596  -1.085  1.00  0.00    -0.098 SA
ENDBRANCH  19  21
ENDBRANCH  18  19
ENDBRANCH   1  18
TORSDOF 5
ENDMDL
MODEL 3
REMARK VINA RESULT: -8.783653576      4.404      6.786
REMARK  5 active torsions:
REMARK  status: ('A' for Active; 'I' for Inactive)
REMARK    1  A    between atoms: C1_2  and  C2_3 
REMARK    2  A    between atoms: C1_2  and  C17_21 
REMARK    3  A    between atoms: C2_3  and  C3_4 
REMARK    4  A    between atoms: C8_9  and  N1_10 
REMARK       I    between atoms: N1_10  and  C9_12 
REMARK    5  A    between atoms: C9_12  and  C10_14 
ROOT
HETATM    1  C3  UNL     1       1.536   6.547   0.448  1.00  0.00    -0.005 C 
HETATM    2  C4  UNL     1       1.741   6.201  -1.031  1.00  0.00     0.005 C 
HETATM    3  C5  UNL     1       1.173   4.830  -1.332  1.00  0.00     0.000 C 
HETATM    4  C6  UNL     1       1.704   3.751  -0.448  1.00  0.00     0.002 C 
HETATM    5  C7  UNL     1       1.191   3.825   0.971  1.00  0.00     0.025 C 
HETATM    6  C8  UNL     1       2.134   4.579   1.879  1.00  0.00     0.084 C 
HETATM    7  C16 UNL     1       2.603   5.868   1.278  1.00  0.00     0.030 C 
ENDROOT
BRANCH   6   8
HETATM    8  N1  UNL     1       3.280   3.761   2.273  1.00  0.00    -0.356 N 
HETATM    9  C9  UNL     1       3.749   3.754   3.614  1.00  0.00     0.222 C 
HETATM   10  O2  UNL     1       3.182   4.455   4.495  1.00  0.00    -0.273 OA
ATOM     11  H1  UNL     1       3.751   3.187   1.574  1.00  0.00     0.162 HD
BRANCH   9  12
HETATM   12  C10 UNL     1       4.899   2.923   3.974  1.00  0.00     0.078 C 
HETATM   13  C11 UNL     1       5.167   1.895   2.869  1.00  0.00     0.014 C 
HETATM   14  C12 UNL     1       6.246   0.980   3.367  1.00  0.00     0.001 C 
HETATM   15  C13 UNL     1       7.504   1.687   3.766  1.00  0.00     0.000 C 
HETATM   16  C14 UNL     1       7.244   2.885   4.648  1.00  0.00     0.001 C 
HETATM   17  C15 UNL     1       6.161   3.767   4.075  1.00  0.00     0.014 C 
ENDBRANCH   9  12
ENDBRANCH   6   8
BRANCH   1  18
HETATM   18  C2  UNL     1       1.738   8.037   0.548  1.00  0.00     0.089 C 
BRANCH  18  19
HETATM   19  C1  UNL     1       0.607   8.839   0.049  1.00  0.00     0.166 C 
HETATM   20  O1  UNL     1      -0.603   8.545   0.205  1.00  0.00    -0.292 OA
BRANCH  19  21
HETATM   21  C17 UNL     1       0.912  10.070  -0.682  1.00  0.00     0.050 A 
HETATM   22  C18 UNL     1       0.516  11.343  -0.383  1.00  0.00     0.023 A 
HETATM   23  C19 UNL     1       0.919  12.328  -1.202  1.00  0.00     0.009 A 
HETATM   24  C20 UNL     1       1.695  11.974  -2.273  1.00  0.00     0.050 A 
HETATM   25  S1  UNL     1       1.835  10.283  -2.100  1.00  0.00    -0.098 SA
ENDBRANCH  19  21
ENDBRANCH  18  19
ENDBRANCH   1  18
TORSDOF 5
ENDMDL
MODEL 4
REMARK VINA RESULT: -8.602478195      0.629      1.014
REMARK  5 active torsions:
REMARK  status: ('A' for Active; 'I' for Inactive)
REMARK    1  A    between atoms: C1_2  and  C2_3 
REMARK    2  A    between atoms: C1_2  and  C17_21 
REMARK    3  A    between atoms: C2_3  and  C3_4 
REMARK    4  A    between atoms: C8_9  and  N1_10 
REMARK       I    between atoms: N1_10  and  C9_12 
REMARK    5  A    between atoms: C9_12  and  C10_14 
ROOT
HETATM    1  C3  UNL     1       2.435   5.495  -1.648  1.00  0.00    -0.005 C 
HETATM    2  C4  UNL     1       2.209   6.830  -0.930  1.00  0.00     0.005 C 
HETATM    3  C5  UNL     1       2.376   6.655   0.564  1.00  0.00     0.000 C 
HETATM    4  C6  UNL     1       1.520   5.578   1.145  1.00  0.00     0.002 C 
HETATM    5  C7  UNL     1       1.968   4.184   0.774  1.00  0.00     0.025 C 
HETATM    6  C8  UNL     1       1.237   3.656  -0.438  1.00  0.00     0.084 C 
HETATM    7  C16 UNL     1       1.182   4.652  -1.556  1.00  0.00     0.030 C 
ENDROOT
BRANCH   6   8
HETATM    8  N1  UNL     1      -0.111   3.199  -0.106  1.00  0.00    -0.356 N 
HETATM    9  C9  UNL     1      -0.400   1.817   0.049  1.00  0.00     0.222 C 
HETATM   10  O2  UNL     1       0.506   0.952  -0.099  1.00  0.00    -0.273 OA
ATOM     11  H1  UNL     1      -0.857   3.884   0.018  1.00  0.00     0.162 HD
BRANCH   9  12
HETATM   12  C10 UNL     1      -1.761   1.394   0.383  1.00  0.00     0.078 C 
HETATM   13  C11 UNL     1      -2.735   1.861  -0.706  1.00  0.00     0.014 C 
HETATM   14  C12 UNL     1      -4.120   1.539  -0.229  1.00  0.00     0.001 C 
HETATM   15  C13 UNL     1      -4.328   0.093   0.100  1.00  0.00     0.000 C 
HETATM   16  C14 UNL     1      -3.223  -0.472   0.960  1.00  0.00     0.001 C 
HETATM   17  C15 UNL     1      -1.862  -0.124   0.410  1.00  0.00     0.014 C 
ENDBRANCH   9  12
ENDBRANCH   6   8
BRANCH   1  18
HETATM   18  C2  UNL     1       2.661   5.846  -3.096  1.00  0.00     0.089 C 
BRANCH  18  19
HETATM   19  C1  UNL     1       4.019   6.332  -3.399  1.00  0.00     0.166 C 
HETATM   20  O1  UNL     1       4.986   6.298  -2.601  1.00  0.00    -0.292 OA
BRANCH  19  21
HETATM   21  C17 UNL     1       4.261   6.897  -4.729  1.00  0.00     0.050 A 
HETATM   22  C18 UNL     1       3.469   7.762  -5.429  1.00  0.00     0.023 A 
HETATM   23  C19 UNL     1       3.896   8.151  -6.642  1.00  0.00     0.009 A 
HETATM   24  C20 UNL     1       5.092   7.647  -7.077  1.00  0.00     0.050 A 
HETATM   25  S1  UNL     1       5.579   6.650  -5.782  1.00  0.00    -0.098 SA
ENDBRANCH  19  21
ENDBRANCH  18  19
ENDBRANCH   1  18
TORSDOF 5
ENDMDL
MODEL 5
REMARK VINA RESULT: -8.409258650      4.362      6.543
REMARK  5 active torsions:
REMARK  status: ('A' for Active; 'I' for Inactive)
REMARK    1  A    between atoms: C1_2  and  C2_3 
REMARK    2  A    between atoms: C1_2  and  C17_21 
REMARK    3  A    between atoms: C2_3  and  C3_4 
REMARK    4  A    between atoms: C8_9  and  N1_10 
REMARK       I    between atoms: N1_10  and  C9_12 
REMARK    5  A    between atoms: C9_12  and  C10_14 
ROOT
HETATM    1  C3  UNL     1       1.312   7.446  -0.644  1.00  0.00    -0.005 C 
HETATM    2  C4  UNL     1       2.316   7.649  -1.785  1.00  0.00     0.005 C 
HETATM    3  C5  UNL     1       2.373   6.413  -2.657  1.00  0.00     0.000 C 
HETATM    4  C6  UNL     1       2.659   5.156  -1.905  1.00  0.00     0.002 C 
HETATM    5  C7  UNL     1       1.506   4.689  -1.049  1.00  0.00     0.025 C 
HETATM    6  C8  UNL     1       1.620   5.178   0.376  1.00  0.00     0.084 C 
HETATM    7  C16 UNL     1       1.956   6.636   0.458  1.00  0.00     0.030 C 
ENDROOT
BRANCH   6   8
HETATM    8  N1  UNL     1       2.587   4.396   1.145  1.00  0.00    -0.356 N 
HETATM    9  C9  UNL     1       2.374   4.115   2.522  1.00  0.00     0.222 C 
HETATM   10  O2  UNL     1       1.342   4.538   3.110  1.00  0.00    -0.273 OA
ATOM     11  H1  UNL     1       3.427   4.045   0.686  1.00  0.00     0.162 HD
BRANCH   9  12
HETATM   12  C10 UNL     1       3.361   3.328   3.261  1.00  0.00     0.078 C 
HETATM   13  C11 UNL     1       3.857   2.164   2.394  1.00  0.00     0.014 C 
HETATM   14  C12 UNL     1       4.738   1.312   3.258  1.00  0.00     0.001 C 
HETATM   15  C13 UNL     1       5.883   2.053   3.876  1.00  0.00     0.000 C 
HETATM   16  C14 UNL     1       5.458   3.356   4.510  1.00  0.00     0.001 C 
HETATM   17  C15 UNL     1       4.591   4.167   3.577  1.00  0.00     0.014 C 
ENDBRANCH   9  12
ENDBRANCH   6   8
BRANCH   1  18
HETATM   18  C2  UNL     1       1.022   8.824  -0.109  1.00  0.00     0.089 C 
BRANCH  18  19
HETATM   19  C1  UNL     1      -0.153   9.477  -0.713  1.00  0.00     0.166 C 
HETATM   20  O1  UNL     1      -1.167   8.874  -1.140  1.00  0.00    -0.292 OA
BRANCH  19  21
HETATM   21  C17 UNL     1      -0.140  10.937  -0.828  1.00  0.00     0.050 A 
HETATM   22  C18 UNL     1      -1.208  11.788  -0.813  1.00  0.00     0.023 A 
HETATM   23  C19 UNL     1      -0.956  13.102  -0.933  1.00  0.00     0.009 A 
HETATM   24  C20 UNL     1       0.352  13.481  -1.061  1.00  0.00     0.050 A 
HETATM   25  S1  UNL     1       1.186  11.993  -1.009  1.00  0.00    -0.098 SA
ENDBRANCH  19  21
ENDBRANCH  18  19
ENDBRANCH   1  18
TORSDOF 5
ENDMDL
