MODEL 1
REMARK VINA RESULT: -7.962642823      0.000      0.000
REMARK  6 active torsions:
REMARK  status: ('A' for Active; 'I' for Inactive)
REMARK       I    between atoms: C1_2  and  N1_3 
REMARK    1  A    between atoms: C1_2  and  C13_19 
REMARK    2  A    between atoms: N1_3  and  C2_5 
REMARK    3  A    between atoms: C2_5  and  C3_6 
REMARK    4  A    between atoms: C3_6  and  C4_7 
REMARK    5  A    between atoms: C4_7  and  S1_8 
REMARK    6  A    between atoms: S1_8  and  C5_9 
REMARK       I    between atoms: C5_9  and  N2_11 
ROOT
HETATM    1  C3  UNL     1       1.755   4.556   0.854  1.00  0.00     0.030 C 
ENDROOT
BRANCH   1   2
HETATM    2  C2  UNL     1       2.373   5.894   1.076  1.00  0.00     0.123 C 
BRANCH   2   3
HETATM    3  N1  UNL     1       1.573   6.984   0.628  1.00  0.00    -0.361 N 
HETATM    4  C1  UNL     1       1.641   7.507  -0.683  1.00  0.00     0.221 C 
HETATM    5  O1  UNL     1       2.432   6.995  -1.503  1.00  0.00    -0.273 OA
ATOM      6  H1  UNL     1       0.918   7.408   1.286  1.00  0.00     0.162 HD
BRANCH   4   7
HETATM    7  C13 UNL     1       0.808   8.646  -1.140  1.00  0.00     0.078 C 
HETATM    8  C14 UNL     1       0.399   9.483   0.030  1.00  0.00     0.014 C 
HETATM    9  C15 UNL     1      -0.157  10.794  -0.486  1.00  0.00     0.001 C 
HETATM   10  C16 UNL     1       0.916  11.622  -1.158  1.00  0.00     0.000 C 
HETATM   11  C17 UNL     1       1.986  10.772  -1.783  1.00  0.00     0.001 C 
HETATM   12  C18 UNL     1       1.487   9.437  -2.235  1.00  0.00     0.014 C 
ENDBRANCH   4   7
ENDBRANCH   2   3
ENDBRANCH   1   2
BRANCH   1  13
HETATM   13  C4  UNL     1       1.578   3.836   2.180  1.00  0.00     0.086 C 
BRANCH  13  14
HETATM   14  S1  UNL     1       3.110   3.047   2.728  1.00  0.00    -0.069 SA
BRANCH  14  15
HETATM   15  C5  UNL     1       3.402   3.442   4.442  1.00  0.00     0.281 C 
HETATM   16  O2  UNL     1       2.734   2.833   5.314  1.00  0.00    -0.260 OA
HETATM   17  N2  UNL     1       4.373   4.430   4.819  1.00  0.00    -0.343 N 
HETATM   18  C6  UNL     1       5.032   5.013   3.691  1.00  0.00     0.126 C 
HETATM   19  C12 UNL     1       4.433   4.583   6.262  1.00  0.00     0.126 C 
HETATM   20  C7  UNL     1       5.509   6.400   4.032  1.00  0.00     0.020 C 
HETATM   21  C8  UNL     1       6.895   6.431   4.599  1.00  0.00     0.002 C 
HETATM   22  C9  UNL     1       6.944   5.970   6.043  1.00  0.00     0.000 C 
HETATM   23  C10 UNL     1       6.952   4.479   6.156  1.00  0.00     0.002 C 
HETATM   24  C11 UNL     1       5.686   3.951   6.775  1.00  0.00     0.020 C 
ENDBRANCH  14  15
ENDBRANCH  13  14
ENDBRANCH   1  13
TORSDOF 6
ENDMDL
MODEL 2
REMARK VINA RESULT: -7.845791396      2.161      2.961
REMARK  6 active torsions:
REMARK  status: ('A' for Active; 'I' for Inactive)
REMARK       I    between atoms: C1_2  and  N1_3 
REMARK    1  A    between atoms: C1_2  and  C13_19 
REMARK    2  A    between atoms: N1_3  and  C2_5 
REMARK    3  A    between atoms: C2_5  and  C3_6 
REMARK    4  A    between atoms: C3_6  and  C4_7 
REMARK    5  A    between atoms: C4_7  and  S1_8 
REMARK    6  A    between atoms: S1_8  and  C5_9 
REMARK       I    between atoms: C5_9  and  N2_11 
ROOT
HETATM    1  C3  UNL     1       2.153   5.488   1.466  1.00  0.00     0.030 C 
ENDROOT
BRANCH   1   2
HETATM    2  C2  UNL     1       1.668   5.678   0.070  1.00  0.00     0.123 C 
BRANCH   2   3
HETATM    3  N1  UNL     1       2.554   6.430  -0.755  1.00  0.00    -0.361 N 
HETATM    4  C1  UNL     1       2.795   6.124  -2.113  1.00  0.00     0.221 C 
HETATM    5  O1  UNL     1       2.206   5.153  -2.632  1.00  0.00    -0.273 OA
ATOM      6  H1  UNL     1       3.037   7.229  -0.344  1.00  0.00     0.162 HD
BRANCH   4   7
HETATM    7  C13 UNL     1       3.723   6.908  -2.963  1.00  0.00     0.078 C 
HETATM    8  C14 UNL     1       4.211   6.067  -4.100  1.00  0.00     0.014 C 
HETATM    9  C15 UNL     1       4.877   6.971  -5.115  1.00  0.00     0.001 C 
HETATM   10  C16 UNL     1       3.879   7.903  -5.766  1.00  0.00     0.000 C 
HETATM   11  C17 UNL     1       2.734   8.241  -4.853  1.00  0.00     0.001 C 
HETATM   12  C18 UNL     1       3.111   8.218  -3.405  1.00  0.00     0.014 C 
ENDBRANCH   4   7
ENDBRANCH   2   3
ENDBRANCH   1   2
BRANCH   1  13
HETATM   13  C4  UNL     1       1.734   4.122   1.984  1.00  0.00     0.086 C 
BRANCH  13  14
HETATM   14  S1  UNL     1       3.144   3.177   2.607  1.00  0.00    -0.069 SA
BRANCH  14  15
HETATM   15  C5  UNL     1       3.384   3.539   4.337  1.00  0.00     0.281 C 
HETATM   16  O2  UNL     1       2.670   2.934   5.175  1.00  0.00    -0.260 OA
HETATM   17  N2  UNL     1       4.365   4.495   4.764  1.00  0.00    -0.343 N 
HETATM   18  C6  UNL     1       5.079   5.077   3.670  1.00  0.00     0.126 C 
HETATM   19  C12 UNL     1       4.377   4.625   6.211  1.00  0.00     0.126 C 
HETATM   20  C7  UNL     1       5.579   6.447   4.050  1.00  0.00     0.020 C 
HETATM   21  C8  UNL     1       6.944   6.433   4.666  1.00  0.00     0.002 C 
HETATM   22  C9  UNL     1       6.930   5.949   6.104  1.00  0.00     0.000 C 
HETATM   23  C10 UNL     1       6.895   4.457   6.193  1.00  0.00     0.002 C 
HETATM   24  C11 UNL     1       5.594   3.953   6.758  1.00  0.00     0.020 C 
ENDBRANCH  14  15
ENDBRANCH  13  14
ENDBRANCH   1  13
TORSDOF 6
ENDMDL
MODEL 3
REMARK VINA RESULT: -7.799598461      0.960      1.521
REMARK  6 active torsions:
REMARK  status: ('A' for Active; 'I' for Inactive)
REMARK       I    between atoms: C1_2  and  N1_3 
REMARK    1  A    between atoms: C1_2  and  C13_19 
REMARK    2  A    between atoms: N1_3  and  C2_5 
REMARK    3  A    between atoms: C2_5  and  C3_6 
REMARK    4  A    between atoms: C3_6  and  C4_7 
REMARK    5  A    between atoms: C4_7  and  S1_8 
REMARK    6  A    between atoms: S1_8  and  C5_9 
REMARK       I    between atoms: C5_9  and  N2_11 
ROOT
HETATM    1  C3  UNL     1       1.467   3.130   0.854  1.00  0.00     0.030 C 
ENDROOT
BRANCH   1   2
HETATM    2  C2  UNL     1       1.612   3.934  -0.392  1.00  0.00     0.123 C 
BRANCH   2   3
HETATM    3  N1  UNL     1       1.642   5.342  -0.174  1.00  0.00    -0.361 N 
HETATM    4  C1  UNL     1       1.984   6.273  -1.180  1.00  0.00     0.221 C 
HETATM    5  O1  UNL     1       2.270   5.858  -2.323  1.00  0.00    -0.273 OA
ATOM      6  H1  UNL     1       1.405   5.694   0.753  1.00  0.00     0.162 HD
BRANCH   4   7
HETATM    7  C13 UNL     1       2.018   7.737  -0.944  1.00  0.00     0.078 C 
HETATM    8  C14 UNL     1       1.903   8.468  -2.245  1.00  0.00     0.014 C 
HETATM    9  C15 UNL     1       1.610   9.925  -1.953  1.00  0.00     0.001 C 
HETATM   10  C16 UNL     1       0.245  10.100  -1.325  1.00  0.00     0.000 C 
HETATM   11  C17 UNL     1      -0.168   8.904  -0.514  1.00  0.00     0.001 C 
HETATM   12  C18 UNL     1       0.991   8.167   0.079  1.00  0.00     0.014 C 
ENDBRANCH   4   7
ENDBRANCH   2   3
ENDBRANCH   1   2
BRANCH   1  13
HETATM   13  C4  UNL     1       2.133   3.846   2.019  1.00  0.00     0.086 C 
BRANCH  13  14
HETATM   14  S1  UNL     1       3.395   2.819   2.807  1.00  0.00    -0.069 SA
BRANCH  14  15
HETATM   15  C5  UNL     1       3.591   3.319   4.507  1.00  0.00     0.281 C 
HETATM   16  O2  UNL     1       2.915   2.725   5.383  1.00  0.00    -0.260 OA
HETATM   17  N2  UNL     1       4.496   4.372   4.869  1.00  0.00    -0.343 N 
HETATM   18  C6  UNL     1       5.177   4.927   3.740  1.00  0.00     0.126 C 
HETATM   19  C12 UNL     1       4.484   4.605   6.304  1.00  0.00     0.126 C 
HETATM   20  C7  UNL     1       5.572   6.352   4.024  1.00  0.00     0.020 C 
HETATM   21  C8  UNL     1       6.928   6.482   4.646  1.00  0.00     0.002 C 
HETATM   22  C9  UNL     1       6.935   6.101   6.114  1.00  0.00     0.000 C 
HETATM   23  C10 UNL     1       7.008   4.621   6.310  1.00  0.00     0.002 C 
HETATM   24  C11 UNL     1       5.742   4.064   6.903  1.00  0.00     0.020 C 
ENDBRANCH  14  15
ENDBRANCH  13  14
ENDBRANCH   1  13
TORSDOF 6
ENDMDL
MODEL 4
REMARK VINA RESULT: -7.789991588      1.248      1.754
REMARK  6 active torsions:
REMARK  status: ('A' for Active; 'I' for Inactive)
REMARK       I    between atoms: C1_2  and  N1_3 
REMARK    1  A    between atoms: C1_2  and  C13_19 
REMARK    2  A    between atoms: N1_3  and  C2_5 
REMARK    3  A    between atoms: C2_5  and  C3_6 
REMARK    4  A    between atoms: C3_6  and  C4_7 
REMARK    5  A    between atoms: C4_7  and  S1_8 
REMARK    6  A    between atoms: S1_8  and  C5_9 
REMARK       I    between atoms: C5_9  and  N2_11 
ROOT
HETATM    1  C3  UNL     1       1.521   4.908   1.718  1.00  0.00     0.030 C 
ENDROOT
BRANCH   1   2
HETATM    2  C2  UNL     1       2.283   5.919   0.932  1.00  0.00     0.123 C 
BRANCH   2   3
HETATM    3  N1  UNL     1       1.519   7.065   0.567  1.00  0.00    -0.361 N 
HETATM    4  C1  UNL     1       1.495   7.593  -0.743  1.00  0.00     0.221 C 
HETATM    5  O1  UNL     1       2.165   7.035  -1.638  1.00  0.00    -0.273 OA
ATOM      6  H1  UNL     1       0.963   7.527   1.287  1.00  0.00     0.162 HD
BRANCH   4   7
HETATM    7  C13 UNL     1       0.702   8.790  -1.115  1.00  0.00     0.078 C 
HETATM    8  C14 UNL     1       0.411   9.610   0.103  1.00  0.00     0.014 C 
HETATM    9  C15 UNL     1      -0.100  10.965  -0.340  1.00  0.00     0.001 C 
HETATM   10  C16 UNL     1       0.976  11.755  -1.052  1.00  0.00     0.000 C 
HETATM   11  C17 UNL     1       1.957  10.869  -1.767  1.00  0.00     0.001 C 
HETATM   12  C18 UNL     1       1.357   9.578  -2.226  1.00  0.00     0.014 C 
ENDBRANCH   4   7
ENDBRANCH   2   3
ENDBRANCH   1   2
BRANCH   1  13
HETATM   13  C4  UNL     1       2.187   3.547   1.604  1.00  0.00     0.086 C 
BRANCH  13  14
HETATM   14  S1  UNL     1       2.468   2.797   3.225  1.00  0.00    -0.069 SA
BRANCH  14  15
HETATM   15  C5  UNL     1       4.215   2.524   3.458  1.00  0.00     0.281 C 
HETATM   16  O2  UNL     1       4.817   1.790   2.635  1.00  0.00    -0.260 OA
HETATM   17  N2  UNL     1       4.918   3.125   4.555  1.00  0.00    -0.343 N 
HETATM   18  C6  UNL     1       4.068   3.926   5.381  1.00  0.00     0.126 C 
HETATM   19  C12 UNL     1       6.324   2.760   4.542  1.00  0.00     0.126 C 
HETATM   20  C7  UNL     1       4.620   3.990   6.782  1.00  0.00     0.020 C 
HETATM   21  C8  UNL     1       5.564   5.131   7.000  1.00  0.00     0.002 C 
HETATM   22  C9  UNL     1       6.928   4.885   6.384  1.00  0.00     0.000 C 
HETATM   23  C10 UNL     1       6.944   5.177   4.918  1.00  0.00     0.002 C 
HETATM   24  C11 UNL     1       7.136   3.932   4.094  1.00  0.00     0.020 C 
ENDBRANCH  14  15
ENDBRANCH  13  14
ENDBRANCH   1  13
TORSDOF 6
ENDMDL
MODEL 5
REMARK VINA RESULT: -7.762766302      1.668      8.034
REMARK  6 active torsions:
REMARK  status: ('A' for Active; 'I' for Inactive)
REMARK       I    between atoms: C1_2  and  N1_3 
REMARK    1  A    between atoms: C1_2  and  C13_19 
REMARK    2  A    between atoms: N1_3  and  C2_5 
REMARK    3  A    between atoms: C2_5  and  C3_6 
REMARK    4  A    between atoms: C3_6  and  C4_7 
REMARK    5  A    between atoms: C4_7  and  S1_8 
REMARK    6  A    between atoms: S1_8  and  C5_9 
REMARK       I    between atoms: C5_9  and  N2_11 
ROOT
HETATM    1  C3  UNL     1       1.795   4.539   1.471  1.00  0.00     0.030 C 
ENDROOT
BRANCH   1   2
HETATM    2  C2  UNL     1       2.539   3.862   2.571  1.00  0.00     0.123 C 
BRANCH   2   3
HETATM    3  N1  UNL     1       3.718   4.549   2.982  1.00  0.00    -0.361 N 
HETATM    4  C1  UNL     1       4.818   3.903   3.590  1.00  0.00     0.221 C 
HETATM    5  O1  UNL     1       4.772   2.669   3.777  1.00  0.00    -0.273 OA
ATOM      6  H1  UNL     1       3.770   5.557   2.830  1.00  0.00     0.162 HD
BRANCH   4   7
HETATM    7  C13 UNL     1       6.039   4.626   4.020  1.00  0.00     0.078 C 
HETATM    8  C14 UNL     1       5.751   6.089   4.146  1.00  0.00     0.014 C 
HETATM    9  C15 UNL     1       6.896   6.742   4.891  1.00  0.00     0.001 C 
HETATM   10  C16 UNL     1       6.964   6.269   6.326  1.00  0.00     0.000 C 
HETATM   11  C17 UNL     1       6.448   4.867   6.489  1.00  0.00     0.001 C 
HETATM   12  C18 UNL     1       6.641   4.023   5.269  1.00  0.00     0.014 C 
ENDBRANCH   4   7
ENDBRANCH   2   3
ENDBRANCH   1   2
BRANCH   1  13
HETATM   13  C4  UNL     1       1.752   3.645   0.242  1.00  0.00     0.086 C 
BRANCH  13  14
HETATM   14  S1  UNL     1       0.984   4.476  -1.168  1.00  0.00    -0.069 SA
BRANCH  14  15
HETATM   15  C5  UNL     1       2.112   5.688  -1.829  1.00  0.00     0.281 C 
HETATM   16  O2  UNL     1       2.976   5.306  -2.658  1.00  0.00    -0.260 OA
HETATM   17  N2  UNL     1       2.038   7.064  -1.429  1.00  0.00    -0.343 N 
HETATM   18  C6  UNL     1       0.993   7.308  -0.484  1.00  0.00     0.126 C 
HETATM   19  C12 UNL     1       3.056   7.860  -2.095  1.00  0.00     0.126 C 
HETATM   20  C7  UNL     1       1.334   8.505   0.365  1.00  0.00     0.020 C 
HETATM   21  C8  UNL     1       0.840   9.799  -0.204  1.00  0.00     0.002 C 
HETATM   22  C9  UNL     1       1.683  10.282  -1.369  1.00  0.00     0.000 C 
HETATM   23  C10 UNL     1       1.315   9.601  -2.649  1.00  0.00     0.002 C 
HETATM   24  C11 UNL     1       2.414   8.703  -3.149  1.00  0.00     0.020 C 
ENDBRANCH  14  15
ENDBRANCH  13  14
ENDBRANCH   1  13
TORSDOF 6
ENDMDL
