MODEL 1
REMARK VINA RESULT: -6.444053806      0.000      0.000
REMARK  7 active torsions:
REMARK  status: ('A' for Active; 'I' for Inactive)
REMARK    1  A    between atoms: C2_2  and  N1_3 
REMARK    2  A    between atoms: C2_2  and  C3_7 
REMARK    3  A    between atoms: C3_7  and  C4_8 
REMARK    4  A    between atoms: C4_8  and  C5_9 
REMARK    5  A    between atoms: C5_9  and  C6_10 
REMARK    6  A    between atoms: C6_10  and  C8_12 
REMARK    7  A    between atoms: C12_16  and  C14_18 
ROOT
HETATM    1  C14 UNL     1      -3.843   1.770  -0.776  1.00  0.00     0.133 C 
HETATM    2  C15 UNL     1      -3.244   1.472  -2.065  1.00  0.00     0.059 C 
HETATM    3  N2  UNL     1      -2.767   1.263  -3.099  1.00  0.00    -0.197 NA
ENDROOT
BRANCH   1   4
HETATM    4  C12 UNL     1      -3.208   1.118   0.407  1.00  0.00    -0.028 C 
HETATM    5  C11 UNL     1      -1.794   1.376   0.678  1.00  0.00     0.006 C 
HETATM    6  C10 UNL     1      -1.094   2.451  -0.069  1.00  0.00     0.007 C 
HETATM    7  C19 UNL     1      -1.409   1.552   2.141  1.00  0.00    -0.006 C 
HETATM    8  C9  UNL     1       0.415   2.328   0.006  1.00  0.00     0.009 C 
HETATM    9  C8  UNL     1       0.967   1.842   1.296  1.00  0.00     0.027 C 
HETATM   10  C21 UNL     1       0.066   1.121   2.215  1.00  0.00     0.094 A 
HETATM   11  C22 UNL     1       0.387  -0.000   3.038  1.00  0.00     0.208 A 
HETATM   12  O1  UNL     1      -0.058  -0.345   1.802  1.00  0.00    -0.374 OA
HETATM   13  C18 UNL     1      -2.211   0.551   2.989  1.00  0.00     0.012 C 
HETATM   14  C20 UNL     1      -1.679   2.891   2.705  1.00  0.00     0.019 C 
HETATM   15  C17 UNL     1      -3.679   0.704   2.829  1.00  0.00     0.002 C 
HETATM   16  C16 UNL     1      -4.132   1.415   1.610  1.00  0.00     0.010 C 
HETATM   17  C13 UNL     1      -3.434  -0.399   0.193  1.00  0.00     0.016 C 
BRANCH   9  18
HETATM   18  C6  UNL     1       1.846   2.929   1.883  1.00  0.00    -0.012 C 
HETATM   19  C7  UNL     1       3.101   2.543   2.528  1.00  0.00     0.010 C 
BRANCH  18  20
HETATM   20  C5  UNL     1       2.023   4.081   0.943  1.00  0.00     0.005 C 
BRANCH  20  21
HETATM   21  C4  UNL     1       1.791   5.449   1.398  1.00  0.00     0.002 C 
BRANCH  21  22
HETATM   22  C3  UNL     1       2.423   6.601   0.717  1.00  0.00     0.032 C 
BRANCH  22  23
HETATM   23  C2  UNL     1       1.439   7.215  -0.319  1.00  0.00     0.179 C 
HETATM   24  C1  UNL     1       0.949   8.506   0.251  1.00  0.00     0.039 C 
BRANCH  23  25
HETATM   25  N1  UNL     1       2.109   7.349  -1.586  1.00  0.00    -0.075 N 
ATOM     26  H13 UNL     1       1.643   6.788  -2.298  1.00  0.00     0.274 HD
ATOM     27  H12 UNL     1       1.959   8.280  -1.974  1.00  0.00     0.274 HD
ATOM     28  H11 UNL     1       3.105   7.131  -1.554  1.00  0.00     0.274 HD
ENDBRANCH  23  25
ENDBRANCH  22  23
ENDBRANCH  21  22
ENDBRANCH  20  21
ENDBRANCH  18  20
ENDBRANCH   9  18
ENDBRANCH   1   4
TORSDOF 7
ENDMDL
MODEL 2
REMARK VINA RESULT: -6.427884982      2.351      3.696
REMARK  7 active torsions:
REMARK  status: ('A' for Active; 'I' for Inactive)
REMARK    1  A    between atoms: C2_2  and  N1_3 
REMARK    2  A    between atoms: C2_2  and  C3_7 
REMARK    3  A    between atoms: C3_7  and  C4_8 
REMARK    4  A    between atoms: C4_8  and  C5_9 
REMARK    5  A    between atoms: C5_9  and  C6_10 
REMARK    6  A    between atoms: C6_10  and  C8_12 
REMARK    7  A    between atoms: C12_16  and  C14_18 
ROOT
HETATM    1  C14 UNL     1      -1.337   0.292   1.278  1.00  0.00     0.133 C 
HETATM    2  C15 UNL     1      -1.003  -0.268  -0.019  1.00  0.00     0.059 C 
HETATM    3  N2  UNL     1      -0.759  -0.699  -1.066  1.00  0.00    -0.197 NA
ENDROOT
BRANCH   1   4
HETATM    4  C12 UNL     1      -0.198   0.846   2.065  1.00  0.00    -0.028 C 
HETATM    5  C11 UNL     1       0.531   1.998   1.534  1.00  0.00     0.006 C 
HETATM    6  C10 UNL     1      -0.019   2.732   0.367  1.00  0.00     0.007 C 
HETATM    7  C19 UNL     1       0.949   3.056   2.547  1.00  0.00    -0.006 C 
HETATM    8  C9  UNL     1       1.014   3.606  -0.314  1.00  0.00     0.009 C 
HETATM    9  C8  UNL     1       2.001   4.267   0.578  1.00  0.00     0.027 C 
HETATM   10  C21 UNL     1       2.196   3.717   1.933  1.00  0.00     0.094 A 
HETATM   11  C22 UNL     1       3.424   3.610   2.655  1.00  0.00     0.208 A 
HETATM   12  O1  UNL     1       3.146   2.520   1.893  1.00  0.00    -0.374 OA
HETATM   13  C18 UNL     1       1.403   2.357   3.838  1.00  0.00     0.012 C 
HETATM   14  C20 UNL     1      -0.113   4.008   2.934  1.00  0.00     0.019 C 
HETATM   15  C17 UNL     1       0.353   1.485   4.421  1.00  0.00     0.002 C 
HETATM   16  C16 UNL     1      -0.729   1.060   3.501  1.00  0.00     0.010 C 
HETATM   17  C13 UNL     1       0.772  -0.347   2.254  1.00  0.00     0.016 C 
BRANCH   9  18
HETATM   18  C6  UNL     1       1.840   5.768   0.446  1.00  0.00    -0.012 C 
HETATM   19  C7  UNL     1       2.791   6.639   1.137  1.00  0.00     0.010 C 
BRANCH  18  20
HETATM   20  C5  UNL     1       1.615   6.190  -0.974  1.00  0.00     0.005 C 
BRANCH  20  21
HETATM   21  C4  UNL     1       2.749   6.428  -1.861  1.00  0.00     0.002 C 
BRANCH  21  22
HETATM   22  C3  UNL     1       3.062   5.501  -2.972  1.00  0.00     0.032 C 
BRANCH  22  23
HETATM   23  C2  UNL     1       4.118   6.139  -3.920  1.00  0.00     0.179 C 
HETATM   24  C1  UNL     1       3.494   6.234  -5.274  1.00  0.00     0.039 C 
BRANCH  23  25
HETATM   25  N1  UNL     1       4.536   7.404  -3.375  1.00  0.00    -0.075 N 
ATOM     26  H13 UNL     1       5.490   7.343  -3.019  1.00  0.00     0.274 HD
ATOM     27  H12 UNL     1       4.674   8.087  -4.121  1.00  0.00     0.274 HD
ATOM     28  H11 UNL     1       3.911   7.777  -2.661  1.00  0.00     0.274 HD
ENDBRANCH  23  25
ENDBRANCH  22  23
ENDBRANCH  21  22
ENDBRANCH  20  21
ENDBRANCH  18  20
ENDBRANCH   9  18
ENDBRANCH   1   4
TORSDOF 7
ENDMDL
MODEL 3
REMARK VINA RESULT: -6.346996631      2.945      5.544
REMARK  7 active torsions:
REMARK  status: ('A' for Active; 'I' for Inactive)
REMARK    1  A    between atoms: C2_2  and  N1_3 
REMARK    2  A    between atoms: C2_2  and  C3_7 
REMARK    3  A    between atoms: C3_7  and  C4_8 
REMARK    4  A    between atoms: C4_8  and  C5_9 
REMARK    5  A    between atoms: C5_9  and  C6_10 
REMARK    6  A    between atoms: C6_10  and  C8_12 
REMARK    7  A    between atoms: C12_16  and  C14_18 
ROOT
HETATM    1  C14 UNL     1       3.816   2.100   4.871  1.00  0.00     0.133 C 
HETATM    2  C15 UNL     1       4.202   1.141   5.891  1.00  0.00     0.059 C 
HETATM    3  N2  UNL     1       4.512   0.400   6.725  1.00  0.00    -0.197 NA
ENDROOT
BRANCH   1   4
HETATM    4  C12 UNL     1       2.658   1.713   4.015  1.00  0.00    -0.028 C 
HETATM    5  C11 UNL     1       2.214   2.636   2.970  1.00  0.00     0.006 C 
HETATM    6  C10 UNL     1       3.061   3.805   2.625  1.00  0.00     0.007 C 
HETATM    7  C19 UNL     1       1.797   2.007   1.647  1.00  0.00    -0.006 C 
HETATM    8  C9  UNL     1       2.305   4.868   1.854  1.00  0.00     0.009 C 
HETATM    9  C8  UNL     1       1.294   4.376   0.884  1.00  0.00     0.027 C 
HETATM   10  C21 UNL     1       0.789   2.999   1.041  1.00  0.00     0.094 A 
HETATM   11  C22 UNL     1      -0.545   2.536   0.827  1.00  0.00     0.208 A 
HETATM   12  O1  UNL     1      -0.312   2.949   2.100  1.00  0.00    -0.374 OA
HETATM   13  C18 UNL     1       1.028   0.707   1.936  1.00  0.00     0.012 C 
HETATM   14  C20 UNL     1       2.910   1.645   0.745  1.00  0.00     0.019 C 
HETATM   15  C17 UNL     1       1.817  -0.265   2.733  1.00  0.00     0.002 C 
HETATM   16  C16 UNL     1       2.962   0.290   3.493  1.00  0.00     0.010 C 
HETATM   17  C13 UNL     1       1.499   1.451   5.009  1.00  0.00     0.016 C 
BRANCH   9  18
HETATM   18  C6  UNL     1       1.703   4.820  -0.506  1.00  0.00    -0.012 C 
HETATM   19  C7  UNL     1       0.791   4.562  -1.621  1.00  0.00     0.010 C 
BRANCH  18  20
HETATM   20  C5  UNL     1       2.229   6.222  -0.518  1.00  0.00     0.005 C 
BRANCH  20  21
HETATM   21  C4  UNL     1       1.318   7.352  -0.678  1.00  0.00     0.002 C 
BRANCH  21  22
HETATM   22  C3  UNL     1       1.205   8.399   0.362  1.00  0.00     0.032 C 
BRANCH  22  23
HETATM   23  C2  UNL     1       0.242   9.523  -0.114  1.00  0.00     0.179 C 
HETATM   24  C1  UNL     1       0.979  10.817   0.009  1.00  0.00     0.039 C 
BRANCH  23  25
HETATM   25  N1  UNL     1      -0.206   9.226  -1.450  1.00  0.00    -0.075 N 
ATOM     26  H13 UNL     1      -1.158   8.862  -1.436  1.00  0.00     0.274 HD
ATOM     27  H12 UNL     1      -0.358  10.087  -1.976  1.00  0.00     0.274 HD
ATOM     28  H11 UNL     1       0.410   8.597  -1.965  1.00  0.00     0.274 HD
ENDBRANCH  23  25
ENDBRANCH  22  23
ENDBRANCH  21  22
ENDBRANCH  20  21
ENDBRANCH  18  20
ENDBRANCH   9  18
ENDBRANCH   1   4
TORSDOF 7
ENDMDL
MODEL 4
REMARK VINA RESULT: -6.322588039      3.087      5.695
REMARK  7 active torsions:
REMARK  status: ('A' for Active; 'I' for Inactive)
REMARK    1  A    between atoms: C2_2  and  N1_3 
REMARK    2  A    between atoms: C2_2  and  C3_7 
REMARK    3  A    between atoms: C3_7  and  C4_8 
REMARK    4  A    between atoms: C4_8  and  C5_9 
REMARK    5  A    between atoms: C5_9  and  C6_10 
REMARK    6  A    between atoms: C6_10  and  C8_12 
REMARK    7  A    between atoms: C12_16  and  C14_18 
ROOT
HETATM    1  C14 UNL     1       3.778   2.450   4.822  1.00  0.00     0.133 C 
HETATM    2  C15 UNL     1       3.531   3.640   5.617  1.00  0.00     0.059 C 
HETATM    3  N2  UNL     1       3.359   4.600   6.240  1.00  0.00    -0.197 NA
ENDROOT
BRANCH   1   4
HETATM    4  C12 UNL     1       2.624   1.945   4.023  1.00  0.00    -0.028 C 
HETATM    5  C11 UNL     1       2.141   2.746   2.898  1.00  0.00     0.006 C 
HETATM    6  C10 UNL     1       2.947   3.901   2.429  1.00  0.00     0.007 C 
HETATM    7  C19 UNL     1       1.731   1.977   1.650  1.00  0.00    -0.006 C 
HETATM    8  C9  UNL     1       2.150   4.859   1.567  1.00  0.00     0.009 C 
HETATM    9  C8  UNL     1       1.146   4.242   0.664  1.00  0.00     0.027 C 
HETATM   10  C21 UNL     1       0.686   2.873   0.961  1.00  0.00     0.094 A 
HETATM   11  C22 UNL     1      -0.635   2.351   0.811  1.00  0.00     0.208 A 
HETATM   12  O1  UNL     1      -0.402   2.894   2.035  1.00  0.00    -0.374 OA
HETATM   13  C18 UNL     1       1.006   0.689   2.075  1.00  0.00     0.012 C 
HETATM   14  C20 UNL     1       2.846   1.562   0.773  1.00  0.00     0.019 C 
HETATM   15  C17 UNL     1       1.834  -0.175   2.954  1.00  0.00     0.002 C 
HETATM   16  C16 UNL     1       2.968   0.487   3.641  1.00  0.00     0.010 C 
HETATM   17  C13 UNL     1       1.484   1.747   5.054  1.00  0.00     0.016 C 
BRANCH   9  18
HETATM   18  C6  UNL     1       1.527   4.559  -0.769  1.00  0.00    -0.012 C 
HETATM   19  C7  UNL     1       0.506   4.434  -1.810  1.00  0.00     0.010 C 
BRANCH  18  20
HETATM   20  C5  UNL     1       2.292   5.842  -0.878  1.00  0.00     0.005 C 
BRANCH  20  21
HETATM   21  C4  UNL     1       2.652   6.377  -2.188  1.00  0.00     0.002 C 
BRANCH  21  22
HETATM   22  C3  UNL     1       3.802   5.837  -2.948  1.00  0.00     0.032 C 
BRANCH  22  23
HETATM   23  C2  UNL     1       4.162   6.792  -4.122  1.00  0.00     0.179 C 
HETATM   24  C1  UNL     1       3.503   6.251  -5.349  1.00  0.00     0.039 C 
BRANCH  23  25
HETATM   25  N1  UNL     1       3.759   8.131  -3.781  1.00  0.00    -0.075 N 
ATOM     26  H13 UNL     1       3.192   8.535  -4.527  1.00  0.00     0.274 HD
ATOM     27  H12 UNL     1       3.070   8.117  -3.029  1.00  0.00     0.274 HD
ATOM     28  H11 UNL     1       4.533   8.752  -3.545  1.00  0.00     0.274 HD
ENDBRANCH  23  25
ENDBRANCH  22  23
ENDBRANCH  21  22
ENDBRANCH  20  21
ENDBRANCH  18  20
ENDBRANCH   9  18
ENDBRANCH   1   4
TORSDOF 7
ENDMDL
MODEL 5
REMARK VINA RESULT: -6.313536680      2.349      3.473
REMARK  7 active torsions:
REMARK  status: ('A' for Active; 'I' for Inactive)
REMARK    1  A    between atoms: C2_2  and  N1_3 
REMARK    2  A    between atoms: C2_2  and  C3_7 
REMARK    3  A    between atoms: C3_7  and  C4_8 
REMARK    4  A    between atoms: C4_8  and  C5_9 
REMARK    5  A    between atoms: C5_9  and  C6_10 
REMARK    6  A    between atoms: C6_10  and  C8_12 
REMARK    7  A    between atoms: C12_16  and  C14_18 
ROOT
HETATM    1  C14 UNL     1       0.649  -1.348   0.924  1.00  0.00     0.133 C 
HETATM    2  C15 UNL     1      -0.242  -1.632  -0.187  1.00  0.00     0.059 C 
HETATM    3  N2  UNL     1      -0.950  -1.888  -1.067  1.00  0.00    -0.197 NA
ENDROOT
BRANCH   1   4
HETATM    4  C12 UNL     1       0.220  -0.254   1.843  1.00  0.00    -0.028 C 
HETATM    5  C11 UNL     1       0.734   1.097   1.618  1.00  0.00     0.006 C 
HETATM    6  C10 UNL     1       1.461   1.399   0.361  1.00  0.00     0.007 C 
HETATM    7  C19 UNL     1      -0.256   2.237   1.824  1.00  0.00    -0.006 C 
HETATM    8  C9  UNL     1       2.274   2.675   0.447  1.00  0.00     0.009 C 
HETATM    9  C8  UNL     1       1.674   3.779   1.238  1.00  0.00     0.027 C 
HETATM   10  C21 UNL     1       0.613   3.448   2.207  1.00  0.00     0.094 A 
HETATM   11  C22 UNL     1       0.406   4.028   3.496  1.00  0.00     0.208 A 
HETATM   12  O1  UNL     1       1.222   2.941   3.515  1.00  0.00    -0.374 OA
HETATM   13  C18 UNL     1      -1.138   1.916   3.041  1.00  0.00     0.012 C 
HETATM   14  C20 UNL     1      -1.174   2.484   0.692  1.00  0.00     0.019 C 
HETATM   15  C17 UNL     1      -1.868   0.631   2.901  1.00  0.00     0.002 C 
HETATM   16  C16 UNL     1      -1.323  -0.325   1.909  1.00  0.00     0.010 C 
HETATM   17  C13 UNL     1       0.626  -0.742   3.256  1.00  0.00     0.016 C 
BRANCH   9  18
HETATM   18  C6  UNL     1       1.440   4.960   0.317  1.00  0.00    -0.012 C 
HETATM   19  C7  UNL     1       1.869   6.288   0.755  1.00  0.00     0.010 C 
BRANCH  18  20
HETATM   20  C5  UNL     1       1.855   4.667  -1.092  1.00  0.00     0.005 C 
BRANCH  20  21
HETATM   21  C4  UNL     1       2.264   5.751  -1.982  1.00  0.00     0.002 C 
BRANCH  21  22
HETATM   22  C3  UNL     1       3.339   5.558  -2.981  1.00  0.00     0.032 C 
BRANCH  22  23
HETATM   23  C2  UNL     1       3.535   6.859  -3.811  1.00  0.00     0.179 C 
HETATM   24  C1  UNL     1       2.883   7.968  -3.052  1.00  0.00     0.039 C 
BRANCH  23  25
HETATM   25  N1  UNL     1       4.941   7.059  -4.050  1.00  0.00    -0.075 N 
ATOM     26  H13 UNL     1       5.098   7.936  -4.545  1.00  0.00     0.274 HD
ATOM     27  H12 UNL     1       5.427   7.263  -3.177  1.00  0.00     0.274 HD
ATOM     28  H11 UNL     1       5.393   6.286  -4.538  1.00  0.00     0.274 HD
ENDBRANCH  23  25
ENDBRANCH  22  23
ENDBRANCH  21  22
ENDBRANCH  20  21
ENDBRANCH  18  20
ENDBRANCH   9  18
ENDBRANCH   1   4
TORSDOF 7
ENDMDL
