MODEL 1
REMARK VINA RESULT: -7.064102254      0.000      0.000
REMARK  7 active torsions:
REMARK  status: ('A' for Active; 'I' for Inactive)
REMARK    1  A    between atoms: O1_2  and  C2_3 
REMARK    2  A    between atoms: C2_3  and  C3_5 
REMARK    3  A    between atoms: C15_17  and  C16_18 
REMARK    4  A    between atoms: C16_18  and  C19_21 
REMARK    5  A    between atoms: C19_21  and  C20_22 
REMARK    6  A    between atoms: C20_22  and  C21_23 
REMARK    7  A    between atoms: C21_23  and  O3_24 
ROOT
HETATM    1  C3  UNL     1       3.187   3.185   3.200  1.00  0.00     0.086 C 
HETATM    2  C4  UNL     1       2.312   3.300   4.419  1.00  0.00     0.015 C 
HETATM    3  C5  UNL     1       0.908   3.542   3.972  1.00  0.00     0.006 C 
HETATM    4  C6  UNL     1       0.493   2.429   2.996  1.00  0.00    -0.006 C 
HETATM    5  C7  UNL     1       1.346   2.463   1.749  1.00  0.00    -0.009 C 
HETATM    6  C8  UNL     1       0.591   2.801   0.520  1.00  0.00     0.006 C 
HETATM    7  C9  UNL     1      -0.720   2.154   0.296  1.00  0.00     0.010 C 
HETATM    8  C10 UNL     1      -1.474   1.746   1.555  1.00  0.00    -0.036 C 
HETATM    9  C11 UNL     1      -1.117   0.368   1.886  1.00  0.00     0.016 C 
HETATM   10  C12 UNL     1      -0.899   2.738   2.605  1.00  0.00    -0.002 C 
HETATM   11  C13 UNL     1      -1.910   2.778   3.688  1.00  0.00     0.006 C 
HETATM   12  C14 UNL     1      -3.142   2.108   3.109  1.00  0.00     0.006 C 
HETATM   13  C15 UNL     1      -2.864   2.210   1.593  1.00  0.00     0.002 C 
HETATM   14  C22 UNL     1       2.406   3.533   1.953  1.00  0.00     0.019 C 
ENDROOT
BRANCH  13  15
HETATM   15  C16 UNL     1      -3.945   1.757   0.769  1.00  0.00    -0.043 C 
HETATM   16  C17 UNL     1      -5.353   2.091   1.259  1.00  0.00     0.015 C 
HETATM   17  C18 UNL     1      -4.007   0.180   1.140  1.00  0.00     0.015 C 
BRANCH  15  18
HETATM   18  C19 UNL     1      -3.932   1.665  -0.692  1.00  0.00     0.011 C 
BRANCH  18  19
HETATM   19  C20 UNL     1      -3.576   0.434  -1.409  1.00  0.00     0.027 C 
BRANCH  19  20
HETATM   20  C21 UNL     1      -2.944   0.893  -2.757  1.00  0.00     0.164 C 
BRANCH  20  21
HETATM   21  O3  UNL     1      -2.583   2.226  -2.658  1.00  0.00    -0.401 OA
ATOM     22  H3  UNL     1      -3.302   2.766  -2.965  1.00  0.00     0.209 HD
ENDBRANCH  20  21
ENDBRANCH  19  20
ENDBRANCH  18  19
ENDBRANCH  15  18
ENDBRANCH  13  15
BRANCH   1  23
HETATM   23  C2  UNL     1       4.380   4.010   3.379  1.00  0.00     0.262 C 
HETATM   24  O2  UNL     1       4.276   5.261   3.353  1.00  0.00    -0.265 OA
BRANCH  23  25
HETATM   25  O1  UNL     1       5.656   3.489   3.581  1.00  0.00    -0.326 OA
HETATM   26  C1  UNL     1       5.879   2.106   3.386  1.00  0.00     0.213 C 
ENDBRANCH  23  25
ENDBRANCH   1  23
TORSDOF 7
ENDMDL
MODEL 2
REMARK VINA RESULT: -7.022499077      0.565      1.059
REMARK  7 active torsions:
REMARK  status: ('A' for Active; 'I' for Inactive)
REMARK    1  A    between atoms: O1_2  and  C2_3 
REMARK    2  A    between atoms: C2_3  and  C3_5 
REMARK    3  A    between atoms: C15_17  and  C16_18 
REMARK    4  A    between atoms: C16_18  and  C19_21 
REMARK    5  A    between atoms: C19_21  and  C20_22 
REMARK    6  A    between atoms: C20_22  and  C21_23 
REMARK    7  A    between atoms: C21_23  and  O3_24 
ROOT
HETATM    1  C3  UNL     1       3.336   3.225   3.325  1.00  0.00     0.086 C 
HETATM    2  C4  UNL     1       2.421   3.430   4.503  1.00  0.00     0.015 C 
HETATM    3  C5  UNL     1       1.038   3.669   3.991  1.00  0.00     0.006 C 
HETATM    4  C6  UNL     1       0.636   2.506   3.070  1.00  0.00    -0.006 C 
HETATM    5  C7  UNL     1       1.533   2.448   1.855  1.00  0.00    -0.009 C 
HETATM    6  C8  UNL     1       0.828   2.723   0.581  1.00  0.00     0.006 C 
HETATM    7  C9  UNL     1      -0.487   2.087   0.350  1.00  0.00     0.010 C 
HETATM    8  C10 UNL     1      -1.293   1.770   1.604  1.00  0.00    -0.036 C 
HETATM    9  C11 UNL     1      -0.976   0.409   2.031  1.00  0.00     0.016 C 
HETATM   10  C12 UNL     1      -0.735   2.814   2.611  1.00  0.00    -0.002 C 
HETATM   11  C13 UNL     1      -1.782   2.939   3.652  1.00  0.00     0.006 C 
HETATM   12  C14 UNL     1      -3.007   2.257   3.071  1.00  0.00     0.006 C 
HETATM   13  C15 UNL     1      -2.674   2.261   1.562  1.00  0.00     0.002 C 
HETATM   14  C22 UNL     1       2.606   3.509   2.032  1.00  0.00     0.019 C 
ENDROOT
BRANCH  13  15
HETATM   15  C16 UNL     1      -3.734   1.777   0.729  1.00  0.00    -0.043 C 
HETATM   16  C17 UNL     1      -5.150   1.928   1.283  1.00  0.00     0.015 C 
HETATM   17  C18 UNL     1      -3.633   0.175   0.959  1.00  0.00     0.015 C 
BRANCH  15  18
HETATM   18  C19 UNL     1      -3.762   1.814  -0.735  1.00  0.00     0.011 C 
BRANCH  18  19
HETATM   19  C20 UNL     1      -3.438   0.647  -1.566  1.00  0.00     0.027 C 
BRANCH  19  20
HETATM   20  C21 UNL     1      -3.004   1.216  -2.950  1.00  0.00     0.164 C 
BRANCH  20  21
HETATM   21  O3  UNL     1      -2.265   2.371  -2.752  1.00  0.00    -0.401 OA
ATOM     22  H3  UNL     1      -2.652   2.870  -2.042  1.00  0.00     0.209 HD
ENDBRANCH  20  21
ENDBRANCH  19  20
ENDBRANCH  18  19
ENDBRANCH  15  18
ENDBRANCH  13  15
BRANCH   1  23
HETATM   23  C2  UNL     1       4.538   4.037   3.497  1.00  0.00     0.262 C 
HETATM   24  O2  UNL     1       5.655   3.473   3.604  1.00  0.00    -0.265 OA
BRANCH  23  25
HETATM   25  O1  UNL     1       4.529   5.429   3.550  1.00  0.00    -0.326 OA
HETATM   26  C1  UNL     1       5.675   6.111   4.021  1.00  0.00     0.213 C 
ENDBRANCH  23  25
ENDBRANCH   1  23
TORSDOF 7
ENDMDL
MODEL 3
REMARK VINA RESULT: -6.951040104      1.522      7.761
REMARK  7 active torsions:
REMARK  status: ('A' for Active; 'I' for Inactive)
REMARK    1  A    between atoms: O1_2  and  C2_3 
REMARK    2  A    between atoms: C2_3  and  C3_5 
REMARK    3  A    between atoms: C15_17  and  C16_18 
REMARK    4  A    between atoms: C16_18  and  C19_21 
REMARK    5  A    between atoms: C19_21  and  C20_22 
REMARK    6  A    between atoms: C20_22  and  C21_23 
REMARK    7  A    between atoms: C21_23  and  O3_24 
ROOT
HETATM    1  C3  UNL     1      -2.468   1.828   0.049  1.00  0.00     0.086 C 
HETATM    2  C4  UNL     1      -2.842   2.231   1.450  1.00  0.00     0.015 C 
HETATM    3  C5  UNL     1      -1.656   2.024   2.334  1.00  0.00     0.006 C 
HETATM    4  C6  UNL     1      -0.457   2.789   1.753  1.00  0.00    -0.006 C 
HETATM    5  C7  UNL     1      -0.075   2.240   0.398  1.00  0.00    -0.009 C 
HETATM    6  C8  UNL     1       1.263   1.605   0.368  1.00  0.00     0.006 C 
HETATM    7  C9  UNL     1       2.386   2.293   1.041  1.00  0.00     0.010 C 
HETATM    8  C10 UNL     1       2.001   3.184   2.216  1.00  0.00    -0.036 C 
HETATM    9  C11 UNL     1       1.780   4.541   1.719  1.00  0.00     0.016 C 
HETATM   10  C12 UNL     1       0.666   2.537   2.680  1.00  0.00    -0.002 C 
HETATM   11  C13 UNL     1       0.494   2.980   4.084  1.00  0.00     0.006 C 
HETATM   12  C14 UNL     1       1.837   3.562   4.486  1.00  0.00     0.006 C 
HETATM   13  C15 UNL     1       2.775   2.928   3.435  1.00  0.00     0.002 C 
HETATM   14  C22 UNL     1      -1.101   1.181   0.032  1.00  0.00     0.019 C 
ENDROOT
BRANCH  13  15
HETATM   15  C16 UNL     1       4.163   3.207   3.647  1.00  0.00    -0.043 C 
HETATM   16  C17 UNL     1       5.152   2.217   3.036  1.00  0.00     0.015 C 
HETATM   17  C18 UNL     1       4.368   2.725   5.182  1.00  0.00     0.015 C 
BRANCH  15  18
HETATM   18  C19 UNL     1       4.770   4.538   3.726  1.00  0.00     0.011 C 
BRANCH  18  19
HETATM   19  C20 UNL     1       5.938   4.832   4.566  1.00  0.00     0.027 C 
BRANCH  19  20
HETATM   20  C21 UNL     1       6.456   6.227   4.105  1.00  0.00     0.164 C 
BRANCH  20  21
HETATM   21  O3  UNL     1       5.374   7.024   3.772  1.00  0.00    -0.401 OA
ATOM     22  H3  UNL     1       5.637   7.639   3.097  1.00  0.00     0.209 HD
ENDBRANCH  20  21
ENDBRANCH  19  20
ENDBRANCH  18  19
ENDBRANCH  15  18
ENDBRANCH  13  15
BRANCH   1  23
HETATM   23  C2  UNL     1      -3.514   0.974  -0.507  1.00  0.00     0.262 C 
HETATM   24  O2  UNL     1      -4.564   0.774   0.152  1.00  0.00    -0.265 OA
BRANCH  23  25
HETATM   25  O1  UNL     1      -3.424   0.350  -1.749  1.00  0.00    -0.326 OA
HETATM   26  C1  UNL     1      -3.116   1.124  -2.892  1.00  0.00     0.213 C 
ENDBRANCH  23  25
ENDBRANCH   1  23
TORSDOF 7
ENDMDL
MODEL 4
REMARK VINA RESULT: -6.928946273      1.553      7.785
REMARK  7 active torsions:
REMARK  status: ('A' for Active; 'I' for Inactive)
REMARK    1  A    between atoms: O1_2  and  C2_3 
REMARK    2  A    between atoms: C2_3  and  C3_5 
REMARK    3  A    between atoms: C15_17  and  C16_18 
REMARK    4  A    between atoms: C16_18  and  C19_21 
REMARK    5  A    between atoms: C19_21  and  C20_22 
REMARK    6  A    between atoms: C20_22  and  C21_23 
REMARK    7  A    between atoms: C21_23  and  O3_24 
ROOT
HETATM    1  C3  UNL     1      -2.550   1.895   0.168  1.00  0.00     0.086 C 
HETATM    2  C4  UNL     1      -2.890   2.259   1.588  1.00  0.00     0.015 C 
HETATM    3  C5  UNL     1      -1.678   2.046   2.434  1.00  0.00     0.006 C 
HETATM    4  C6  UNL     1      -0.505   2.840   1.839  1.00  0.00    -0.006 C 
HETATM    5  C7  UNL     1      -0.154   2.329   0.461  1.00  0.00    -0.009 C 
HETATM    6  C8  UNL     1       1.190   1.712   0.378  1.00  0.00     0.006 C 
HETATM    7  C9  UNL     1       2.323   2.397   1.037  1.00  0.00     0.010 C 
HETATM    8  C10 UNL     1       1.960   3.254   2.243  1.00  0.00    -0.036 C 
HETATM    9  C11 UNL     1       1.710   4.620   1.786  1.00  0.00     0.016 C 
HETATM   10  C12 UNL     1       0.647   2.579   2.728  1.00  0.00    -0.002 C 
HETATM   11  C13 UNL     1       0.509   2.986   4.147  1.00  0.00     0.006 C 
HETATM   12  C14 UNL     1       1.855   3.574   4.526  1.00  0.00     0.006 C 
HETATM   13  C15 UNL     1       2.770   2.978   3.434  1.00  0.00     0.002 C 
HETATM   14  C22 UNL     1      -1.177   1.266   0.097  1.00  0.00     0.019 C 
ENDROOT
BRANCH  13  15
HETATM   15  C16 UNL     1       4.161   3.269   3.615  1.00  0.00    -0.043 C 
HETATM   16  C17 UNL     1       5.145   2.264   3.020  1.00  0.00     0.015 C 
HETATM   17  C18 UNL     1       4.393   2.837   5.161  1.00  0.00     0.015 C 
BRANCH  15  18
HETATM   18  C19 UNL     1       4.764   4.604   3.641  1.00  0.00     0.011 C 
BRANCH  18  19
HETATM   19  C20 UNL     1       5.937   4.932   4.461  1.00  0.00     0.027 C 
BRANCH  19  20
HETATM   20  C21 UNL     1       6.354   6.376   4.052  1.00  0.00     0.164 C 
BRANCH  20  21
HETATM   21  O3  UNL     1       5.215   7.148   3.894  1.00  0.00    -0.401 OA
ATOM     22  H3  UNL     1       4.849   7.341   4.750  1.00  0.00     0.209 HD
ENDBRANCH  20  21
ENDBRANCH  19  20
ENDBRANCH  18  19
ENDBRANCH  15  18
ENDBRANCH  13  15
BRANCH   1  23
HETATM   23  C2  UNL     1      -3.602   1.042  -0.380  1.00  0.00     0.262 C 
HETATM   24  O2  UNL     1      -3.558   0.706  -1.589  1.00  0.00    -0.265 OA
BRANCH  23  25
HETATM   25  O1  UNL     1      -4.677   0.564   0.366  1.00  0.00    -0.326 OA
HETATM   26  C1  UNL     1      -4.772  -0.821   0.635  1.00  0.00     0.213 C 
ENDBRANCH  23  25
ENDBRANCH   1  23
TORSDOF 7
ENDMDL
MODEL 5
REMARK VINA RESULT: -6.925397435      1.914      8.430
REMARK  7 active torsions:
REMARK  status: ('A' for Active; 'I' for Inactive)
REMARK    1  A    between atoms: O1_2  and  C2_3 
REMARK    2  A    between atoms: C2_3  and  C3_5 
REMARK    3  A    between atoms: C15_17  and  C16_18 
REMARK    4  A    between atoms: C16_18  and  C19_21 
REMARK    5  A    between atoms: C19_21  and  C20_22 
REMARK    6  A    between atoms: C20_22  and  C21_23 
REMARK    7  A    between atoms: C21_23  and  O3_24 
ROOT
HETATM    1  C3  UNL     1      -0.301   1.973   1.130  1.00  0.00     0.086 C 
HETATM    2  C4  UNL     1       0.414   0.666   0.917  1.00  0.00     0.015 C 
HETATM    3  C5  UNL     1       1.885   0.919   0.966  1.00  0.00     0.006 C 
HETATM    4  C6  UNL     1       2.230   1.623   2.287  1.00  0.00    -0.006 C 
HETATM    5  C7  UNL     1       1.565   2.978   2.363  1.00  0.00    -0.009 C 
HETATM    6  C8  UNL     1       2.520   4.111   2.370  1.00  0.00     0.006 C 
HETATM    7  C9  UNL     1       3.721   4.017   3.227  1.00  0.00     0.010 C 
HETATM    8  C10 UNL     1       4.225   2.605   3.499  1.00  0.00    -0.036 C 
HETATM    9  C11 UNL     1       3.601   2.115   4.727  1.00  0.00     0.016 C 
HETATM   10  C12 UNL     1       3.693   1.834   2.259  1.00  0.00    -0.002 C 
HETATM   11  C13 UNL     1       4.546   0.627   2.163  1.00  0.00     0.006 C 
HETATM   12  C14 UNL     1       5.713   0.887   3.098  1.00  0.00     0.006 C 
HETATM   13  C15 UNL     1       5.657   2.424   3.239  1.00  0.00     0.002 C 
HETATM   14  C22 UNL     1       0.683   3.120   1.134  1.00  0.00     0.019 C 
ENDROOT
BRANCH  13  15
HETATM   15  C16 UNL     1       6.744   2.982   3.987  1.00  0.00    -0.043 C 
HETATM   16  C17 UNL     1       8.034   2.165   4.014  1.00  0.00     0.015 C 
HETATM   17  C18 UNL     1       6.303   2.652   5.512  1.00  0.00     0.015 C 
BRANCH  15  18
HETATM   18  C19 UNL     1       7.051   4.408   4.123  1.00  0.00     0.011 C 
BRANCH  18  19
HETATM   19  C20 UNL     1       6.622   5.207   5.278  1.00  0.00     0.027 C 
BRANCH  19  20
HETATM   20  C21 UNL     1       6.631   6.689   4.799  1.00  0.00     0.164 C 
BRANCH  20  21
HETATM   21  O3  UNL     1       5.481   6.934   4.067  1.00  0.00    -0.401 OA
ATOM     22  H3  UNL     1       5.710   7.020   3.148  1.00  0.00     0.209 HD
ENDBRANCH  20  21
ENDBRANCH  19  20
ENDBRANCH  18  19
ENDBRANCH  15  18
ENDBRANCH  13  15
BRANCH   1  23
HETATM   23  C2  UNL     1      -1.351   2.120   0.125  1.00  0.00     0.262 C 
HETATM   24  O2  UNL     1      -1.057   2.545  -1.019  1.00  0.00    -0.265 OA
BRANCH  23  25
HETATM   25  O1  UNL     1      -2.691   1.814   0.356  1.00  0.00    -0.326 OA
HETATM   26  C1  UNL     1      -3.577   1.712  -0.742  1.00  0.00     0.213 C 
ENDBRANCH  23  25
ENDBRANCH   1  23
TORSDOF 7
ENDMDL
