MODEL 1
REMARK VINA RESULT: -6.199925805      0.000      0.000
REMARK  5 active torsions:
REMARK  status: ('A' for Active; 'I' for Inactive)
REMARK    1  A    between atoms: C1_2  and  C2_3 
REMARK       I    between atoms: C1_2  and  N2_17 
REMARK    2  A    between atoms: C3_4  and  C4_5 
REMARK    3  A    between atoms: C6_7  and  O2_8 
REMARK    4  A    between atoms: C7_10  and  O3_11 
REMARK    5  A    between atoms: N2_17  and  C9_19 
ROOT
HETATM    1  C4  UNL     1      85.953  72.718  30.955  1.00  0.00     0.211 C 
HETATM    2  C5  UNL     1      85.396  73.601  29.860  1.00  0.00     0.071 C 
HETATM    3  C6  UNL     1      85.774  75.021  30.119  1.00  0.00     0.150 C 
HETATM    4  C7  UNL     1      87.223  75.107  30.478  1.00  0.00     0.172 C 
HETATM    5  C8  UNL     1      87.953  73.810  30.196  1.00  0.00     0.267 C 
HETATM    6  N1  UNL     1      87.399  72.708  30.958  1.00  0.00    -0.065 N 
ATOM      7  H11 UNL     1      87.764  71.812  30.633  1.00  0.00     0.278 HD
ATOM      8  H12 UNL     1      87.766  72.696  31.910  1.00  0.00     0.278 HD
ENDROOT
BRANCH   1   9
HETATM    9  C3  UNL     1      85.473  71.316  30.845  1.00  0.00     0.011 C 
HETATM   10  C2  UNL     1      84.183  71.047  30.786  1.00  0.00     0.072 C 
BRANCH  10  11
HETATM   11  C1  UNL     1      83.692  69.681  30.678  1.00  0.00     0.241 C 
HETATM   12  O1  UNL     1      82.606  69.472  30.085  1.00  0.00    -0.269 OA
HETATM   13  N2  UNL     1      84.430  68.627  31.230  1.00  0.00    -0.344 N 
ATOM     14  H2  UNL     1      85.306  68.849  31.702  1.00  0.00     0.164 HD
BRANCH  13  15
HETATM   15  C9  UNL     1      84.020  67.238  31.170  1.00  0.00     0.147 C 
HETATM   16  C10 UNL     1      85.188  66.253  31.073  1.00  0.00     0.046 C 
HETATM   17  C11 UNL     1      84.274  65.208  31.670  1.00  0.00     0.079 C 
HETATM   18  S1  UNL     1      83.615  66.498  32.773  1.00  0.00    -0.144 SA
ENDBRANCH  13  15
ENDBRANCH  10  11
ENDBRANCH   1   9
BRANCH   3  19
HETATM   19  O2  UNL     1      84.999  75.550  31.155  1.00  0.00    -0.393 OA
ATOM     20  H2  UNL     1      85.107  75.035  31.946  1.00  0.00     0.210 HD
ENDBRANCH   3  19
BRANCH   4  21
HETATM   21  O3  UNL     1      87.889  76.105  29.759  1.00  0.00    -0.391 OA
ATOM     22  H3  UNL     1      88.826  76.099  29.918  1.00  0.00     0.210 HD
ENDBRANCH   4  21
TORSDOF 5
ENDMDL
MODEL 2
REMARK VINA RESULT: -6.195589814      1.791      2.216
REMARK  5 active torsions:
REMARK  status: ('A' for Active; 'I' for Inactive)
REMARK    1  A    between atoms: C1_2  and  C2_3 
REMARK       I    between atoms: C1_2  and  N2_17 
REMARK    2  A    between atoms: C3_4  and  C4_5 
REMARK    3  A    between atoms: C6_7  and  O2_8 
REMARK    4  A    between atoms: C7_10  and  O3_11 
REMARK    5  A    between atoms: N2_17  and  C9_19 
ROOT
HETATM    1  C4  UNL     1      85.531  72.564  30.318  1.00  0.00     0.211 C 
HETATM    2  C5  UNL     1      86.950  72.537  30.840  1.00  0.00     0.071 C 
HETATM    3  C6  UNL     1      87.741  73.629  30.201  1.00  0.00     0.150 C 
HETATM    4  C7  UNL     1      86.963  74.906  30.228  1.00  0.00     0.172 C 
HETATM    5  C8  UNL     1      85.752  74.812  31.133  1.00  0.00     0.267 C 
HETATM    6  N1  UNL     1      84.838  73.775  30.696  1.00  0.00    -0.065 N 
ATOM      7  H11 UNL     1      84.125  73.588  31.402  1.00  0.00     0.278 HD
ATOM      8  H12 UNL     1      84.236  74.107  29.943  1.00  0.00     0.278 HD
ENDROOT
BRANCH   1   9
HETATM    9  C3  UNL     1      84.737  71.399  30.789  1.00  0.00     0.011 C 
HETATM   10  C2  UNL     1      83.595  71.573  31.425  1.00  0.00     0.072 C 
BRANCH  10  11
HETATM   11  C1  UNL     1      82.803  70.446  31.895  1.00  0.00     0.241 C 
HETATM   12  O1  UNL     1      81.646  70.658  32.331  1.00  0.00    -0.269 OA
HETATM   13  N2  UNL     1      83.335  69.152  31.854  1.00  0.00    -0.344 N 
ATOM     14  H2  UNL     1      84.280  69.032  31.490  1.00  0.00     0.164 HD
BRANCH  13  15
HETATM   15  C9  UNL     1      82.620  67.972  32.298  1.00  0.00     0.147 C 
HETATM   16  C10 UNL     1      81.738  67.341  31.217  1.00  0.00     0.046 C 
HETATM   17  C11 UNL     1      81.856  66.037  31.973  1.00  0.00     0.079 C 
HETATM   18  S1  UNL     1      83.599  66.449  32.297  1.00  0.00    -0.144 SA
ENDBRANCH  13  15
ENDBRANCH  10  11
ENDBRANCH   1   9
BRANCH   3  19
HETATM   19  O2  UNL     1      88.055  73.295  28.880  1.00  0.00    -0.393 OA
ATOM     20  H2  UNL     1      88.971  73.057  28.808  1.00  0.00     0.210 HD
ENDBRANCH   3  19
BRANCH   4  21
HETATM   21  O3  UNL     1      87.726  75.982  30.692  1.00  0.00    -0.391 OA
ATOM     22  H3  UNL     1      88.015  76.550  29.987  1.00  0.00     0.210 HD
ENDBRANCH   4  21
TORSDOF 5
ENDMDL
MODEL 3
REMARK VINA RESULT: -6.182501125      4.409      6.259
REMARK  5 active torsions:
REMARK  status: ('A' for Active; 'I' for Inactive)
REMARK    1  A    between atoms: C1_2  and  C2_3 
REMARK       I    between atoms: C1_2  and  N2_17 
REMARK    2  A    between atoms: C3_4  and  C4_5 
REMARK    3  A    between atoms: C6_7  and  O2_8 
REMARK    4  A    between atoms: C7_10  and  O3_11 
REMARK    5  A    between atoms: N2_17  and  C9_19 
ROOT
HETATM    1  C4  UNL     1      86.152  72.848  30.333  1.00  0.00     0.211 C 
HETATM    2  C5  UNL     1      86.485  74.231  30.848  1.00  0.00     0.071 C 
HETATM    3  C6  UNL     1      85.285  75.109  30.738  1.00  0.00     0.150 C 
HETATM    4  C7  UNL     1      84.078  74.394  31.256  1.00  0.00     0.172 C 
HETATM    5  C8  UNL     1      84.448  73.129  32.002  1.00  0.00     0.267 C 
HETATM    6  N1  UNL     1      85.154  72.193  31.148  1.00  0.00    -0.065 N 
ATOM      7  H11 UNL     1      85.562  71.431  31.691  1.00  0.00     0.278 HD
ATOM      8  H12 UNL     1      84.505  71.653  30.576  1.00  0.00     0.278 HD
ENDROOT
BRANCH   1   9
HETATM    9  C3  UNL     1      87.351  71.972  30.261  1.00  0.00     0.011 C 
HETATM   10  C2  UNL     1      88.433  72.360  29.615  1.00  0.00     0.072 C 
BRANCH  10  11
HETATM   11  C1  UNL     1      89.617  71.517  29.533  1.00  0.00     0.241 C 
HETATM   12  O1  UNL     1      89.473  70.271  29.502  1.00  0.00    -0.269 OA
HETATM   13  N2  UNL     1      90.888  72.100  29.490  1.00  0.00    -0.344 N 
ATOM     14  H2  UNL     1      90.952  73.118  29.517  1.00  0.00     0.164 HD
BRANCH  13  15
HETATM   15  C9  UNL     1      92.121  71.342  29.407  1.00  0.00     0.147 C 
HETATM   16  C10 UNL     1      93.379  72.213  29.346  1.00  0.00     0.046 C 
HETATM   17  C11 UNL     1      94.144  71.036  29.904  1.00  0.00     0.079 C 
HETATM   18  S1  UNL     1      92.722  70.700  30.990  1.00  0.00    -0.144 SA
ENDBRANCH  13  15
ENDBRANCH  10  11
ENDBRANCH   1   9
BRANCH   3  19
HETATM   19  O2  UNL     1      85.076  75.485  29.408  1.00  0.00    -0.393 OA
ATOM     20  H2  UNL     1      84.301  75.058  29.061  1.00  0.00     0.210 HD
ENDBRANCH   3  19
BRANCH   4  21
HETATM   21  O3  UNL     1      83.337  75.179  32.145  1.00  0.00    -0.391 OA
ATOM     22  H3  UNL     1      82.514  75.470  31.769  1.00  0.00     0.210 HD
ENDBRANCH   4  21
TORSDOF 5
ENDMDL
MODEL 4
REMARK VINA RESULT: -6.120165719      4.212      5.093
REMARK  5 active torsions:
REMARK  status: ('A' for Active; 'I' for Inactive)
REMARK    1  A    between atoms: C1_2  and  C2_3 
REMARK       I    between atoms: C1_2  and  N2_17 
REMARK    2  A    between atoms: C3_4  and  C4_5 
REMARK    3  A    between atoms: C6_7  and  O2_8 
REMARK    4  A    between atoms: C7_10  and  O3_11 
REMARK    5  A    between atoms: N2_17  and  C9_19 
ROOT
HETATM    1  C4  UNL     1      87.978  73.039  31.567  1.00  0.00     0.211 C 
HETATM    2  C5  UNL     1      86.552  72.658  31.234  1.00  0.00     0.071 C 
HETATM    3  C6  UNL     1      85.658  73.835  31.438  1.00  0.00     0.150 C 
HETATM    4  C7  UNL     1      86.266  75.053  30.819  1.00  0.00     0.172 C 
HETATM    5  C8  UNL     1      87.439  74.707  29.925  1.00  0.00     0.267 C 
HETATM    6  N1  UNL     1      88.495  74.042  30.663  1.00  0.00    -0.065 N 
ATOM      7  H11 UNL     1      89.195  73.648  30.034  1.00  0.00     0.278 HD
ATOM      8  H12 UNL     1      89.082  74.716  31.155  1.00  0.00     0.278 HD
ENDROOT
BRANCH   1   9
HETATM    9  C3  UNL     1      88.891  71.868  31.544  1.00  0.00     0.011 C 
HETATM   10  C2  UNL     1      89.662  71.591  32.578  1.00  0.00     0.072 C 
BRANCH  10  11
HETATM   11  C1  UNL     1      90.563  70.449  32.575  1.00  0.00     0.241 C 
HETATM   12  O1  UNL     1      91.745  70.610  32.187  1.00  0.00    -0.269 OA
HETATM   13  N2  UNL     1      90.106  69.196  33.002  1.00  0.00    -0.344 N 
ATOM     14  H2  UNL     1      89.136  69.117  33.308  1.00  0.00     0.164 HD
BRANCH  13  15
HETATM   15  C9  UNL     1      90.930  68.005  33.034  1.00  0.00     0.147 C 
HETATM   16  C10 UNL     1      90.266  66.813  33.728  1.00  0.00     0.046 C 
HETATM   17  C11 UNL     1      91.173  65.916  32.918  1.00  0.00     0.079 C 
HETATM   18  S1  UNL     1      90.920  67.036  31.504  1.00  0.00    -0.144 SA
ENDBRANCH  13  15
ENDBRANCH  10  11
ENDBRANCH   1   9
BRANCH   3  19
HETATM   19  O2  UNL     1      85.445  74.055  32.802  1.00  0.00    -0.393 OA
ATOM     20  H2  UNL     1      85.774  74.910  33.055  1.00  0.00     0.210 HD
ENDBRANCH   3  19
BRANCH   4  21
HETATM   21  O3  UNL     1      85.353  75.757  30.026  1.00  0.00    -0.391 OA
ATOM     22  H3  UNL     1      85.773  76.434  29.509  1.00  0.00     0.210 HD
ENDBRANCH   4  21
TORSDOF 5
ENDMDL
MODEL 5
REMARK VINA RESULT: -6.042219179      4.399      6.634
REMARK  5 active torsions:
REMARK  status: ('A' for Active; 'I' for Inactive)
REMARK    1  A    between atoms: C1_2  and  C2_3 
REMARK       I    between atoms: C1_2  and  N2_17 
REMARK    2  A    between atoms: C3_4  and  C4_5 
REMARK    3  A    between atoms: C6_7  and  O2_8 
REMARK    4  A    between atoms: C7_10  and  O3_11 
REMARK    5  A    between atoms: N2_17  and  C9_19 
ROOT
HETATM    1  C4  UNL     1      87.136  73.699  30.099  1.00  0.00     0.211 C 
HETATM    2  C5  UNL     1      86.552  74.828  30.919  1.00  0.00     0.071 C 
HETATM    3  C6  UNL     1      85.101  74.976  30.607  1.00  0.00     0.150 C 
HETATM    4  C7  UNL     1      84.438  73.636  30.609  1.00  0.00     0.172 C 
HETATM    5  C8  UNL     1      85.329  72.565  31.203  1.00  0.00     0.267 C 
HETATM    6  N1  UNL     1      86.562  72.420  30.453  1.00  0.00    -0.065 N 
ATOM      7  H11 UNL     1      87.234  71.839  30.954  1.00  0.00     0.278 HD
ATOM      8  H12 UNL     1      86.426  71.835  29.629  1.00  0.00     0.278 HD
ENDROOT
BRANCH   1   9
HETATM    9  C3  UNL     1      88.613  73.608  30.240  1.00  0.00     0.011 C 
HETATM   10  C2  UNL     1      89.157  73.051  31.304  1.00  0.00     0.072 C 
BRANCH  10  11
HETATM   11  C1  UNL     1      90.600  72.952  31.461  1.00  0.00     0.241 C 
HETATM   12  O1  UNL     1      91.274  74.006  31.546  1.00  0.00    -0.269 OA
HETATM   13  N2  UNL     1      91.213  71.695  31.516  1.00  0.00    -0.344 N 
ATOM     14  H2  UNL     1      90.620  70.867  31.444  1.00  0.00     0.164 HD
BRANCH  13  15
HETATM   15  C9  UNL     1      92.640  71.500  31.671  1.00  0.00     0.147 C 
HETATM   16  C10 UNL     1      93.043  70.040  31.900  1.00  0.00     0.046 C 
HETATM   17  C11 UNL     1      94.405  70.396  31.351  1.00  0.00     0.079 C 
HETATM   18  S1  UNL     1      93.570  71.444  30.118  1.00  0.00    -0.144 SA
ENDBRANCH  13  15
ENDBRANCH  10  11
ENDBRANCH   1   9
BRANCH   3  19
HETATM   19  O2  UNL     1      84.930  75.585  29.360  1.00  0.00    -0.393 OA
ATOM     20  H2  UNL     1      85.766  75.878  29.017  1.00  0.00     0.210 HD
ENDBRANCH   3  19
BRANCH   4  21
HETATM   21  O3  UNL     1      83.255  73.630  31.356  1.00  0.00    -0.391 OA
ATOM     22  H3  UNL     1      82.897  74.503  31.469  1.00  0.00     0.210 HD
ENDBRANCH   4  21
TORSDOF 5
ENDMDL
