MODEL 1
REMARK VINA RESULT: -6.707630512      0.000      0.000
REMARK  2 active torsions:
REMARK  status: ('A' for Active; 'I' for Inactive)
REMARK    1  A    between atoms: C2_2  and  C4_5 
REMARK       I    between atoms: C4_5  and  N1_7 
REMARK    2  A    between atoms: N1_7  and  C5_9 
ROOT
HETATM    1  C5  UNL     1      89.021  72.924  30.565  1.00  0.00     0.138 A 
HETATM    2  N2  UNL     1      88.958  74.235  30.317  1.00  0.00    -0.293 N 
ATOM      3  H2  UNL     1      89.794  74.689  29.949  1.00  0.00     0.172 HD
HETATM    4  C6  UNL     1      87.858  75.004  30.522  1.00  0.00     0.328 A 
HETATM    5  O2  UNL     1      87.881  76.237  30.261  1.00  0.00    -0.247 OA
HETATM    6  N3  UNL     1      86.730  74.465  31.004  1.00  0.00    -0.274 N 
ATOM      7  H3  UNL     1      85.895  75.030  31.163  1.00  0.00     0.173 HD
HETATM    8  C7  UNL     1      86.747  73.159  31.267  1.00  0.00     0.274 A 
HETATM    9  O3  UNL     1      85.681  72.646  31.724  1.00  0.00    -0.266 OA
HETATM   10  C8  UNL     1      87.844  72.353  31.071  1.00  0.00     0.156 A 
HETATM   11  C9  UNL     1      87.778  70.937  31.383  1.00  0.00     0.109 C 
HETATM   12  N4  UNL     1      87.723  69.802  31.616  1.00  0.00    -0.191 NA
ENDROOT
BRANCH   1  13
HETATM   13  N1  UNL     1      90.145  72.107  30.363  1.00  0.00    -0.310 N 
HETATM   14  C4  UNL     1      91.469  72.340  30.742  1.00  0.00     0.242 C 
HETATM   15  O1  UNL     1      91.882  73.345  31.342  1.00  0.00    -0.271 OA
ATOM     16  H1  UNL     1      89.972  71.229  29.875  1.00  0.00     0.170 HD
BRANCH  14  17
HETATM   17  C2  UNL     1      92.507  71.314  30.415  1.00  0.00     0.092 C 
HETATM   18  C1  UNL     1      93.680  71.887  29.679  1.00  0.00     0.038 C 
HETATM   19  C3  UNL     1      91.885  70.254  29.505  1.00  0.00     0.038 C 
HETATM   20  S1  UNL     1      93.110  70.510  31.920  1.00  0.00    -0.077 SA
ENDBRANCH  14  17
ENDBRANCH   1  13
TORSDOF 2
ENDMDL
MODEL 2
REMARK VINA RESULT: -6.696501400      3.141      4.968
REMARK  2 active torsions:
REMARK  status: ('A' for Active; 'I' for Inactive)
REMARK    1  A    between atoms: C2_2  and  C4_5 
REMARK       I    between atoms: C4_5  and  N1_7 
REMARK    2  A    between atoms: N1_7  and  C5_9 
ROOT
HETATM    1  C5  UNL     1      88.015  72.819  30.897  1.00  0.00     0.138 A 
HETATM    2  N2  UNL     1      89.293  72.741  31.276  1.00  0.00    -0.293 N 
ATOM      3  H2  UNL     1      89.646  71.830  31.571  1.00  0.00     0.172 HD
HETATM    4  C6  UNL     1      90.155  73.790  31.296  1.00  0.00     0.328 A 
HETATM    5  O2  UNL     1      91.349  73.630  31.668  1.00  0.00    -0.247 OA
HETATM    6  N3  UNL     1      89.751  75.011  30.921  1.00  0.00    -0.274 N 
ATOM      7  H3  UNL     1      90.386  75.809  30.931  1.00  0.00     0.173 HD
HETATM    8  C7  UNL     1      88.482  75.136  30.535  1.00  0.00     0.274 A 
HETATM    9  O3  UNL     1      88.096  76.292  30.179  1.00  0.00    -0.266 OA
HETATM   10  C8  UNL     1      87.584  74.095  30.503  1.00  0.00     0.156 A 
HETATM   11  C9  UNL     1      86.219  74.319  30.067  1.00  0.00     0.109 C 
HETATM   12  N4  UNL     1      85.130  74.491  29.704  1.00  0.00    -0.191 NA
ENDROOT
BRANCH   1  13
HETATM   13  N1  UNL     1      87.105  71.751  30.866  1.00  0.00    -0.310 N 
HETATM   14  C4  UNL     1      86.942  70.775  29.882  1.00  0.00     0.242 C 
HETATM   15  O1  UNL     1      87.602  70.689  28.834  1.00  0.00    -0.271 OA
ATOM     16  H1  UNL     1      86.479  71.679  31.669  1.00  0.00     0.170 HD
BRANCH  14  17
HETATM   17  C2  UNL     1      85.895  69.724  30.069  1.00  0.00     0.092 C 
HETATM   18  C1  UNL     1      86.318  68.643  31.017  1.00  0.00     0.038 C 
HETATM   19  C3  UNL     1      85.621  69.052  28.723  1.00  0.00     0.038 C 
HETATM   20  S1  UNL     1      84.356  70.454  30.681  1.00  0.00    -0.077 SA
ENDBRANCH  14  17
ENDBRANCH   1  13
TORSDOF 2
ENDMDL
MODEL 3
REMARK VINA RESULT: -6.666438397      1.535      1.705
REMARK  2 active torsions:
REMARK  status: ('A' for Active; 'I' for Inactive)
REMARK    1  A    between atoms: C2_2  and  C4_5 
REMARK       I    between atoms: C4_5  and  N1_7 
REMARK    2  A    between atoms: N1_7  and  C5_9 
ROOT
HETATM    1  C5  UNL     1      90.111  73.699  31.024  1.00  0.00     0.138 A 
HETATM    2  N2  UNL     1      90.226  75.028  31.093  1.00  0.00    -0.293 N 
ATOM      3  H2  UNL     1      91.125  75.412  31.384  1.00  0.00     0.172 HD
HETATM    4  C6  UNL     1      89.228  75.902  30.802  1.00  0.00     0.328 A 
HETATM    5  O2  UNL     1      89.418  77.144  30.892  1.00  0.00    -0.247 OA
HETATM    6  N3  UNL     1      88.024  75.458  30.415  1.00  0.00    -0.274 N 
ATOM      7  H3  UNL     1      87.264  76.101  30.193  1.00  0.00     0.173 HD
HETATM    8  C7  UNL     1      87.864  74.137  30.333  1.00  0.00     0.274 A 
HETATM    9  O3  UNL     1      86.726  73.713  29.966  1.00  0.00    -0.266 OA
HETATM   10  C8  UNL     1      88.854  73.226  30.620  1.00  0.00     0.156 A 
HETATM   11  C9  UNL     1      88.595  71.803  30.503  1.00  0.00     0.109 C 
HETATM   12  N4  UNL     1      88.396  70.665  30.396  1.00  0.00    -0.191 NA
ENDROOT
BRANCH   1  13
HETATM   13  N1  UNL     1      91.126  72.775  31.319  1.00  0.00    -0.310 N 
HETATM   14  C4  UNL     1      92.127  72.286  30.477  1.00  0.00     0.242 C 
HETATM   15  O1  UNL     1      92.289  72.600  29.288  1.00  0.00    -0.271 OA
ATOM     16  H1  UNL     1      91.133  72.414  32.273  1.00  0.00     0.170 HD
BRANCH  14  17
HETATM   17  C2  UNL     1      93.109  71.296  31.020  1.00  0.00     0.092 C 
HETATM   18  C1  UNL     1      94.048  71.897  32.022  1.00  0.00     0.038 C 
HETATM   19  C3  UNL     1      93.967  70.769  29.869  1.00  0.00     0.038 C 
HETATM   20  S1  UNL     1      92.254  69.904  31.797  1.00  0.00    -0.077 SA
ENDBRANCH  14  17
ENDBRANCH   1  13
TORSDOF 2
ENDMDL
MODEL 4
REMARK VINA RESULT: -6.636849511      3.912      4.441
REMARK  2 active torsions:
REMARK  status: ('A' for Active; 'I' for Inactive)
REMARK    1  A    between atoms: C2_2  and  C4_5 
REMARK       I    between atoms: C4_5  and  N1_7 
REMARK    2  A    between atoms: N1_7  and  C5_9 
ROOT
HETATM    1  C5  UNL     1      85.922  72.609  30.759  1.00  0.00     0.138 A 
HETATM    2  N2  UNL     1      86.802  73.557  30.427  1.00  0.00    -0.293 N 
ATOM      3  H2  UNL     1      87.728  73.259  30.120  1.00  0.00     0.172 HD
HETATM    4  C6  UNL     1      86.548  74.891  30.469  1.00  0.00     0.328 A 
HETATM    5  O2  UNL     1      87.435  75.722  30.138  1.00  0.00    -0.247 OA
HETATM    6  N3  UNL     1      85.351  75.344  30.864  1.00  0.00    -0.274 N 
ATOM      7  H3  UNL     1      85.144  76.343  30.901  1.00  0.00     0.173 HD
HETATM    8  C7  UNL     1      84.441  74.433  31.205  1.00  0.00     0.274 A 
HETATM    9  O3  UNL     1      83.306  74.859  31.579  1.00  0.00    -0.266 OA
HETATM   10  C8  UNL     1      84.666  73.076  31.173  1.00  0.00     0.156 A 
HETATM   11  C9  UNL     1      83.618  72.151  31.562  1.00  0.00     0.109 C 
HETATM   12  N4  UNL     1      82.777  71.407  31.857  1.00  0.00    -0.191 NA
ENDROOT
BRANCH   1  13
HETATM   13  N1  UNL     1      86.159  71.226  30.724  1.00  0.00    -0.310 N 
HETATM   14  C4  UNL     1      87.008  70.511  29.877  1.00  0.00     0.242 C 
HETATM   15  O1  UNL     1      87.718  71.000  28.984  1.00  0.00    -0.271 OA
ATOM     16  H1  UNL     1      85.644  70.671  31.407  1.00  0.00     0.170 HD
BRANCH  14  17
HETATM   17  C2  UNL     1      87.098  69.025  30.028  1.00  0.00     0.092 C 
HETATM   18  C1  UNL     1      87.415  68.601  31.429  1.00  0.00     0.038 C 
HETATM   19  C3  UNL     1      88.230  68.506  29.140  1.00  0.00     0.038 C 
HETATM   20  S1  UNL     1      85.551  68.234  29.525  1.00  0.00    -0.077 SA
ENDBRANCH  14  17
ENDBRANCH   1  13
TORSDOF 2
ENDMDL
MODEL 5
REMARK VINA RESULT: -6.587235016      3.249      3.886
REMARK  2 active torsions:
REMARK  status: ('A' for Active; 'I' for Inactive)
REMARK    1  A    between atoms: C2_2  and  C4_5 
REMARK       I    between atoms: C4_5  and  N1_7 
REMARK    2  A    between atoms: N1_7  and  C5_9 
ROOT
HETATM    1  C5  UNL     1      86.192  72.629  30.685  1.00  0.00     0.138 A 
HETATM    2  N2  UNL     1      87.024  73.632  30.393  1.00  0.00    -0.293 N 
ATOM      3  H2  UNL     1      87.975  73.394  30.111  1.00  0.00     0.172 HD
HETATM    4  C6  UNL     1      86.691  74.948  30.446  1.00  0.00     0.328 A 
HETATM    5  O2  UNL     1      87.537  75.834  30.153  1.00  0.00    -0.247 OA
HETATM    6  N3  UNL     1      85.458  75.324  30.810  1.00  0.00    -0.274 N 
ATOM      7  H3  UNL     1      85.192  76.309  30.855  1.00  0.00     0.173 HD
HETATM    8  C7  UNL     1      84.593  74.356  31.111  1.00  0.00     0.274 A 
HETATM    9  O3  UNL     1      83.424  74.709  31.456  1.00  0.00    -0.266 OA
HETATM   10  C8  UNL     1      84.898  73.016  31.067  1.00  0.00     0.156 A 
HETATM   11  C9  UNL     1      83.896  72.025  31.411  1.00  0.00     0.109 C 
HETATM   12  N4  UNL     1      83.092  71.229  31.669  1.00  0.00    -0.191 NA
ENDROOT
BRANCH   1  13
HETATM   13  N1  UNL     1      86.510  71.263  30.638  1.00  0.00    -0.310 N 
HETATM   14  C4  UNL     1      87.579  70.599  31.244  1.00  0.00     0.242 C 
HETATM   15  O1  UNL     1      88.452  71.127  31.950  1.00  0.00    -0.271 OA
ATOM     16  H1  UNL     1      85.879  70.679  30.089  1.00  0.00     0.170 HD
BRANCH  14  17
HETATM   17  C2  UNL     1      87.716  69.121  31.052  1.00  0.00     0.092 C 
HETATM   18  C1  UNL     1      88.526  68.765  29.842  1.00  0.00     0.038 C 
HETATM   19  C3  UNL     1      86.326  68.518  30.849  1.00  0.00     0.038 C 
HETATM   20  S1  UNL     1      88.480  68.354  32.501  1.00  0.00    -0.077 SA
ENDBRANCH  14  17
ENDBRANCH   1  13
TORSDOF 2
ENDMDL
