MODEL 1
REMARK VINA RESULT: -6.257447518      0.000      0.000
REMARK  3 active torsions:
REMARK  status: ('A' for Active; 'I' for Inactive)
REMARK    1  A    between atoms: N1_3  and  C3_5 
REMARK    2  A    between atoms: C3_5  and  C6_8 
REMARK    3  A    between atoms: C8_13  and  C9_14 
ROOT
HETATM    1  C1  UNL     1      82.661  72.321  32.983  1.00  0.00     0.037 C 
HETATM    2  C2  UNL     1      83.506  73.111  32.612  1.00  0.00    -0.005 C 
HETATM    3  N1  UNL     1      84.473  74.025  32.173  1.00  0.00    -0.341 N 
ATOM      4  H1  UNL     1      84.662  74.861  32.726  1.00  0.00     0.170 HD
ENDROOT
BRANCH   3   5
HETATM    5  C3  UNL     1      85.206  73.800  30.949  1.00  0.00     0.044 C 
HETATM    6  C4  UNL     1      84.693  72.520  30.280  1.00  0.00     0.039 C 
HETATM    7  C5  UNL     1      84.948  74.924  30.011  1.00  0.00     0.039 C 
BRANCH   5   8
HETATM    8  C6  UNL     1      86.647  73.576  31.273  1.00  0.00     0.101 C 
HETATM    9  C7  UNL     1      87.602  74.392  30.476  1.00  0.00     0.251 C 
HETATM   10  N2  UNL     1      88.698  73.605  29.942  1.00  0.00    -0.062 N 
HETATM   11  C8  UNL     1      89.518  73.023  30.966  1.00  0.00     0.261 C 
ATOM     12  H22 UNL     1      88.355  72.890  29.300  1.00  0.00     0.278 HD
ATOM     13  H21 UNL     1      89.260  74.155  29.293  1.00  0.00     0.278 HD
HETATM   14  C12 UNL     1      88.894  71.804  31.602  1.00  0.00     0.115 C 
HETATM   15  S1  UNL     1      87.127  71.831  31.143  1.00  0.00    -0.158 SA
BRANCH  11  16
HETATM   16  C9  UNL     1      90.816  72.595  30.344  1.00  0.00     0.105 C 
HETATM   17  N3  UNL     1      91.983  72.588  30.853  1.00  0.00    -0.377 N 
HETATM   18  C10 UNL     1      92.999  72.104  29.947  1.00  0.00     0.140 C 
ATOM     19  H3  UNL     1      92.182  72.893  31.806  1.00  0.00     0.160 HD
HETATM   20  C11 UNL     1      92.226  71.468  28.845  1.00  0.00     0.140 C 
HETATM   21  N4  UNL     1      90.914  72.105  29.013  1.00  0.00    -0.377 N 
ATOM     22  H4  UNL     1      90.193  72.182  28.295  1.00  0.00     0.160 HD
ENDBRANCH  11  16
ENDBRANCH   5   8
ENDBRANCH   3   5
TORSDOF 3
ENDMDL
MODEL 2
REMARK VINA RESULT: -6.094335499      0.969      1.238
REMARK  3 active torsions:
REMARK  status: ('A' for Active; 'I' for Inactive)
REMARK    1  A    between atoms: N1_3  and  C3_5 
REMARK    2  A    between atoms: C3_5  and  C6_8 
REMARK    3  A    between atoms: C8_13  and  C9_14 
ROOT
HETATM    1  C1  UNL     1      82.183  71.479  32.247  1.00  0.00     0.037 C 
HETATM    2  C2  UNL     1      83.119  71.873  31.581  1.00  0.00    -0.005 C 
HETATM    3  N1  UNL     1      84.207  72.324  30.823  1.00  0.00    -0.341 N 
ATOM      4  H1  UNL     1      84.507  71.790  30.006  1.00  0.00     0.170 HD
ENDROOT
BRANCH   3   5
HETATM    5  C3  UNL     1      84.910  73.535  31.179  1.00  0.00     0.044 C 
HETATM    6  C4  UNL     1      84.765  74.555  30.046  1.00  0.00     0.039 C 
HETATM    7  C5  UNL     1      84.283  74.125  32.391  1.00  0.00     0.039 C 
BRANCH   5   8
HETATM    8  C6  UNL     1      86.367  73.235  31.314  1.00  0.00     0.101 C 
HETATM    9  C7  UNL     1      87.265  74.140  30.548  1.00  0.00     0.251 C 
HETATM   10  N2  UNL     1      88.273  73.418  29.794  1.00  0.00    -0.062 N 
HETATM   11  C8  UNL     1      89.171  72.675  30.630  1.00  0.00     0.261 C 
ATOM     12  H22 UNL     1      87.841  72.813  29.094  1.00  0.00     0.278 HD
ATOM     13  H21 UNL     1      88.786  74.046  29.175  1.00  0.00     0.278 HD
HETATM   14  C12 UNL     1      88.571  71.388  31.145  1.00  0.00     0.115 C 
HETATM   15  S1  UNL     1      86.769  71.519  30.883  1.00  0.00    -0.158 SA
BRANCH  11  16
HETATM   16  C9  UNL     1      90.384  72.315  29.820  1.00  0.00     0.105 C 
HETATM   17  N3  UNL     1      91.596  72.661  29.997  1.00  0.00    -0.377 N 
HETATM   18  C10 UNL     1      92.496  72.117  29.007  1.00  0.00     0.140 C 
ATOM     19  H3  UNL     1      91.901  73.260  30.763  1.00  0.00     0.160 HD
HETATM   20  C11 UNL     1      91.693  71.063  28.329  1.00  0.00     0.140 C 
HETATM   21  N4  UNL     1      90.328  71.482  28.668  1.00  0.00    -0.377 N 
ATOM     22  H4  UNL     1      89.481  71.220  28.163  1.00  0.00     0.160 HD
ENDBRANCH  11  16
ENDBRANCH   5   8
ENDBRANCH   3   5
TORSDOF 3
ENDMDL
MODEL 3
REMARK VINA RESULT: -6.051174910      1.442      6.853
REMARK  3 active torsions:
REMARK  status: ('A' for Active; 'I' for Inactive)
REMARK    1  A    between atoms: N1_3  and  C3_5 
REMARK    2  A    between atoms: C3_5  and  C6_8 
REMARK    3  A    between atoms: C8_13  and  C9_14 
ROOT
HETATM    1  C1  UNL     1      93.622  71.833  29.700  1.00  0.00     0.037 C 
HETATM    2  C2  UNL     1      92.460  72.174  29.623  1.00  0.00    -0.005 C 
HETATM    3  N1  UNL     1      91.122  72.581  29.542  1.00  0.00    -0.341 N 
ATOM      4  H1  UNL     1      90.708  72.768  28.628  1.00  0.00     0.170 HD
ENDROOT
BRANCH   3   5
HETATM    5  C3  UNL     1      90.319  72.739  30.733  1.00  0.00     0.044 C 
HETATM    6  C4  UNL     1      90.667  71.626  31.727  1.00  0.00     0.039 C 
HETATM    7  C5  UNL     1      90.655  74.033  31.380  1.00  0.00     0.039 C 
BRANCH   5   8
HETATM    8  C6  UNL     1      88.877  72.574  30.379  1.00  0.00     0.101 C 
HETATM    9  C7  UNL     1      87.999  73.700  30.793  1.00  0.00     0.251 C 
HETATM   10  N2  UNL     1      86.790  73.250  31.457  1.00  0.00    -0.062 N 
HETATM   11  C8  UNL     1      85.948  72.456  30.608  1.00  0.00     0.261 C 
ATOM     12  H22 UNL     1      87.011  72.752  32.319  1.00  0.00     0.278 HD
ATOM     13  H21 UNL     1      86.274  74.037  31.849  1.00  0.00     0.278 HD
HETATM   14  C12 UNL     1      86.441  71.038  30.447  1.00  0.00     0.115 C 
HETATM   15  S1  UNL     1      88.176  71.027  31.018  1.00  0.00    -0.158 SA
BRANCH  11  16
HETATM   16  C9  UNL     1      84.581  72.392  31.224  1.00  0.00     0.105 C 
HETATM   17  N3  UNL     1      83.736  71.441  31.199  1.00  0.00    -0.377 N 
HETATM   18  C10 UNL     1      82.514  71.742  31.908  1.00  0.00     0.140 C 
ATOM     19  H3  UNL     1      83.904  70.553  30.726  1.00  0.00     0.160 HD
HETATM   20  C11 UNL     1      82.847  72.957  32.701  1.00  0.00     0.140 C 
HETATM   21  N4  UNL     1      84.015  73.463  31.970  1.00  0.00    -0.377 N 
ATOM     22  H4  UNL     1      84.362  74.422  31.992  1.00  0.00     0.160 HD
ENDBRANCH  11  16
ENDBRANCH   5   8
ENDBRANCH   3   5
TORSDOF 3
ENDMDL
MODEL 4
REMARK VINA RESULT: -6.033326045      1.395      6.633
REMARK  3 active torsions:
REMARK  status: ('A' for Active; 'I' for Inactive)
REMARK    1  A    between atoms: N1_3  and  C3_5 
REMARK    2  A    between atoms: C3_5  and  C6_8 
REMARK    3  A    between atoms: C8_13  and  C9_14 
ROOT
HETATM    1  C1  UNL     1      91.056  70.060  27.546  1.00  0.00     0.037 C 
HETATM    2  C2  UNL     1      91.195  71.037  28.253  1.00  0.00    -0.005 C 
HETATM    3  N1  UNL     1      91.362  72.157  29.078  1.00  0.00    -0.341 N 
ATOM      4  H1  UNL     1      91.957  72.926  28.767  1.00  0.00     0.170 HD
ENDROOT
BRANCH   3   5
HETATM    5  C3  UNL     1      90.705  72.239  30.362  1.00  0.00     0.044 C 
HETATM    6  C4  UNL     1      90.918  70.926  31.122  1.00  0.00     0.039 C 
HETATM    7  C5  UNL     1      91.332  73.322  31.163  1.00  0.00     0.039 C 
BRANCH   5   8
HETATM    8  C6  UNL     1      89.234  72.389  30.153  1.00  0.00     0.101 C 
HETATM    9  C7  UNL     1      88.658  73.667  30.651  1.00  0.00     0.251 C 
HETATM   10  N2  UNL     1      87.451  73.468  31.431  1.00  0.00    -0.062 N 
HETATM   11  C8  UNL     1      86.383  72.887  30.670  1.00  0.00     0.261 C 
ATOM     12  H22 UNL     1      87.645  72.917  32.267  1.00  0.00     0.278 HD
ATOM     13  H21 UNL     1      87.154  74.338  31.871  1.00  0.00     0.278 HD
HETATM   14  C12 UNL     1      86.546  71.400  30.461  1.00  0.00     0.115 C 
HETATM   15  S1  UNL     1      88.286  71.012  30.858  1.00  0.00    -0.158 SA
BRANCH  11  16
HETATM   16  C9  UNL     1      85.098  73.100  31.418  1.00  0.00     0.105 C 
HETATM   17  N3  UNL     1      84.681  74.147  32.009  1.00  0.00    -0.377 N 
HETATM   18  C10 UNL     1      83.386  73.977  32.628  1.00  0.00     0.140 C 
ATOM     19  H3  UNL     1      85.207  75.020  32.042  1.00  0.00     0.160 HD
HETATM   20  C11 UNL     1      82.870  72.710  32.041  1.00  0.00     0.140 C 
HETATM   21  N4  UNL     1      84.113  72.086  31.572  1.00  0.00    -0.377 N 
ATOM     22  H4  UNL     1      84.248  71.091  31.386  1.00  0.00     0.160 HD
ENDBRANCH  11  16
ENDBRANCH   5   8
ENDBRANCH   3   5
TORSDOF 3
ENDMDL
MODEL 5
REMARK VINA RESULT: -6.005626598      2.130      6.798
REMARK  3 active torsions:
REMARK  status: ('A' for Active; 'I' for Inactive)
REMARK    1  A    between atoms: N1_3  and  C3_5 
REMARK    2  A    between atoms: C3_5  and  C6_8 
REMARK    3  A    between atoms: C8_13  and  C9_14 
ROOT
HETATM    1  C1  UNL     1      93.704  68.522  32.357  1.00  0.00     0.037 C 
HETATM    2  C2  UNL     1      92.966  69.276  31.755  1.00  0.00    -0.005 C 
HETATM    3  N1  UNL     1      92.127  70.152  31.055  1.00  0.00    -0.341 N 
ATOM      4  H1  UNL     1      91.514  69.786  30.325  1.00  0.00     0.170 HD
ENDROOT
BRANCH   3   5
HETATM    5  C3  UNL     1      92.115  71.565  31.351  1.00  0.00     0.044 C 
HETATM    6  C4  UNL     1      91.919  71.764  32.858  1.00  0.00     0.039 C 
HETATM    7  C5  UNL     1      93.433  72.151  30.994  1.00  0.00     0.039 C 
BRANCH   5   8
HETATM    8  C6  UNL     1      90.946  72.200  30.671  1.00  0.00     0.101 C 
HETATM    9  C7  UNL     1      90.533  73.514  31.233  1.00  0.00     0.251 C 
HETATM   10  N2  UNL     1      89.101  73.602  31.450  1.00  0.00    -0.062 N 
HETATM   11  C8  UNL     1      88.344  73.499  30.235  1.00  0.00     0.261 C 
ATOM     12  H22 UNL     1      88.792  72.910  32.132  1.00  0.00     0.278 HD
ATOM     13  H21 UNL     1      88.860  74.453  31.958  1.00  0.00     0.278 HD
HETATM   14  C12 UNL     1      88.226  72.080  29.732  1.00  0.00     0.115 C 
HETATM   15  S1  UNL     1      89.496  71.111  30.617  1.00  0.00    -0.158 SA
BRANCH  11  16
HETATM   16  C9  UNL     1      86.955  74.003  30.499  1.00  0.00     0.105 C 
HETATM   17  N3  UNL     1      86.167  74.625  29.715  1.00  0.00    -0.377 N 
HETATM   18  C10 UNL     1      84.898  74.954  30.323  1.00  0.00     0.140 C 
ATOM     19  H3  UNL     1      86.407  74.866  28.754  1.00  0.00     0.160 HD
HETATM   20  C11 UNL     1      84.867  74.127  31.561  1.00  0.00     0.140 C 
HETATM   21  N4  UNL     1      86.293  73.837  31.747  1.00  0.00    -0.377 N 
ATOM     22  H4  UNL     1      86.736  73.561  32.624  1.00  0.00     0.160 HD
ENDBRANCH  11  16
ENDBRANCH   5   8
ENDBRANCH   3   5
TORSDOF 3
ENDMDL
