MODEL 1
REMARK VINA RESULT: -6.135376140      0.000      0.000
REMARK  6 active torsions:
REMARK  status: ('A' for Active; 'I' for Inactive)
REMARK    1  A    between atoms: C2_2  and  N1_4 
REMARK    2  A    between atoms: N1_4  and  C4_6 
REMARK    3  A    between atoms: C4_6  and  O1_8 
REMARK    4  A    between atoms: O1_8  and  C5_9 
REMARK    5  A    between atoms: C8_14  and  C9_15 
REMARK       I    between atoms: C9_15  and  N3_17 
REMARK    6  A    between atoms: N3_17  and  N4_19 
ROOT
HETATM    1  C5  UNL     1      86.911  71.714  30.585  1.00  0.00     0.135 C 
HETATM    2  C6  UNL     1      88.274  71.106  30.845  1.00  0.00     0.051 C 
HETATM    3  C7  UNL     1      89.299  71.956  30.179  1.00  0.00     0.117 C 
HETATM    4  N2  UNL     1      88.734  72.926  29.289  1.00  0.00    -0.409 N 
ATOM      5  H2  UNL     1      88.962  72.950  28.295  1.00  0.00     0.154 HD
HETATM    6  C8  UNL     1      87.835  73.850  29.881  1.00  0.00     0.173 C 
HETATM    7  C10 UNL     1      86.982  73.162  30.932  1.00  0.00     0.067 C 
ENDROOT
BRANCH   1   8
HETATM    8  O1  UNL     1      85.970  70.987  31.344  1.00  0.00    -0.322 OA
BRANCH   8   9
HETATM    9  C4  UNL     1      84.773  70.696  30.652  1.00  0.00     0.210 C 
HETATM   10  S1  UNL     1      84.872  69.756  29.321  1.00  0.00    -0.033 SA
BRANCH   9  11
HETATM   11  N1  UNL     1      83.529  71.200  31.098  1.00  0.00    -0.358 N 
ATOM     12  H1  UNL     1      82.654  70.845  30.714  1.00  0.00     0.162 HD
BRANCH  11  13
HETATM   13  C2  UNL     1      83.530  72.232  32.112  1.00  0.00     0.076 C 
HETATM   14  C1  UNL     1      83.379  73.611  31.500  1.00  0.00     0.032 C 
HETATM   15  C3  UNL     1      82.400  71.961  33.063  1.00  0.00     0.032 C 
ENDBRANCH  11  13
ENDBRANCH   9  11
ENDBRANCH   8   9
ENDBRANCH   1   8
BRANCH   6  16
HETATM   16  C9  UNL     1      88.502  75.067  30.420  1.00  0.00     0.258 C 
HETATM   17  O2  UNL     1      87.980  76.193  30.238  1.00  0.00    -0.270 OA
HETATM   18  N3  UNL     1      89.718  75.009  31.140  1.00  0.00    -0.275 N 
ATOM     19  H3  UNL     1      90.164  74.107  31.303  1.00  0.00     0.189 HD
BRANCH  18  20
HETATM   20  N4  UNL     1      90.309  76.165  31.628  1.00  0.00    -0.343 N 
ATOM     21  H42 UNL     1      89.734  77.001  31.734  1.00  0.00     0.176 HD
ATOM     22  H41 UNL     1      91.299  76.180  31.876  1.00  0.00     0.176 HD
ENDBRANCH  18  20
ENDBRANCH   6  16
TORSDOF 6
ENDMDL
MODEL 2
REMARK VINA RESULT: -6.128740638      2.030      3.079
REMARK  6 active torsions:
REMARK  status: ('A' for Active; 'I' for Inactive)
REMARK    1  A    between atoms: C2_2  and  N1_4 
REMARK    2  A    between atoms: N1_4  and  C4_6 
REMARK    3  A    between atoms: C4_6  and  O1_8 
REMARK    4  A    between atoms: O1_8  and  C5_9 
REMARK    5  A    between atoms: C8_14  and  C9_15 
REMARK       I    between atoms: C9_15  and  N3_17 
REMARK    6  A    between atoms: N3_17  and  N4_19 
ROOT
HETATM    1  C5  UNL     1      84.287  72.168  31.187  1.00  0.00     0.135 C 
HETATM    2  C6  UNL     1      83.483  73.442  31.344  1.00  0.00     0.051 C 
HETATM    3  C7  UNL     1      84.401  74.521  31.802  1.00  0.00     0.117 C 
HETATM    4  N2  UNL     1      85.685  74.032  32.210  1.00  0.00    -0.409 N 
ATOM      5  H2  UNL     1      86.046  74.174  33.154  1.00  0.00     0.154 HD
HETATM    6  C8  UNL     1      86.419  73.337  31.215  1.00  0.00     0.173 C 
HETATM    7  C10 UNL     1      85.492  72.485  30.367  1.00  0.00     0.067 C 
ENDROOT
BRANCH   1   8
HETATM    8  O1  UNL     1      83.439  71.199  30.612  1.00  0.00    -0.322 OA
BRANCH   8   9
HETATM    9  C4  UNL     1      83.377  69.986  31.335  1.00  0.00     0.210 C 
HETATM   10  S1  UNL     1      84.574  68.902  31.108  1.00  0.00    -0.033 SA
BRANCH   9  11
HETATM   11  N1  UNL     1      82.312  69.722  32.229  1.00  0.00    -0.358 N 
ATOM     12  H1  UNL     1      81.948  68.776  32.341  1.00  0.00     0.162 HD
BRANCH  11  13
HETATM   13  C2  UNL     1      81.754  70.826  32.979  1.00  0.00     0.076 C 
HETATM   14  C1  UNL     1      80.248  70.707  33.100  1.00  0.00     0.032 C 
HETATM   15  C3  UNL     1      82.385  70.839  34.341  1.00  0.00     0.032 C 
ENDBRANCH  11  13
ENDBRANCH   9  11
ENDBRANCH   8   9
ENDBRANCH   1   8
BRANCH   6  16
HETATM   16  C9  UNL     1      87.275  74.223  30.379  1.00  0.00     0.258 C 
HETATM   17  O2  UNL     1      87.470  73.940  29.173  1.00  0.00    -0.270 OA
HETATM   18  N3  UNL     1      87.889  75.389  30.894  1.00  0.00    -0.275 N 
ATOM     19  H3  UNL     1      87.749  75.642  31.871  1.00  0.00     0.189 HD
BRANCH  18  20
HETATM   20  N4  UNL     1      88.680  76.191  30.084  1.00  0.00    -0.343 N 
ATOM     21  H42 UNL     1      88.676  76.024  29.077  1.00  0.00     0.176 HD
ATOM     22  H41 UNL     1      89.254  76.932  30.485  1.00  0.00     0.176 HD
ENDBRANCH  18  20
ENDBRANCH   6  16
TORSDOF 6
ENDMDL
MODEL 3
REMARK VINA RESULT: -6.124603798      2.541      3.774
REMARK  6 active torsions:
REMARK  status: ('A' for Active; 'I' for Inactive)
REMARK    1  A    between atoms: C2_2  and  N1_4 
REMARK    2  A    between atoms: N1_4  and  C4_6 
REMARK    3  A    between atoms: C4_6  and  O1_8 
REMARK    4  A    between atoms: O1_8  and  C5_9 
REMARK    5  A    between atoms: C8_14  and  C9_15 
REMARK       I    between atoms: C9_15  and  N3_17 
REMARK    6  A    between atoms: N3_17  and  N4_19 
ROOT
HETATM    1  C5  UNL     1      84.264  72.000  31.284  1.00  0.00     0.135 C 
HETATM    2  C6  UNL     1      83.154  72.986  31.585  1.00  0.00     0.051 C 
HETATM    3  C7  UNL     1      83.760  74.197  32.204  1.00  0.00     0.117 C 
HETATM    4  N2  UNL     1      85.131  74.011  32.578  1.00  0.00    -0.409 N 
ATOM      5  H2  UNL     1      85.450  74.116  33.541  1.00  0.00     0.154 HD
HETATM    6  C8  UNL     1      86.013  73.672  31.521  1.00  0.00     0.173 C 
HETATM    7  C10 UNL     1      85.335  72.727  30.545  1.00  0.00     0.067 C 
ENDROOT
BRANCH   1   8
HETATM    8  O1  UNL     1      83.696  70.927  30.566  1.00  0.00    -0.322 OA
BRANCH   8   9
HETATM    9  C4  UNL     1      84.068  69.651  31.045  1.00  0.00     0.210 C 
HETATM   10  S1  UNL     1      85.477  69.021  30.518  1.00  0.00    -0.033 SA
BRANCH   9  11
HETATM   11  N1  UNL     1      83.247  68.944  31.954  1.00  0.00    -0.358 N 
ATOM     12  H1  UNL     1      82.735  69.435  32.686  1.00  0.00     0.162 HD
BRANCH  11  13
HETATM   13  C2  UNL     1      83.152  67.507  31.820  1.00  0.00     0.076 C 
HETATM   14  C1  UNL     1      83.695  66.798  33.046  1.00  0.00     0.032 C 
HETATM   15  C3  UNL     1      81.710  67.146  31.609  1.00  0.00     0.032 C 
ENDBRANCH  11  13
ENDBRANCH   9  11
ENDBRANCH   8   9
ENDBRANCH   1   8
BRANCH   6  16
HETATM   16  C9  UNL     1      86.598  74.854  30.830  1.00  0.00     0.258 C 
HETATM   17  O2  UNL     1      85.841  75.695  30.289  1.00  0.00    -0.270 OA
HETATM   18  N3  UNL     1      87.994  75.073  30.755  1.00  0.00    -0.275 N 
ATOM     19  H3  UNL     1      88.633  74.405  31.186  1.00  0.00     0.189 HD
BRANCH  18  20
HETATM   20  N4  UNL     1      88.503  76.186  30.104  1.00  0.00    -0.343 N 
ATOM     21  H42 UNL     1      88.097  76.457  29.207  1.00  0.00     0.176 HD
ATOM     22  H41 UNL     1      89.268  76.725  30.511  1.00  0.00     0.176 HD
ENDBRANCH  18  20
ENDBRANCH   6  16
TORSDOF 6
ENDMDL
MODEL 4
REMARK VINA RESULT: -6.100549190      2.367      3.955
REMARK  6 active torsions:
REMARK  status: ('A' for Active; 'I' for Inactive)
REMARK    1  A    between atoms: C2_2  and  N1_4 
REMARK    2  A    between atoms: N1_4  and  C4_6 
REMARK    3  A    between atoms: C4_6  and  O1_8 
REMARK    4  A    between atoms: O1_8  and  C5_9 
REMARK    5  A    between atoms: C8_14  and  C9_15 
REMARK       I    between atoms: C9_15  and  N3_17 
REMARK    6  A    between atoms: N3_17  and  N4_19 
ROOT
HETATM    1  C5  UNL     1      84.168  72.033  31.304  1.00  0.00     0.135 C 
HETATM    2  C6  UNL     1      83.096  73.044  31.653  1.00  0.00     0.051 C 
HETATM    3  C7  UNL     1      83.755  74.230  32.267  1.00  0.00     0.117 C 
HETATM    4  N2  UNL     1      85.131  74.001  32.595  1.00  0.00    -0.409 N 
ATOM      5  H2  UNL     1      85.484  74.084  33.549  1.00  0.00     0.154 HD
HETATM    6  C8  UNL     1      85.970  73.652  31.506  1.00  0.00     0.173 C 
HETATM    7  C10 UNL     1      85.235  72.740  30.540  1.00  0.00     0.067 C 
ENDROOT
BRANCH   1   8
HETATM    8  O1  UNL     1      83.547  70.986  30.590  1.00  0.00    -0.322 OA
BRANCH   8   9
HETATM    9  C4  UNL     1      83.832  69.697  31.094  1.00  0.00     0.210 C 
HETATM   10  S1  UNL     1      82.745  69.016  32.103  1.00  0.00    -0.033 SA
BRANCH   9  11
HETATM   11  N1  UNL     1      85.019  69.017  30.735  1.00  0.00    -0.358 N 
ATOM     12  H1  UNL     1      85.786  68.919  31.400  1.00  0.00     0.162 HD
BRANCH  11  13
HETATM   13  C2  UNL     1      85.119  68.464  29.402  1.00  0.00     0.076 C 
HETATM   14  C1  UNL     1      85.970  69.338  28.502  1.00  0.00     0.032 C 
HETATM   15  C3  UNL     1      85.713  67.089  29.503  1.00  0.00     0.032 C 
ENDBRANCH  11  13
ENDBRANCH   9  11
ENDBRANCH   8   9
ENDBRANCH   1   8
BRANCH   6  16
HETATM   16  C9  UNL     1      86.566  74.827  30.812  1.00  0.00     0.258 C 
HETATM   17  O2  UNL     1      85.817  75.666  30.257  1.00  0.00    -0.270 OA
HETATM   18  N3  UNL     1      87.963  75.042  30.751  1.00  0.00    -0.275 N 
ATOM     19  H3  UNL     1      88.595  74.375  31.193  1.00  0.00     0.189 HD
BRANCH  18  20
HETATM   20  N4  UNL     1      88.483  76.148  30.095  1.00  0.00    -0.343 N 
ATOM     21  H42 UNL     1      89.477  76.353  30.196  1.00  0.00     0.176 HD
ATOM     22  H41 UNL     1      87.884  76.745  29.525  1.00  0.00     0.176 HD
ENDBRANCH  18  20
ENDBRANCH   6  16
TORSDOF 6
ENDMDL
MODEL 5
REMARK VINA RESULT: -6.042765239      2.215      3.280
REMARK  6 active torsions:
REMARK  status: ('A' for Active; 'I' for Inactive)
REMARK    1  A    between atoms: C2_2  and  N1_4 
REMARK    2  A    between atoms: N1_4  and  C4_6 
REMARK    3  A    between atoms: C4_6  and  O1_8 
REMARK    4  A    between atoms: O1_8  and  C5_9 
REMARK    5  A    between atoms: C8_14  and  C9_15 
REMARK       I    between atoms: C9_15  and  N3_17 
REMARK    6  A    between atoms: N3_17  and  N4_19 
ROOT
HETATM    1  C5  UNL     1      84.698  71.925  31.115  1.00  0.00     0.135 C 
HETATM    2  C6  UNL     1      83.540  72.848  31.430  1.00  0.00     0.051 C 
HETATM    3  C7  UNL     1      84.081  74.069  32.089  1.00  0.00     0.117 C 
HETATM    4  N2  UNL     1      85.455  73.938  32.473  1.00  0.00    -0.409 N 
ATOM      5  H2  UNL     1      85.759  74.030  33.443  1.00  0.00     0.154 HD
HETATM    6  C8  UNL     1      86.363  73.670  31.418  1.00  0.00     0.173 C 
HETATM    7  C10 UNL     1      85.741  72.722  30.408  1.00  0.00     0.067 C 
ENDROOT
BRANCH   1   8
HETATM    8  O1  UNL     1      84.189  70.847  30.360  1.00  0.00    -0.322 OA
BRANCH   8   9
HETATM    9  C4  UNL     1      84.541  69.574  30.863  1.00  0.00     0.210 C 
HETATM   10  S1  UNL     1      85.990  68.960  30.433  1.00  0.00    -0.033 SA
BRANCH   9  11
HETATM   11  N1  UNL     1      83.667  68.857  31.713  1.00  0.00    -0.358 N 
ATOM     12  H1  UNL     1      84.025  68.350  32.521  1.00  0.00     0.162 HD
BRANCH  11  13
HETATM   13  C2  UNL     1      82.253  68.861  31.407  1.00  0.00     0.076 C 
HETATM   14  C1  UNL     1      81.657  67.473  31.523  1.00  0.00     0.032 C 
HETATM   15  C3  UNL     1      81.567  69.801  32.356  1.00  0.00     0.032 C 
ENDBRANCH  11  13
ENDBRANCH   9  11
ENDBRANCH   8   9
ENDBRANCH   1   8
BRANCH   6  16
HETATM   16  C9  UNL     1      86.899  74.897  30.767  1.00  0.00     0.258 C 
HETATM   17  O2  UNL     1      86.107  75.729  30.262  1.00  0.00    -0.270 OA
HETATM   18  N3  UNL     1      88.285  75.172  30.691  1.00  0.00    -0.275 N 
ATOM     19  H3  UNL     1      88.951  74.513  31.092  1.00  0.00     0.189 HD
BRANCH  18  20
HETATM   20  N4  UNL     1      88.747  76.326  30.077  1.00  0.00    -0.343 N 
ATOM     21  H42 UNL     1      88.781  77.189  30.621  1.00  0.00     0.176 HD
ATOM     22  H41 UNL     1      89.048  76.315  29.102  1.00  0.00     0.176 HD
ENDBRANCH  18  20
ENDBRANCH   6  16
TORSDOF 6
ENDMDL
