MODEL 1
REMARK VINA RESULT: -6.572260877      0.000      0.000
REMARK  4 active torsions:
REMARK  status: ('A' for Active; 'I' for Inactive)
REMARK    1  A    between atoms: N3_9  and  N4_10 
REMARK    2  A    between atoms: N4_10  and  N5_11 
REMARK    3  A    between atoms: N5_11  and  C5_12 
REMARK    4  A    between atoms: C8_15  and  N6_16 
ROOT
HETATM    1  N4  UNL     1      87.211  73.179  29.954  1.00  0.00    -0.027 NA
ENDROOT
BRANCH   1   2
HETATM    2  N3  UNL     1      86.098  72.764  30.685  1.00  0.00    -0.266 N 
HETATM    3  C4  UNL     1      85.550  73.766  31.518  1.00  0.00     0.091 C 
HETATM    4  C3  UNL     1      84.415  73.687  32.461  1.00  0.00     0.096 C 
HETATM    5  N2  UNL     1      86.122  74.905  31.442  1.00  0.00    -0.388 N 
HETATM    6  C2  UNL     1      83.278  72.971  31.717  1.00  0.00     0.124 C 
HETATM    7  N1  UNL     1      83.647  71.601  31.614  1.00  0.00    -0.415 N 
HETATM    8  C1  UNL     1      82.715  70.680  32.176  1.00  0.00     0.143 C 
HETATM    9  C12 UNL     1      84.209  71.218  30.363  1.00  0.00     0.137 C 
HETATM   10  C11 UNL     1      85.717  71.387  30.451  1.00  0.00     0.167 C 
ATOM     11  H22 UNL     1      85.726  75.627  32.043  1.00  0.00     0.157 HD
ATOM     12  H21 UNL     1      86.905  74.960  30.792  1.00  0.00     0.157 HD
ENDBRANCH   1   2
BRANCH   1  13
HETATM   13  N5  UNL     1      87.942  72.105  29.430  1.00  0.00    -0.121 NA
BRANCH  13  14
HETATM   14  C5  UNL     1      89.339  72.435  29.559  1.00  0.00     0.097 C 
HETATM   15  C6  UNL     1      89.748  72.814  30.946  1.00  0.00     0.025 C 
HETATM   16  C7  UNL     1      91.193  73.221  30.937  1.00  0.00     0.034 C 
HETATM   17  C8  UNL     1      92.094  72.247  30.253  1.00  0.00     0.183 C 
HETATM   18  C9  UNL     1      91.597  71.808  28.909  1.00  0.00     0.034 C 
HETATM   19  C10 UNL     1      90.180  71.257  29.121  1.00  0.00     0.025 C 
BRANCH  17  20
HETATM   20  N6  UNL     1      92.393  71.110  31.103  1.00  0.00    -0.075 N 
ATOM     21  H63 UNL     1      91.684  70.987  31.826  1.00  0.00     0.274 HD
ATOM     22  H62 UNL     1      92.266  70.229  30.605  1.00  0.00     0.274 HD
ATOM     23  H61 UNL     1      93.327  71.179  31.506  1.00  0.00     0.274 HD
ENDBRANCH  17  20
ENDBRANCH  13  14
ENDBRANCH   1  13
TORSDOF 4
ENDMDL
MODEL 2
REMARK VINA RESULT: -6.564494288      1.628      6.698
REMARK  4 active torsions:
REMARK  status: ('A' for Active; 'I' for Inactive)
REMARK    1  A    between atoms: N3_9  and  N4_10 
REMARK    2  A    between atoms: N4_10  and  N5_11 
REMARK    3  A    between atoms: N5_11  and  C5_12 
REMARK    4  A    between atoms: C8_15  and  N6_16 
ROOT
HETATM    1  N4  UNL     1      87.845  72.565  31.612  1.00  0.00    -0.027 NA
ENDROOT
BRANCH   1   2
HETATM    2  N3  UNL     1      89.143  72.084  31.440  1.00  0.00    -0.266 N 
HETATM    3  C4  UNL     1      89.643  72.236  30.126  1.00  0.00     0.091 C 
HETATM    4  C3  UNL     1      90.940  71.810  29.559  1.00  0.00     0.096 C 
HETATM    5  N2  UNL     1      88.857  72.827  29.313  1.00  0.00    -0.388 N 
HETATM    6  C2  UNL     1      92.019  72.242  30.563  1.00  0.00     0.124 C 
HETATM    7  N1  UNL     1      91.911  71.377  31.687  1.00  0.00    -0.415 N 
HETATM    8  C1  UNL     1      93.100  70.660  32.015  1.00  0.00     0.143 C 
HETATM    9  C12 UNL     1      91.191  71.908  32.794  1.00  0.00     0.137 C 
HETATM   10  C11 UNL     1      89.729  71.521  32.638  1.00  0.00     0.167 C 
ATOM     11  H22 UNL     1      89.218  72.936  28.365  1.00  0.00     0.157 HD
ATOM     12  H21 UNL     1      87.962  73.121  29.703  1.00  0.00     0.157 HD
ENDBRANCH   1   2
BRANCH   1  13
HETATM   13  N5  UNL     1      86.875  71.687  31.110  1.00  0.00    -0.121 NA
BRANCH  13  14
HETATM   14  C5  UNL     1      85.695  72.466  30.834  1.00  0.00     0.097 C 
HETATM   15  C6  UNL     1      84.473  71.990  31.553  1.00  0.00     0.025 C 
HETATM   16  C7  UNL     1      83.297  72.816  31.120  1.00  0.00     0.034 C 
HETATM   17  C8  UNL     1      83.535  74.289  31.178  1.00  0.00     0.183 C 
HETATM   18  C9  UNL     1      84.822  74.717  30.542  1.00  0.00     0.034 C 
HETATM   19  C10 UNL     1      85.939  73.909  31.216  1.00  0.00     0.025 C 
BRANCH  17  20
HETATM   20  N6  UNL     1      83.423  74.794  32.534  1.00  0.00    -0.075 N 
ATOM     21  H63 UNL     1      82.528  74.541  32.954  1.00  0.00     0.274 HD
ATOM     22  H62 UNL     1      84.044  74.294  33.170  1.00  0.00     0.274 HD
ATOM     23  H61 UNL     1      83.581  75.800  32.573  1.00  0.00     0.274 HD
ENDBRANCH  17  20
ENDBRANCH  13  14
ENDBRANCH   1  13
TORSDOF 4
ENDMDL
MODEL 3
REMARK VINA RESULT: -6.501204989      1.463      6.826
REMARK  4 active torsions:
REMARK  status: ('A' for Active; 'I' for Inactive)
REMARK    1  A    between atoms: N3_9  and  N4_10 
REMARK    2  A    between atoms: N4_10  and  N5_11 
REMARK    3  A    between atoms: N5_11  and  C5_12 
REMARK    4  A    between atoms: C8_15  and  N6_16 
ROOT
HETATM    1  N4  UNL     1      87.544  71.784  31.293  1.00  0.00    -0.027 NA
ENDROOT
BRANCH   1   2
HETATM    2  N3  UNL     1      88.937  71.701  31.271  1.00  0.00    -0.266 N 
HETATM    3  C4  UNL     1      89.517  72.081  30.038  1.00  0.00     0.091 C 
HETATM    4  C3  UNL     1      90.936  72.079  29.628  1.00  0.00     0.096 C 
HETATM    5  N2  UNL     1      88.690  72.484  29.154  1.00  0.00    -0.388 N 
HETATM    6  C2  UNL     1      91.725  72.724  30.777  1.00  0.00     0.124 C 
HETATM    7  N1  UNL     1      91.745  71.785  31.845  1.00  0.00    -0.415 N 
HETATM    8  C1  UNL     1      93.045  71.410  32.296  1.00  0.00     0.143 C 
HETATM    9  C12 UNL     1      90.783  72.012  32.869  1.00  0.00     0.137 C 
HETATM   10  C11 UNL     1      89.522  71.242  32.513  1.00  0.00     0.167 C 
ATOM     11  H22 UNL     1      89.109  72.758  28.265  1.00  0.00     0.157 HD
ATOM     12  H21 UNL     1      87.710  72.486  29.437  1.00  0.00     0.157 HD
ENDBRANCH   1   2
BRANCH   1  13
HETATM   13  N5  UNL     1      87.087  73.087  31.526  1.00  0.00    -0.121 NA
BRANCH  13  14
HETATM   14  C5  UNL     1      85.658  73.079  31.337  1.00  0.00     0.097 C 
HETATM   15  C6  UNL     1      85.063  71.709  31.271  1.00  0.00     0.025 C 
HETATM   16  C7  UNL     1      83.594  71.827  30.983  1.00  0.00     0.034 C 
HETATM   17  C8  UNL     1      82.877  72.790  31.870  1.00  0.00     0.183 C 
HETATM   18  C9  UNL     1      83.560  74.117  31.996  1.00  0.00     0.034 C 
HETATM   19  C10 UNL     1      84.993  73.833  32.466  1.00  0.00     0.025 C 
BRANCH  17  20
HETATM   20  N6  UNL     1      82.600  72.212  33.172  1.00  0.00    -0.075 N 
ATOM     21  H63 UNL     1      82.372  71.221  33.099  1.00  0.00     0.274 HD
ATOM     22  H62 UNL     1      83.448  72.139  33.734  1.00  0.00     0.274 HD
ATOM     23  H61 UNL     1      81.871  72.727  33.663  1.00  0.00     0.274 HD
ENDBRANCH  17  20
ENDBRANCH  13  14
ENDBRANCH   1  13
TORSDOF 4
ENDMDL
MODEL 4
REMARK VINA RESULT: -6.347586837      1.746      6.533
REMARK  4 active torsions:
REMARK  status: ('A' for Active; 'I' for Inactive)
REMARK    1  A    between atoms: N3_9  and  N4_10 
REMARK    2  A    between atoms: N4_10  and  N5_11 
REMARK    3  A    between atoms: N5_11  and  C5_12 
REMARK    4  A    between atoms: C8_15  and  N6_16 
ROOT
HETATM    1  N4  UNL     1      87.281  72.690  31.587  1.00  0.00    -0.027 NA
ENDROOT
BRANCH   1   2
HETATM    2  N3  UNL     1      88.571  72.158  31.566  1.00  0.00    -0.266 N 
HETATM    3  C4  UNL     1      89.567  73.077  31.162  1.00  0.00     0.091 C 
HETATM    4  C3  UNL     1      91.017  72.868  30.975  1.00  0.00     0.096 C 
HETATM    5  N2  UNL     1      89.147  74.259  30.925  1.00  0.00    -0.388 N 
HETATM    6  C2  UNL     1      91.511  72.099  32.209  1.00  0.00     0.124 C 
HETATM    7  N1  UNL     1      91.023  70.768  32.091  1.00  0.00    -0.415 N 
HETATM    8  C1  UNL     1      92.025  69.753  32.112  1.00  0.00     0.143 C 
HETATM    9  C12 UNL     1      89.848  70.485  32.842  1.00  0.00     0.137 C 
HETATM   10  C11 UNL     1      88.643  70.767  31.960  1.00  0.00     0.167 C 
ATOM     11  H22 UNL     1      89.866  74.922  30.634  1.00  0.00     0.157 HD
ATOM     12  H21 UNL     1      88.146  74.404  31.054  1.00  0.00     0.157 HD
ENDBRANCH   1   2
BRANCH   1  13
HETATM   13  N5  UNL     1      86.627  72.566  30.355  1.00  0.00    -0.121 NA
BRANCH  13  14
HETATM   14  C5  UNL     1      85.211  72.569  30.620  1.00  0.00     0.097 C 
HETATM   15  C6  UNL     1      84.662  71.230  31.000  1.00  0.00     0.025 C 
HETATM   16  C7  UNL     1      83.173  71.340  31.161  1.00  0.00     0.034 C 
HETATM   17  C8  UNL     1      82.739  72.474  32.028  1.00  0.00     0.183 C 
HETATM   18  C9  UNL     1      83.391  73.779  31.686  1.00  0.00     0.034 C 
HETATM   19  C10 UNL     1      84.906  73.542  31.737  1.00  0.00     0.025 C 
BRANCH  17  20
HETATM   20  N6  UNL     1      82.893  72.160  33.436  1.00  0.00    -0.075 N 
ATOM     21  H63 UNL     1      83.701  72.637  33.838  1.00  0.00     0.274 HD
ATOM     22  H62 UNL     1      82.158  72.591  33.997  1.00  0.00     0.274 HD
ATOM     23  H61 UNL     1      82.940  71.154  33.593  1.00  0.00     0.274 HD
ENDBRANCH  17  20
ENDBRANCH  13  14
ENDBRANCH   1  13
TORSDOF 4
ENDMDL
MODEL 5
REMARK VINA RESULT: -6.324428229      0.858      1.487
REMARK  4 active torsions:
REMARK  status: ('A' for Active; 'I' for Inactive)
REMARK    1  A    between atoms: N3_9  and  N4_10 
REMARK    2  A    between atoms: N4_10  and  N5_11 
REMARK    3  A    between atoms: N5_11  and  C5_12 
REMARK    4  A    between atoms: C8_15  and  N6_16 
ROOT
HETATM    1  N4  UNL     1      87.257  73.190  30.269  1.00  0.00    -0.027 NA
ENDROOT
BRANCH   1   2
HETATM    2  N3  UNL     1      86.082  72.786  30.904  1.00  0.00    -0.266 N 
HETATM    3  C4  UNL     1      85.414  73.825  31.593  1.00  0.00     0.091 C 
HETATM    4  C3  UNL     1      84.185  73.770  32.410  1.00  0.00     0.096 C 
HETATM    5  N2  UNL     1      85.956  74.976  31.493  1.00  0.00    -0.388 N 
HETATM    6  C2  UNL     1      83.160  72.958  31.604  1.00  0.00     0.124 C 
HETATM    7  N1  UNL     1      83.580  71.600  31.647  1.00  0.00    -0.415 N 
HETATM    8  C1  UNL     1      82.620  70.686  32.173  1.00  0.00     0.143 C 
HETATM    9  C12 UNL     1      84.290  71.149  30.499  1.00  0.00     0.137 C 
HETATM   10  C11 UNL     1      85.773  71.382  30.737  1.00  0.00     0.167 C 
ATOM     11  H22 UNL     1      85.474  75.725  31.990  1.00  0.00     0.157 HD
ATOM     12  H21 UNL     1      86.805  75.014  30.929  1.00  0.00     0.157 HD
ENDBRANCH   1   2
BRANCH   1  13
HETATM   13  N5  UNL     1      88.326  73.344  31.161  1.00  0.00    -0.121 NA
BRANCH  13  14
HETATM   14  C5  UNL     1      89.352  72.413  30.765  1.00  0.00     0.097 C 
HETATM   15  C6  UNL     1      89.242  71.957  29.345  1.00  0.00     0.025 C 
HETATM   16  C7  UNL     1      90.303  70.929  29.077  1.00  0.00     0.034 C 
HETATM   17  C8  UNL     1      91.671  71.342  29.508  1.00  0.00     0.183 C 
HETATM   18  C9  UNL     1      91.724  71.894  30.900  1.00  0.00     0.034 C 
HETATM   19  C10 UNL     1      90.712  73.046  30.957  1.00  0.00     0.025 C 
BRANCH  17  20
HETATM   20  N6  UNL     1      92.278  72.252  28.556  1.00  0.00    -0.075 N 
ATOM     21  H63 UNL     1      92.571  71.766  27.709  1.00  0.00     0.274 HD
ATOM     22  H62 UNL     1      91.585  72.880  28.146  1.00  0.00     0.274 HD
ATOM     23  H61 UNL     1      93.050  72.772  28.973  1.00  0.00     0.274 HD
ENDBRANCH  17  20
ENDBRANCH  13  14
ENDBRANCH   1  13
TORSDOF 4
ENDMDL
