MODEL 1
REMARK VINA RESULT: -8.719753571      0.000      0.000
REMARK  5 active torsions:
REMARK  status: ('A' for Active; 'I' for Inactive)
REMARK    1  A    between atoms: C10_10  and  C11_11 
REMARK    2  A    between atoms: C11_11  and  N1_12 
REMARK    3  A    between atoms: C11_11  and  C12_16 
REMARK    4  A    between atoms: C12_16  and  C13_17 
REMARK    5  A    between atoms: C13_17  and  C14_18 
ROOT
HETATM    1  C1  UNL     1      66.666  46.964  34.562  1.00  0.00     0.015 C 
HETATM    2  C2  UNL     1      67.093  46.345  33.248  1.00  0.00    -0.040 C 
HETATM    3  C3  UNL     1      68.183  45.332  33.579  1.00  0.00     0.009 C 
HETATM    4  C4  UNL     1      67.388  44.044  33.595  1.00  0.00     0.001 C 
HETATM    5  C5  UNL     1      66.542  44.229  32.328  1.00  0.00     0.006 C 
HETATM    6  C6  UNL     1      65.984  45.607  32.582  1.00  0.00    -0.002 C 
HETATM    7  C7  UNL     1      65.423  46.265  31.357  1.00  0.00    -0.006 C 
HETATM    8  C8  UNL     1      64.591  47.428  31.758  1.00  0.00     0.006 C 
HETATM    9  C9  UNL     1      64.606  48.572  30.788  1.00  0.00     0.007 C 
HETATM   10  C10 UNL     1      64.783  48.113  29.355  1.00  0.00     0.016 C 
HETATM   11  C17 UNL     1      66.050  47.365  29.174  1.00  0.00     0.011 C 
HETATM   12  C18 UNL     1      66.490  46.533  30.355  1.00  0.00    -0.010 C 
HETATM   13  C19 UNL     1      67.774  47.040  30.937  1.00  0.00     0.006 C 
HETATM   14  C20 UNL     1      67.716  47.408  32.385  1.00  0.00     0.010 C 
ENDROOT
BRANCH  10  15
HETATM   15  C11 UNL     1      63.562  47.508  28.777  1.00  0.00     0.187 C 
BRANCH  15  16
HETATM   16  N1  UNL     1      63.745  46.169  28.277  1.00  0.00    -0.075 N 
ATOM     17  H13 UNL     1      64.731  45.910  28.304  1.00  0.00     0.274 HD
ATOM     18  H12 UNL     1      63.368  45.488  28.937  1.00  0.00     0.274 HD
ATOM     19  H11 UNL     1      63.360  46.013  27.345  1.00  0.00     0.274 HD
ENDBRANCH  15  16
BRANCH  15  20
HETATM   20  C12 UNL     1      62.348  47.494  29.659  1.00  0.00     0.033 C 
BRANCH  20  21
HETATM   21  C13 UNL     1      61.077  47.261  28.912  1.00  0.00     0.007 C 
BRANCH  21  22
HETATM   22  C14 UNL     1      60.326  46.098  29.496  1.00  0.00    -0.014 A 
HETATM   23  C15 UNL     1      58.858  46.167  29.719  1.00  0.00     0.005 A 
HETATM   24  C16 UNL     1      59.801  46.190  30.905  1.00  0.00     0.005 A 
ENDBRANCH  21  22
ENDBRANCH  20  21
ENDBRANCH  15  20
ENDBRANCH  10  15
TORSDOF 5
ENDMDL
MODEL 2
REMARK VINA RESULT: -8.536764048      1.614      6.249
REMARK  5 active torsions:
REMARK  status: ('A' for Active; 'I' for Inactive)
REMARK    1  A    between atoms: C10_10  and  C11_11 
REMARK    2  A    between atoms: C11_11  and  N1_12 
REMARK    3  A    between atoms: C11_11  and  C12_16 
REMARK    4  A    between atoms: C12_16  and  C13_17 
REMARK    5  A    between atoms: C13_17  and  C14_18 
ROOT
HETATM    1  C1  UNL     1      63.130  48.075  26.626  1.00  0.00     0.015 C 
HETATM    2  C2  UNL     1      62.795  48.215  28.095  1.00  0.00    -0.040 C 
HETATM    3  C3  UNL     1      61.385  48.791  28.167  1.00  0.00     0.009 C 
HETATM    4  C4  UNL     1      60.570  47.535  28.398  1.00  0.00     0.001 C 
HETATM    5  C5  UNL     1      61.427  46.846  29.468  1.00  0.00     0.006 C 
HETATM    6  C6  UNL     1      62.780  46.903  28.801  1.00  0.00    -0.002 C 
HETATM    7  C7  UNL     1      63.925  46.668  29.739  1.00  0.00    -0.006 C 
HETATM    8  C8  UNL     1      65.155  46.388  28.957  1.00  0.00     0.006 C 
HETATM    9  C9  UNL     1      66.424  46.876  29.589  1.00  0.00     0.007 C 
HETATM   10  C10 UNL     1      66.362  46.854  31.103  1.00  0.00     0.016 C 
HETATM   11  C17 UNL     1      65.259  47.702  31.616  1.00  0.00     0.011 C 
HETATM   12  C18 UNL     1      64.022  47.756  30.752  1.00  0.00    -0.010 C 
HETATM   13  C19 UNL     1      63.790  49.132  30.207  1.00  0.00     0.006 C 
HETATM   14  C20 UNL     1      63.723  49.224  28.716  1.00  0.00     0.010 C 
ENDROOT
BRANCH  10  15
HETATM   15  C11 UNL     1      66.481  45.496  31.676  1.00  0.00     0.187 C 
BRANCH  15  16
HETATM   16  N1  UNL     1      66.756  44.466  30.707  1.00  0.00    -0.075 N 
ATOM     17  H13 UNL     1      67.313  44.839  29.939  1.00  0.00     0.274 HD
ATOM     18  H12 UNL     1      67.416  43.786  31.086  1.00  0.00     0.274 HD
ATOM     19  H11 UNL     1      65.925  43.994  30.349  1.00  0.00     0.274 HD
ENDBRANCH  15  16
BRANCH  15  20
HETATM   20  C12 UNL     1      67.469  45.332  32.794  1.00  0.00     0.033 C 
BRANCH  20  21
HETATM   21  C13 UNL     1      66.837  45.321  34.146  1.00  0.00     0.007 C 
BRANCH  21  22
HETATM   22  C14 UNL     1      66.763  46.714  34.706  1.00  0.00    -0.014 A 
HETATM   23  C15 UNL     1      66.249  46.963  36.078  1.00  0.00     0.005 A 
HETATM   24  C16 UNL     1      65.419  47.371  34.879  1.00  0.00     0.005 A 
ENDBRANCH  21  22
ENDBRANCH  20  21
ENDBRANCH  15  20
ENDBRANCH  10  15
TORSDOF 5
ENDMDL
MODEL 3
REMARK VINA RESULT: -8.229950060      2.048      5.972
REMARK  5 active torsions:
REMARK  status: ('A' for Active; 'I' for Inactive)
REMARK    1  A    between atoms: C10_10  and  C11_11 
REMARK    2  A    between atoms: C11_11  and  N1_12 
REMARK    3  A    between atoms: C11_11  and  C12_16 
REMARK    4  A    between atoms: C12_16  and  C13_17 
REMARK    5  A    between atoms: C13_17  and  C14_18 
ROOT
HETATM    1  C1  UNL     1      61.839  48.073  29.321  1.00  0.00     0.015 C 
HETATM    2  C2  UNL     1      63.147  47.675  28.670  1.00  0.00    -0.040 C 
HETATM    3  C3  UNL     1      62.995  47.960  27.180  1.00  0.00     0.009 C 
HETATM    4  C4  UNL     1      63.683  49.304  27.069  1.00  0.00     0.001 C 
HETATM    5  C5  UNL     1      64.935  49.040  27.917  1.00  0.00     0.006 C 
HETATM    6  C6  UNL     1      64.296  48.482  29.165  1.00  0.00    -0.002 C 
HETATM    7  C7  UNL     1      65.254  47.751  30.056  1.00  0.00    -0.006 C 
HETATM    8  C8  UNL     1      64.637  47.559  31.393  1.00  0.00     0.006 C 
HETATM    9  C9  UNL     1      65.038  46.295  32.092  1.00  0.00     0.007 C 
HETATM   10  C10 UNL     1      66.447  45.862  31.742  1.00  0.00     0.016 C 
HETATM   11  C17 UNL     1      66.601  45.628  30.286  1.00  0.00     0.011 C 
HETATM   12  C18 UNL     1      65.780  46.527  29.392  1.00  0.00    -0.010 C 
HETATM   13  C19 UNL     1      64.754  45.750  28.623  1.00  0.00     0.006 C 
HETATM   14  C20 UNL     1      63.340  46.190  28.824  1.00  0.00     0.010 C 
ENDROOT
BRANCH  10  15
HETATM   15  C11 UNL     1      67.492  46.676  32.401  1.00  0.00     0.187 C 
BRANCH  15  16
HETATM   16  N1  UNL     1      68.362  47.375  31.489  1.00  0.00    -0.075 N 
ATOM     17  H13 UNL     1      68.041  48.333  31.354  1.00  0.00     0.274 HD
ATOM     18  H12 UNL     1      69.266  47.554  31.926  1.00  0.00     0.274 HD
ATOM     19  H11 UNL     1      68.487  46.910  30.589  1.00  0.00     0.274 HD
ENDBRANCH  15  16
BRANCH  15  20
HETATM   20  C12 UNL     1      67.014  47.673  33.415  1.00  0.00     0.033 C 
BRANCH  20  21
HETATM   21  C13 UNL     1      66.606  47.052  34.709  1.00  0.00     0.007 C 
BRANCH  21  22
HETATM   22  C14 UNL     1      65.698  47.973  35.475  1.00  0.00    -0.014 A 
HETATM   23  C15 UNL     1      64.361  48.348  34.946  1.00  0.00     0.005 A 
HETATM   24  C16 UNL     1      65.474  49.375  34.974  1.00  0.00     0.005 A 
ENDBRANCH  21  22
ENDBRANCH  20  21
ENDBRANCH  15  20
ENDBRANCH  10  15
TORSDOF 5
ENDMDL
MODEL 4
REMARK VINA RESULT: -8.110000202      1.163      1.715
REMARK  5 active torsions:
REMARK  status: ('A' for Active; 'I' for Inactive)
REMARK    1  A    between atoms: C10_10  and  C11_11 
REMARK    2  A    between atoms: C11_11  and  N1_12 
REMARK    3  A    between atoms: C11_11  and  C12_16 
REMARK    4  A    between atoms: C12_16  and  C13_17 
REMARK    5  A    between atoms: C13_17  and  C14_18 
ROOT
HETATM    1  C1  UNL     1      68.472  47.741  32.210  1.00  0.00     0.015 C 
HETATM    2  C2  UNL     1      67.525  46.572  32.041  1.00  0.00    -0.040 C 
HETATM    3  C3  UNL     1      67.861  45.577  33.147  1.00  0.00     0.009 C 
HETATM    4  C4  UNL     1      66.801  45.915  34.174  1.00  0.00     0.001 C 
HETATM    5  C5  UNL     1      65.568  46.027  33.267  1.00  0.00     0.006 C 
HETATM    6  C6  UNL     1      66.100  46.968  32.213  1.00  0.00    -0.002 C 
HETATM    7  C7  UNL     1      65.285  46.986  30.955  1.00  0.00    -0.006 C 
HETATM    8  C8  UNL     1      65.658  48.171  30.142  1.00  0.00     0.006 C 
HETATM    9  C9  UNL     1      65.572  47.965  28.659  1.00  0.00     0.007 C 
HETATM   10  C10 UNL     1      64.484  46.983  28.273  1.00  0.00     0.016 C 
HETATM   11  C17 UNL     1      64.704  45.654  28.891  1.00  0.00     0.011 C 
HETATM   12  C18 UNL     1      65.337  45.669  30.263  1.00  0.00    -0.010 C 
HETATM   13  C19 UNL     1      66.691  45.028  30.250  1.00  0.00     0.006 C 
HETATM   14  C20 UNL     1      67.810  45.895  30.728  1.00  0.00     0.010 C 
ENDROOT
BRANCH  10  15
HETATM   15  C11 UNL     1      63.120  47.549  28.374  1.00  0.00     0.187 C 
BRANCH  15  16
HETATM   16  N1  UNL     1      62.516  47.869  27.106  1.00  0.00    -0.075 N 
ATOM     17  H13 UNL     1      62.435  48.879  26.993  1.00  0.00     0.274 HD
ATOM     18  H12 UNL     1      63.159  47.659  26.342  1.00  0.00     0.274 HD
ATOM     19  H11 UNL     1      61.614  47.419  26.946  1.00  0.00     0.274 HD
ENDBRANCH  15  16
BRANCH  15  20
HETATM   20  C12 UNL     1      62.124  46.742  29.153  1.00  0.00     0.033 C 
BRANCH  20  21
HETATM   21  C13 UNL     1      60.708  47.137  28.891  1.00  0.00     0.007 C 
BRANCH  21  22
HETATM   22  C14 UNL     1      59.764  46.072  29.375  1.00  0.00    -0.014 A 
HETATM   23  C15 UNL     1      58.352  46.393  29.709  1.00  0.00     0.005 A 
HETATM   24  C16 UNL     1      59.332  46.067  30.817  1.00  0.00     0.005 A 
ENDBRANCH  21  22
ENDBRANCH  20  21
ENDBRANCH  15  20
ENDBRANCH  10  15
TORSDOF 5
ENDMDL
MODEL 5
REMARK VINA RESULT: -7.986534807      2.003      6.100
REMARK  5 active torsions:
REMARK  status: ('A' for Active; 'I' for Inactive)
REMARK    1  A    between atoms: C10_10  and  C11_11 
REMARK    2  A    between atoms: C11_11  and  N1_12 
REMARK    3  A    between atoms: C11_11  and  C12_16 
REMARK    4  A    between atoms: C12_16  and  C13_17 
REMARK    5  A    between atoms: C13_17  and  C14_18 
ROOT
HETATM    1  C1  UNL     1      63.800  47.016  26.494  1.00  0.00     0.015 C 
HETATM    2  C2  UNL     1      63.387  47.686  27.787  1.00  0.00    -0.040 C 
HETATM    3  C3  UNL     1      62.079  48.416  27.502  1.00  0.00     0.009 C 
HETATM    4  C4  UNL     1      61.069  47.421  28.031  1.00  0.00     0.001 C 
HETATM    5  C5  UNL     1      61.733  47.038  29.361  1.00  0.00     0.006 C 
HETATM    6  C6  UNL     1      63.122  46.703  28.875  1.00  0.00    -0.002 C 
HETATM    7  C7  UNL     1      64.149  46.665  29.966  1.00  0.00    -0.006 C 
HETATM    8  C8  UNL     1      65.374  45.990  29.468  1.00  0.00     0.006 C 
HETATM    9  C9  UNL     1      66.655  46.508  30.052  1.00  0.00     0.007 C 
HETATM   10  C10 UNL     1      66.484  47.009  31.471  1.00  0.00     0.016 C 
HETATM   11  C17 UNL     1      65.489  48.106  31.546  1.00  0.00     0.011 C 
HETATM   12  C18 UNL     1      64.339  48.011  30.573  1.00  0.00    -0.010 C 
HETATM   13  C19 UNL     1      64.359  49.138  29.586  1.00  0.00     0.006 C 
HETATM   14  C20 UNL     1      64.411  48.726  28.150  1.00  0.00     0.010 C 
ENDROOT
BRANCH  10  15
HETATM   15  C11 UNL     1      66.354  45.921  32.466  1.00  0.00     0.187 C 
BRANCH  15  16
HETATM   16  N1  UNL     1      67.606  45.325  32.859  1.00  0.00    -0.075 N 
ATOM     17  H13 UNL     1      68.312  45.470  32.138  1.00  0.00     0.274 HD
ATOM     18  H12 UNL     1      68.027  45.854  33.624  1.00  0.00     0.274 HD
ATOM     19  H11 UNL     1      67.542  44.336  33.103  1.00  0.00     0.274 HD
ENDBRANCH  15  16
BRANCH  15  20
HETATM   20  C12 UNL     1      65.606  46.258  33.723  1.00  0.00     0.033 C 
BRANCH  20  21
HETATM   21  C13 UNL     1      66.453  46.928  34.753  1.00  0.00     0.007 C 
BRANCH  21  22
HETATM   22  C14 UNL     1      65.664  47.979  35.484  1.00  0.00    -0.014 A 
HETATM   23  C15 UNL     1      64.360  48.461  34.960  1.00  0.00     0.005 A 
HETATM   24  C16 UNL     1      65.572  49.368  34.909  1.00  0.00     0.005 A 
ENDBRANCH  21  22
ENDBRANCH  20  21
ENDBRANCH  15  20
ENDBRANCH  10  15
TORSDOF 5
ENDMDL
