MODEL 1
REMARK VINA RESULT: -7.826334180      0.000      0.000
REMARK  5 active torsions:
REMARK  status: ('A' for Active; 'I' for Inactive)
REMARK    1  A    between atoms: C2_2  and  C4_4 
REMARK    2  A    between atoms: C4_4  and  C5_5 
REMARK    3  A    between atoms: C5_5  and  C6_6 
REMARK    4  A    between atoms: C8_8  and  C9_9 
REMARK       I    between atoms: C9_9  and  N1_11 
REMARK    5  A    between atoms: N1_11  and  C10_13 
ROOT
HETATM    1  C6  UNL     1      65.011  47.414  29.458  1.00  0.00    -0.024 A 
HETATM    2  C7  UNL     1      65.965  48.269  28.604  1.00  0.00     0.017 C 
HETATM    3  C8  UNL     1      64.039  48.263  30.218  1.00  0.00     0.095 A 
HETATM    4  C14 UNL     1      62.953  47.852  29.310  1.00  0.00    -0.027 A 
HETATM    5  C15 UNL     1      62.452  48.992  28.419  1.00  0.00     0.016 C 
HETATM    6  C16 UNL     1      61.755  47.131  29.834  1.00  0.00     0.016 C 
HETATM    7  C17 UNL     1      63.910  46.901  28.610  1.00  0.00    -0.032 A 
HETATM    8  C18 UNL     1      63.995  47.307  27.132  1.00  0.00     0.016 C 
HETATM    9  C19 UNL     1      63.525  45.460  28.695  1.00  0.00     0.016 C 
ENDROOT
BRANCH   3  10
HETATM   10  C9  UNL     1      63.865  48.061  31.645  1.00  0.00     0.224 C 
HETATM   11  O1  UNL     1      62.901  47.386  32.084  1.00  0.00    -0.273 OA
HETATM   12  N1  UNL     1      64.716  48.576  32.653  1.00  0.00    -0.353 N 
ATOM     13  H1  UNL     1      65.513  49.135  32.351  1.00  0.00     0.163 HD
BRANCH  12  14
HETATM   14  C10 UNL     1      64.550  48.375  34.067  1.00  0.00     0.022 C 
HETATM   15  C11 UNL     1      65.370  49.384  34.841  1.00  0.00     0.037 C 
HETATM   16  C12 UNL     1      63.104  48.531  34.491  1.00  0.00     0.037 C 
HETATM   17  C13 UNL     1      64.998  47.004  34.517  1.00  0.00     0.037 C 
ENDBRANCH  12  14
ENDBRANCH   3  10
BRANCH   1  18
HETATM   18  C5  UNL     1      65.850  46.457  30.232  1.00  0.00     0.011 C 
BRANCH  18  19
HETATM   19  C4  UNL     1      67.242  46.963  30.489  1.00  0.00     0.005 C 
BRANCH  19  20
HETATM   20  C2  UNL     1      67.887  46.093  31.579  1.00  0.00    -0.023 C 
HETATM   21  C1  UNL     1      68.224  47.020  32.744  1.00  0.00     0.009 C 
HETATM   22  C3  UNL     1      66.924  45.066  32.100  1.00  0.00     0.009 C 
ENDBRANCH  19  20
ENDBRANCH  18  19
ENDBRANCH   1  18
TORSDOF 5
ENDMDL
MODEL 2
REMARK VINA RESULT: -7.425643922      1.605      5.339
REMARK  5 active torsions:
REMARK  status: ('A' for Active; 'I' for Inactive)
REMARK    1  A    between atoms: C2_2  and  C4_4 
REMARK    2  A    between atoms: C4_4  and  C5_5 
REMARK    3  A    between atoms: C5_5  and  C6_6 
REMARK    4  A    between atoms: C8_8  and  C9_9 
REMARK       I    between atoms: C9_9  and  N1_11 
REMARK    5  A    between atoms: N1_11  and  C10_13 
ROOT
HETATM    1  C6  UNL     1      66.420  47.013  32.303  1.00  0.00    -0.024 A 
HETATM    2  C7  UNL     1      67.301  48.098  32.948  1.00  0.00     0.017 C 
HETATM    3  C8  UNL     1      66.624  46.946  30.821  1.00  0.00     0.095 A 
HETATM    4  C14 UNL     1      67.373  45.685  30.969  1.00  0.00    -0.027 A 
HETATM    5  C15 UNL     1      68.862  45.829  30.644  1.00  0.00     0.016 C 
HETATM    6  C16 UNL     1      66.890  44.432  30.319  1.00  0.00     0.016 C 
HETATM    7  C17 UNL     1      67.067  45.690  32.459  1.00  0.00    -0.032 A 
HETATM    8  C18 UNL     1      68.399  45.713  33.222  1.00  0.00     0.016 C 
HETATM    9  C19 UNL     1      66.259  44.525  32.930  1.00  0.00     0.016 C 
ENDROOT
BRANCH   3  10
HETATM   10  C9  UNL     1      65.477  46.971  29.931  1.00  0.00     0.224 C 
HETATM   11  O1  UNL     1      64.787  45.938  29.746  1.00  0.00    -0.273 OA
HETATM   12  N1  UNL     1      65.029  48.103  29.208  1.00  0.00    -0.353 N 
ATOM     13  H1  UNL     1      65.556  48.968  29.320  1.00  0.00     0.163 HD
BRANCH  12  14
HETATM   14  C10 UNL     1      63.891  48.133  28.329  1.00  0.00     0.022 C 
HETATM   15  C11 UNL     1      63.839  49.448  27.583  1.00  0.00     0.037 C 
HETATM   16  C12 UNL     1      63.943  47.020  27.303  1.00  0.00     0.037 C 
HETATM   17  C13 UNL     1      62.580  47.994  29.069  1.00  0.00     0.037 C 
ENDBRANCH  12  14
ENDBRANCH   3  10
BRANCH   1  18
HETATM   18  C5  UNL     1      65.032  47.216  32.804  1.00  0.00     0.011 C 
BRANCH  18  19
HETATM   19  C4  UNL     1      64.981  47.718  34.220  1.00  0.00     0.005 C 
BRANCH  19  20
HETATM   20  C2  UNL     1      63.512  47.792  34.662  1.00  0.00    -0.023 C 
HETATM   21  C1  UNL     1      63.247  49.237  35.077  1.00  0.00     0.009 C 
HETATM   22  C3  UNL     1      62.582  47.487  33.523  1.00  0.00     0.009 C 
ENDBRANCH  19  20
ENDBRANCH  18  19
ENDBRANCH   1  18
TORSDOF 5
ENDMDL
MODEL 3
REMARK VINA RESULT: -7.024762713      1.732      5.418
REMARK  5 active torsions:
REMARK  status: ('A' for Active; 'I' for Inactive)
REMARK    1  A    between atoms: C2_2  and  C4_4 
REMARK    2  A    between atoms: C4_4  and  C5_5 
REMARK    3  A    between atoms: C5_5  and  C6_6 
REMARK    4  A    between atoms: C8_8  and  C9_9 
REMARK       I    between atoms: C9_9  and  N1_11 
REMARK    5  A    between atoms: N1_11  and  C10_13 
ROOT
HETATM    1  C6  UNL     1      64.213  48.688  32.852  1.00  0.00    -0.024 A 
HETATM    2  C7  UNL     1      63.981  50.194  32.633  1.00  0.00     0.017 C 
HETATM    3  C8  UNL     1      65.622  48.400  33.268  1.00  0.00     0.095 A 
HETATM    4  C14 UNL     1      65.172  48.125  34.644  1.00  0.00    -0.027 A 
HETATM    5  C15 UNL     1      65.640  49.178  35.652  1.00  0.00     0.016 C 
HETATM    6  C16 UNL     1      65.390  46.783  35.261  1.00  0.00     0.016 C 
HETATM    7  C17 UNL     1      63.729  48.301  34.198  1.00  0.00    -0.032 A 
HETATM    8  C18 UNL     1      63.112  49.447  35.012  1.00  0.00     0.016 C 
HETATM    9  C19 UNL     1      62.878  47.083  34.353  1.00  0.00     0.016 C 
ENDROOT
BRANCH   3  10
HETATM   10  C9  UNL     1      66.389  47.384  32.572  1.00  0.00     0.224 C 
HETATM   11  O1  UNL     1      67.645  47.398  32.598  1.00  0.00    -0.273 OA
HETATM   12  N1  UNL     1      65.839  46.316  31.821  1.00  0.00    -0.353 N 
ATOM     13  H1  UNL     1      64.822  46.260  31.765  1.00  0.00     0.163 HD
BRANCH  12  14
HETATM   14  C10 UNL     1      66.594  45.305  31.133  1.00  0.00     0.022 C 
HETATM   15  C11 UNL     1      66.879  44.142  32.058  1.00  0.00     0.037 C 
HETATM   16  C12 UNL     1      65.848  44.766  29.930  1.00  0.00     0.037 C 
HETATM   17  C13 UNL     1      67.929  45.811  30.637  1.00  0.00     0.037 C 
ENDBRANCH  12  14
ENDBRANCH   3  10
BRANCH   1  18
HETATM   18  C5  UNL     1      63.686  47.982  31.651  1.00  0.00     0.011 C 
BRANCH  18  19
HETATM   19  C4  UNL     1      63.705  48.830  30.409  1.00  0.00     0.005 C 
BRANCH  19  20
HETATM   20  C2  UNL     1      63.850  47.909  29.188  1.00  0.00    -0.023 C 
HETATM   21  C1  UNL     1      62.775  48.327  28.188  1.00  0.00     0.009 C 
HETATM   22  C3  UNL     1      65.176  48.103  28.512  1.00  0.00     0.009 C 
ENDBRANCH  19  20
ENDBRANCH  18  19
ENDBRANCH   1  18
TORSDOF 5
ENDMDL
MODEL 4
REMARK VINA RESULT: -6.859088573      1.544      4.379
REMARK  5 active torsions:
REMARK  status: ('A' for Active; 'I' for Inactive)
REMARK    1  A    between atoms: C2_2  and  C4_4 
REMARK    2  A    between atoms: C4_4  and  C5_5 
REMARK    3  A    between atoms: C5_5  and  C6_6 
REMARK    4  A    between atoms: C8_8  and  C9_9 
REMARK       I    between atoms: C9_9  and  N1_11 
REMARK    5  A    between atoms: N1_11  and  C10_13 
ROOT
HETATM    1  C6  UNL     1      66.003  46.168  30.668  1.00  0.00    -0.024 A 
HETATM    2  C7  UNL     1      65.016  45.337  29.829  1.00  0.00     0.017 C 
HETATM    3  C8  UNL     1      65.687  46.090  32.130  1.00  0.00     0.095 A 
HETATM    4  C14 UNL     1      66.855  45.219  32.349  1.00  0.00    -0.027 A 
HETATM    5  C15 UNL     1      66.473  43.784  32.721  1.00  0.00     0.016 C 
HETATM    6  C16 UNL     1      67.959  45.641  33.260  1.00  0.00     0.016 C 
HETATM    7  C17 UNL     1      67.245  45.391  30.889  1.00  0.00    -0.032 A 
HETATM    8  C18 UNL     1      67.261  44.005  30.230  1.00  0.00     0.016 C 
HETATM    9  C19 UNL     1      68.572  46.045  30.675  1.00  0.00     0.016 C 
ENDROOT
BRANCH   3  10
HETATM   10  C9  UNL     1      65.574  47.309  32.911  1.00  0.00     0.224 C 
HETATM   11  O1  UNL     1      66.590  48.001  33.170  1.00  0.00    -0.273 OA
HETATM   12  N1  UNL     1      64.369  47.829  33.444  1.00  0.00    -0.353 N 
ATOM     13  H1  UNL     1      63.514  47.303  33.266  1.00  0.00     0.163 HD
BRANCH  12  14
HETATM   14  C10 UNL     1      64.253  49.037  34.214  1.00  0.00     0.022 C 
HETATM   15  C11 UNL     1      64.146  50.237  33.298  1.00  0.00     0.037 C 
HETATM   16  C12 UNL     1      63.024  49.023  35.101  1.00  0.00     0.037 C 
HETATM   17  C13 UNL     1      65.445  49.273  35.113  1.00  0.00     0.037 C 
ENDBRANCH  12  14
ENDBRANCH   3  10
BRANCH   1  18
HETATM   18  C5  UNL     1      66.083  47.519  30.047  1.00  0.00     0.011 C 
BRANCH  18  19
HETATM   19  C4  UNL     1      65.329  47.620  28.749  1.00  0.00     0.005 C 
BRANCH  19  20
HETATM   20  C2  UNL     1      64.413  48.851  28.808  1.00  0.00    -0.023 C 
HETATM   21  C1  UNL     1      63.634  48.887  27.497  1.00  0.00     0.009 C 
HETATM   22  C3  UNL     1      63.404  48.730  29.914  1.00  0.00     0.009 C 
ENDBRANCH  19  20
ENDBRANCH  18  19
ENDBRANCH   1  18
TORSDOF 5
ENDMDL
MODEL 5
REMARK VINA RESULT: -6.610163608      1.633      4.017
REMARK  5 active torsions:
REMARK  status: ('A' for Active; 'I' for Inactive)
REMARK    1  A    between atoms: C2_2  and  C4_4 
REMARK    2  A    between atoms: C4_4  and  C5_5 
REMARK    3  A    between atoms: C5_5  and  C6_6 
REMARK    4  A    between atoms: C8_8  and  C9_9 
REMARK       I    between atoms: C9_9  and  N1_11 
REMARK    5  A    between atoms: N1_11  and  C10_13 
ROOT
HETATM    1  C6  UNL     1      63.366  47.678  29.600  1.00  0.00    -0.024 A 
HETATM    2  C7  UNL     1      62.027  46.930  29.726  1.00  0.00     0.017 C 
HETATM    3  C8  UNL     1      64.470  46.766  29.161  1.00  0.00     0.095 A 
HETATM    4  C14 UNL     1      64.459  47.378  27.820  1.00  0.00    -0.027 A 
HETATM    5  C15 UNL     1      63.947  46.431  26.732  1.00  0.00     0.016 C 
HETATM    6  C16 UNL     1      65.673  48.063  27.287  1.00  0.00     0.016 C 
HETATM    7  C17 UNL     1      63.422  48.382  28.298  1.00  0.00    -0.032 A 
HETATM    8  C18 UNL     1      62.166  48.225  27.429  1.00  0.00     0.016 C 
HETATM    9  C19 UNL     1      63.869  49.807  28.249  1.00  0.00     0.016 C 
ENDROOT
BRANCH   3  10
HETATM   10  C9  UNL     1      65.719  46.735  29.900  1.00  0.00     0.224 C 
HETATM   11  O1  UNL     1      66.689  47.452  29.549  1.00  0.00    -0.273 OA
HETATM   12  N1  UNL     1      65.975  45.935  31.041  1.00  0.00    -0.353 N 
ATOM     13  H1  UNL     1      65.220  45.331  31.366  1.00  0.00     0.163 HD
BRANCH  12  14
HETATM   14  C10 UNL     1      67.208  45.905  31.777  1.00  0.00     0.022 C 
HETATM   15  C11 UNL     1      67.194  44.772  32.780  1.00  0.00     0.037 C 
HETATM   16  C12 UNL     1      68.402  45.702  30.867  1.00  0.00     0.037 C 
HETATM   17  C13 UNL     1      67.455  47.178  32.554  1.00  0.00     0.037 C 
ENDBRANCH  12  14
ENDBRANCH   3  10
BRANCH   1  18
HETATM   18  C5  UNL     1      63.561  48.448  30.860  1.00  0.00     0.011 C 
BRANCH  18  19
HETATM   19  C4  UNL     1      63.038  47.736  32.077  1.00  0.00     0.005 C 
BRANCH  19  20
HETATM   20  C2  UNL     1      63.948  48.066  33.269  1.00  0.00    -0.023 C 
HETATM   21  C1  UNL     1      64.181  49.574  33.245  1.00  0.00     0.009 C 
HETATM   22  C3  UNL     1      63.278  47.747  34.574  1.00  0.00     0.009 C 
ENDBRANCH  19  20
ENDBRANCH  18  19
ENDBRANCH   1  18
TORSDOF 5
ENDMDL
