MODEL 1
REMARK VINA RESULT: -8.327588755      0.000      0.000
REMARK  5 active torsions:
REMARK  status: ('A' for Active; 'I' for Inactive)
REMARK    1  A    between atoms: C2_2  and  N1_3 
REMARK    2  A    between atoms: N1_3  and  C3_5 
REMARK    3  A    between atoms: C3_5  and  C4_7 
REMARK    4  A    between atoms: C7_10  and  C8_11 
REMARK    5  A    between atoms: C8_11  and  C10_13 
ROOT
HETATM    1  C8  UNL     1      66.240  46.112  30.330  1.00  0.00    -0.010 C 
HETATM    2  C9  UNL     1      66.290  44.639  30.685  1.00  0.00     0.011 C 
ENDROOT
BRANCH   1   3
HETATM    3  C7  UNL     1      66.952  46.906  31.335  1.00  0.00     0.000 C 
HETATM    4  C4  UNL     1      66.930  46.477  32.752  1.00  0.00     0.051 C 
HETATM    5  C5  UNL     1      68.238  47.269  32.915  1.00  0.00     0.012 C 
HETATM    6  C6  UNL     1      68.448  46.942  31.414  1.00  0.00     0.006 C 
BRANCH   4   7
HETATM    7  C3  UNL     1      65.847  46.838  33.643  1.00  0.00     0.077 C 
HETATM    8  S1  UNL     1      66.147  46.661  35.299  1.00  0.00    -0.065 SA
BRANCH   7   9
HETATM    9  N1  UNL     1      64.577  47.314  33.334  1.00  0.00    -0.384 N 
ATOM     10  H1  UNL     1      64.394  47.395  32.333  1.00  0.00     0.160 HD
BRANCH   9  11
HETATM   11  C2  UNL     1      63.487  47.707  34.159  1.00  0.00     0.116 C 
HETATM   12  C1  UNL     1      63.686  49.190  34.532  1.00  0.00     0.026 C 
ENDBRANCH   9  11
ENDBRANCH   7   9
ENDBRANCH   4   7
ENDBRANCH   1   3
BRANCH   1  13
HETATM   13  C10 UNL     1      64.925  46.556  29.816  1.00  0.00    -0.010 C 
HETATM   14  C11 UNL     1      64.866  48.060  30.164  1.00  0.00     0.006 C 
HETATM   15  C12 UNL     1      63.485  48.609  29.941  1.00  0.00     0.009 C 
HETATM   16  C13 UNL     1      62.787  47.985  28.767  1.00  0.00    -0.044 C 
HETATM   17  C14 UNL     1      62.031  49.101  28.033  1.00  0.00     0.015 C 
HETATM   18  C15 UNL     1      61.725  46.997  29.216  1.00  0.00     0.015 C 
HETATM   19  C16 UNL     1      63.732  47.398  27.774  1.00  0.00    -0.011 C 
HETATM   20  C17 UNL     1      64.493  48.536  27.109  1.00  0.00     0.011 C 
HETATM   21  C18 UNL     1      64.676  46.359  28.348  1.00  0.00     0.010 C 
ENDBRANCH   1  13
TORSDOF 5
ENDMDL
MODEL 2
REMARK VINA RESULT: -7.916053752      0.684      1.834
REMARK  5 active torsions:
REMARK  status: ('A' for Active; 'I' for Inactive)
REMARK    1  A    between atoms: C2_2  and  N1_3 
REMARK    2  A    between atoms: N1_3  and  C3_5 
REMARK    3  A    between atoms: C3_5  and  C4_7 
REMARK    4  A    between atoms: C7_10  and  C8_11 
REMARK    5  A    between atoms: C8_11  and  C10_13 
ROOT
HETATM    1  C8  UNL     1      66.534  46.321  30.212  1.00  0.00    -0.010 C 
HETATM    2  C9  UNL     1      65.911  44.975  30.520  1.00  0.00     0.011 C 
ENDROOT
BRANCH   1   3
HETATM    3  C7  UNL     1      67.257  46.832  31.379  1.00  0.00     0.000 C 
HETATM    4  C4  UNL     1      66.948  46.289  32.721  1.00  0.00     0.051 C 
HETATM    5  C5  UNL     1      68.362  46.737  33.126  1.00  0.00     0.012 C 
HETATM    6  C6  UNL     1      68.700  46.513  31.629  1.00  0.00     0.006 C 
BRANCH   4   7
HETATM    7  C3  UNL     1      65.859  46.804  33.523  1.00  0.00     0.077 C 
HETATM    8  S1  UNL     1      66.125  46.882  35.192  1.00  0.00    -0.065 SA
BRANCH   7   9
HETATM    9  N1  UNL     1      64.605  47.252  33.117  1.00  0.00    -0.384 N 
ATOM     10  H1  UNL     1      64.386  47.048  32.142  1.00  0.00     0.160 HD
BRANCH   9  11
HETATM   11  C2  UNL     1      63.575  47.940  33.815  1.00  0.00     0.116 C 
HETATM   12  C1  UNL     1      62.234  47.261  33.472  1.00  0.00     0.026 C 
ENDBRANCH   9  11
ENDBRANCH   7   9
ENDBRANCH   4   7
ENDBRANCH   1   3
BRANCH   1  13
HETATM   13  C10 UNL     1      65.657  47.216  29.422  1.00  0.00    -0.010 C 
HETATM   14  C11 UNL     1      64.871  46.262  28.495  1.00  0.00     0.006 C 
HETATM   15  C12 UNL     1      64.121  47.030  27.444  1.00  0.00     0.009 C 
HETATM   16  C13 UNL     1      63.598  48.347  27.941  1.00  0.00    -0.044 C 
HETATM   17  C14 UNL     1      62.195  48.539  27.350  1.00  0.00     0.015 C 
HETATM   18  C15 UNL     1      64.426  49.506  27.413  1.00  0.00     0.015 C 
HETATM   19  C16 UNL     1      63.437  48.388  29.422  1.00  0.00    -0.011 C 
HETATM   20  C17 UNL     1      62.305  47.445  29.805  1.00  0.00     0.011 C 
HETATM   21  C18 UNL     1      64.704  48.079  30.198  1.00  0.00     0.010 C 
ENDBRANCH   1  13
TORSDOF 5
ENDMDL
MODEL 3
REMARK VINA RESULT: -7.680746142      2.727      5.773
REMARK  5 active torsions:
REMARK  status: ('A' for Active; 'I' for Inactive)
REMARK    1  A    between atoms: C2_2  and  N1_3 
REMARK    2  A    between atoms: N1_3  and  C3_5 
REMARK    3  A    between atoms: C3_5  and  C4_7 
REMARK    4  A    between atoms: C7_10  and  C8_11 
REMARK    5  A    between atoms: C8_11  and  C10_13 
ROOT
HETATM    1  C8  UNL     1      64.586  48.010  29.862  1.00  0.00    -0.010 C 
HETATM    2  C9  UNL     1      63.818  49.011  30.700  1.00  0.00     0.011 C 
ENDROOT
BRANCH   1   3
HETATM    3  C7  UNL     1      63.828  47.661  28.657  1.00  0.00     0.000 C 
HETATM    4  C4  UNL     1      62.420  48.098  28.530  1.00  0.00     0.051 C 
HETATM    5  C5  UNL     1      62.616  47.979  27.010  1.00  0.00     0.012 C 
HETATM    6  C6  UNL     1      64.101  48.297  27.328  1.00  0.00     0.006 C 
BRANCH   4   7
HETATM    7  C3  UNL     1      61.328  47.335  29.096  1.00  0.00     0.077 C 
HETATM    8  S1  UNL     1      59.866  47.371  28.247  1.00  0.00    -0.065 SA
BRANCH   7   9
HETATM    9  N1  UNL     1      61.303  46.565  30.255  1.00  0.00    -0.384 N 
ATOM     10  H1  UNL     1      62.212  46.187  30.525  1.00  0.00     0.160 HD
BRANCH   9  11
HETATM   11  C2  UNL     1      60.241  46.210  31.133  1.00  0.00     0.116 C 
HETATM   12  C1  UNL     1      60.660  46.596  32.565  1.00  0.00     0.026 C 
ENDBRANCH   9  11
ENDBRANCH   7   9
ENDBRANCH   4   7
ENDBRANCH   1   3
BRANCH   1  13
HETATM   13  C10 UNL     1      65.256  46.957  30.658  1.00  0.00    -0.010 C 
HETATM   14  C11 UNL     1      66.764  47.209  30.433  1.00  0.00     0.006 C 
HETATM   15  C12 UNL     1      67.585  46.069  30.966  1.00  0.00     0.009 C 
HETATM   16  C13 UNL     1      67.006  45.458  32.209  1.00  0.00    -0.044 C 
HETATM   17  C14 UNL     1      68.172  45.142  33.155  1.00  0.00     0.015 C 
HETATM   18  C15 UNL     1      66.344  44.123  31.914  1.00  0.00     0.015 C 
HETATM   19  C16 UNL     1      66.107  46.389  32.950  1.00  0.00    -0.011 C 
HETATM   20  C17 UNL     1      66.957  47.513  33.528  1.00  0.00     0.011 C 
HETATM   21  C18 UNL     1      64.953  46.931  32.129  1.00  0.00     0.010 C 
ENDBRANCH   1  13
TORSDOF 5
ENDMDL
MODEL 4
REMARK VINA RESULT: -7.583808601      1.645      3.537
REMARK  5 active torsions:
REMARK  status: ('A' for Active; 'I' for Inactive)
REMARK    1  A    between atoms: C2_2  and  N1_3 
REMARK    2  A    between atoms: N1_3  and  C3_5 
REMARK    3  A    between atoms: C3_5  and  C4_7 
REMARK    4  A    between atoms: C7_10  and  C8_11 
REMARK    5  A    between atoms: C8_11  and  C10_13 
ROOT
HETATM    1  C8  UNL     1      63.795  48.256  32.081  1.00  0.00    -0.010 C 
HETATM    2  C9  UNL     1      64.093  49.734  31.924  1.00  0.00     0.011 C 
ENDROOT
BRANCH   1   3
HETATM    3  C7  UNL     1      64.271  47.772  33.379  1.00  0.00     0.000 C 
HETATM    4  C4  UNL     1      65.723  47.773  33.669  1.00  0.00     0.051 C 
HETATM    5  C5  UNL     1      65.331  47.813  35.155  1.00  0.00     0.012 C 
HETATM    6  C6  UNL     1      64.060  48.541  34.647  1.00  0.00     0.006 C 
BRANCH   4   7
HETATM    7  C3  UNL     1      66.586  46.684  33.263  1.00  0.00     0.077 C 
HETATM    8  S1  UNL     1      68.079  47.117  32.596  1.00  0.00    -0.065 SA
BRANCH   7   9
HETATM    9  N1  UNL     1      66.364  45.313  33.341  1.00  0.00    -0.384 N 
ATOM     10  H1  UNL     1      65.517  45.055  33.847  1.00  0.00     0.160 HD
BRANCH   9  11
HETATM   11  C2  UNL     1      67.104  44.205  32.842  1.00  0.00     0.116 C 
HETATM   12  C1  UNL     1      66.536  43.841  31.455  1.00  0.00     0.026 C 
ENDBRANCH   9  11
ENDBRANCH   7   9
ENDBRANCH   4   7
ENDBRANCH   1   3
BRANCH   1  13
HETATM   13  C10 UNL     1      64.035  47.467  30.851  1.00  0.00    -0.010 C 
HETATM   14  C11 UNL     1      62.834  47.804  29.939  1.00  0.00     0.006 C 
HETATM   15  C12 UNL     1      62.787  46.887  28.750  1.00  0.00     0.009 C 
HETATM   16  C13 UNL     1      64.150  46.507  28.247  1.00  0.00    -0.044 C 
HETATM   17  C14 UNL     1      64.094  46.513  26.714  1.00  0.00     0.015 C 
HETATM   18  C15 UNL     1      64.508  45.084  28.639  1.00  0.00     0.015 C 
HETATM   19  C16 UNL     1      65.205  47.489  28.630  1.00  0.00    -0.011 C 
HETATM   20  C17 UNL     1      64.949  48.785  27.873  1.00  0.00     0.011 C 
HETATM   21  C18 UNL     1      65.322  47.731  30.123  1.00  0.00     0.010 C 
ENDBRANCH   1  13
TORSDOF 5
ENDMDL
MODEL 5
REMARK VINA RESULT: -7.540083084      1.181      1.463
REMARK  5 active torsions:
REMARK  status: ('A' for Active; 'I' for Inactive)
REMARK    1  A    between atoms: C2_2  and  N1_3 
REMARK    2  A    between atoms: N1_3  and  C3_5 
REMARK    3  A    between atoms: C3_5  and  C4_7 
REMARK    4  A    between atoms: C7_10  and  C8_11 
REMARK    5  A    between atoms: C8_11  and  C10_13 
ROOT
HETATM    1  C8  UNL     1      66.658  46.230  30.557  1.00  0.00    -0.010 C 
HETATM    2  C9  UNL     1      66.646  44.715  30.523  1.00  0.00     0.011 C 
ENDROOT
BRANCH   1   3
HETATM    3  C7  UNL     1      67.173  46.711  31.841  1.00  0.00     0.000 C 
HETATM    4  C4  UNL     1      66.406  46.445  33.079  1.00  0.00     0.051 C 
HETATM    5  C5  UNL     1      67.740  46.600  33.828  1.00  0.00     0.012 C 
HETATM    6  C6  UNL     1      68.371  46.101  32.503  1.00  0.00     0.006 C 
BRANCH   4   7
HETATM    7  C3  UNL     1      65.325  47.306  33.510  1.00  0.00     0.077 C 
HETATM    8  S1  UNL     1      65.689  48.412  34.737  1.00  0.00    -0.065 SA
BRANCH   7   9
HETATM    9  N1  UNL     1      64.011  47.358  33.057  1.00  0.00    -0.384 N 
ATOM     10  H1  UNL     1      63.907  47.187  32.057  1.00  0.00     0.160 HD
BRANCH   9  11
HETATM   11  C2  UNL     1      62.786  47.607  33.735  1.00  0.00     0.116 C 
HETATM   12  C1  UNL     1      61.654  46.933  32.934  1.00  0.00     0.026 C 
ENDBRANCH   9  11
ENDBRANCH   7   9
ENDBRANCH   4   7
ENDBRANCH   1   3
BRANCH   1  13
HETATM   13  C10 UNL     1      65.457  46.848  29.950  1.00  0.00    -0.010 C 
HETATM   14  C11 UNL     1      66.022  47.855  28.923  1.00  0.00     0.006 C 
HETATM   15  C12 UNL     1      64.938  48.755  28.400  1.00  0.00     0.009 C 
HETATM   16  C13 UNL     1      63.613  48.061  28.264  1.00  0.00    -0.044 C 
HETATM   17  C14 UNL     1      62.968  48.550  26.961  1.00  0.00     0.015 C 
HETATM   18  C15 UNL     1      62.658  48.468  29.373  1.00  0.00     0.015 C 
HETATM   19  C16 UNL     1      63.742  46.581  28.137  1.00  0.00    -0.011 C 
HETATM   20  C17 UNL     1      64.390  46.273  26.793  1.00  0.00     0.011 C 
HETATM   21  C18 UNL     1      64.489  45.918  29.278  1.00  0.00     0.010 C 
ENDBRANCH   1  13
TORSDOF 5
ENDMDL
