MODEL 1
REMARK VINA RESULT: -7.143456135      0.000      0.000
REMARK  2 active torsions:
REMARK  status: ('A' for Active; 'I' for Inactive)
REMARK       I    between atoms: N1_2  and  C2_4 
REMARK       I    between atoms: C2_4  and  N2_6 
REMARK    1  A    between atoms: N2_6  and  C3_8 
REMARK    2  A    between atoms: C6_14  and  N4_15 
REMARK       I    between atoms: N4_15  and  C7_17 
REMARK       I    between atoms: C7_17  and  N5_19 
ROOT
HETATM    1  C3  UNL     1      15.872  10.041  10.061  1.00  0.00     0.136 C 
HETATM    2  C4  UNL     1      16.735  10.516   8.924  1.00  0.00     0.150 C 
HETATM    3  N3  UNL     1      17.422   9.294   8.548  1.00  0.00    -0.357 N 
ATOM      4  H3  UNL     1      17.663   8.984   7.607  1.00  0.00     0.162 HD
HETATM    5  C5  UNL     1      17.689   8.622   9.774  1.00  0.00     0.242 C 
HETATM    6  O2  UNL     1      18.565   7.715   9.888  1.00  0.00    -0.271 OA
HETATM    7  C6  UNL     1      16.805   9.140  10.848  1.00  0.00     0.202 C 
ENDROOT
BRANCH   1   8
HETATM    8  N2  UNL     1      15.351  11.114  10.857  1.00  0.00    -0.334 N 
HETATM    9  C2  UNL     1      13.971  11.220  11.085  1.00  0.00     0.316 C 
HETATM   10  N1  UNL     1      13.380  12.253  11.861  1.00  0.00    -0.347 N 
HETATM   11  O1  UNL     1      13.195  10.369  10.587  1.00  0.00    -0.247 OA
HETATM   12  C1  UNL     1      11.957  12.352  12.091  1.00  0.00     0.151 C 
ATOM     13  H1  UNL     1      13.989  12.957  12.277  1.00  0.00     0.163 HD
ATOM     14  H2  UNL     1      15.986  11.803  11.260  1.00  0.00     0.164 HD
ENDBRANCH   1   8
BRANCH   7  15
HETATM   15  N4  UNL     1      16.090   8.020  11.400  1.00  0.00    -0.328 N 
HETATM   16  C7  UNL     1      15.462   8.037  12.673  1.00  0.00     0.316 C 
HETATM   17  O3  UNL     1      15.546   9.100  13.341  1.00  0.00    -0.247 OA
HETATM   18  N5  UNL     1      14.766   6.931  13.196  1.00  0.00    -0.347 N 
HETATM   19  C8  UNL     1      14.145   6.999  14.495  1.00  0.00     0.151 C 
ATOM     20  H5  UNL     1      14.701   6.072  12.650  1.00  0.00     0.163 HD
ATOM     21  H4  UNL     1      16.032   7.166  10.845  1.00  0.00     0.165 HD
ENDBRANCH   7  15
TORSDOF 2
ENDMDL
MODEL 2
REMARK VINA RESULT: -6.650823263      1.062      1.062
REMARK  2 active torsions:
REMARK  status: ('A' for Active; 'I' for Inactive)
REMARK       I    between atoms: N1_2  and  C2_4 
REMARK       I    between atoms: C2_4  and  N2_6 
REMARK    1  A    between atoms: N2_6  and  C3_8 
REMARK    2  A    between atoms: C6_14  and  N4_15 
REMARK       I    between atoms: N4_15  and  C7_17 
REMARK       I    between atoms: C7_17  and  N5_19 
ROOT
HETATM    1  C3  UNL     1      15.860  10.041  10.109  1.00  0.00     0.136 C 
HETATM    2  C4  UNL     1      16.612  10.388   8.854  1.00  0.00     0.150 C 
HETATM    3  N3  UNL     1      17.335   9.157   8.595  1.00  0.00    -0.357 N 
ATOM      4  H3  UNL     1      17.523   8.728   7.689  1.00  0.00     0.162 HD
HETATM    5  C5  UNL     1      17.724   8.674   9.877  1.00  0.00     0.242 C 
HETATM    6  O2  UNL     1      18.652   7.830  10.044  1.00  0.00    -0.271 OA
HETATM    7  C6  UNL     1      16.893   9.300  10.936  1.00  0.00     0.202 C 
ENDROOT
BRANCH   1   8
HETATM    8  N2  UNL     1      15.341  11.192  10.790  1.00  0.00    -0.334 N 
HETATM    9  C2  UNL     1      13.968  11.301  11.050  1.00  0.00     0.316 C 
HETATM   10  N1  UNL     1      13.379  12.408  11.718  1.00  0.00    -0.347 N 
HETATM   11  O1  UNL     1      13.194  10.384  10.681  1.00  0.00    -0.247 OA
HETATM   12  C1  UNL     1      11.962  12.510  11.981  1.00  0.00     0.151 C 
ATOM     13  H1  UNL     1      13.986  13.167  12.027  1.00  0.00     0.163 HD
ATOM     14  H2  UNL     1      15.974  11.934  11.088  1.00  0.00     0.164 HD
ENDBRANCH   1   8
BRANCH   7  15
HETATM   15  N4  UNL     1      16.280   8.239  11.690  1.00  0.00    -0.328 N 
HETATM   16  C7  UNL     1      16.795   7.745  12.917  1.00  0.00     0.316 C 
HETATM   17  O3  UNL     1      17.847   8.279  13.355  1.00  0.00    -0.247 OA
HETATM   18  N5  UNL     1      16.180   6.706  13.641  1.00  0.00    -0.347 N 
HETATM   19  C8  UNL     1      16.743   6.240  14.883  1.00  0.00     0.151 C 
ATOM     20  H5  UNL     1      15.327   6.278  13.282  1.00  0.00     0.163 HD
ATOM     21  H4  UNL     1      15.427   7.817  11.321  1.00  0.00     0.165 HD
ENDBRANCH   7  15
TORSDOF 2
ENDMDL
MODEL 3
REMARK VINA RESULT: -6.632293855      1.103      3.979
REMARK  2 active torsions:
REMARK  status: ('A' for Active; 'I' for Inactive)
REMARK       I    between atoms: N1_2  and  C2_4 
REMARK       I    between atoms: C2_4  and  N2_6 
REMARK    1  A    between atoms: N2_6  and  C3_8 
REMARK    2  A    between atoms: C6_14  and  N4_15 
REMARK       I    between atoms: N4_15  and  C7_17 
REMARK       I    between atoms: C7_17  and  N5_19 
ROOT
HETATM    1  C3  UNL     1      16.731   8.688  10.916  1.00  0.00     0.136 C 
HETATM    2  C4  UNL     1      17.788   8.071  10.043  1.00  0.00     0.150 C 
HETATM    3  N3  UNL     1      18.209   9.207   9.244  1.00  0.00    -0.357 N 
ATOM      4  H3  UNL     1      19.155   9.431   8.936  1.00  0.00     0.162 HD
HETATM    5  C5  UNL     1      17.018   9.941   8.981  1.00  0.00     0.242 C 
HETATM    6  O2  UNL     1      16.920  10.784   8.041  1.00  0.00    -0.271 OA
HETATM    7  C6  UNL     1      15.958   9.568   9.951  1.00  0.00     0.202 C 
ENDROOT
BRANCH   1   8
HETATM    8  N2  UNL     1      15.893   7.717  11.557  1.00  0.00    -0.334 N 
HETATM    9  C2  UNL     1      15.344   7.980  12.820  1.00  0.00     0.316 C 
HETATM   10  N1  UNL     1      14.506   7.069  13.518  1.00  0.00    -0.347 N 
HETATM   11  O1  UNL     1      15.591   9.072  13.386  1.00  0.00    -0.247 OA
HETATM   12  C1  UNL     1      13.944   7.350  14.819  1.00  0.00     0.151 C 
ATOM     13  H1  UNL     1      14.290   6.174  13.080  1.00  0.00     0.163 HD
ATOM     14  H2  UNL     1      15.695   6.831  11.092  1.00  0.00     0.164 HD
ENDBRANCH   1   8
BRANCH   7  15
HETATM   15  N4  UNL     1      15.519  10.775  10.599  1.00  0.00    -0.328 N 
HETATM   16  C7  UNL     1      14.158  11.071  10.873  1.00  0.00     0.316 C 
HETATM   17  O3  UNL     1      13.303  10.217  10.523  1.00  0.00    -0.247 OA
HETATM   18  N5  UNL     1      13.748  12.258  11.509  1.00  0.00    -0.347 N 
HETATM   19  C8  UNL     1      12.352  12.512  11.766  1.00  0.00     0.151 C 
ATOM     20  H5  UNL     1      14.446  12.946  11.792  1.00  0.00     0.163 HD
ATOM     21  H4  UNL     1      16.226  11.457  10.877  1.00  0.00     0.165 HD
ENDBRANCH   7  15
TORSDOF 2
ENDMDL
MODEL 4
REMARK VINA RESULT: -6.623946431      3.160      5.014
REMARK  2 active torsions:
REMARK  status: ('A' for Active; 'I' for Inactive)
REMARK       I    between atoms: N1_2  and  C2_4 
REMARK       I    between atoms: C2_4  and  N2_6 
REMARK    1  A    between atoms: N2_6  and  C3_8 
REMARK    2  A    between atoms: C6_14  and  N4_15 
REMARK       I    between atoms: N4_15  and  C7_17 
REMARK       I    between atoms: C7_17  and  N5_19 
ROOT
HETATM    1  C3  UNL     1      12.843  11.609  13.802  1.00  0.00     0.136 C 
HETATM    2  C4  UNL     1      11.840  12.424  13.032  1.00  0.00     0.150 C 
HETATM    3  N3  UNL     1      11.777  11.701  11.775  1.00  0.00    -0.357 N 
ATOM      4  H3  UNL     1      10.953  11.530  11.200  1.00  0.00     0.162 HD
HETATM    5  C5  UNL     1      13.112  11.282  11.518  1.00  0.00     0.242 C 
HETATM    6  O2  UNL     1      13.518  10.936  10.369  1.00  0.00    -0.271 OA
HETATM    7  C6  UNL     1      13.913  11.314  12.767  1.00  0.00     0.202 C 
ENDROOT
BRANCH   1   8
HETATM    8  N2  UNL     1      13.366  12.296  14.946  1.00  0.00    -0.334 N 
HETATM    9  C2  UNL     1      13.040  11.866  16.240  1.00  0.00     0.316 C 
HETATM   10  N1  UNL     1      13.519  12.493  17.422  1.00  0.00    -0.347 N 
HETATM   11  O1  UNL     1      12.286  10.874  16.390  1.00  0.00    -0.247 OA
HETATM   12  C1  UNL     1      13.178  12.041  18.750  1.00  0.00     0.151 C 
ATOM     13  H1  UNL     1      14.133  13.302  17.327  1.00  0.00     0.163 HD
ATOM     14  H2  UNL     1      13.979  13.102  14.819  1.00  0.00     0.164 HD
ENDBRANCH   1   8
BRANCH   7  15
HETATM   15  N4  UNL     1      14.465  10.000  12.963  1.00  0.00    -0.328 N 
HETATM   16  C7  UNL     1      15.809   9.658  12.660  1.00  0.00     0.316 C 
HETATM   17  O3  UNL     1      16.543  10.569  12.196  1.00  0.00    -0.247 OA
HETATM   18  N5  UNL     1      16.332   8.366  12.859  1.00  0.00    -0.347 N 
HETATM   19  C8  UNL     1      17.705   8.070  12.536  1.00  0.00     0.151 C 
ATOM     20  H5  UNL     1      15.734   7.633  13.237  1.00  0.00     0.163 HD
ATOM     21  H4  UNL     1      13.857   9.274  13.341  1.00  0.00     0.165 HD
ENDBRANCH   7  15
TORSDOF 2
ENDMDL
MODEL 5
REMARK VINA RESULT: -6.183064355      2.807      4.857
REMARK  2 active torsions:
REMARK  status: ('A' for Active; 'I' for Inactive)
REMARK       I    between atoms: N1_2  and  C2_4 
REMARK       I    between atoms: C2_4  and  N2_6 
REMARK    1  A    between atoms: N2_6  and  C3_8 
REMARK    2  A    between atoms: C6_14  and  N4_15 
REMARK       I    between atoms: N4_15  and  C7_17 
REMARK       I    between atoms: C7_17  and  N5_19 
ROOT
HETATM    1  C3  UNL     1      17.141   9.009   8.937  1.00  0.00     0.136 C 
HETATM    2  C4  UNL     1      16.865  10.436   8.552  1.00  0.00     0.150 C 
HETATM    3  N3  UNL     1      17.227  11.143   9.767  1.00  0.00    -0.357 N 
ATOM      4  H3  UNL     1      17.696  12.045   9.842  1.00  0.00     0.162 HD
HETATM    5  C5  UNL     1      16.788  10.306  10.831  1.00  0.00     0.242 C 
HETATM    6  O2  UNL     1      16.610  10.728  12.012  1.00  0.00    -0.271 OA
HETATM    7  C6  UNL     1      16.584   8.918  10.345  1.00  0.00     0.202 C 
ENDROOT
BRANCH   1   8
HETATM    8  N2  UNL     1      16.534   8.060   8.050  1.00  0.00    -0.334 N 
HETATM    9  C2  UNL     1      17.157   6.829   7.796  1.00  0.00     0.316 C 
HETATM   10  N1  UNL     1      16.619   5.839   6.931  1.00  0.00    -0.347 N 
HETATM   11  O1  UNL     1      18.250   6.564   8.352  1.00  0.00    -0.247 OA
HETATM   12  C1  UNL     1      17.268   4.574   6.678  1.00  0.00     0.151 C 
ATOM     13  H1  UNL     1      15.731   6.030   6.467  1.00  0.00     0.163 HD
ATOM     14  H2  UNL     1      15.644   8.280   7.601  1.00  0.00     0.164 HD
ENDBRANCH   1   8
BRANCH   7  15
HETATM   15  N4  UNL     1      17.392   8.051  11.160  1.00  0.00    -0.328 N 
HETATM   16  C7  UNL     1      16.976   6.764  11.592  1.00  0.00     0.316 C 
HETATM   17  O3  UNL     1      15.834   6.378  11.231  1.00  0.00    -0.247 OA
HETATM   18  N5  UNL     1      17.782   5.928  12.389  1.00  0.00    -0.347 N 
HETATM   19  C8  UNL     1      17.313   4.629  12.801  1.00  0.00     0.151 C 
ATOM     20  H5  UNL     1      18.707   6.245  12.677  1.00  0.00     0.163 HD
ATOM     21  H4  UNL     1      18.315   8.378  11.443  1.00  0.00     0.165 HD
ENDBRANCH   7  15
TORSDOF 2
ENDMDL
