MODEL 1
REMARK VINA RESULT: -7.101901704      0.000      0.000
REMARK  4 active torsions:
REMARK  status: ('A' for Active; 'I' for Inactive)
REMARK    1  A    between atoms: N1_2  and  C3_5 
REMARK    2  A    between atoms: C3_5  and  C4_6 
REMARK    3  A    between atoms: C4_6  and  N2_7 
REMARK       I    between atoms: N2_7  and  C5_9 
REMARK       I    between atoms: C5_9  and  N4_13 
REMARK    4  A    between atoms: N4_13  and  C6_15 
ROOT
HETATM    1  N2  UNL     1      13.618  11.941  11.046  1.00  0.00    -0.221 N 
ATOM      2  H2  UNL     1      13.917  12.496  10.244  1.00  0.00     0.178 HD
HETATM    3  C5  UNL     1      12.737  12.486  12.007  1.00  0.00     0.669 C 
HETATM    4  N3  UNL     1      11.507  12.655  11.706  1.00  0.00    -0.235 N 
ATOM      5  H31 UNL     1      10.871  13.048  12.399  1.00  0.00     0.174 HD
ATOM      6  H32 UNL     1      11.179  12.394  10.776  1.00  0.00     0.174 HD
HETATM    7  N4  UNL     1      13.190  12.848  13.293  1.00  0.00    -0.196 N 
ATOM      8  H4  UNL     1      14.124  13.249  13.381  1.00  0.00     0.180 HD
ENDROOT
BRANCH   1   9
HETATM    9  C4  UNL     1      14.085  10.588  11.217  1.00  0.00     0.199 C 
BRANCH   9  10
HETATM   10  C3  UNL     1      15.216  10.225  10.318  1.00  0.00     0.265 C 
BRANCH  10  11
HETATM   11  N1  UNL     1      16.494  10.122  10.900  1.00  0.00     0.026 N 
HETATM   12  C1  UNL     1      17.459  10.716   9.960  1.00  0.00     0.362 C 
HETATM   13  C2  UNL     1      16.960   8.827  11.230  1.00  0.00     0.362 C 
HETATM   14  O1  UNL     1      16.533  10.939  12.003  1.00  0.00    -0.061 OA
ENDBRANCH  10  11
ENDBRANCH   9  10
ENDBRANCH   1   9
BRANCH   7  15
HETATM   15  C6  UNL     1      12.403  12.681  14.496  1.00  0.00     0.325 C 
HETATM   16  C7  UNL     1      12.093  11.223  14.691  1.00  0.00     0.287 C 
HETATM   17  N5  UNL     1      13.262  10.588  15.320  1.00  0.00    -0.070 N 
HETATM   18  C8  UNL     1      13.285  11.015  16.696  1.00  0.00     0.260 C 
ATOM     19  H52 UNL     1      13.271   9.573  15.216  1.00  0.00     0.277 HD
ATOM     20  H51 UNL     1      14.135  10.777  14.827  1.00  0.00     0.277 HD
HETATM   21  C9  UNL     1      12.962  12.470  16.822  1.00  0.00     0.262 C 
HETATM   22  N6  UNL     1      13.158  13.228  15.609  1.00  0.00    -0.051 N 
ATOM     23  H62 UNL     1      14.149  13.310  15.380  1.00  0.00     0.279 HD
ATOM     24  H61 UNL     1      12.943  14.216  15.752  1.00  0.00     0.279 HD
ENDBRANCH   7  15
TORSDOF 4
ENDMDL
MODEL 2
REMARK VINA RESULT: -7.068723612      1.991      5.426
REMARK  4 active torsions:
REMARK  status: ('A' for Active; 'I' for Inactive)
REMARK    1  A    between atoms: N1_2  and  C3_5 
REMARK    2  A    between atoms: C3_5  and  C4_6 
REMARK    3  A    between atoms: C4_6  and  N2_7 
REMARK       I    between atoms: N2_7  and  C5_9 
REMARK       I    between atoms: C5_9  and  N4_13 
REMARK    4  A    between atoms: N4_13  and  C6_15 
ROOT
HETATM    1  N2  UNL     1      11.470  11.995  12.405  1.00  0.00    -0.221 N 
ATOM      2  H2  UNL     1      10.567  12.261  12.013  1.00  0.00     0.178 HD
HETATM    3  C5  UNL     1      12.636  12.025  11.608  1.00  0.00     0.669 C 
HETATM    4  N3  UNL     1      13.146  13.151  11.285  1.00  0.00    -0.235 N 
ATOM      5  H31 UNL     1      13.987  13.174  10.710  1.00  0.00     0.174 HD
ATOM      6  H32 UNL     1      12.703  14.012  11.608  1.00  0.00     0.174 HD
HETATM    7  N4  UNL     1      13.249  10.835  11.162  1.00  0.00    -0.196 N 
ATOM      8  H4  UNL     1      12.649  10.050  10.907  1.00  0.00     0.180 HD
ENDROOT
BRANCH   1   9
HETATM    9  C4  UNL     1      11.578  11.581  13.783  1.00  0.00     0.199 C 
BRANCH   9  10
HETATM   10  C3  UNL     1      12.315  12.548  14.643  1.00  0.00     0.265 C 
BRANCH  10  11
HETATM   11  N1  UNL     1      12.540  12.175  15.983  1.00  0.00     0.026 N 
HETATM   12  C1  UNL     1      13.299  10.913  15.971  1.00  0.00     0.362 C 
HETATM   13  C2  UNL     1      11.406  11.984  16.808  1.00  0.00     0.362 C 
HETATM   14  O1  UNL     1      13.393  13.090  16.549  1.00  0.00    -0.061 OA
ENDBRANCH  10  11
ENDBRANCH   9  10
ENDBRANCH   1   9
BRANCH   7  15
HETATM   15  C6  UNL     1      14.681  10.667  11.046  1.00  0.00     0.325 C 
HETATM   16  C7  UNL     1      15.258  10.352  12.397  1.00  0.00     0.287 C 
HETATM   17  N5  UNL     1      15.070   8.914  12.651  1.00  0.00    -0.070 N 
HETATM   18  C8  UNL     1      16.012   8.212  11.818  1.00  0.00     0.260 C 
ATOM     19  H52 UNL     1      15.147   8.668  13.638  1.00  0.00     0.277 HD
ATOM     20  H51 UNL     1      14.106   8.606  12.514  1.00  0.00     0.277 HD
HETATM   21  C9  UNL     1      16.085   8.812  10.450  1.00  0.00     0.262 C 
HETATM   22  N6  UNL     1      14.935   9.606  10.088  1.00  0.00    -0.051 N 
ATOM     23  H62 UNL     1      14.109   9.021   9.955  1.00  0.00     0.279 HD
ATOM     24  H61 UNL     1      15.024   9.976   9.141  1.00  0.00     0.279 HD
ENDBRANCH   7  15
TORSDOF 4
ENDMDL
MODEL 3
REMARK VINA RESULT: -7.056489475      1.015      1.053
REMARK  4 active torsions:
REMARK  status: ('A' for Active; 'I' for Inactive)
REMARK    1  A    between atoms: N1_2  and  C3_5 
REMARK    2  A    between atoms: C3_5  and  C4_6 
REMARK    3  A    between atoms: C4_6  and  N2_7 
REMARK       I    between atoms: N2_7  and  C5_9 
REMARK       I    between atoms: C5_9  and  N4_13 
REMARK    4  A    between atoms: N4_13  and  C6_15 
ROOT
HETATM    1  N2  UNL     1      13.658  12.147  11.110  1.00  0.00    -0.221 N 
ATOM      2  H2  UNL     1      13.977  12.931  10.541  1.00  0.00     0.178 HD
HETATM    3  C5  UNL     1      12.636  12.325  12.069  1.00  0.00     0.669 C 
HETATM    4  N3  UNL     1      11.431  12.488  11.677  1.00  0.00    -0.235 N 
ATOM      5  H31 UNL     1      10.693  12.617  12.368  1.00  0.00     0.174 HD
ATOM      6  H32 UNL     1      11.225  12.488  10.678  1.00  0.00     0.174 HD
HETATM    7  N4  UNL     1      12.920  12.326  13.451  1.00  0.00    -0.196 N 
ATOM      8  H4  UNL     1      13.795  12.748  13.763  1.00  0.00     0.180 HD
ENDROOT
BRANCH   1   9
HETATM    9  C4  UNL     1      14.243  10.839  10.949  1.00  0.00     0.199 C 
BRANCH   9  10
HETATM   10  C3  UNL     1      15.627  10.729  11.489  1.00  0.00     0.265 C 
BRANCH  10  11
HETATM   11  N1  UNL     1      16.619  10.232  10.622  1.00  0.00     0.026 N 
HETATM   12  C1  UNL     1      15.946   9.771   9.396  1.00  0.00     0.362 C 
HETATM   13  C2  UNL     1      17.426   9.169  11.092  1.00  0.00     0.362 C 
HETATM   14  O1  UNL     1      17.403  11.283  10.215  1.00  0.00    -0.061 OA
ENDBRANCH  10  11
ENDBRANCH   9  10
ENDBRANCH   1   9
BRANCH   7  15
HETATM   15  C6  UNL     1      12.039  11.761  14.449  1.00  0.00     0.325 C 
HETATM   16  C7  UNL     1      12.679  10.538  15.046  1.00  0.00     0.287 C 
HETATM   17  N5  UNL     1      13.632  10.979  16.078  1.00  0.00    -0.070 N 
HETATM   18  C8  UNL     1      12.855  11.419  17.209  1.00  0.00     0.260 C 
ATOM     19  H52 UNL     1      14.320  10.265  16.318  1.00  0.00     0.277 HD
ATOM     20  H51 UNL     1      14.287  11.685  15.743  1.00  0.00     0.277 HD
HETATM   21  C9  UNL     1      11.668  12.220  16.777  1.00  0.00     0.262 C 
HETATM   22  N6  UNL     1      11.779  12.779  15.451  1.00  0.00    -0.051 N 
ATOM     23  H62 UNL     1      12.483  13.518  15.419  1.00  0.00     0.279 HD
ATOM     24  H61 UNL     1      10.955  13.331  15.212  1.00  0.00     0.279 HD
ENDBRANCH   7  15
TORSDOF 4
ENDMDL
MODEL 4
REMARK VINA RESULT: -6.879339548      1.232      1.475
REMARK  4 active torsions:
REMARK  status: ('A' for Active; 'I' for Inactive)
REMARK    1  A    between atoms: N1_2  and  C3_5 
REMARK    2  A    between atoms: C3_5  and  C4_6 
REMARK    3  A    between atoms: C4_6  and  N2_7 
REMARK       I    between atoms: N2_7  and  C5_9 
REMARK       I    between atoms: C5_9  and  N4_13 
REMARK    4  A    between atoms: N4_13  and  C6_15 
ROOT
HETATM    1  N2  UNL     1      13.649  12.075  11.067  1.00  0.00    -0.221 N 
ATOM      2  H2  UNL     1      14.014  12.841  10.500  1.00  0.00     0.178 HD
HETATM    3  C5  UNL     1      12.655  12.314  12.042  1.00  0.00     0.669 C 
HETATM    4  N3  UNL     1      11.459  12.566  11.670  1.00  0.00    -0.235 N 
ATOM      5  H31 UNL     1      10.741  12.739  12.373  1.00  0.00     0.174 HD
ATOM      6  H32 UNL     1      11.240  12.590  10.674  1.00  0.00     0.174 HD
HETATM    7  N4  UNL     1      12.958  12.281  13.420  1.00  0.00    -0.196 N 
ATOM      8  H4  UNL     1      13.865  12.637  13.723  1.00  0.00     0.180 HD
ENDROOT
BRANCH   1   9
HETATM    9  C4  UNL     1      14.138  10.730  10.885  1.00  0.00     0.199 C 
BRANCH   9  10
HETATM   10  C3  UNL     1      15.623  10.636  10.818  1.00  0.00     0.265 C 
BRANCH  10  11
HETATM   11  N1  UNL     1      16.171   9.822   9.808  1.00  0.00     0.026 N 
HETATM   12  C1  UNL     1      17.124   8.901  10.447  1.00  0.00     0.362 C 
HETATM   13  C2  UNL     1      16.846  10.467   8.744  1.00  0.00     0.362 C 
HETATM   14  O1  UNL     1      15.176   9.011   9.319  1.00  0.00    -0.061 OA
ENDBRANCH  10  11
ENDBRANCH   9  10
ENDBRANCH   1   9
BRANCH   7  15
HETATM   15  C6  UNL     1      12.054  11.768  14.426  1.00  0.00     0.325 C 
HETATM   16  C7  UNL     1      12.648  10.537  15.051  1.00  0.00     0.287 C 
HETATM   17  N5  UNL     1      13.611  10.965  16.078  1.00  0.00    -0.070 N 
HETATM   18  C8  UNL     1      12.847  11.456  17.196  1.00  0.00     0.260 C 
ATOM     19  H52 UNL     1      14.273  10.232  16.336  1.00  0.00     0.277 HD
ATOM     20  H51 UNL     1      14.293  11.640  15.731  1.00  0.00     0.277 HD
HETATM   21  C9  UNL     1      11.690  12.290  16.742  1.00  0.00     0.262 C 
HETATM   22  N6  UNL     1      11.827  12.817  15.405  1.00  0.00    -0.051 N 
ATOM     23  H62 UNL     1      12.556  13.529  15.361  1.00  0.00     0.279 HD
ATOM     24  H61 UNL     1      11.023  13.392  15.151  1.00  0.00     0.279 HD
ENDBRANCH   7  15
TORSDOF 4
ENDMDL
MODEL 5
REMARK VINA RESULT: -6.872676546      1.855      5.416
REMARK  4 active torsions:
REMARK  status: ('A' for Active; 'I' for Inactive)
REMARK    1  A    between atoms: N1_2  and  C3_5 
REMARK    2  A    between atoms: C3_5  and  C4_6 
REMARK    3  A    between atoms: C4_6  and  N2_7 
REMARK       I    between atoms: N2_7  and  C5_9 
REMARK       I    between atoms: C5_9  and  N4_13 
REMARK    4  A    between atoms: N4_13  and  C6_15 
ROOT
HETATM    1  N2  UNL     1      11.466  12.016  12.444  1.00  0.00    -0.221 N 
ATOM      2  H2  UNL     1      10.561  12.283  12.056  1.00  0.00     0.178 HD
HETATM    3  C5  UNL     1      12.627  12.038  11.640  1.00  0.00     0.669 C 
HETATM    4  N3  UNL     1      13.138  13.160  11.306  1.00  0.00    -0.235 N 
ATOM      5  H31 UNL     1      13.975  13.176  10.725  1.00  0.00     0.174 HD
ATOM      6  H32 UNL     1      12.700  14.024  11.626  1.00  0.00     0.174 HD
HETATM    7  N4  UNL     1      13.233  10.843  11.197  1.00  0.00    -0.196 N 
ATOM      8  H4  UNL     1      12.629  10.058  10.951  1.00  0.00     0.180 HD
ENDROOT
BRANCH   1   9
HETATM    9  C4  UNL     1      11.582  11.611  13.824  1.00  0.00     0.199 C 
BRANCH   9  10
HETATM   10  C3  UNL     1      12.618  12.362  14.585  1.00  0.00     0.265 C 
BRANCH  10  11
HETATM   11  N1  UNL     1      12.798  12.018  15.939  1.00  0.00     0.026 N 
HETATM   12  C1  UNL     1      11.463  11.917  16.553  1.00  0.00     0.362 C 
HETATM   13  C2  UNL     1      13.571  12.893  16.739  1.00  0.00     0.362 C 
HETATM   14  O1  UNL     1      13.307  10.744  15.997  1.00  0.00    -0.061 OA
ENDBRANCH  10  11
ENDBRANCH   9  10
ENDBRANCH   1   9
BRANCH   7  15
HETATM   15  C6  UNL     1      14.664  10.670  11.072  1.00  0.00     0.325 C 
HETATM   16  C7  UNL     1      15.245  10.336  12.417  1.00  0.00     0.287 C 
HETATM   17  N5  UNL     1      15.052   8.897  12.656  1.00  0.00    -0.070 N 
HETATM   18  C8  UNL     1      15.987   8.200  11.811  1.00  0.00     0.260 C 
ATOM     19  H52 UNL     1      15.132   8.640  13.640  1.00  0.00     0.277 HD
ATOM     20  H51 UNL     1      14.086   8.595  12.520  1.00  0.00     0.277 HD
HETATM   21  C9  UNL     1      16.057   8.815  10.449  1.00  0.00     0.262 C 
HETATM   22  N6  UNL     1      14.908   9.618  10.101  1.00  0.00    -0.051 N 
ATOM     23  H62 UNL     1      14.079   9.039   9.966  1.00  0.00     0.279 HD
ATOM     24  H61 UNL     1      14.995   9.998   9.158  1.00  0.00     0.279 HD
ENDBRANCH   7  15
TORSDOF 4
ENDMDL
