MODEL 1
REMARK VINA RESULT: -7.807780794      0.000      0.000
REMARK  2 active torsions:
REMARK  status: ('A' for Active; 'I' for Inactive)
REMARK    1  A    between atoms: C9_10  and  C10_11 
REMARK    2  A    between atoms: N2_16  and  C15_18 
ROOT
HETATM    1  C1  UNL     1      -8.192  18.454  -0.610  1.00  0.00     0.229 C 
HETATM    2  N1  UNL     1      -7.399  18.780  -1.418  1.00  0.00    -0.429 NA
HETATM    3  C2  UNL     1      -6.484  19.170  -2.407  1.00  0.00     0.112 A 
HETATM    4  C3  UNL     1      -7.030  19.598  -3.623  1.00  0.00     0.045 A 
HETATM    5  C4  UNL     1      -6.154  19.974  -4.604  1.00  0.00     0.004 A 
HETATM    6  C5  UNL     1      -4.801  19.927  -4.394  1.00  0.00     0.014 A 
HETATM    7  C6  UNL     1      -4.298  19.511  -3.217  1.00  0.00    -0.004 A 
HETATM    8  C7  UNL     1      -5.127  19.122  -2.189  1.00  0.00    -0.005 A 
HETATM    9  C8  UNL     1      -4.806  18.667  -0.802  1.00  0.00     0.047 C 
HETATM   10  C9  UNL     1      -4.080  17.375  -0.830  1.00  0.00    -0.010 C 
HETATM   11  C12 UNL     1      -2.983  17.416  -1.816  1.00  0.00     0.011 C 
HETATM   12  C13 UNL     1      -2.270  18.705  -2.011  1.00  0.00     0.058 C 
HETATM   13  C14 UNL     1      -2.817  19.522  -3.181  1.00  0.00     0.016 C 
HETATM   14  N2  UNL     1      -2.077  19.516  -4.325  1.00  0.00    -0.383 N 
ATOM     15  H2  UNL     1      -1.767  20.445  -4.611  1.00  0.00     0.160 HD
ENDROOT
BRANCH  10  16
HETATM   16  C10 UNL     1      -3.575  16.939   0.523  1.00  0.00     0.000 C 
HETATM   17  C11 UNL     1      -2.113  16.619   0.538  1.00  0.00     0.005 C 
ENDBRANCH  10  16
BRANCH  14  18
HETATM   18  C15 UNL     1      -1.664  18.524  -5.169  1.00  0.00     0.031 C 
HETATM   19  C16 UNL     1      -2.082  18.537  -6.614  1.00  0.00     0.035 C 
HETATM   20  C17 UNL     1      -1.457  17.428  -7.423  1.00  0.00    -0.012 C 
HETATM   21  C18 UNL     1       0.014  17.772  -7.556  1.00  0.00     0.009 C 
HETATM   22  C22 UNL     1      -1.566  16.069  -6.842  1.00  0.00     0.009 C 
HETATM   23  C19 UNL     1       0.568  17.870  -6.174  1.00  0.00    -0.012 C 
HETATM   24  C20 UNL     1       0.530  16.477  -5.546  1.00  0.00     0.009 C 
HETATM   25  C24 UNL     1      -0.127  18.780  -5.255  1.00  0.00     0.035 C 
HETATM   26  C21 UNL     1      -0.908  16.124  -5.455  1.00  0.00    -0.012 C 
HETATM   27  C23 UNL     1      -1.753  17.104  -4.671  1.00  0.00     0.035 C 
ENDBRANCH  14  18
TORSDOF 2
ENDMDL
MODEL 2
REMARK VINA RESULT: -7.700522983      0.426      1.285
REMARK  2 active torsions:
REMARK  status: ('A' for Active; 'I' for Inactive)
REMARK    1  A    between atoms: C9_10  and  C10_11 
REMARK    2  A    between atoms: N2_16  and  C15_18 
ROOT
HETATM    1  C1  UNL     1      -8.075  18.395  -0.803  1.00  0.00     0.229 C 
HETATM    2  N1  UNL     1      -7.246  18.730  -1.570  1.00  0.00    -0.429 NA
HETATM    3  C2  UNL     1      -6.287  19.130  -2.511  1.00  0.00     0.112 A 
HETATM    4  C3  UNL     1      -6.776  19.552  -3.754  1.00  0.00     0.045 A 
HETATM    5  C4  UNL     1      -5.856  19.938  -4.690  1.00  0.00     0.004 A 
HETATM    6  C5  UNL     1      -4.514  19.908  -4.412  1.00  0.00     0.014 A 
HETATM    7  C6  UNL     1      -4.067  19.497  -3.210  1.00  0.00    -0.004 A 
HETATM    8  C7  UNL     1      -4.942  19.099  -2.226  1.00  0.00    -0.005 A 
HETATM    9  C8  UNL     1      -4.686  18.648  -0.824  1.00  0.00     0.047 C 
HETATM   10  C9  UNL     1      -3.945  17.364  -0.814  1.00  0.00    -0.010 C 
HETATM   11  C12 UNL     1      -2.800  17.418  -1.744  1.00  0.00     0.011 C 
HETATM   12  C13 UNL     1      -2.092  18.716  -1.902  1.00  0.00     0.058 C 
HETATM   13  C14 UNL     1      -2.590  19.526  -3.099  1.00  0.00     0.016 C 
HETATM   14  N2  UNL     1      -1.792  19.529  -4.205  1.00  0.00    -0.383 N 
ATOM     15  H2  UNL     1      -1.480  20.461  -4.475  1.00  0.00     0.160 HD
ENDROOT
BRANCH  10  16
HETATM   16  C10 UNL     1      -3.503  16.934   0.564  1.00  0.00     0.000 C 
HETATM   17  C11 UNL     1      -2.048  16.596   0.644  1.00  0.00     0.005 C 
ENDBRANCH  10  16
BRANCH  14  18
HETATM   18  C15 UNL     1      -1.326  18.542  -5.026  1.00  0.00     0.031 C 
HETATM   19  C16 UNL     1      -1.986  17.191  -5.039  1.00  0.00     0.035 C 
HETATM   20  C17 UNL     1      -1.410  16.257  -6.073  1.00  0.00    -0.012 C 
HETATM   21  C18 UNL     1      -1.844  16.792  -7.424  1.00  0.00     0.009 C 
HETATM   22  C22 UNL     1       0.068  16.134  -6.075  1.00  0.00     0.009 C 
HETATM   23  C19 UNL     1      -1.316  18.183  -7.534  1.00  0.00    -0.012 C 
HETATM   24  C20 UNL     1       0.209  18.110  -7.596  1.00  0.00     0.009 C 
HETATM   25  C24 UNL     1      -1.663  19.102  -6.443  1.00  0.00     0.035 C 
HETATM   26  C21 UNL     1       0.630  17.547  -6.290  1.00  0.00    -0.012 C 
HETATM   27  C23 UNL     1       0.166  18.331  -5.082  1.00  0.00     0.035 C 
ENDBRANCH  14  18
TORSDOF 2
ENDMDL
MODEL 3
REMARK VINA RESULT: -6.512602580      0.423      1.452
REMARK  2 active torsions:
REMARK  status: ('A' for Active; 'I' for Inactive)
REMARK    1  A    between atoms: C9_10  and  C10_11 
REMARK    2  A    between atoms: N2_16  and  C15_18 
ROOT
HETATM    1  C1  UNL     1      -8.052  18.418  -0.829  1.00  0.00     0.229 C 
HETATM    2  N1  UNL     1      -7.228  18.748  -1.604  1.00  0.00    -0.429 NA
HETATM    3  C2  UNL     1      -6.275  19.141  -2.555  1.00  0.00     0.112 A 
HETATM    4  C3  UNL     1      -6.772  19.562  -3.794  1.00  0.00     0.045 A 
HETATM    5  C4  UNL     1      -5.858  19.941  -4.739  1.00  0.00     0.004 A 
HETATM    6  C5  UNL     1      -4.515  19.905  -4.472  1.00  0.00     0.014 A 
HETATM    7  C6  UNL     1      -4.059  19.495  -3.273  1.00  0.00    -0.004 A 
HETATM    8  C7  UNL     1      -4.928  19.103  -2.281  1.00  0.00    -0.005 A 
HETATM    9  C8  UNL     1      -4.662  18.655  -0.880  1.00  0.00     0.047 C 
HETATM   10  C9  UNL     1      -3.927  17.367  -0.874  1.00  0.00    -0.010 C 
HETATM   11  C12 UNL     1      -2.790  17.413  -1.813  1.00  0.00     0.011 C 
HETATM   12  C13 UNL     1      -2.077  18.707  -1.981  1.00  0.00     0.058 C 
HETATM   13  C14 UNL     1      -2.581  19.517  -3.176  1.00  0.00     0.016 C 
HETATM   14  N2  UNL     1      -1.793  19.513  -4.288  1.00  0.00    -0.383 N 
ATOM     15  H2  UNL     1      -1.478  20.443  -4.563  1.00  0.00     0.160 HD
ENDROOT
BRANCH  10  16
HETATM   16  C10 UNL     1      -3.475  16.938   0.501  1.00  0.00     0.000 C 
HETATM   17  C11 UNL     1      -2.019  16.602   0.572  1.00  0.00     0.005 C 
ENDBRANCH  10  16
BRANCH  14  18
HETATM   18  C15 UNL     1      -1.339  18.522  -5.111  1.00  0.00     0.031 C 
HETATM   19  C16 UNL     1       0.137  18.352  -5.349  1.00  0.00     0.035 C 
HETATM   20  C17 UNL     1       0.468  17.152  -6.200  1.00  0.00    -0.012 C 
HETATM   21  C18 UNL     1       0.180  15.930  -5.349  1.00  0.00     0.009 C 
HETATM   22  C22 UNL     1      -0.299  17.029  -7.463  1.00  0.00     0.009 C 
HETATM   23  C19 UNL     1      -1.259  15.994  -4.963  1.00  0.00    -0.012 C 
HETATM   24  C20 UNL     1      -2.099  15.816  -6.227  1.00  0.00     0.009 C 
HETATM   25  C24 UNL     1      -1.708  17.232  -4.314  1.00  0.00     0.035 C 
HETATM   26  C21 UNL     1      -1.785  16.990  -7.078  1.00  0.00    -0.012 C 
HETATM   27  C23 UNL     1      -2.047  18.332  -6.428  1.00  0.00     0.035 C 
ENDBRANCH  14  18
TORSDOF 2
ENDMDL
MODEL 4
REMARK VINA RESULT: -5.479653440      1.962      7.066
REMARK  2 active torsions:
REMARK  status: ('A' for Active; 'I' for Inactive)
REMARK    1  A    between atoms: C9_10  and  C10_11 
REMARK    2  A    between atoms: N2_16  and  C15_18 
ROOT
HETATM    1  C1  UNL     1       3.883  19.330  -6.570  1.00  0.00     0.229 C 
HETATM    2  N1  UNL     1       2.947  19.641  -5.925  1.00  0.00    -0.429 NA
HETATM    3  C2  UNL     1       1.858  20.032  -5.133  1.00  0.00     0.112 A 
HETATM    4  C3  UNL     1       2.114  21.013  -4.167  1.00  0.00     0.045 A 
HETATM    5  C4  UNL     1       1.066  21.402  -3.377  1.00  0.00     0.004 A 
HETATM    6  C5  UNL     1      -0.177  20.846  -3.534  1.00  0.00     0.014 A 
HETATM    7  C6  UNL     1      -0.399  19.903  -4.469  1.00  0.00    -0.004 A 
HETATM    8  C7  UNL     1       0.613  19.472  -5.296  1.00  0.00    -0.005 A 
HETATM    9  C8  UNL     1       0.596  18.481  -6.415  1.00  0.00     0.047 C 
HETATM   10  C9  UNL     1       0.307  17.119  -5.904  1.00  0.00    -0.010 C 
HETATM   11  C12 UNL     1      -0.847  17.144  -4.984  1.00  0.00     0.011 C 
HETATM   12  C13 UNL     1      -1.940  18.111  -5.264  1.00  0.00     0.058 C 
HETATM   13  C14 UNL     1      -1.798  19.418  -4.483  1.00  0.00     0.016 C 
HETATM   14  N2  UNL     1      -2.617  19.572  -3.404  1.00  0.00    -0.383 N 
ATOM     15  H2  UNL     1      -3.227  20.387  -3.474  1.00  0.00     0.160 HD
ENDROOT
BRANCH  10  16
HETATM   16  C10 UNL     1       0.106  16.097  -6.996  1.00  0.00     0.000 C 
HETATM   17  C11 UNL     1      -0.660  16.620  -8.169  1.00  0.00     0.005 C 
ENDBRANCH  10  16
BRANCH  14  18
HETATM   18  C15 UNL     1      -2.790  18.864  -2.249  1.00  0.00     0.031 C 
HETATM   19  C16 UNL     1      -2.107  19.301  -0.983  1.00  0.00     0.035 C 
HETATM   20  C17 UNL     1      -2.486  18.468   0.215  1.00  0.00    -0.012 C 
HETATM   21  C18 UNL     1      -3.926  18.815   0.541  1.00  0.00     0.009 C 
HETATM   22  C22 UNL     1      -2.392  16.999   0.032  1.00  0.00     0.009 C 
HETATM   23  C19 UNL     1      -4.737  18.500  -0.670  1.00  0.00    -0.012 C 
HETATM   24  C20 UNL     1      -4.720  16.985  -0.873  1.00  0.00     0.009 C 
HETATM   25  C24 UNL     1      -4.297  19.112  -1.929  1.00  0.00     0.035 C 
HETATM   26  C21 UNL     1      -3.304  16.641  -1.150  1.00  0.00    -0.012 C 
HETATM   27  C23 UNL     1      -2.696  17.361  -2.334  1.00  0.00     0.035 C 
ENDBRANCH  14  18
TORSDOF 2
ENDMDL
MODEL 5
REMARK VINA RESULT: -5.279786262      1.950      6.929
REMARK  2 active torsions:
REMARK  status: ('A' for Active; 'I' for Inactive)
REMARK    1  A    between atoms: C9_10  and  C10_11 
REMARK    2  A    between atoms: N2_16  and  C15_18 
ROOT
HETATM    1  C1  UNL     1       3.794  19.300  -6.380  1.00  0.00     0.229 C 
HETATM    2  N1  UNL     1       2.826  19.594  -5.776  1.00  0.00    -0.429 NA
HETATM    3  C2  UNL     1       1.696  19.965  -5.033  1.00  0.00     0.112 A 
HETATM    4  C3  UNL     1       1.892  20.951  -4.058  1.00  0.00     0.045 A 
HETATM    5  C4  UNL     1       0.805  21.321  -3.315  1.00  0.00     0.004 A 
HETATM    6  C5  UNL     1      -0.420  20.742  -3.524  1.00  0.00     0.014 A 
HETATM    7  C6  UNL     1      -0.585  19.794  -4.466  1.00  0.00    -0.004 A 
HETATM    8  C7  UNL     1       0.470  19.381  -5.248  1.00  0.00    -0.005 A 
HETATM    9  C8  UNL     1       0.519  18.389  -6.364  1.00  0.00     0.047 C 
HETATM   10  C9  UNL     1       0.234  17.023  -5.864  1.00  0.00    -0.010 C 
HETATM   11  C12 UNL     1      -0.958  17.027  -4.994  1.00  0.00     0.011 C 
HETATM   12  C13 UNL     1      -2.057  17.973  -5.322  1.00  0.00     0.058 C 
HETATM   13  C14 UNL     1      -1.973  19.283  -4.538  1.00  0.00     0.016 C 
HETATM   14  N2  UNL     1      -2.839  19.423  -3.496  1.00  0.00    -0.383 N 
ATOM     15  H2  UNL     1      -3.460  20.226  -3.593  1.00  0.00     0.160 HD
ENDROOT
BRANCH  10  16
HETATM   16  C10 UNL     1       0.099  15.995  -6.961  1.00  0.00     0.000 C 
HETATM   17  C11 UNL     1      -0.663  16.490  -8.150  1.00  0.00     0.005 C 
ENDBRANCH  10  16
BRANCH  14  18
HETATM   18  C15 UNL     1      -3.048  18.712  -2.348  1.00  0.00     0.031 C 
HETATM   19  C16 UNL     1      -2.486  17.325  -2.203  1.00  0.00     0.035 C 
HETATM   20  C17 UNL     1      -2.725  16.726  -0.840  1.00  0.00    -0.012 C 
HETATM   21  C18 UNL     1      -1.836  17.489   0.124  1.00  0.00     0.009 C 
HETATM   22  C22 UNL     1      -4.119  16.798  -0.341  1.00  0.00     0.009 C 
HETATM   23  C19 UNL     1      -2.229  18.925   0.040  1.00  0.00    -0.012 C 
HETATM   24  C20 UNL     1      -3.646  19.064   0.596  1.00  0.00     0.009 C 
HETATM   25  C24 UNL     1      -2.227  19.526  -1.299  1.00  0.00     0.035 C 
HETATM   26  C21 UNL     1      -4.509  18.283  -0.324  1.00  0.00    -0.012 C 
HETATM   27  C23 UNL     1      -4.442  18.713  -1.773  1.00  0.00     0.035 C 
ENDBRANCH  14  18
TORSDOF 2
ENDMDL
