MODEL 1
REMARK VINA RESULT: -6.473983318      0.000      0.000
REMARK  3 active torsions:
REMARK  status: ('A' for Active; 'I' for Inactive)
REMARK    1  A    between atoms: C2_2  and  C3_3 
REMARK    2  A    between atoms: C3_3  and  N1_4 
REMARK       I    between atoms: N1_4  and  C4_6 
REMARK    3  A    between atoms: C4_6  and  C5_8 
ROOT
HETATM    1  C5  UNL     1      -3.582  18.432  -0.991  1.00  0.00     0.086 C 
HETATM    2  C6  UNL     1      -3.326  19.716  -0.182  1.00  0.00     0.015 C 
HETATM    3  C7  UNL     1      -1.815  19.690  -0.125  1.00  0.00     0.007 C 
HETATM    4  C8  UNL     1      -1.358  18.960  -1.336  1.00  0.00    -0.001 C 
HETATM    5  C9  UNL     1      -0.475  19.825  -2.165  1.00  0.00    -0.001 C 
HETATM    6  C10 UNL     1      -0.730  21.283  -2.061  1.00  0.00     0.033 C 
HETATM    7  C11 UNL     1      -0.397  22.060  -3.302  1.00  0.00    -0.018 C 
HETATM    8  C12 UNL     1       0.242  21.528  -4.308  1.00  0.00    -0.047 C 
HETATM    9  C13 UNL     1       0.453  22.477  -5.409  1.00  0.00     0.004 C 
HETATM   10  C14 UNL     1       1.259  22.138  -6.579  1.00  0.00    -0.025 C 
HETATM   11  C15 UNL     1       0.883  21.057  -7.539  1.00  0.00     0.038 C 
HETATM   12  C16 UNL     1       1.144  19.616  -6.987  1.00  0.00     0.084 C 
HETATM   13  C17 UNL     1       0.926  19.640  -5.590  1.00  0.00    -0.173 C 
HETATM   14  C18 UNL     1       0.663  20.072  -4.259  1.00  0.00     0.089 C 
HETATM   15  C19 UNL     1      -0.452  19.278  -3.547  1.00  0.00     0.009 C 
HETATM   16  C20 UNL     1      -1.738  19.308  -4.254  1.00  0.00     0.007 C 
HETATM   17  C21 UNL     1      -2.914  19.269  -3.277  1.00  0.00     0.011 C 
HETATM   18  C22 UNL     1      -2.609  18.474  -2.064  1.00  0.00    -0.028 C 
HETATM   19  C23 UNL     1      -2.340  17.036  -2.535  1.00  0.00     0.016 C 
ENDROOT
BRANCH   1  20
HETATM   20  C4  UNL     1      -4.995  18.326  -1.216  1.00  0.00     0.222 C 
HETATM   21  N1  UNL     1      -5.925  19.323  -1.518  1.00  0.00    -0.361 N 
ATOM     22  H1  UNL     1      -5.597  20.285  -1.600  1.00  0.00     0.162 HD
HETATM   23  O1  UNL     1      -5.489  17.141  -1.128  1.00  0.00    -0.273 OA
BRANCH  21  24
HETATM   24  C3  UNL     1      -7.327  19.055  -1.720  1.00  0.00     0.122 C 
BRANCH  24  25
HETATM   25  C2  UNL     1      -7.861  19.744  -2.944  1.00  0.00     0.015 C 
HETATM   26  C1  UNL     1      -6.646  20.156  -3.781  1.00  0.00     0.006 C 
ENDBRANCH  24  25
ENDBRANCH  21  24
ENDBRANCH   1  20
TORSDOF 3
ENDMDL
MODEL 2
REMARK VINA RESULT: -6.093233110      1.242      1.653
REMARK  3 active torsions:
REMARK  status: ('A' for Active; 'I' for Inactive)
REMARK    1  A    between atoms: C2_2  and  C3_3 
REMARK    2  A    between atoms: C3_3  and  N1_4 
REMARK       I    between atoms: N1_4  and  C4_6 
REMARK    3  A    between atoms: C4_6  and  C5_8 
ROOT
HETATM    1  C5  UNL     1      -3.785  19.071  -1.384  1.00  0.00     0.086 C 
HETATM    2  C6  UNL     1      -3.219  20.477  -1.111  1.00  0.00     0.015 C 
HETATM    3  C7  UNL     1      -1.741  20.158  -1.075  1.00  0.00     0.007 C 
HETATM    4  C8  UNL     1      -1.543  18.965  -1.937  1.00  0.00    -0.001 C 
HETATM    5  C9  UNL     1      -0.593  19.272  -3.042  1.00  0.00    -0.001 C 
HETATM    6  C10 UNL     1      -0.560  20.689  -3.481  1.00  0.00     0.033 C 
HETATM    7  C11 UNL     1      -0.204  20.881  -4.926  1.00  0.00    -0.018 C 
HETATM    8  C12 UNL     1       0.229  19.904  -5.675  1.00  0.00    -0.047 C 
HETATM    9  C13 UNL     1       0.511  20.328  -7.052  1.00  0.00     0.004 C 
HETATM   10  C14 UNL     1       1.128  19.432  -8.027  1.00  0.00    -0.025 C 
HETATM   11  C15 UNL     1       0.469  18.183  -8.512  1.00  0.00     0.038 C 
HETATM   12  C16 UNL     1       0.506  17.015  -7.471  1.00  0.00     0.084 C 
HETATM   13  C17 UNL     1       0.426  17.584  -6.179  1.00  0.00    -0.173 C 
HETATM   14  C18 UNL     1       0.372  18.508  -5.098  1.00  0.00     0.089 C 
HETATM   15  C19 UNL     1      -0.801  18.274  -4.124  1.00  0.00     0.009 C 
HETATM   16  C20 UNL     1      -2.119  18.314  -4.770  1.00  0.00     0.007 C 
HETATM   17  C21 UNL     1      -3.186  18.875  -3.828  1.00  0.00     0.011 C 
HETATM   18  C22 UNL     1      -2.924  18.523  -2.412  1.00  0.00    -0.028 C 
HETATM   19  C23 UNL     1      -2.974  16.989  -2.323  1.00  0.00     0.016 C 
ENDROOT
BRANCH   1  20
HETATM   20  C4  UNL     1      -5.207  19.188  -1.530  1.00  0.00     0.222 C 
HETATM   21  N1  UNL     1      -5.951  20.058  -2.331  1.00  0.00    -0.361 N 
ATOM     22  H1  UNL     1      -5.452  20.728  -2.915  1.00  0.00     0.162 HD
HETATM   23  O1  UNL     1      -5.912  18.377  -0.822  1.00  0.00    -0.273 OA
BRANCH  21  24
HETATM   24  C3  UNL     1      -7.392  20.052  -2.369  1.00  0.00     0.122 C 
BRANCH  24  25
HETATM   25  C2  UNL     1      -7.916  19.944  -3.774  1.00  0.00     0.015 C 
HETATM   26  C1  UNL     1      -6.696  19.786  -4.687  1.00  0.00     0.006 C 
ENDBRANCH  24  25
ENDBRANCH  21  24
ENDBRANCH   1  20
TORSDOF 3
ENDMDL
MODEL 3
REMARK VINA RESULT: -5.944862059      1.606      2.160
REMARK  3 active torsions:
REMARK  status: ('A' for Active; 'I' for Inactive)
REMARK    1  A    between atoms: C2_2  and  C3_3 
REMARK    2  A    between atoms: C3_3  and  N1_4 
REMARK       I    between atoms: N1_4  and  C4_6 
REMARK    3  A    between atoms: C4_6  and  C5_8 
ROOT
HETATM    1  C5  UNL     1      -3.944  19.184  -1.422  1.00  0.00     0.086 C 
HETATM    2  C6  UNL     1      -3.273  20.542  -1.146  1.00  0.00     0.015 C 
HETATM    3  C7  UNL     1      -1.826  20.109  -1.087  1.00  0.00     0.007 C 
HETATM    4  C8  UNL     1      -1.710  18.900  -1.943  1.00  0.00    -0.001 C 
HETATM    5  C9  UNL     1      -0.724  19.126  -3.035  1.00  0.00    -0.001 C 
HETATM    6  C10 UNL     1      -0.574  20.535  -3.478  1.00  0.00     0.033 C 
HETATM    7  C11 UNL     1      -0.183  20.692  -4.919  1.00  0.00    -0.018 C 
HETATM    8  C12 UNL     1       0.182  19.680  -5.657  1.00  0.00    -0.047 C 
HETATM    9  C13 UNL     1       0.516  20.074  -7.032  1.00  0.00     0.004 C 
HETATM   10  C14 UNL     1       1.074  19.129  -7.995  1.00  0.00    -0.025 C 
HETATM   11  C15 UNL     1       0.326  17.933  -8.486  1.00  0.00     0.038 C 
HETATM   12  C16 UNL     1       0.257  16.771  -7.440  1.00  0.00     0.084 C 
HETATM   13  C17 UNL     1       0.203  17.349  -6.151  1.00  0.00    -0.173 C 
HETATM   14  C18 UNL     1       0.207  18.280  -5.074  1.00  0.00     0.089 C 
HETATM   15  C19 UNL     1      -0.994  18.143  -4.116  1.00  0.00     0.009 C 
HETATM   16  C20 UNL     1      -2.295  18.284  -4.781  1.00  0.00     0.007 C 
HETATM   17  C21 UNL     1      -3.328  18.930  -3.856  1.00  0.00     0.011 C 
HETATM   18  C22 UNL     1      -3.115  18.565  -2.436  1.00  0.00    -0.028 C 
HETATM   19  C23 UNL     1      -3.286  17.040  -2.342  1.00  0.00     0.016 C 
ENDROOT
BRANCH   1  20
HETATM   20  C4  UNL     1      -5.351  19.412  -1.588  1.00  0.00     0.222 C 
HETATM   21  N1  UNL     1      -6.434  18.753  -1.002  1.00  0.00    -0.361 N 
ATOM     22  H1  UNL     1      -6.245  17.989  -0.353  1.00  0.00     0.162 HD
HETATM   23  O1  UNL     1      -5.674  20.360  -2.395  1.00  0.00    -0.273 OA
BRANCH  21  24
HETATM   24  C3  UNL     1      -7.806  19.103  -1.271  1.00  0.00     0.122 C 
BRANCH  24  25
HETATM   25  C2  UNL     1      -8.559  17.973  -1.916  1.00  0.00     0.015 C 
HETATM   26  C1  UNL     1      -9.511  17.417  -0.853  1.00  0.00     0.006 C 
ENDBRANCH  24  25
ENDBRANCH  21  24
ENDBRANCH   1  20
TORSDOF 3
ENDMDL
MODEL 4
REMARK VINA RESULT: -4.917970227      0.886      1.128
REMARK  3 active torsions:
REMARK  status: ('A' for Active; 'I' for Inactive)
REMARK    1  A    between atoms: C2_2  and  C3_3 
REMARK    2  A    between atoms: C3_3  and  N1_4 
REMARK       I    between atoms: N1_4  and  C4_6 
REMARK    3  A    between atoms: C4_6  and  C5_8 
ROOT
HETATM    1  C5  UNL     1      -2.898  18.539  -1.536  1.00  0.00     0.086 C 
HETATM    2  C6  UNL     1      -2.416  19.809  -0.812  1.00  0.00     0.015 C 
HETATM    3  C7  UNL     1      -0.927  19.692  -1.047  1.00  0.00     0.007 C 
HETATM    4  C8  UNL     1      -0.756  18.931  -2.311  1.00  0.00    -0.001 C 
HETATM    5  C9  UNL     1      -0.000  19.738  -3.308  1.00  0.00    -0.001 C 
HETATM    6  C10 UNL     1      -0.146  21.209  -3.181  1.00  0.00     0.033 C 
HETATM    7  C11 UNL     1      -0.015  21.958  -4.475  1.00  0.00    -0.018 C 
HETATM    8  C12 UNL     1       0.386  21.385  -5.577  1.00  0.00    -0.047 C 
HETATM    9  C13 UNL     1       0.436  22.313  -6.714  1.00  0.00     0.004 C 
HETATM   10  C14 UNL     1       0.979  21.921  -8.011  1.00  0.00    -0.025 C 
HETATM   11  C15 UNL     1       0.363  20.860  -8.862  1.00  0.00     0.038 C 
HETATM   12  C16 UNL     1       0.642  19.409  -8.348  1.00  0.00     0.084 C 
HETATM   13  C17 UNL     1       0.699  19.453  -6.936  1.00  0.00    -0.173 C 
HETATM   14  C18 UNL     1       0.724  19.906  -5.587  1.00  0.00     0.089 C 
HETATM   15  C19 UNL     1      -0.277  19.184  -4.660  1.00  0.00     0.009 C 
HETATM   16  C20 UNL     1      -1.671  19.287  -5.107  1.00  0.00     0.007 C 
HETATM   17  C21 UNL     1      -2.636  19.324  -3.920  1.00  0.00     0.011 C 
HETATM   18  C22 UNL     1      -2.150  18.518  -2.776  1.00  0.00    -0.028 C 
HETATM   19  C23 UNL     1      -2.061  17.063  -3.267  1.00  0.00     0.016 C 
ENDROOT
BRANCH   1  20
HETATM   20  C4  UNL     1      -4.331  18.517  -1.483  1.00  0.00     0.222 C 
HETATM   21  N1  UNL     1      -5.254  19.440  -1.979  1.00  0.00    -0.361 N 
ATOM     22  H1  UNL     1      -4.904  20.269  -2.457  1.00  0.00     0.162 HD
HETATM   23  O1  UNL     1      -4.855  17.501  -0.892  1.00  0.00    -0.273 OA
BRANCH  21  24
HETATM   24  C3  UNL     1      -6.680  19.274  -1.847  1.00  0.00     0.122 C 
BRANCH  24  25
HETATM   25  C2  UNL     1      -7.442  20.327  -2.602  1.00  0.00     0.015 C 
HETATM   26  C1  UNL     1      -7.946  19.667  -3.889  1.00  0.00     0.006 C 
ENDBRANCH  24  25
ENDBRANCH  21  24
ENDBRANCH   1  20
TORSDOF 3
ENDMDL
MODEL 5
REMARK VINA RESULT: -4.467478655      1.085      1.232
REMARK  3 active torsions:
REMARK  status: ('A' for Active; 'I' for Inactive)
REMARK    1  A    between atoms: C2_2  and  C3_3 
REMARK    2  A    between atoms: C3_3  and  N1_4 
REMARK       I    between atoms: N1_4  and  C4_6 
REMARK    3  A    between atoms: C4_6  and  C5_8 
ROOT
HETATM    1  C5  UNL     1      -4.728  18.417  -0.727  1.00  0.00     0.086 C 
HETATM    2  C6  UNL     1      -4.224  19.412   0.335  1.00  0.00     0.015 C 
HETATM    3  C7  UNL     1      -2.761  19.032   0.373  1.00  0.00     0.007 C 
HETATM    4  C8  UNL     1      -2.429  18.486  -0.968  1.00  0.00    -0.001 C 
HETATM    5  C9  UNL     1      -1.342  19.281  -1.602  1.00  0.00    -0.001 C 
HETATM    6  C10 UNL     1      -1.269  20.704  -1.190  1.00  0.00     0.033 C 
HETATM    7  C11 UNL     1      -0.720  21.625  -2.240  1.00  0.00    -0.018 C 
HETATM    8  C12 UNL     1      -0.175  21.183  -3.341  1.00  0.00    -0.047 C 
HETATM    9  C13 UNL     1       0.288  22.266  -4.218  1.00  0.00     0.004 C 
HETATM   10  C14 UNL     1       1.045  22.004  -5.439  1.00  0.00    -0.025 C 
HETATM   11  C15 UNL     1       0.476  21.261  -6.603  1.00  0.00     0.038 C 
HETATM   12  C16 UNL     1       0.386  19.716  -6.370  1.00  0.00     0.084 C 
HETATM   13  C17 UNL     1       0.122  19.498  -4.999  1.00  0.00    -0.173 C 
HETATM   14  C18 UNL     1      -0.093  19.692  -3.605  1.00  0.00     0.089 C 
HETATM   15  C19 UNL     1      -1.385  19.042  -3.068  1.00  0.00     0.009 C 
HETATM   16  C20 UNL     1      -2.602  19.509  -3.744  1.00  0.00     0.007 C 
HETATM   17  C21 UNL     1      -3.796  19.537  -2.788  1.00  0.00     0.011 C 
HETATM   18  C22 UNL     1      -3.726  18.459  -1.773  1.00  0.00    -0.028 C 
HETATM   19  C23 UNL     1      -3.766  17.127  -2.540  1.00  0.00     0.016 C 
ENDROOT
BRANCH   1  20
HETATM   20  C4  UNL     1      -6.118  18.683  -0.958  1.00  0.00     0.222 C 
HETATM   21  N1  UNL     1      -6.898  18.418  -2.085  1.00  0.00    -0.361 N 
ATOM     22  H1  UNL     1      -6.457  17.970  -2.888  1.00  0.00     0.162 HD
HETATM   23  O1  UNL     1      -6.748  19.251   0.009  1.00  0.00    -0.273 OA
BRANCH  21  24
HETATM   24  C3  UNL     1      -8.300  18.748  -2.166  1.00  0.00     0.122 C 
BRANCH  24  25
HETATM   25  C2  UNL     1      -8.561  19.858  -3.145  1.00  0.00     0.015 C 
HETATM   26  C1  UNL     1      -7.310  19.973  -4.022  1.00  0.00     0.006 C 
ENDBRANCH  24  25
ENDBRANCH  21  24
ENDBRANCH   1  20
TORSDOF 3
ENDMDL
