MODEL 1
REMARK VINA RESULT: -7.855022941      0.000      0.000
REMARK  4 active torsions:
REMARK  status: ('A' for Active; 'I' for Inactive)
REMARK    1  A    between atoms: C2_2  and  C4_4 
REMARK    2  A    between atoms: C4_4  and  C5_5 
REMARK    3  A    between atoms: C5_5  and  C6_6 
REMARK    4  A    between atoms: C20_20  and  O1_21 
ROOT
HETATM    1  C6  UNL     1      -5.403  18.483  -1.378  1.00  0.00    -0.024 C 
HETATM    2  C7  UNL     1      -4.123  18.433  -1.146  1.00  0.00    -0.079 C 
HETATM    3  C8  UNL     1      -3.305  18.609   0.040  1.00  0.00     0.034 C 
HETATM    4  C9  UNL     1      -2.166  19.512  -0.531  1.00  0.00     0.010 C 
HETATM    5  C10 UNL     1      -1.829  18.635  -1.734  1.00  0.00    -0.002 C 
HETATM    6  C11 UNL     1      -3.090  18.106  -2.249  1.00  0.00     0.019 C 
HETATM    7  C12 UNL     1      -3.612  18.682  -3.518  1.00  0.00     0.010 C 
HETATM    8  C13 UNL     1      -2.600  19.213  -4.460  1.00  0.00     0.006 C 
HETATM    9  C14 UNL     1      -1.215  18.747  -4.122  1.00  0.00    -0.002 C 
HETATM   10  C15 UNL     1      -0.930  19.308  -2.723  1.00  0.00    -0.005 C 
HETATM   11  C16 UNL     1      -1.035  20.811  -2.714  1.00  0.00     0.006 C 
HETATM   12  C17 UNL     1      -0.298  21.448  -3.837  1.00  0.00     0.006 C 
HETATM   13  C18 UNL     1       0.554  20.453  -4.547  1.00  0.00    -0.004 C 
HETATM   14  C19 UNL     1       1.348  21.046  -5.688  1.00  0.00     0.037 C 
HETATM   15  C20 UNL     1       2.391  20.065  -6.108  1.00  0.00     0.118 C 
HETATM   16  C21 UNL     1       1.938  18.668  -6.273  1.00  0.00     0.032 C 
HETATM   17  C22 UNL     1       0.898  18.195  -5.320  1.00  0.00     0.012 C 
HETATM   18  C23 UNL     1      -0.174  19.263  -5.077  1.00  0.00    -0.036 C 
HETATM   19  C24 UNL     1      -0.812  19.516  -6.435  1.00  0.00     0.016 C 
ENDROOT
BRANCH   1  20
HETATM   20  C5  UNL     1      -6.543  18.738  -0.533  1.00  0.00     0.028 C 
BRANCH  20  21
HETATM   21  C4  UNL     1      -7.603  19.579  -1.100  1.00  0.00     0.007 C 
BRANCH  21  22
HETATM   22  C2  UNL     1      -8.322  18.767  -2.218  1.00  0.00    -0.023 C 
HETATM   23  C1  UNL     1      -9.210  17.771  -1.547  1.00  0.00     0.009 C 
HETATM   24  C3  UNL     1      -9.174  19.772  -2.962  1.00  0.00     0.009 C 
ENDBRANCH  21  22
ENDBRANCH  20  21
ENDBRANCH   1  20
BRANCH  15  25
HETATM   25  O1  UNL     1       3.480  20.197  -5.234  1.00  0.00    -0.396 OA
ATOM     26  H1  UNL     1       3.445  19.478  -4.615  1.00  0.00     0.210 HD
ENDBRANCH  15  25
TORSDOF 4
ENDMDL
MODEL 2
REMARK VINA RESULT: -5.982091958      1.774      2.936
REMARK  4 active torsions:
REMARK  status: ('A' for Active; 'I' for Inactive)
REMARK    1  A    between atoms: C2_2  and  C4_4 
REMARK    2  A    between atoms: C4_4  and  C5_5 
REMARK    3  A    between atoms: C5_5  and  C6_6 
REMARK    4  A    between atoms: C20_20  and  O1_21 
ROOT
HETATM    1  C6  UNL     1      -5.316  18.439  -1.466  1.00  0.00    -0.024 C 
HETATM    2  C7  UNL     1      -5.019  19.164  -2.506  1.00  0.00    -0.079 C 
HETATM    3  C8  UNL     1      -5.794  19.978  -3.423  1.00  0.00     0.034 C 
HETATM    4  C9  UNL     1      -5.180  19.534  -4.788  1.00  0.00     0.010 C 
HETATM    5  C10 UNL     1      -3.718  19.753  -4.406  1.00  0.00    -0.002 C 
HETATM    6  C11 UNL     1      -3.568  19.332  -3.015  1.00  0.00     0.019 C 
HETATM    7  C12 UNL     1      -2.864  18.047  -2.756  1.00  0.00     0.010 C 
HETATM    8  C13 UNL     1      -1.851  17.642  -3.758  1.00  0.00     0.006 C 
HETATM    9  C14 UNL     1      -1.465  18.778  -4.659  1.00  0.00    -0.002 C 
HETATM   10  C15 UNL     1      -2.755  19.170  -5.391  1.00  0.00    -0.005 C 
HETATM   11  C16 UNL     1      -3.311  18.003  -6.164  1.00  0.00     0.006 C 
HETATM   12  C17 UNL     1      -2.281  17.307  -6.981  1.00  0.00     0.006 C 
HETATM   13  C18 UNL     1      -1.012  18.087  -7.012  1.00  0.00    -0.004 C 
HETATM   14  C19 UNL     1       0.070  17.441  -7.847  1.00  0.00     0.037 C 
HETATM   15  C20 UNL     1       1.156  18.438  -8.079  1.00  0.00     0.118 C 
HETATM   16  C21 UNL     1       1.602  19.199  -6.893  1.00  0.00     0.032 C 
HETATM   17  C22 UNL     1       0.549  19.553  -5.903  1.00  0.00     0.012 C 
HETATM   18  C23 UNL     1      -0.425  18.392  -5.675  1.00  0.00    -0.036 C 
HETATM   19  C24 UNL     1       0.421  17.253  -5.125  1.00  0.00     0.016 C 
ENDROOT
BRANCH   1  20
HETATM   20  C5  UNL     1      -6.560  18.150  -0.796  1.00  0.00     0.028 C 
BRANCH  20  21
HETATM   21  C4  UNL     1      -7.648  19.115  -0.992  1.00  0.00     0.007 C 
BRANCH  21  22
HETATM   22  C2  UNL     1      -8.633  18.528  -2.047  1.00  0.00    -0.023 C 
HETATM   23  C1  UNL     1      -9.557  17.599  -1.328  1.00  0.00     0.009 C 
HETATM   24  C3  UNL     1      -9.422  19.711  -2.564  1.00  0.00     0.009 C 
ENDBRANCH  21  22
ENDBRANCH  20  21
ENDBRANCH   1  20
BRANCH  15  25
HETATM   25  O1  UNL     1       0.767  19.254  -9.151  1.00  0.00    -0.396 OA
ATOM     26  H1  UNL     1       1.515  19.352  -9.727  1.00  0.00     0.210 HD
ENDBRANCH  15  25
TORSDOF 4
ENDMDL
MODEL 3
REMARK VINA RESULT: -5.581492969      1.964      4.543
REMARK  4 active torsions:
REMARK  status: ('A' for Active; 'I' for Inactive)
REMARK    1  A    between atoms: C2_2  and  C4_4 
REMARK    2  A    between atoms: C4_4  and  C5_5 
REMARK    3  A    between atoms: C5_5  and  C6_6 
REMARK    4  A    between atoms: C20_20  and  O1_21 
ROOT
HETATM    1  C6  UNL     1      -8.780  18.011  -1.135  1.00  0.00    -0.024 C 
HETATM    2  C7  UNL     1      -8.193  18.961  -1.806  1.00  0.00    -0.079 C 
HETATM    3  C8  UNL     1      -8.562  19.754  -2.964  1.00  0.00     0.034 C 
HETATM    4  C9  UNL     1      -7.232  19.703  -3.780  1.00  0.00     0.010 C 
HETATM    5  C10 UNL     1      -6.309  20.142  -2.645  1.00  0.00    -0.002 C 
HETATM    6  C11 UNL     1      -6.800  19.512  -1.422  1.00  0.00     0.019 C 
HETATM    7  C12 UNL     1      -6.018  18.372  -0.872  1.00  0.00     0.010 C 
HETATM    8  C13 UNL     1      -4.566  18.374  -1.164  1.00  0.00     0.006 C 
HETATM    9  C14 UNL     1      -4.091  19.711  -1.654  1.00  0.00    -0.002 C 
HETATM   10  C15 UNL     1      -4.858  19.958  -2.959  1.00  0.00    -0.005 C 
HETATM   11  C16 UNL     1      -4.587  18.865  -3.959  1.00  0.00     0.006 C 
HETATM   12  C17 UNL     1      -3.139  18.557  -4.099  1.00  0.00     0.006 C 
HETATM   13  C18 UNL     1      -2.308  19.571  -3.392  1.00  0.00    -0.004 C 
HETATM   14  C19 UNL     1      -0.823  19.324  -3.517  1.00  0.00     0.037 C 
HETATM   15  C20 UNL     1      -0.094  20.547  -3.069  1.00  0.00     0.118 C 
HETATM   16  C21 UNL     1      -0.560  21.152  -1.803  1.00  0.00     0.032 C 
HETATM   17  C22 UNL     1      -2.023  21.095  -1.545  1.00  0.00     0.012 C 
HETATM   18  C23 UNL     1      -2.615  19.738  -1.942  1.00  0.00    -0.036 C 
HETATM   19  C24 UNL     1      -1.909  18.714  -1.065  1.00  0.00     0.016 C 
ENDROOT
BRANCH   1  20
HETATM   20  C5  UNL     1     -10.057  17.357  -1.276  1.00  0.00     0.028 C 
BRANCH  20  21
HETATM   21  C4  UNL     1     -10.343  16.271  -0.332  1.00  0.00     0.007 C 
BRANCH  21  22
HETATM   22  C2  UNL     1     -11.464  16.752   0.637  1.00  0.00    -0.023 C 
HETATM   23  C1  UNL     1     -12.755  16.182   0.145  1.00  0.00     0.009 C 
HETATM   24  C3  UNL     1     -11.129  16.139   1.979  1.00  0.00     0.009 C 
ENDBRANCH  21  22
ENDBRANCH  20  21
ENDBRANCH   1  20
BRANCH  15  25
HETATM   25  O1  UNL     1      -0.070  21.450  -4.142  1.00  0.00    -0.396 OA
ATOM     26  H1  UNL     1      -0.617  21.095  -4.832  1.00  0.00     0.210 HD
ENDBRANCH  15  25
TORSDOF 4
ENDMDL
MODEL 4
REMARK VINA RESULT: -5.513819266      1.163      1.592
REMARK  4 active torsions:
REMARK  status: ('A' for Active; 'I' for Inactive)
REMARK    1  A    between atoms: C2_2  and  C4_4 
REMARK    2  A    between atoms: C4_4  and  C5_5 
REMARK    3  A    between atoms: C5_5  and  C6_6 
REMARK    4  A    between atoms: C20_20  and  O1_21 
ROOT
HETATM    1  C6  UNL     1      -6.246  19.621  -3.221  1.00  0.00    -0.024 C 
HETATM    2  C7  UNL     1      -5.186  19.157  -2.622  1.00  0.00    -0.079 C 
HETATM    3  C8  UNL     1      -4.770  19.068  -1.235  1.00  0.00     0.034 C 
HETATM    4  C9  UNL     1      -3.287  19.544  -1.351  1.00  0.00     0.010 C 
HETATM    5  C10 UNL     1      -2.882  18.594  -2.476  1.00  0.00    -0.002 C 
HETATM    6  C11 UNL     1      -4.016  18.501  -3.391  1.00  0.00     0.019 C 
HETATM    7  C12 UNL     1      -3.906  19.204  -4.698  1.00  0.00     0.010 C 
HETATM    8  C13 UNL     1      -2.537  19.367  -5.240  1.00  0.00     0.006 C 
HETATM    9  C14 UNL     1      -1.547  18.476  -4.548  1.00  0.00    -0.002 C 
HETATM   10  C15 UNL     1      -1.556  18.926  -3.082  1.00  0.00    -0.005 C 
HETATM   11  C16 UNL     1      -1.182  20.381  -2.963  1.00  0.00     0.006 C 
HETATM   12  C17 UNL     1       0.031  20.732  -3.749  1.00  0.00     0.006 C 
HETATM   13  C18 UNL     1       0.706  19.507  -4.262  1.00  0.00    -0.004 C 
HETATM   14  C19 UNL     1       1.961  19.798  -5.051  1.00  0.00     0.037 C 
HETATM   15  C20 UNL     1       2.720  18.526  -5.230  1.00  0.00     0.118 C 
HETATM   16  C21 UNL     1       1.929  17.352  -5.655  1.00  0.00     0.032 C 
HETATM   17  C22 UNL     1       0.550  17.253  -5.105  1.00  0.00     0.012 C 
HETATM   18  C23 UNL     1      -0.153  18.616  -5.094  1.00  0.00    -0.036 C 
HETATM   19  C24 UNL     1      -0.221  19.050  -6.551  1.00  0.00     0.016 C 
ENDROOT
BRANCH   1  20
HETATM   20  C5  UNL     1      -7.452  20.242  -2.735  1.00  0.00     0.028 C 
BRANCH  20  21
HETATM   21  C4  UNL     1      -8.635  19.380  -2.631  1.00  0.00     0.007 C 
BRANCH  21  22
HETATM   22  C2  UNL     1      -8.343  18.279  -1.569  1.00  0.00    -0.023 C 
HETATM   23  C1  UNL     1      -8.027  18.971  -0.282  1.00  0.00     0.009 C 
HETATM   24  C3  UNL     1      -9.637  17.511  -1.415  1.00  0.00     0.009 C 
ENDBRANCH  21  22
ENDBRANCH  20  21
ENDBRANCH   1  20
BRANCH  15  25
HETATM   25  O1  UNL     1       3.464  18.303  -4.063  1.00  0.00    -0.396 OA
ATOM     26  H1  UNL     1       3.751  17.398  -4.070  1.00  0.00     0.210 HD
ENDBRANCH  15  25
TORSDOF 4
ENDMDL
MODEL 5
REMARK VINA RESULT: -4.902547458      3.000      8.034
REMARK  4 active torsions:
REMARK  status: ('A' for Active; 'I' for Inactive)
REMARK    1  A    between atoms: C2_2  and  C4_4 
REMARK    2  A    between atoms: C4_4  and  C5_5 
REMARK    3  A    between atoms: C5_5  and  C6_6 
REMARK    4  A    between atoms: C20_20  and  O1_21 
ROOT
HETATM    1  C6  UNL     1      -0.067  20.027  -3.205  1.00  0.00    -0.024 C 
HETATM    2  C7  UNL     1      -1.000  19.264  -3.698  1.00  0.00    -0.079 C 
HETATM    3  C8  UNL     1      -1.209  18.634  -4.989  1.00  0.00     0.034 C 
HETATM    4  C9  UNL     1      -2.721  18.951  -5.220  1.00  0.00     0.010 C 
HETATM    5  C10 UNL     1      -3.219  18.432  -3.873  1.00  0.00    -0.002 C 
HETATM    6  C11 UNL     1      -2.223  18.803  -2.872  1.00  0.00     0.019 C 
HETATM    7  C12 UNL     1      -2.561  19.913  -1.940  1.00  0.00     0.010 C 
HETATM    8  C13 UNL     1      -4.001  20.107  -1.649  1.00  0.00     0.006 C 
HETATM    9  C14 UNL     1      -4.824  18.922  -2.063  1.00  0.00    -0.002 C 
HETATM   10  C15 UNL     1      -4.637  18.811  -3.581  1.00  0.00    -0.005 C 
HETATM   11  C16 UNL     1      -5.082  20.074  -4.273  1.00  0.00     0.006 C 
HETATM   12  C17 UNL     1      -6.413  20.547  -3.810  1.00  0.00     0.006 C 
HETATM   13  C18 UNL     1      -7.075  19.523  -2.955  1.00  0.00    -0.004 C 
HETATM   14  C19 UNL     1      -8.445  19.937  -2.470  1.00  0.00     0.037 C 
HETATM   15  C20 UNL     1      -9.139  18.739  -1.914  1.00  0.00     0.118 C 
HETATM   16  C21 UNL     1      -8.343  17.893  -1.000  1.00  0.00     0.032 C 
HETATM   17  C22 UNL     1      -6.896  17.757  -1.321  1.00  0.00     0.012 C 
HETATM   18  C23 UNL     1      -6.287  19.093  -1.762  1.00  0.00    -0.036 C 
HETATM   19  C24 UNL     1      -6.455  20.029  -0.574  1.00  0.00     0.016 C 
ENDROOT
BRANCH   1  20
HETATM   20  C5  UNL     1       1.154  20.562  -3.753  1.00  0.00     0.028 C 
BRANCH  20  21
HETATM   21  C4  UNL     1       1.024  21.749  -4.606  1.00  0.00     0.007 C 
BRANCH  21  22
HETATM   22  C2  UNL     1       1.771  21.470  -5.944  1.00  0.00    -0.023 C 
HETATM   23  C1  UNL     1       2.613  20.253  -5.741  1.00  0.00     0.009 C 
HETATM   24  C3  UNL     1       0.688  21.162  -6.954  1.00  0.00     0.009 C 
ENDBRANCH  21  22
ENDBRANCH  20  21
ENDBRANCH   1  20
BRANCH  15  25
HETATM   25  O1  UNL     1      -9.695  18.028  -2.988  1.00  0.00    -0.396 OA
ATOM     26  H1  UNL     1     -10.545  17.706  -2.714  1.00  0.00     0.210 HD
ENDBRANCH  15  25
TORSDOF 4
ENDMDL
