MODEL 1
REMARK VINA RESULT: -6.613279369      0.000      0.000
REMARK  4 active torsions:
REMARK  status: ('A' for Active; 'I' for Inactive)
REMARK    1  A    between atoms: C4_5  and  C5_6 
REMARK       I    between atoms: C5_6  and  N1_8 
REMARK    2  A    between atoms: N1_8  and  N2_10 
REMARK       I    between atoms: N2_10  and  C6_12 
REMARK    3  A    between atoms: C6_12  and  O3_14 
REMARK    4  A    between atoms: O3_14  and  C7_15 
ROOT
HETATM    1  C5  UNL     1      15.264   6.009   0.726  1.00  0.00     0.277 C 
HETATM    2  O1  UNL     1      16.287   5.794   1.448  1.00  0.00    -0.265 OA
HETATM    3  N1  UNL     1      14.916   7.355   0.443  1.00  0.00    -0.261 N 
ATOM      4  H1  UNL     1      14.096   7.536  -0.136  1.00  0.00     0.190 HD
ENDROOT
BRANCH   3   5
HETATM    5  N2  UNL     1      15.643   8.433   0.919  1.00  0.00    -0.242 N 
HETATM    6  C6  UNL     1      15.020   9.688   1.097  1.00  0.00     0.379 C 
HETATM    7  O2  UNL     1      13.785   9.850   0.822  1.00  0.00    -0.237 OA
ATOM      8  H2  UNL     1      16.632   8.321   1.142  1.00  0.00     0.192 HD
BRANCH   6   9
HETATM    9  O3  UNL     1      15.670  10.811   1.565  1.00  0.00    -0.298 OA
BRANCH   9  10
HETATM   10  C7  UNL     1      16.408  10.818   2.765  1.00  0.00     0.125 C 
HETATM   11  C8  UNL     1      17.728  11.496   2.669  1.00  0.00     0.040 C 
HETATM   12  C9  UNL     1      15.576  11.528   3.813  1.00  0.00     0.040 C 
ENDBRANCH   9  10
ENDBRANCH   6   9
ENDBRANCH   3   5
BRANCH   1  13
HETATM   13  C4  UNL     1      14.503   4.869   0.228  1.00  0.00     0.074 A 
HETATM   14  S1  UNL     1      12.883   4.847  -0.292  1.00  0.00    -0.096 SA
HETATM   15  C3  UNL     1      12.743   3.199  -0.708  1.00  0.00     0.057 A 
HETATM   16  C2  UNL     1      13.987   2.709  -0.423  1.00  0.00    -0.054 A 
HETATM   17  C1  UNL     1      14.295   1.239  -0.657  1.00  0.00     0.048 C 
HETATM   18  C10 UNL     1      14.896   3.568   0.060  1.00  0.00     0.031 A 
ENDBRANCH   1  13
TORSDOF 4
ENDMDL
MODEL 2
REMARK VINA RESULT: -6.571321685      3.771      5.469
REMARK  4 active torsions:
REMARK  status: ('A' for Active; 'I' for Inactive)
REMARK    1  A    between atoms: C4_5  and  C5_6 
REMARK       I    between atoms: C5_6  and  N1_8 
REMARK    2  A    between atoms: N1_8  and  N2_10 
REMARK       I    between atoms: N2_10  and  C6_12 
REMARK    3  A    between atoms: C6_12  and  O3_14 
REMARK    4  A    between atoms: O3_14  and  C7_15 
ROOT
HETATM    1  C5  UNL     1      16.946  10.220   1.273  1.00  0.00     0.277 C 
HETATM    2  O1  UNL     1      17.017  10.444   0.024  1.00  0.00    -0.265 OA
HETATM    3  N1  UNL     1      17.750  11.003   2.140  1.00  0.00    -0.261 N 
ATOM      4  H1  UNL     1      17.699  10.829   3.144  1.00  0.00     0.190 HD
ENDROOT
BRANCH   3   5
HETATM    5  N2  UNL     1      18.601  11.995   1.682  1.00  0.00    -0.242 N 
HETATM    6  C6  UNL     1      19.337  12.780   2.597  1.00  0.00     0.379 C 
HETATM    7  O2  UNL     1      19.231  12.591   3.854  1.00  0.00    -0.237 OA
ATOM      8  H2  UNL     1      18.697  12.159   0.679  1.00  0.00     0.192 HD
BRANCH   6   9
HETATM    9  O3  UNL     1      20.205  13.786   2.225  1.00  0.00    -0.298 OA
BRANCH   9  10
HETATM   10  C7  UNL     1      21.338  14.132   2.986  1.00  0.00     0.125 C 
HETATM   11  C8  UNL     1      22.632  13.958   2.275  1.00  0.00     0.040 C 
HETATM   12  C9  UNL     1      21.198  15.587   3.384  1.00  0.00     0.040 C 
ENDBRANCH   9  10
ENDBRANCH   6   9
ENDBRANCH   3   5
BRANCH   1  13
HETATM   13  C4  UNL     1      16.048   9.174   1.749  1.00  0.00     0.074 A 
HETATM   14  S1  UNL     1      14.506   9.363   2.442  1.00  0.00    -0.096 SA
HETATM   15  C3  UNL     1      14.119   7.725   2.719  1.00  0.00     0.057 A 
HETATM   16  C2  UNL     1      15.226   7.071   2.253  1.00  0.00    -0.054 A 
HETATM   17  C1  UNL     1      15.291   5.553   2.316  1.00  0.00     0.048 C 
HETATM   18  C10 UNL     1      16.221   7.816   1.753  1.00  0.00     0.031 A 
ENDBRANCH   1  13
TORSDOF 4
ENDMDL
MODEL 3
REMARK VINA RESULT: -6.541795069      1.566      1.855
REMARK  4 active torsions:
REMARK  status: ('A' for Active; 'I' for Inactive)
REMARK    1  A    between atoms: C4_5  and  C5_6 
REMARK       I    between atoms: C5_6  and  N1_8 
REMARK    2  A    between atoms: N1_8  and  N2_10 
REMARK       I    between atoms: N2_10  and  C6_12 
REMARK    3  A    between atoms: C6_12  and  O3_14 
REMARK    4  A    between atoms: O3_14  and  C7_15 
ROOT
HETATM    1  C5  UNL     1      16.257   6.214   1.709  1.00  0.00     0.277 C 
HETATM    2  O1  UNL     1      17.368   6.223   2.326  1.00  0.00    -0.265 OA
HETATM    3  N1  UNL     1      15.498   7.412   1.681  1.00  0.00    -0.261 N 
ATOM      4  H1  UNL     1      14.605   7.413   1.189  1.00  0.00     0.190 HD
ENDROOT
BRANCH   3   5
HETATM    5  N2  UNL     1      15.918   8.581   2.295  1.00  0.00    -0.242 N 
HETATM    6  C6  UNL     1      15.507   9.835   1.793  1.00  0.00     0.379 C 
HETATM    7  O2  UNL     1      14.747   9.914   0.772  1.00  0.00    -0.237 OA
ATOM      8  H2  UNL     1      16.527   8.534   3.113  1.00  0.00     0.192 HD
BRANCH   6   9
HETATM    9  O3  UNL     1      15.879  11.044   2.344  1.00  0.00    -0.298 OA
BRANCH   9  10
HETATM   10  C7  UNL     1      15.552  11.412   3.664  1.00  0.00     0.125 C 
HETATM   11  C8  UNL     1      16.516  12.350   4.296  1.00  0.00     0.040 C 
HETATM   12  C9  UNL     1      14.188  12.068   3.634  1.00  0.00     0.040 C 
ENDBRANCH   9  10
ENDBRANCH   6   9
ENDBRANCH   3   5
BRANCH   1  13
HETATM   13  C4  UNL     1      15.820   4.981   1.066  1.00  0.00     0.074 A 
HETATM   14  S1  UNL     1      16.678   3.517   0.931  1.00  0.00    -0.096 SA
HETATM   15  C3  UNL     1      15.527   2.594   0.076  1.00  0.00     0.057 A 
HETATM   16  C2  UNL     1      14.491   3.473  -0.081  1.00  0.00    -0.054 A 
HETATM   17  C1  UNL     1      13.231   3.037  -0.811  1.00  0.00     0.048 C 
HETATM   18  C10 UNL     1      14.640   4.703   0.429  1.00  0.00     0.031 A 
ENDBRANCH   1  13
TORSDOF 4
ENDMDL
MODEL 4
REMARK VINA RESULT: -6.480402240      1.678      1.875
REMARK  4 active torsions:
REMARK  status: ('A' for Active; 'I' for Inactive)
REMARK    1  A    between atoms: C4_5  and  C5_6 
REMARK       I    between atoms: C5_6  and  N1_8 
REMARK    2  A    between atoms: N1_8  and  N2_10 
REMARK       I    between atoms: N2_10  and  C6_12 
REMARK    3  A    between atoms: C6_12  and  O3_14 
REMARK    4  A    between atoms: O3_14  and  C7_15 
ROOT
HETATM    1  C5  UNL     1      13.681   5.864  -0.036  1.00  0.00     0.277 C 
HETATM    2  O1  UNL     1      14.488   6.553  -0.735  1.00  0.00    -0.265 OA
HETATM    3  N1  UNL     1      12.972   6.517   1.005  1.00  0.00    -0.261 N 
ATOM      4  H1  UNL     1      12.323   5.970   1.571  1.00  0.00     0.190 HD
ENDROOT
BRANCH   3   5
HETATM    5  N2  UNL     1      13.125   7.864   1.286  1.00  0.00    -0.242 N 
HETATM    6  C6  UNL     1      13.991   8.282   2.320  1.00  0.00     0.379 C 
HETATM    7  O2  UNL     1      14.645   7.431   3.010  1.00  0.00    -0.237 OA
ATOM      8  H2  UNL     1      12.608   8.558   0.744  1.00  0.00     0.192 HD
BRANCH   6   9
HETATM    9  O3  UNL     1      14.200   9.601   2.664  1.00  0.00    -0.298 OA
BRANCH   9  10
HETATM   10  C7  UNL     1      15.481  10.126   2.926  1.00  0.00     0.125 C 
HETATM   11  C8  UNL     1      16.349  10.257   1.726  1.00  0.00     0.040 C 
HETATM   12  C9  UNL     1      15.300  11.497   3.543  1.00  0.00     0.040 C 
ENDBRANCH   9  10
ENDBRANCH   6   9
ENDBRANCH   3   5
BRANCH   1  13
HETATM   13  C4  UNL     1      13.525   4.446  -0.336  1.00  0.00     0.074 A 
HETATM   14  S1  UNL     1      12.165   3.665  -0.996  1.00  0.00    -0.096 SA
HETATM   15  C3  UNL     1      12.753   2.065  -1.041  1.00  0.00     0.057 A 
HETATM   16  C2  UNL     1      14.015   2.192  -0.531  1.00  0.00    -0.054 A 
HETATM   17  C1  UNL     1      14.906   0.968  -0.395  1.00  0.00     0.048 C 
HETATM   18  C10 UNL     1      14.415   3.419  -0.167  1.00  0.00     0.031 A 
ENDBRANCH   1  13
TORSDOF 4
ENDMDL
MODEL 5
REMARK VINA RESULT: -6.447220495      3.120      3.564
REMARK  4 active torsions:
REMARK  status: ('A' for Active; 'I' for Inactive)
REMARK    1  A    between atoms: C4_5  and  C5_6 
REMARK       I    between atoms: C5_6  and  N1_8 
REMARK    2  A    between atoms: N1_8  and  N2_10 
REMARK       I    between atoms: N2_10  and  C6_12 
REMARK    3  A    between atoms: C6_12  and  O3_14 
REMARK    4  A    between atoms: O3_14  and  C7_15 
ROOT
HETATM    1  C5  UNL     1      13.490   5.551  -0.401  1.00  0.00     0.277 C 
HETATM    2  O1  UNL     1      14.485   6.280  -0.705  1.00  0.00    -0.265 OA
HETATM    3  N1  UNL     1      12.285   6.191  -0.012  1.00  0.00    -0.261 N 
ATOM      4  H1  UNL     1      11.482   5.613   0.234  1.00  0.00     0.190 HD
ENDROOT
BRANCH   3   5
HETATM    5  N2  UNL     1      12.154   7.569   0.048  1.00  0.00    -0.242 N 
HETATM    6  C6  UNL     1      11.011   8.149   0.641  1.00  0.00     0.379 C 
HETATM    7  O2  UNL     1      10.085   7.420   1.128  1.00  0.00    -0.237 OA
ATOM      8  H2  UNL     1      12.886   8.166  -0.338  1.00  0.00     0.192 HD
BRANCH   6   9
HETATM    9  O3  UNL     1      10.802   9.509   0.742  1.00  0.00    -0.298 OA
BRANCH   9  10
HETATM   10  C7  UNL     1      10.926  10.210   1.958  1.00  0.00     0.125 C 
HETATM   11  C8  UNL     1      12.202   9.964   2.681  1.00  0.00     0.040 C 
HETATM   12  C9  UNL     1      10.822  11.689   1.649  1.00  0.00     0.040 C 
ENDBRANCH   9  10
ENDBRANCH   6   9
ENDBRANCH   3   5
BRANCH   1  13
HETATM   13  C4  UNL     1      13.635   4.101  -0.466  1.00  0.00     0.074 A 
HETATM   14  S1  UNL     1      12.459   2.957  -0.918  1.00  0.00    -0.096 SA
HETATM   15  C3  UNL     1      13.375   1.529  -0.744  1.00  0.00     0.057 A 
HETATM   16  C2  UNL     1      14.591   1.998  -0.331  1.00  0.00    -0.054 A 
HETATM   17  C1  UNL     1      15.725   1.024  -0.055  1.00  0.00     0.048 C 
HETATM   18  C10 UNL     1      14.727   3.324  -0.187  1.00  0.00     0.031 A 
ENDBRANCH   1  13
TORSDOF 4
ENDMDL
