MODEL 1
REMARK VINA RESULT: -5.652342436      0.000      0.000
REMARK  7 active torsions:
REMARK  status: ('A' for Active; 'I' for Inactive)
REMARK    1  A    between atoms: C2_2  and  N1_3 
REMARK    2  A    between atoms: N1_3  and  C4_5 
REMARK    3  A    between atoms: C4_5  and  O1_6 
REMARK    4  A    between atoms: C4_5  and  N2_8 
REMARK    5  A    between atoms: N2_8  and  N3_9 
REMARK    6  A    between atoms: N2_8  and  C9_16 
REMARK    7  A    between atoms: C8_13  and  O2_14 
ROOT
HETATM    1  N2  UNL     1      14.386   6.666   1.270  1.00  0.00    -0.239 N 
ENDROOT
BRANCH   1   2
HETATM    2  C4  UNL     1      13.333   6.374   0.424  1.00  0.00     0.237 C 
BRANCH   2   3
HETATM    3  N1  UNL     1      11.976   6.127   0.499  1.00  0.00    -0.351 N 
HETATM    4  C3  UNL     1      11.524   4.726   0.125  1.00  0.00     0.153 C 
BRANCH   3   5
HETATM    5  C2  UNL     1      10.893   6.966   0.875  1.00  0.00     0.121 C 
HETATM    6  C1  UNL     1      10.951   8.327   0.194  1.00  0.00     0.026 C 
ENDBRANCH   3   5
ENDBRANCH   2   3
BRANCH   2   7
HETATM    7  O1  UNL     1      13.781   6.317  -0.856  1.00  0.00    -0.331 OA
ATOM      8  H1  UNL     1      13.599   7.122  -1.326  1.00  0.00     0.221 HD
ENDBRANCH   2   7
ENDBRANCH   1   2
BRANCH   1   9
HETATM    9  N3  UNL     1      14.641   8.096   1.412  1.00  0.00    -0.240 N 
HETATM   10  C5  UNL     1      15.518   8.815   0.706  1.00  0.00     0.119 A 
HETATM   11  C6  UNL     1      15.461  10.146   1.132  1.00  0.00     0.024 A 
HETATM   12  C7  UNL     1      14.503  10.174   2.129  1.00  0.00     0.059 A 
HETATM   13  C8  UNL     1      14.018   8.883   2.274  1.00  0.00     0.161 A 
BRANCH  13  14
HETATM   14  O2  UNL     1      13.029   8.541   3.200  1.00  0.00    -0.345 OA
ATOM     15  H2  UNL     1      12.097   8.431   3.053  1.00  0.00     0.219 HD
ENDBRANCH  13  14
ENDBRANCH   1   9
BRANCH   1  16
HETATM   16  C9  UNL     1      15.266   5.880   2.070  1.00  0.00     0.047 C 
HETATM   17  C10 UNL     1      14.671   5.639   3.476  1.00  0.00     0.040 C 
HETATM   18  C11 UNL     1      15.412   4.475   1.478  1.00  0.00     0.040 C 
HETATM   19  C12 UNL     1      16.624   6.427   2.330  1.00  0.00     0.040 C 
ENDBRANCH   1  16
TORSDOF 7
ENDMDL
MODEL 2
REMARK VINA RESULT: -5.579275956      0.431      1.401
REMARK  7 active torsions:
REMARK  status: ('A' for Active; 'I' for Inactive)
REMARK    1  A    between atoms: C2_2  and  N1_3 
REMARK    2  A    between atoms: N1_3  and  C4_5 
REMARK    3  A    between atoms: C4_5  and  O1_6 
REMARK    4  A    between atoms: C4_5  and  N2_8 
REMARK    5  A    between atoms: N2_8  and  N3_9 
REMARK    6  A    between atoms: N2_8  and  C9_16 
REMARK    7  A    between atoms: C8_13  and  O2_14 
ROOT
HETATM    1  N2  UNL     1      14.449   6.594   1.235  1.00  0.00    -0.239 N 
ENDROOT
BRANCH   1   2
HETATM    2  C4  UNL     1      13.471   6.250   0.320  1.00  0.00     0.237 C 
BRANCH   2   3
HETATM    3  N1  UNL     1      12.166   5.796   0.314  1.00  0.00    -0.351 N 
HETATM    4  C3  UNL     1      11.085   6.851   0.471  1.00  0.00     0.153 C 
BRANCH   3   5
HETATM    5  C2  UNL     1      11.634   4.486   0.182  1.00  0.00     0.121 C 
HETATM    6  C1  UNL     1      11.556   4.035  -1.271  1.00  0.00     0.026 C 
ENDBRANCH   3   5
ENDBRANCH   2   3
BRANCH   2   7
HETATM    7  O1  UNL     1      13.950   6.414  -0.939  1.00  0.00    -0.331 OA
ATOM      8  H1  UNL     1      14.415   7.236  -1.032  1.00  0.00     0.221 HD
ENDBRANCH   2   7
ENDBRANCH   1   2
BRANCH   1   9
HETATM    9  N3  UNL     1      14.615   8.035   1.398  1.00  0.00    -0.240 N 
HETATM   10  C5  UNL     1      15.485   8.809   0.743  1.00  0.00     0.119 A 
HETATM   11  C6  UNL     1      15.330  10.130   1.173  1.00  0.00     0.024 A 
HETATM   12  C7  UNL     1      14.321  10.096   2.118  1.00  0.00     0.059 A 
HETATM   13  C8  UNL     1      13.903   8.778   2.230  1.00  0.00     0.161 A 
BRANCH  13  14
HETATM   14  O2  UNL     1      12.888   8.373   3.101  1.00  0.00    -0.345 OA
ATOM     15  H2  UNL     1      12.223   8.907   3.518  1.00  0.00     0.219 HD
ENDBRANCH  13  14
ENDBRANCH   1   9
BRANCH   1  16
HETATM   16  C9  UNL     1      15.317   5.852   2.088  1.00  0.00     0.047 C 
HETATM   17  C10 UNL     1      14.686   5.657   3.486  1.00  0.00     0.040 C 
HETATM   18  C11 UNL     1      15.498   4.428   1.556  1.00  0.00     0.040 C 
HETATM   19  C12 UNL     1      16.660   6.428   2.364  1.00  0.00     0.040 C 
ENDBRANCH   1  16
TORSDOF 7
ENDMDL
MODEL 3
REMARK VINA RESULT: -5.577289741      1.994      4.697
REMARK  7 active torsions:
REMARK  status: ('A' for Active; 'I' for Inactive)
REMARK    1  A    between atoms: C2_2  and  N1_3 
REMARK    2  A    between atoms: N1_3  and  C4_5 
REMARK    3  A    between atoms: C4_5  and  O1_6 
REMARK    4  A    between atoms: C4_5  and  N2_8 
REMARK    5  A    between atoms: N2_8  and  N3_9 
REMARK    6  A    between atoms: N2_8  and  C9_16 
REMARK    7  A    between atoms: C8_13  and  O2_14 
ROOT
HETATM    1  N2  UNL     1      14.772   7.022   1.425  1.00  0.00    -0.239 N 
ENDROOT
BRANCH   1   2
HETATM    2  C4  UNL     1      15.316   8.082   0.725  1.00  0.00     0.237 C 
BRANCH   2   3
HETATM    3  N1  UNL     1      16.030   9.238   0.977  1.00  0.00    -0.351 N 
HETATM    4  C3  UNL     1      15.946   9.788   2.390  1.00  0.00     0.153 C 
BRANCH   3   5
HETATM    5  C2  UNL     1      16.853  10.029   0.133  1.00  0.00     0.121 C 
HETATM    6  C1  UNL     1      18.072  10.579   0.862  1.00  0.00     0.026 C 
ENDBRANCH   3   5
ENDBRANCH   2   3
BRANCH   2   7
HETATM    7  O1  UNL     1      15.067   7.927  -0.600  1.00  0.00    -0.331 OA
ATOM      8  H1  UNL     1      14.665   7.086  -0.784  1.00  0.00     0.221 HD
ENDBRANCH   2   7
ENDBRANCH   1   2
BRANCH   1   9
HETATM    9  N3  UNL     1      15.488   5.765   1.230  1.00  0.00    -0.240 N 
HETATM   10  C5  UNL     1      15.070   4.724   0.505  1.00  0.00     0.119 A 
HETATM   11  C6  UNL     1      16.039   3.716   0.558  1.00  0.00     0.024 A 
HETATM   12  C7  UNL     1      17.051   4.219   1.355  1.00  0.00     0.059 A 
HETATM   13  C8  UNL     1      16.672   5.492   1.753  1.00  0.00     0.161 A 
BRANCH  13  14
HETATM   14  O2  UNL     1      17.463   6.300   2.574  1.00  0.00    -0.345 OA
ATOM     15  H2  UNL     1      17.186   6.991   3.163  1.00  0.00     0.219 HD
ENDBRANCH  13  14
ENDBRANCH   1   9
BRANCH   1  16
HETATM   16  C9  UNL     1      13.680   6.885   2.331  1.00  0.00     0.047 C 
HETATM   17  C10 UNL     1      13.046   8.259   2.647  1.00  0.00     0.040 C 
HETATM   18  C11 UNL     1      12.544   6.089   1.681  1.00  0.00     0.040 C 
HETATM   19  C12 UNL     1      13.968   6.294   3.665  1.00  0.00     0.040 C 
ENDBRANCH   1  16
TORSDOF 7
ENDMDL
MODEL 4
REMARK VINA RESULT: -5.530496147      1.424      3.824
REMARK  7 active torsions:
REMARK  status: ('A' for Active; 'I' for Inactive)
REMARK    1  A    between atoms: C2_2  and  N1_3 
REMARK    2  A    between atoms: N1_3  and  C4_5 
REMARK    3  A    between atoms: C4_5  and  O1_6 
REMARK    4  A    between atoms: C4_5  and  N2_8 
REMARK    5  A    between atoms: N2_8  and  N3_9 
REMARK    6  A    between atoms: N2_8  and  C9_16 
REMARK    7  A    between atoms: C8_13  and  O2_14 
ROOT
HETATM    1  N2  UNL     1      14.516   6.524   1.131  1.00  0.00    -0.239 N 
ENDROOT
BRANCH   1   2
HETATM    2  C4  UNL     1      14.538   7.808   0.621  1.00  0.00     0.237 C 
BRANCH   2   3
HETATM    3  N1  UNL     1      14.190   9.087   1.010  1.00  0.00    -0.351 N 
HETATM    4  C3  UNL     1      15.337  10.023   1.351  1.00  0.00     0.153 C 
BRANCH   3   5
HETATM    5  C2  UNL     1      12.921   9.707   1.153  1.00  0.00     0.121 C 
HETATM    6  C1  UNL     1      12.483   9.805   2.608  1.00  0.00     0.026 C 
ENDBRANCH   3   5
ENDBRANCH   2   3
BRANCH   2   7
HETATM    7  O1  UNL     1      15.059   7.791  -0.632  1.00  0.00    -0.331 OA
ATOM      8  H1  UNL     1      15.830   7.240  -0.682  1.00  0.00     0.221 HD
ENDBRANCH   2   7
ENDBRANCH   1   2
BRANCH   1   9
HETATM    9  N3  UNL     1      13.487   5.676   0.536  1.00  0.00    -0.240 N 
HETATM   10  C5  UNL     1      13.673   4.764  -0.423  1.00  0.00     0.119 A 
HETATM   11  C6  UNL     1      12.448   4.158  -0.715  1.00  0.00     0.024 A 
HETATM   12  C7  UNL     1      11.527   4.761   0.122  1.00  0.00     0.059 A 
HETATM   13  C8  UNL     1      12.211   5.698   0.883  1.00  0.00     0.161 A 
BRANCH  13  14
HETATM   14  O2  UNL     1      11.587   6.500   1.842  1.00  0.00    -0.345 OA
ATOM     15  H2  UNL     1      10.739   6.923   1.794  1.00  0.00     0.219 HD
ENDBRANCH  13  14
ENDBRANCH   1   9
BRANCH   1  16
HETATM   16  C9  UNL     1      15.302   5.822   2.091  1.00  0.00     0.047 C 
HETATM   17  C10 UNL     1      16.669   6.513   2.300  1.00  0.00     0.040 C 
HETATM   18  C11 UNL     1      14.637   5.882   3.470  1.00  0.00     0.040 C 
HETATM   19  C12 UNL     1      15.643   4.406   1.792  1.00  0.00     0.040 C 
ENDBRANCH   1  16
TORSDOF 7
ENDMDL
MODEL 5
REMARK VINA RESULT: -5.510009520      1.779      2.538
REMARK  7 active torsions:
REMARK  status: ('A' for Active; 'I' for Inactive)
REMARK    1  A    between atoms: C2_2  and  N1_3 
REMARK    2  A    between atoms: N1_3  and  C4_5 
REMARK    3  A    between atoms: C4_5  and  O1_6 
REMARK    4  A    between atoms: C4_5  and  N2_8 
REMARK    5  A    between atoms: N2_8  and  N3_9 
REMARK    6  A    between atoms: N2_8  and  C9_16 
REMARK    7  A    between atoms: C8_13  and  O2_14 
ROOT
HETATM    1  N2  UNL     1      14.246   8.109   1.844  1.00  0.00    -0.239 N 
ENDROOT
BRANCH   1   2
HETATM    2  C4  UNL     1      12.988   8.680   1.877  1.00  0.00     0.237 C 
BRANCH   2   3
HETATM    3  N1  UNL     1      11.985   9.041   0.997  1.00  0.00    -0.351 N 
HETATM    4  C3  UNL     1      11.805  10.530   0.756  1.00  0.00     0.153 C 
BRANCH   3   5
HETATM    5  C2  UNL     1      11.067   8.255   0.255  1.00  0.00     0.121 C 
HETATM    6  C1  UNL     1      10.942   6.838   0.800  1.00  0.00     0.026 C 
ENDBRANCH   3   5
ENDBRANCH   2   3
BRANCH   2   7
HETATM    7  O1  UNL     1      12.651   8.963   3.161  1.00  0.00    -0.331 OA
ATOM      8  H1  UNL     1      13.418   9.022   3.718  1.00  0.00     0.221 HD
ENDBRANCH   2   7
ENDBRANCH   1   2
BRANCH   1   9
HETATM    9  N3  UNL     1      15.319   9.072   1.621  1.00  0.00    -0.240 N 
HETATM   10  C5  UNL     1      16.019   9.228   0.494  1.00  0.00     0.119 A 
HETATM   11  C6  UNL     1      16.949  10.256   0.675  1.00  0.00     0.024 A 
HETATM   12  C7  UNL     1      16.761  10.699   1.972  1.00  0.00     0.059 A 
HETATM   13  C8  UNL     1      15.742   9.940   2.526  1.00  0.00     0.161 A 
BRANCH  13  14
HETATM   14  O2  UNL     1      15.286  10.118   3.835  1.00  0.00    -0.345 OA
ATOM     15  H2  UNL     1      15.537   9.639   4.616  1.00  0.00     0.219 HD
ENDBRANCH  13  14
ENDBRANCH   1   9
BRANCH   1  16
HETATM   16  C9  UNL     1      14.739   6.782   2.013  1.00  0.00     0.047 C 
HETATM   17  C10 UNL     1      13.986   6.051   3.148  1.00  0.00     0.040 C 
HETATM   18  C11 UNL     1      14.448   5.941   0.767  1.00  0.00     0.040 C 
HETATM   19  C12 UNL     1      16.177   6.628   2.362  1.00  0.00     0.040 C 
ENDBRANCH   1  16
TORSDOF 7
ENDMDL
