MODEL 1
REMARK VINA RESULT: -6.186090604      0.000      0.000
REMARK  5 active torsions:
REMARK  status: ('A' for Active; 'I' for Inactive)
REMARK    1  A    between atoms: C2_2  and  C3_3 
REMARK    2  A    between atoms: C6_7  and  S2_8 
REMARK    3  A    between atoms: S2_8  and  N1_9 
REMARK    4  A    between atoms: S2_8  and  N2_13 
REMARK    5  A    between atoms: C8_16  and  O2_17 
ROOT
HETATM    1  C3  UNL     1      15.637   5.111   1.241  1.00  0.00    -0.011 A 
HETATM    2  C4  UNL     1      14.627   5.182   0.330  1.00  0.00    -0.011 A 
HETATM    3  C5  UNL     1      13.866   4.142  -0.418  1.00  0.00     0.057 C 
HETATM    4  S1  UNL     1      14.345   6.877   0.182  1.00  0.00    -0.080 SA
HETATM    5  C6  UNL     1      15.526   7.420   1.287  1.00  0.00     0.132 A 
HETATM    6  C8  UNL     1      16.101   6.261   1.734  1.00  0.00     0.101 A 
ENDROOT
BRANCH   5   7
HETATM    7  S2  UNL     1      15.854   9.095   1.696  1.00  0.00     0.142 S 
HETATM    8  O1  UNL     1      15.199   9.966   0.632  1.00  0.00    -0.223 OA
BRANCH   7   9
HETATM    9  N1  UNL     1      15.089   9.416   3.211  1.00  0.00    -0.341 N 
ATOM     10  H12 UNL     1      14.183   9.052   3.506  1.00  0.00     0.167 HD
ATOM     11  H11 UNL     1      15.708  10.029   3.741  1.00  0.00     0.167 HD
ENDBRANCH   7   9
BRANCH   7  12
HETATM   12  N2  UNL     1      17.360   9.418   1.711  1.00  0.00    -0.336 N 
HETATM   13  C7  UNL     1      17.844  10.504   0.869  1.00  0.00     0.158 C 
ATOM     14  H2  UNL     1      18.003   8.885   2.298  1.00  0.00     0.170 HD
ENDBRANCH   7  12
ENDBRANCH   5   7
BRANCH   6  15
HETATM   15  O2  UNL     1      17.140   6.386   2.682  1.00  0.00    -0.358 OA
ATOM     16  H2  UNL     1      17.627   7.181   2.865  1.00  0.00     0.217 HD
ENDBRANCH   6  15
BRANCH   1  17
HETATM   17  C2  UNL     1      16.179   3.757   1.650  1.00  0.00     0.038 C 
HETATM   18  C1  UNL     1      17.283   3.396   0.711  1.00  0.00     0.010 C 
ENDBRANCH   1  17
TORSDOF 5
ENDMDL
MODEL 2
REMARK VINA RESULT: -5.934955875      1.550      1.659
REMARK  5 active torsions:
REMARK  status: ('A' for Active; 'I' for Inactive)
REMARK    1  A    between atoms: C2_2  and  C3_3 
REMARK    2  A    between atoms: C6_7  and  S2_8 
REMARK    3  A    between atoms: S2_8  and  N1_9 
REMARK    4  A    between atoms: S2_8  and  N2_13 
REMARK    5  A    between atoms: C8_16  and  O2_17 
ROOT
HETATM    1  C3  UNL     1      16.146   4.151   0.917  1.00  0.00    -0.011 A 
HETATM    2  C4  UNL     1      14.972   3.780   0.336  1.00  0.00    -0.011 A 
HETATM    3  C5  UNL     1      14.550   2.553  -0.396  1.00  0.00     0.057 C 
HETATM    4  S1  UNL     1      13.938   5.128   0.635  1.00  0.00    -0.080 SA
HETATM    5  C6  UNL     1      15.048   6.105   1.488  1.00  0.00     0.132 A 
HETATM    6  C8  UNL     1      16.187   5.347   1.509  1.00  0.00     0.101 A 
ENDROOT
BRANCH   5   7
HETATM    7  S2  UNL     1      14.715   7.696   2.149  1.00  0.00     0.142 S 
HETATM    8  O1  UNL     1      13.814   8.426   1.162  1.00  0.00    -0.223 OA
BRANCH   7   9
HETATM    9  N1  UNL     1      13.841   7.471   3.622  1.00  0.00    -0.341 N 
ATOM     10  H12 UNL     1      13.077   6.810   3.762  1.00  0.00     0.167 HD
ATOM     11  H11 UNL     1      14.231   8.114   4.310  1.00  0.00     0.167 HD
ENDBRANCH   7   9
BRANCH   7  12
HETATM   12  N2  UNL     1      15.991   8.538   2.339  1.00  0.00    -0.336 N 
HETATM   13  C7  UNL     1      16.304   9.555   1.344  1.00  0.00     0.158 C 
ATOM     14  H2  UNL     1      16.601   8.388   3.143  1.00  0.00     0.170 HD
ENDBRANCH   7  12
ENDBRANCH   5   7
BRANCH   6  15
HETATM   15  O2  UNL     1      17.312   5.901   2.161  1.00  0.00    -0.358 OA
ATOM     16  H2  UNL     1      17.285   6.450   2.935  1.00  0.00     0.217 HD
ENDBRANCH   6  15
BRANCH   1  17
HETATM   17  C2  UNL     1      17.333   3.210   0.871  1.00  0.00     0.038 C 
HETATM   18  C1  UNL     1      17.314   2.381   2.112  1.00  0.00     0.010 C 
ENDBRANCH   1  17
TORSDOF 5
ENDMDL
MODEL 3
REMARK VINA RESULT: -5.871495354      3.046      4.188
REMARK  5 active torsions:
REMARK  status: ('A' for Active; 'I' for Inactive)
REMARK    1  A    between atoms: C2_2  and  C3_3 
REMARK    2  A    between atoms: C6_7  and  S2_8 
REMARK    3  A    between atoms: S2_8  and  N1_9 
REMARK    4  A    between atoms: S2_8  and  N2_13 
REMARK    5  A    between atoms: C8_16  and  O2_17 
ROOT
HETATM    1  C3  UNL     1      15.209   3.079   0.058  1.00  0.00    -0.011 A 
HETATM    2  C4  UNL     1      16.296   3.251   0.860  1.00  0.00    -0.011 A 
HETATM    3  C5  UNL     1      17.446   2.369   1.206  1.00  0.00     0.057 C 
HETATM    4  S1  UNL     1      16.090   4.851   1.470  1.00  0.00    -0.080 SA
HETATM    5  C6  UNL     1      14.629   5.231   0.675  1.00  0.00     0.132 A 
HETATM    6  C8  UNL     1      14.350   4.096  -0.038  1.00  0.00     0.101 A 
ENDROOT
BRANCH   5   7
HETATM    7  S2  UNL     1      13.759   6.750   0.800  1.00  0.00     0.142 S 
HETATM    8  O1  UNL     1      13.377   6.943   2.262  1.00  0.00    -0.223 OA
BRANCH   7   9
HETATM    9  N1  UNL     1      14.852   8.010   0.351  1.00  0.00    -0.341 N 
ATOM     10  H12 UNL     1      15.023   8.864   0.883  1.00  0.00     0.167 HD
ATOM     11  H11 UNL     1      15.285   7.738  -0.532  1.00  0.00     0.167 HD
ENDBRANCH   7   9
BRANCH   7  12
HETATM   12  N2  UNL     1      12.464   6.763  -0.034  1.00  0.00    -0.336 N 
HETATM   13  C7  UNL     1      11.191   6.866   0.666  1.00  0.00     0.158 C 
ATOM     14  H2  UNL     1      12.498   6.701  -1.051  1.00  0.00     0.170 HD
ENDBRANCH   7  12
ENDBRANCH   5   7
BRANCH   6  15
HETATM   15  O2  UNL     1      13.172   4.103  -0.817  1.00  0.00    -0.358 OA
ATOM     16  H2  UNL     1      12.737   4.878  -1.152  1.00  0.00     0.217 HD
ENDBRANCH   6  15
BRANCH   1  17
HETATM   17  C2  UNL     1      15.025   1.769  -0.680  1.00  0.00     0.038 C 
HETATM   18  C1  UNL     1      13.977   0.979   0.034  1.00  0.00     0.010 C 
ENDBRANCH   1  17
TORSDOF 5
ENDMDL
MODEL 4
REMARK VINA RESULT: -5.866412674      1.969      2.705
REMARK  5 active torsions:
REMARK  status: ('A' for Active; 'I' for Inactive)
REMARK    1  A    between atoms: C2_2  and  C3_3 
REMARK    2  A    between atoms: C6_7  and  S2_8 
REMARK    3  A    between atoms: S2_8  and  N1_9 
REMARK    4  A    between atoms: S2_8  and  N2_13 
REMARK    5  A    between atoms: C8_16  and  O2_17 
ROOT
HETATM    1  C3  UNL     1      14.947   5.494   0.407  1.00  0.00    -0.011 A 
HETATM    2  C4  UNL     1      15.986   5.200   1.237  1.00  0.00    -0.011 A 
HETATM    3  C5  UNL     1      16.906   4.031   1.329  1.00  0.00     0.057 C 
HETATM    4  S1  UNL     1      16.066   6.574   2.277  1.00  0.00    -0.080 SA
HETATM    5  C6  UNL     1      14.772   7.463   1.608  1.00  0.00     0.132 A 
HETATM    6  C8  UNL     1      14.321   6.658   0.597  1.00  0.00     0.101 A 
ENDROOT
BRANCH   5   7
HETATM    7  S2  UNL     1      14.221   9.038   2.152  1.00  0.00     0.142 S 
HETATM    8  O1  UNL     1      14.147   9.947   0.932  1.00  0.00    -0.223 OA
BRANCH   7   9
HETATM    9  N1  UNL     1      12.625   8.838   2.781  1.00  0.00    -0.341 N 
ATOM     10  H12 UNL     1      12.245   7.975   3.170  1.00  0.00     0.167 HD
ATOM     11  H11 UNL     1      12.147   9.734   2.690  1.00  0.00     0.167 HD
ENDBRANCH   7   9
BRANCH   7  12
HETATM   12  N2  UNL     1      15.182   9.685   3.167  1.00  0.00    -0.336 N 
HETATM   13  C7  UNL     1      15.937  10.861   2.754  1.00  0.00     0.158 C 
ATOM     14  H2  UNL     1      15.288   9.300   4.105  1.00  0.00     0.170 HD
ENDBRANCH   7  12
ENDBRANCH   5   7
BRANCH   6  15
HETATM   15  O2  UNL     1      13.228   7.133  -0.161  1.00  0.00    -0.358 OA
ATOM     16  H2  UNL     1      12.315   6.922  -0.003  1.00  0.00     0.217 HD
ENDBRANCH   6  15
BRANCH   1  17
HETATM   17  C2  UNL     1      14.555   4.511  -0.677  1.00  0.00     0.038 C 
HETATM   18  C1  UNL     1      13.402   3.706  -0.175  1.00  0.00     0.010 C 
ENDBRANCH   1  17
TORSDOF 5
ENDMDL
MODEL 5
REMARK VINA RESULT: -5.848508573      2.373      3.043
REMARK  5 active torsions:
REMARK  status: ('A' for Active; 'I' for Inactive)
REMARK    1  A    between atoms: C2_2  and  C3_3 
REMARK    2  A    between atoms: C6_7  and  S2_8 
REMARK    3  A    between atoms: S2_8  and  N1_9 
REMARK    4  A    between atoms: S2_8  and  N2_13 
REMARK    5  A    between atoms: C8_16  and  O2_17 
ROOT
HETATM    1  C3  UNL     1      14.434   3.444  -0.077  1.00  0.00    -0.011 A 
HETATM    2  C4  UNL     1      13.251   3.990  -0.470  1.00  0.00    -0.011 A 
HETATM    3  C5  UNL     1      12.195   3.537  -1.419  1.00  0.00     0.057 C 
HETATM    4  S1  UNL     1      13.175   5.462   0.426  1.00  0.00    -0.080 SA
HETATM    5  C6  UNL     1      14.655   5.316   1.264  1.00  0.00     0.132 A 
HETATM    6  C8  UNL     1      15.158   4.124   0.815  1.00  0.00     0.101 A 
ENDROOT
BRANCH   5   7
HETATM    7  S2  UNL     1      15.298   6.472   2.416  1.00  0.00     0.142 S 
HETATM    8  O1  UNL     1      14.760   6.099   3.792  1.00  0.00    -0.223 OA
BRANCH   7   9
HETATM    9  N1  UNL     1      17.015   6.283   2.433  1.00  0.00    -0.341 N 
ATOM     10  H12 UNL     1      17.683   6.889   1.956  1.00  0.00     0.167 HD
ATOM     11  H11 UNL     1      17.226   5.464   3.003  1.00  0.00     0.167 HD
ENDBRANCH   7   9
BRANCH   7  12
HETATM   12  N2  UNL     1      14.863   7.918   2.113  1.00  0.00    -0.336 N 
HETATM   13  C7  UNL     1      15.434   8.584   0.951  1.00  0.00     0.158 C 
ATOM     14  H2  UNL     1      14.189   8.396   2.712  1.00  0.00     0.170 HD
ENDBRANCH   7  12
ENDBRANCH   5   7
BRANCH   6  15
HETATM   15  O2  UNL     1      16.406   3.719   1.338  1.00  0.00    -0.358 OA
ATOM     16  H2  UNL     1      17.254   4.019   1.035  1.00  0.00     0.217 HD
ENDBRANCH   6  15
BRANCH   1  17
HETATM   17  C2  UNL     1      14.871   2.112  -0.653  1.00  0.00     0.038 C 
HETATM   18  C1  UNL     1      14.082   1.037   0.019  1.00  0.00     0.010 C 
ENDBRANCH   1  17
TORSDOF 5
ENDMDL
