MODEL 1
REMARK VINA RESULT: -8.914911440      0.000      0.000
REMARK  6 active torsions:
REMARK  status: ('A' for Active; 'I' for Inactive)
REMARK    1  A    between atoms: C2_2  and  C3_3 
REMARK    2  A    between atoms: C3_3  and  C4_4 
REMARK    3  A    between atoms: C8_8  and  O1_9 
REMARK    4  A    between atoms: C9_11  and  O2_12 
REMARK    5  A    between atoms: C20_28  and  O3_29 
REMARK    6  A    between atoms: C23_32  and  O4_33 
ROOT
HETATM    1  C4  UNL     1     -18.157 -24.792   1.680  1.00  0.00    -0.018 A 
HETATM    2  C5  UNL     1     -17.429 -23.623   1.715  1.00  0.00     0.022 A 
HETATM    3  C6  UNL     1     -17.942 -22.413   1.316  1.00  0.00    -0.020 A 
HETATM    4  C7  UNL     1     -19.275 -22.464   0.866  1.00  0.00     0.025 A 
HETATM    5  C8  UNL     1     -20.018 -23.616   0.824  1.00  0.00     0.112 A 
HETATM    6  C9  UNL     1     -19.457 -24.789   1.233  1.00  0.00     0.108 A 
HETATM    7  C11 UNL     1     -19.873 -21.165   0.364  1.00  0.00     0.103 C 
HETATM    8  N1  UNL     1     -19.240 -20.979  -0.865  1.00  0.00    -0.369 N 
ATOM      9  H1  UNL     1     -19.179 -21.784  -1.489  1.00  0.00     0.165 HD
HETATM   10  C12 UNL     1     -18.688 -19.784  -1.303  1.00  0.00     0.024 C 
HETATM   11  C13 UNL     1     -19.294 -18.493  -0.804  1.00  0.00     0.107 C 
HETATM   12  C14 UNL     1     -19.726 -17.577  -1.973  1.00  0.00     0.023 C 
HETATM   13  C15 UNL     1     -18.550 -16.876  -2.564  1.00  0.00     0.017 C 
HETATM   14  C16 UNL     1     -17.622 -17.920  -3.161  1.00  0.00     0.105 C 
HETATM   15  N2  UNL     1     -16.809 -18.491  -2.173  1.00  0.00    -0.235 NA
HETATM   16  S1  UNL     1     -16.397 -17.421  -0.839  1.00  0.00    -0.006 SA
HETATM   17  S2  UNL     1     -18.271 -17.450   0.234  1.00  0.00    -0.070 SA
HETATM   18  C17 UNL     1     -17.280 -19.803  -1.646  1.00  0.00     0.151 C 
HETATM   19  C18 UNL     1     -16.200 -20.297  -0.808  1.00  0.00    -0.018 A 
HETATM   20  C19 UNL     1     -14.960 -20.117  -1.478  1.00  0.00     0.047 A 
HETATM   21  C20 UNL     1     -13.736 -20.425  -0.980  1.00  0.00     0.071 A 
HETATM   22  C22 UNL     1     -13.709 -20.957   0.287  1.00  0.00     0.074 A 
HETATM   23  C23 UNL     1     -14.869 -21.159   0.991  1.00  0.00     0.079 A 
HETATM   24  C24 UNL     1     -16.136 -20.835   0.455  1.00  0.00     0.006 A 
HETATM   25  C25 UNL     1     -17.220 -21.164   1.385  1.00  0.00     0.027 C 
ENDROOT
BRANCH   1  26
HETATM   26  C3  UNL     1     -17.532 -26.072   2.131  1.00  0.00     0.068 C 
BRANCH  26  27
HETATM   27  C2  UNL     1     -17.014 -26.878   0.999  1.00  0.00    -0.032 C 
HETATM   28  C1  UNL     1     -16.115 -27.828   1.164  1.00  0.00     0.007 C 
ENDBRANCH  26  27
ENDBRANCH   1  26
BRANCH   6  29
HETATM   29  O2  UNL     1     -20.225 -25.933   1.180  1.00  0.00    -0.353 OA
HETATM   30  C10 UNL     1     -21.118 -26.199   2.236  1.00  0.00     0.210 C 
ENDBRANCH   6  29
BRANCH   5  31
HETATM   31  O1  UNL     1     -21.343 -23.555   0.357  1.00  0.00    -0.357 OA
ATOM     32  H1  UNL     1     -21.914 -24.301   0.495  1.00  0.00     0.217 HD
ENDBRANCH   5  31
BRANCH  23  33
HETATM   33  O4  UNL     1     -14.722 -21.692   2.262  1.00  0.00    -0.360 OA
ATOM     34  H4  UNL     1     -15.526 -21.903   2.720  1.00  0.00     0.217 HD
ENDBRANCH  23  33
BRANCH  21  35
HETATM   35  O3  UNL     1     -12.545 -20.218  -1.708  1.00  0.00    -0.356 OA
HETATM   36  C21 UNL     1     -11.419 -21.018  -1.490  1.00  0.00     0.210 C 
ENDBRANCH  21  35
TORSDOF 6
ENDMDL
MODEL 2
REMARK VINA RESULT: -8.299785332     12.145     16.661
REMARK  6 active torsions:
REMARK  status: ('A' for Active; 'I' for Inactive)
REMARK    1  A    between atoms: C2_2  and  C3_3 
REMARK    2  A    between atoms: C3_3  and  C4_4 
REMARK    3  A    between atoms: C8_8  and  O1_9 
REMARK    4  A    between atoms: C9_11  and  O2_12 
REMARK    5  A    between atoms: C20_28  and  O3_29 
REMARK    6  A    between atoms: C23_32  and  O4_33 
ROOT
HETATM    1  C4  UNL     1     -27.384 -24.222   7.814  1.00  0.00    -0.018 A 
HETATM    2  C5  UNL     1     -28.021 -25.415   7.546  1.00  0.00     0.022 A 
HETATM    3  C6  UNL     1     -28.482 -26.251   8.533  1.00  0.00    -0.020 A 
HETATM    4  C7  UNL     1     -28.250 -25.792   9.843  1.00  0.00     0.025 A 
HETATM    5  C8  UNL     1     -27.620 -24.609  10.132  1.00  0.00     0.112 A 
HETATM    6  C9  UNL     1     -27.183 -23.817   9.112  1.00  0.00     0.108 A 
HETATM    7  C11 UNL     1     -28.692 -26.703  10.971  1.00  0.00     0.103 C 
HETATM    8  N1  UNL     1     -27.750 -27.731  10.936  1.00  0.00    -0.369 N 
ATOM      9  H1  UNL     1     -26.769 -27.466  10.853  1.00  0.00     0.165 HD
HETATM   10  C12 UNL     1     -28.046 -29.085  11.004  1.00  0.00     0.024 C 
HETATM   11  C13 UNL     1     -29.282 -29.506  11.766  1.00  0.00     0.107 C 
HETATM   12  C14 UNL     1     -28.946 -30.534  12.872  1.00  0.00     0.023 C 
HETATM   13  C15 UNL     1     -28.754 -31.896  12.295  1.00  0.00     0.017 C 
HETATM   14  C16 UNL     1     -27.550 -31.856  11.369  1.00  0.00     0.105 C 
HETATM   15  N2  UNL     1     -27.901 -31.351  10.111  1.00  0.00    -0.235 NA
HETATM   16  S1  UNL     1     -29.550 -31.698   9.605  1.00  0.00    -0.006 SA
HETATM   17  S2  UNL     1     -30.607 -30.266  10.829  1.00  0.00    -0.070 SA
HETATM   18  C17 UNL     1     -27.597 -29.907   9.900  1.00  0.00     0.151 C 
HETATM   19  C18 UNL     1     -27.843 -29.659   8.490  1.00  0.00    -0.018 A 
HETATM   20  C19 UNL     1     -27.272 -30.705   7.717  1.00  0.00     0.047 A 
HETATM   21  C20 UNL     1     -27.341 -30.825   6.366  1.00  0.00     0.071 A 
HETATM   22  C22 UNL     1     -28.030 -29.839   5.702  1.00  0.00     0.074 A 
HETATM   23  C23 UNL     1     -28.607 -28.798   6.385  1.00  0.00     0.079 A 
HETATM   24  C24 UNL     1     -28.521 -28.688   7.791  1.00  0.00     0.006 A 
HETATM   25  C25 UNL     1     -29.194 -27.483   8.283  1.00  0.00     0.027 C 
ENDROOT
BRANCH   1  26
HETATM   26  C3  UNL     1     -26.910 -23.362   6.688  1.00  0.00     0.068 C 
BRANCH  26  27
HETATM   27  C2  UNL     1     -25.922 -24.056   5.824  1.00  0.00    -0.032 C 
HETATM   28  C1  UNL     1     -25.235 -23.425   4.894  1.00  0.00     0.007 C 
ENDBRANCH  26  27
ENDBRANCH   1  26
BRANCH   6  29
HETATM   29  O2  UNL     1     -26.551 -22.633   9.430  1.00  0.00    -0.353 OA
HETATM   30  C10 UNL     1     -27.334 -21.478   9.620  1.00  0.00     0.210 C 
ENDBRANCH   6  29
BRANCH   5  31
HETATM   31  O1  UNL     1     -27.440 -24.244  11.478  1.00  0.00    -0.357 OA
ATOM     32  H1  UNL     1     -27.915 -23.495  11.819  1.00  0.00     0.217 HD
ENDBRANCH   5  31
BRANCH  23  33
HETATM   33  O4  UNL     1     -29.285 -27.868   5.613  1.00  0.00    -0.360 OA
ATOM     34  H4  UNL     1     -30.208 -27.759   5.809  1.00  0.00     0.217 HD
ENDBRANCH  23  33
BRANCH  21  35
HETATM   35  O3  UNL     1     -26.745 -31.895   5.667  1.00  0.00    -0.356 OA
HETATM   36  C21 UNL     1     -26.485 -31.804   4.295  1.00  0.00     0.210 C 
ENDBRANCH  21  35
TORSDOF 6
ENDMDL
MODEL 3
REMARK VINA RESULT: -7.777770901      1.557      1.996
REMARK  6 active torsions:
REMARK  status: ('A' for Active; 'I' for Inactive)
REMARK    1  A    between atoms: C2_2  and  C3_3 
REMARK    2  A    between atoms: C3_3  and  C4_4 
REMARK    3  A    between atoms: C8_8  and  O1_9 
REMARK    4  A    between atoms: C9_11  and  O2_12 
REMARK    5  A    between atoms: C20_28  and  O3_29 
REMARK    6  A    between atoms: C23_32  and  O4_33 
ROOT
HETATM    1  C4  UNL     1     -18.683 -23.082   1.394  1.00  0.00    -0.018 A 
HETATM    2  C5  UNL     1     -17.583 -22.257   1.472  1.00  0.00     0.022 A 
HETATM    3  C6  UNL     1     -17.650 -20.903   1.257  1.00  0.00    -0.020 A 
HETATM    4  C7  UNL     1     -18.937 -20.424   0.948  1.00  0.00     0.025 A 
HETATM    5  C8  UNL     1     -20.046 -21.227   0.866  1.00  0.00     0.112 A 
HETATM    6  C9  UNL     1     -19.920 -22.565   1.090  1.00  0.00     0.108 A 
HETATM    7  C11 UNL     1     -19.058 -18.943   0.649  1.00  0.00     0.103 C 
HETATM    8  N1  UNL     1     -18.479 -18.827  -0.615  1.00  0.00    -0.369 N 
ATOM      9  H1  UNL     1     -18.750 -19.511  -1.321  1.00  0.00     0.165 HD
HETATM   10  C12 UNL     1     -17.561 -17.853  -0.983  1.00  0.00     0.024 C 
HETATM   11  C13 UNL     1     -17.631 -16.510  -0.292  1.00  0.00     0.107 C 
HETATM   12  C14 UNL     1     -17.776 -15.354  -1.308  1.00  0.00     0.023 C 
HETATM   13  C15 UNL     1     -16.465 -15.035  -1.945  1.00  0.00     0.017 C 
HETATM   14  C16 UNL     1     -16.015 -16.248  -2.741  1.00  0.00     0.105 C 
HETATM   15  N2  UNL     1     -15.401 -17.194  -1.910  1.00  0.00    -0.235 NA
HETATM   16  S1  UNL     1     -14.550 -16.524  -0.523  1.00  0.00    -0.006 SA
HETATM   17  S2  UNL     1     -16.239 -16.040   0.734  1.00  0.00    -0.070 SA
HETATM   18  C17 UNL     1     -16.279 -18.317  -1.473  1.00  0.00     0.151 C 
HETATM   19  C18 UNL     1     -15.399 -19.264  -0.810  1.00  0.00    -0.018 A 
HETATM   20  C19 UNL     1     -14.222 -19.440  -1.585  1.00  0.00     0.047 A 
HETATM   21  C20 UNL     1     -13.162 -20.221  -1.254  1.00  0.00     0.071 A 
HETATM   22  C22 UNL     1     -13.250 -20.893  -0.059  1.00  0.00     0.074 A 
HETATM   23  C23 UNL     1     -14.358 -20.770   0.739  1.00  0.00     0.079 A 
HETATM   24  C24 UNL     1     -15.454 -19.955   0.377  1.00  0.00     0.006 A 
HETATM   25  C25 UNL     1     -16.524 -20.006   1.378  1.00  0.00     0.027 C 
ENDROOT
BRANCH   1  26
HETATM   26  C3  UNL     1     -18.534 -24.548   1.643  1.00  0.00     0.068 C 
BRANCH  26  27
HETATM   27  C2  UNL     1     -17.189 -24.899   2.162  1.00  0.00    -0.032 C 
HETATM   28  C1  UNL     1     -16.814 -26.147   2.357  1.00  0.00     0.007 C 
ENDBRANCH  26  27
ENDBRANCH   1  26
BRANCH   6  29
HETATM   29  O2  UNL     1     -21.050 -23.351   1.001  1.00  0.00    -0.353 OA
HETATM   30  C10 UNL     1     -21.837 -23.539   2.153  1.00  0.00     0.210 C 
ENDBRANCH   6  29
BRANCH   5  31
HETATM   31  O1  UNL     1     -21.286 -20.645   0.550  1.00  0.00    -0.357 OA
ATOM     32  H1  UNL     1     -21.502 -19.795   0.915  1.00  0.00     0.217 HD
ENDBRANCH   5  31
BRANCH  23  33
HETATM   33  O4  UNL     1     -14.334 -21.486   1.926  1.00  0.00    -0.360 OA
ATOM     34  H4  UNL     1     -15.064 -22.076   2.071  1.00  0.00     0.217 HD
ENDBRANCH  23  33
BRANCH  21  35
HETATM   35  O3  UNL     1     -12.024 -20.347  -2.079  1.00  0.00    -0.356 OA
HETATM   36  C21 UNL     1     -11.004 -21.251  -1.765  1.00  0.00     0.210 C 
ENDBRANCH  21  35
TORSDOF 6
ENDMDL
MODEL 4
REMARK VINA RESULT: -7.476084117     14.845     19.313
REMARK  6 active torsions:
REMARK  status: ('A' for Active; 'I' for Inactive)
REMARK    1  A    between atoms: C2_2  and  C3_3 
REMARK    2  A    between atoms: C3_3  and  C4_4 
REMARK    3  A    between atoms: C8_8  and  O1_9 
REMARK    4  A    between atoms: C9_11  and  O2_12 
REMARK    5  A    between atoms: C20_28  and  O3_29 
REMARK    6  A    between atoms: C23_32  and  O4_33 
ROOT
HETATM    1  C4  UNL     1     -30.679 -35.198  11.117  1.00  0.00    -0.018 A 
HETATM    2  C5  UNL     1     -29.762 -34.311  10.596  1.00  0.00     0.022 A 
HETATM    3  C6  UNL     1     -29.640 -33.018  11.042  1.00  0.00    -0.020 A 
HETATM    4  C7  UNL     1     -30.530 -32.671  12.076  1.00  0.00     0.025 A 
HETATM    5  C8  UNL     1     -31.449 -33.537  12.609  1.00  0.00     0.112 A 
HETATM    6  C9  UNL     1     -31.526 -34.810  12.128  1.00  0.00     0.108 A 
HETATM    7  C11 UNL     1     -30.474 -31.239  12.569  1.00  0.00     0.103 C 
HETATM    8  N1  UNL     1     -31.065 -30.522  11.529  1.00  0.00    -0.369 N 
ATOM      9  H1  UNL     1     -31.932 -30.890  11.138  1.00  0.00     0.165 HD
HETATM   10  C12 UNL     1     -30.564 -29.348  10.985  1.00  0.00     0.024 C 
HETATM   11  C13 UNL     1     -29.752 -28.438  11.879  1.00  0.00     0.107 C 
HETATM   12  C14 UNL     1     -30.337 -27.007  11.915  1.00  0.00     0.023 C 
HETATM   13  C15 UNL     1     -29.963 -26.246  10.687  1.00  0.00     0.017 C 
HETATM   14  C16 UNL     1     -30.595 -26.935   9.489  1.00  0.00     0.105 C 
HETATM   15  N2  UNL     1     -29.821 -28.026   9.072  1.00  0.00    -0.235 NA
HETATM   16  S1  UNL     1     -28.090 -27.855   9.340  1.00  0.00    -0.006 SA
HETATM   17  S2  UNL     1     -28.022 -28.211  11.470  1.00  0.00    -0.070 SA
HETATM   18  C17 UNL     1     -30.284 -29.355   9.563  1.00  0.00     0.151 C 
HETATM   19  C18 UNL     1     -29.479 -30.334   8.852  1.00  0.00    -0.018 A 
HETATM   20  C19 UNL     1     -29.411 -29.984   7.478  1.00  0.00     0.047 A 
HETATM   21  C20 UNL     1     -28.712 -30.648   6.522  1.00  0.00     0.071 A 
HETATM   22  C22 UNL     1     -28.014 -31.756   6.937  1.00  0.00     0.074 A 
HETATM   23  C23 UNL     1     -28.036 -32.153   8.250  1.00  0.00     0.079 A 
HETATM   24  C24 UNL     1     -28.772 -31.451   9.231  1.00  0.00     0.006 A 
HETATM   25  C25 UNL     1     -28.658 -32.081  10.549  1.00  0.00     0.027 C 
ENDROOT
BRANCH   1  26
HETATM   26  C3  UNL     1     -30.754 -36.592  10.582  1.00  0.00     0.068 C 
BRANCH  26  27
HETATM   27  C2  UNL     1     -32.150 -37.025  10.327  1.00  0.00    -0.032 C 
HETATM   28  C1  UNL     1     -32.540 -38.274  10.490  1.00  0.00     0.007 C 
ENDBRANCH  26  27
ENDBRANCH   1  26
BRANCH   6  29
HETATM   29  O2  UNL     1     -32.459 -35.662  12.681  1.00  0.00    -0.353 OA
HETATM   30  C10 UNL     1     -32.140 -36.334  13.876  1.00  0.00     0.210 C 
ENDBRANCH   6  29
BRANCH   5  31
HETATM   31  O1  UNL     1     -32.292 -33.088  13.641  1.00  0.00    -0.357 OA
ATOM     32  H1  UNL     1     -33.033 -32.536  13.422  1.00  0.00     0.217 HD
ENDBRANCH   5  31
BRANCH  23  33
HETATM   33  O4  UNL     1     -27.287 -33.278   8.556  1.00  0.00    -0.360 OA
ATOM     34  H4  UNL     1     -27.419 -34.031   7.992  1.00  0.00     0.217 HD
ENDBRANCH  23  33
BRANCH  21  35
HETATM   35  O3  UNL     1     -28.693 -30.238   5.172  1.00  0.00    -0.356 OA
HETATM   36  C21 UNL     1     -27.897 -29.165   4.757  1.00  0.00     0.210 C 
ENDBRANCH  21  35
TORSDOF 6
ENDMDL
MODEL 5
REMARK VINA RESULT: -7.332499932     15.486     19.382
REMARK  6 active torsions:
REMARK  status: ('A' for Active; 'I' for Inactive)
REMARK    1  A    between atoms: C2_2  and  C3_3 
REMARK    2  A    between atoms: C3_3  and  C4_4 
REMARK    3  A    between atoms: C8_8  and  O1_9 
REMARK    4  A    between atoms: C9_11  and  O2_12 
REMARK    5  A    between atoms: C20_28  and  O3_29 
REMARK    6  A    between atoms: C23_32  and  O4_33 
ROOT
HETATM    1  C4  UNL     1     -30.744 -34.495  12.461  1.00  0.00    -0.018 A 
HETATM    2  C5  UNL     1     -29.843 -33.757  11.724  1.00  0.00     0.022 A 
HETATM    3  C6  UNL     1     -29.598 -32.427  11.963  1.00  0.00    -0.020 A 
HETATM    4  C7  UNL     1     -30.343 -31.877  13.023  1.00  0.00     0.025 A 
HETATM    5  C8  UNL     1     -31.242 -32.593  13.770  1.00  0.00     0.112 A 
HETATM    6  C9  UNL     1     -31.446 -33.911  13.489  1.00  0.00     0.108 A 
HETATM    7  C11 UNL     1     -30.148 -30.399  13.295  1.00  0.00     0.103 C 
HETATM    8  N1  UNL     1     -30.813 -29.791  12.230  1.00  0.00    -0.369 N 
ATOM      9  H1  UNL     1     -31.739 -30.145  11.990  1.00  0.00     0.165 HD
HETATM   10  C12 UNL     1     -30.312 -28.742  11.472  1.00  0.00     0.024 C 
HETATM   11  C13 UNL     1     -29.352 -27.779  12.135  1.00  0.00     0.107 C 
HETATM   12  C14 UNL     1     -29.847 -26.318  12.024  1.00  0.00     0.023 C 
HETATM   13  C15 UNL     1     -29.574 -25.763  10.667  1.00  0.00     0.017 C 
HETATM   14  C16 UNL     1     -30.377 -26.562   9.655  1.00  0.00     0.105 C 
HETATM   15  N2  UNL     1     -29.719 -27.753   9.321  1.00  0.00    -0.235 NA
HETATM   16  S1  UNL     1     -27.962 -27.673   9.377  1.00  0.00    -0.006 SA
HETATM   17  S2  UNL     1     -27.671 -27.737  11.517  1.00  0.00    -0.070 SA
HETATM   18  C17 UNL     1     -30.197 -28.965  10.045  1.00  0.00     0.151 C 
HETATM   19  C18 UNL     1     -29.537 -30.088   9.403  1.00  0.00    -0.018 A 
HETATM   20  C19 UNL     1     -29.606 -29.936   7.992  1.00  0.00     0.047 A 
HETATM   21  C20 UNL     1     -29.061 -30.775   7.074  1.00  0.00     0.071 A 
HETATM   22  C22 UNL     1     -28.384 -31.863   7.569  1.00  0.00     0.074 A 
HETATM   23  C23 UNL     1     -28.278 -32.073   8.921  1.00  0.00     0.079 A 
HETATM   24  C24 UNL     1     -28.855 -31.191   9.862  1.00  0.00     0.006 A 
HETATM   25  C25 UNL     1     -28.627 -31.640  11.238  1.00  0.00     0.027 C 
ENDROOT
BRANCH   1  26
HETATM   26  C3  UNL     1     -30.958 -35.939  12.144  1.00  0.00     0.068 C 
BRANCH  26  27
HETATM   27  C2  UNL     1     -31.151 -36.176  10.692  1.00  0.00    -0.032 C 
HETATM   28  C1  UNL     1     -32.312 -35.986  10.096  1.00  0.00     0.007 C 
ENDBRANCH  26  27
ENDBRANCH   1  26
BRANCH   6  29
HETATM   29  O2  UNL     1     -32.356 -34.608  14.254  1.00  0.00    -0.353 OA
HETATM   30  C10 UNL     1     -31.919 -35.204  15.453  1.00  0.00     0.210 C 
ENDBRANCH   6  29
BRANCH   5  31
HETATM   31  O1  UNL     1     -31.934 -31.945  14.809  1.00  0.00    -0.357 OA
ATOM     32  H1  UNL     1     -32.874 -32.063  14.879  1.00  0.00     0.217 HD
ENDBRANCH   5  31
BRANCH  23  33
HETATM   33  O4  UNL     1     -27.564 -33.196   9.306  1.00  0.00    -0.360 OA
ATOM     34  H4  UNL     1     -26.654 -33.223   9.036  1.00  0.00     0.217 HD
ENDBRANCH  23  33
BRANCH  21  35
HETATM   35  O3  UNL     1     -29.173 -30.557   5.685  1.00  0.00    -0.356 OA
HETATM   36  C21 UNL     1     -28.624 -29.417   5.088  1.00  0.00     0.210 C 
ENDBRANCH  21  35
TORSDOF 6
ENDMDL
