MODEL 1
REMARK VINA RESULT: -9.836740553      0.000      0.000
REMARK  6 active torsions:
REMARK  status: ('A' for Active; 'I' for Inactive)
REMARK    1  A    between atoms: C3_5  and  C4_6 
REMARK    2  A    between atoms: C14_17  and  O2_18 
REMARK    3  A    between atoms: C15_20  and  N2_21 
REMARK    4  A    between atoms: N2_21  and  C16_23 
REMARK    5  A    between atoms: C16_23  and  C17_24 
REMARK    6  A    between atoms: C20_28  and  O4_29 
ROOT
HETATM    1  C4  UNL     1     -14.956 -20.915   0.905  1.00  0.00     0.312 C 
HETATM    2  O1  UNL     1     -15.350 -20.169   1.969  1.00  0.00    -0.352 OA
HETATM    3  C5  UNL     1     -16.735 -20.305   2.059  1.00  0.00     0.209 C 
HETATM    4  C6  UNL     1     -17.130 -20.881   0.732  1.00  0.00     0.086 C 
HETATM    5  C7  UNL     1     -18.288 -20.109   0.126  1.00  0.00     0.041 C 
HETATM    6  C8  UNL     1     -19.430 -20.163   1.095  1.00  0.00     0.009 C 
HETATM    7  C9  UNL     1     -19.883 -21.537   1.488  1.00  0.00    -0.002 C 
HETATM    8  C10 UNL     1     -18.825 -22.546   1.609  1.00  0.00    -0.007 C 
HETATM    9  C11 UNL     1     -19.195 -23.967   1.297  1.00  0.00     0.005 C 
HETATM   10  C12 UNL     1     -20.620 -24.295   1.563  1.00  0.00     0.008 C 
HETATM   11  C13 UNL     1     -21.629 -23.280   1.195  1.00  0.00     0.025 C 
HETATM   12  C14 UNL     1     -22.455 -23.015   2.431  1.00  0.00     0.145 C 
HETATM   13  C15 UNL     1     -23.859 -22.612   1.852  1.00  0.00     0.110 C 
HETATM   14  C21 UNL     1     -23.594 -21.440   1.009  1.00  0.00     0.028 C 
HETATM   15  C22 UNL     1     -22.167 -20.929   0.991  1.00  0.00     0.012 C 
HETATM   16  C23 UNL     1     -21.114 -21.965   0.670  1.00  0.00    -0.034 C 
HETATM   17  C24 UNL     1     -20.851 -21.946  -0.785  1.00  0.00     0.016 C 
HETATM   18  C25 UNL     1     -17.581 -22.295   0.801  1.00  0.00     0.045 C 
HETATM   19  O5  UNL     1     -16.005 -20.829  -0.054  1.00  0.00    -0.342 OA
ENDROOT
BRANCH   1  20
HETATM   20  C3  UNL     1     -13.747 -20.336   0.189  1.00  0.00     0.071 A 
HETATM   21  N1  UNL     1     -12.892 -21.119  -0.392  1.00  0.00    -0.353 N 
HETATM   22  C2  UNL     1     -11.843 -20.605  -1.003  1.00  0.00     0.047 A 
ATOM     23  H1  UNL     1     -13.030 -22.130  -0.376  1.00  0.00     0.166 HD
HETATM   24  C1  UNL     1     -10.741 -21.349  -1.720  1.00  0.00     0.076 C 
HETATM   25  S1  UNL     1     -12.056 -18.933  -0.764  1.00  0.00    -0.087 SA
HETATM   26  C26 UNL     1     -13.509 -18.993   0.129  1.00  0.00     0.081 A 
ENDBRANCH   1  20
BRANCH  12  27
HETATM   27  O2  UNL     1     -22.621 -24.159   3.172  1.00  0.00    -0.393 OA
ATOM     28  H2  UNL     1     -21.836 -24.694   3.160  1.00  0.00     0.210 HD
ENDBRANCH  12  27
BRANCH  13  29
HETATM   29  N2  UNL     1     -24.736 -22.737   2.903  1.00  0.00    -0.391 N 
ATOM     30  H2  UNL     1     -25.539 -23.341   2.727  1.00  0.00     0.159 HD
BRANCH  29  31
HETATM   31  C16 UNL     1     -24.695 -22.159   4.180  1.00  0.00     0.099 C 
BRANCH  31  32
HETATM   32  C17 UNL     1     -25.639 -22.816   5.105  1.00  0.00     0.039 A 
HETATM   33  C18 UNL     1     -26.529 -22.170   5.918  1.00  0.00     0.042 A 
HETATM   34  C19 UNL     1     -27.146 -23.139   6.726  1.00  0.00     0.146 A 
HETATM   35  O3  UNL     1     -26.641 -24.257   6.388  1.00  0.00    -0.300 OA
HETATM   36  C20 UNL     1     -25.733 -24.173   5.426  1.00  0.00     0.194 A 
BRANCH  36  37
HETATM   37  O4  UNL     1     -25.061 -25.249   4.889  1.00  0.00    -0.340 OA
ATOM     38  H4  UNL     1     -24.761 -26.047   5.311  1.00  0.00     0.220 HD
ENDBRANCH  36  37
ENDBRANCH  31  32
ENDBRANCH  29  31
ENDBRANCH  13  29
TORSDOF 6
ENDMDL
MODEL 2
REMARK VINA RESULT: -8.935570000      4.648      9.818
REMARK  6 active torsions:
REMARK  status: ('A' for Active; 'I' for Inactive)
REMARK    1  A    between atoms: C3_5  and  C4_6 
REMARK    2  A    between atoms: C14_17  and  O2_18 
REMARK    3  A    between atoms: C15_20  and  N2_21 
REMARK    4  A    between atoms: N2_21  and  C16_23 
REMARK    5  A    between atoms: C16_23  and  C17_24 
REMARK    6  A    between atoms: C20_28  and  O4_29 
ROOT
HETATM    1  C4  UNL     1     -21.608 -25.060   1.946  1.00  0.00     0.312 C 
HETATM    2  O1  UNL     1     -21.697 -24.233   3.020  1.00  0.00    -0.352 OA
HETATM    3  C5  UNL     1     -21.028 -23.059   2.676  1.00  0.00     0.209 C 
HETATM    4  C6  UNL     1     -20.230 -23.439   1.465  1.00  0.00     0.086 C 
HETATM    5  C7  UNL     1     -18.785 -22.992   1.602  1.00  0.00     0.041 C 
HETATM    6  C8  UNL     1     -18.785 -21.506   1.801  1.00  0.00     0.009 C 
HETATM    7  C9  UNL     1     -19.466 -20.708   0.730  1.00  0.00    -0.002 C 
HETATM    8  C10 UNL     1     -20.657 -21.325   0.135  1.00  0.00    -0.007 C 
HETATM    9  C11 UNL     1     -20.952 -21.001  -1.300  1.00  0.00     0.005 C 
HETATM   10  C12 UNL     1     -20.470 -19.664  -1.732  1.00  0.00     0.008 C 
HETATM   11  C13 UNL     1     -19.144 -19.231  -1.242  1.00  0.00     0.025 C 
HETATM   12  C14 UNL     1     -19.338 -17.888  -0.580  1.00  0.00     0.145 C 
HETATM   13  C15 UNL     1     -17.955 -17.173  -0.793  1.00  0.00     0.110 C 
HETATM   14  C21 UNL     1     -16.974 -18.056  -0.148  1.00  0.00     0.028 C 
HETATM   15  C22 UNL     1     -17.527 -19.277   0.559  1.00  0.00     0.012 C 
HETATM   16  C23 UNL     1     -18.442 -20.146  -0.273  1.00  0.00    -0.034 C 
HETATM   17  C24 UNL     1     -17.641 -21.214  -0.908  1.00  0.00     0.016 C 
HETATM   18  C25 UNL     1     -20.722 -22.827   0.203  1.00  0.00     0.045 C 
HETATM   19  O5  UNL     1     -20.340 -24.802   1.350  1.00  0.00    -0.342 OA
ENDROOT
BRANCH   1  20
HETATM   20  C3  UNL     1     -21.549 -26.528   2.332  1.00  0.00     0.071 A 
HETATM   21  N1  UNL     1     -22.528 -27.075   2.983  1.00  0.00    -0.353 N 
HETATM   22  C2  UNL     1     -22.463 -28.348   3.318  1.00  0.00     0.047 A 
ATOM     23  H1  UNL     1     -23.348 -26.521   3.234  1.00  0.00     0.166 HD
HETATM   24  C1  UNL     1     -23.489 -29.152   4.080  1.00  0.00     0.076 C 
HETATM   25  S1  UNL     1     -20.953 -28.820   2.690  1.00  0.00    -0.087 SA
HETATM   26  C26 UNL     1     -20.483 -27.322   2.021  1.00  0.00     0.081 A 
ENDBRANCH   1  20
BRANCH  12  27
HETATM   27  O2  UNL     1     -20.295 -17.147  -1.230  1.00  0.00    -0.393 OA
ATOM     28  H2  UNL     1     -19.926 -16.353  -1.596  1.00  0.00     0.210 HD
ENDBRANCH  12  27
BRANCH  13  29
HETATM   29  N2  UNL     1     -18.194 -15.839  -0.563  1.00  0.00    -0.391 N 
ATOM     30  H2  UNL     1     -18.835 -15.640   0.206  1.00  0.00     0.159 HD
BRANCH  29  31
HETATM   31  C16 UNL     1     -17.691 -14.709  -1.224  1.00  0.00     0.099 C 
BRANCH  31  32
HETATM   32  C17 UNL     1     -17.532 -14.952  -2.671  1.00  0.00     0.039 A 
HETATM   33  C18 UNL     1     -16.347 -14.926  -3.352  1.00  0.00     0.042 A 
HETATM   34  C19 UNL     1     -16.638 -15.078  -4.717  1.00  0.00     0.146 A 
HETATM   35  O3  UNL     1     -17.903 -15.186  -4.801  1.00  0.00    -0.300 OA
HETATM   36  C20 UNL     1     -18.530 -15.126  -3.635  1.00  0.00     0.194 A 
BRANCH  36  37
HETATM   37  O4  UNL     1     -19.894 -15.232  -3.474  1.00  0.00    -0.340 OA
ATOM     38  H4  UNL     1     -20.584 -15.196  -4.127  1.00  0.00     0.220 HD
ENDBRANCH  36  37
ENDBRANCH  31  32
ENDBRANCH  29  31
ENDBRANCH  13  29
TORSDOF 6
ENDMDL
MODEL 3
REMARK VINA RESULT: -8.881320936     12.330     19.027
REMARK  6 active torsions:
REMARK  status: ('A' for Active; 'I' for Inactive)
REMARK    1  A    between atoms: C3_5  and  C4_6 
REMARK    2  A    between atoms: C14_17  and  O2_18 
REMARK    3  A    between atoms: C15_20  and  N2_21 
REMARK    4  A    between atoms: N2_21  and  C16_23 
REMARK    5  A    between atoms: C16_23  and  C17_24 
REMARK    6  A    between atoms: C20_28  and  O4_29 
ROOT
HETATM    1  C4  UNL     1     -31.238 -36.135  13.223  1.00  0.00     0.312 C 
HETATM    2  O1  UNL     1     -32.341 -35.357  13.074  1.00  0.00    -0.352 OA
HETATM    3  C5  UNL     1     -31.923 -34.192  12.430  1.00  0.00     0.209 C 
HETATM    4  C6  UNL     1     -30.430 -34.216  12.571  1.00  0.00     0.086 C 
HETATM    5  C7  UNL     1     -29.910 -32.883  13.076  1.00  0.00     0.041 C 
HETATM    6  C8  UNL     1     -30.341 -31.826  12.104  1.00  0.00     0.009 C 
HETATM    7  C9  UNL     1     -29.909 -32.038  10.683  1.00  0.00    -0.002 C 
HETATM    8  C10 UNL     1     -29.886 -33.431  10.225  1.00  0.00    -0.007 C 
HETATM    9  C11 UNL     1     -28.869 -33.791   9.181  1.00  0.00     0.005 C 
HETATM   10  C12 UNL     1     -28.499 -32.669   8.281  1.00  0.00     0.008 C 
HETATM   11  C13 UNL     1     -28.334 -31.334   8.895  1.00  0.00     0.025 C 
HETATM   12  C14 UNL     1     -29.230 -30.387   8.133  1.00  0.00     0.145 C 
HETATM   13  C15 UNL     1     -28.489 -29.006   8.255  1.00  0.00     0.110 C 
HETATM   14  C21 UNL     1     -28.394 -28.758   9.699  1.00  0.00     0.028 C 
HETATM   15  C22 UNL     1     -29.055 -29.779  10.605  1.00  0.00     0.012 C 
HETATM   16  C23 UNL     1     -28.648 -31.215  10.364  1.00  0.00    -0.034 C 
HETATM   17  C24 UNL     1     -27.522 -31.550  11.261  1.00  0.00     0.016 C 
HETATM   18  C25 UNL     1     -29.711 -34.473  11.297  1.00  0.00     0.045 C 
HETATM   19  O5  UNL     1     -30.147 -35.244  13.436  1.00  0.00    -0.342 OA
ENDROOT
BRANCH   1  20
HETATM   20  C3  UNL     1     -31.277 -36.985  14.482  1.00  0.00     0.071 A 
HETATM   21  N1  UNL     1     -30.222 -37.632  14.869  1.00  0.00    -0.353 N 
HETATM   22  C2  UNL     1     -30.270 -38.372  15.958  1.00  0.00     0.047 A 
ATOM     23  H1  UNL     1     -29.356 -37.568  14.332  1.00  0.00     0.166 HD
HETATM   24  C1  UNL     1     -29.157 -39.201  16.557  1.00  0.00     0.076 C 
HETATM   25  S1  UNL     1     -31.874 -38.156  16.484  1.00  0.00    -0.087 SA
HETATM   26  C26 UNL     1     -32.402 -37.108  15.246  1.00  0.00     0.081 A 
ENDBRANCH   1  20
BRANCH  12  27
HETATM   27  O2  UNL     1     -29.283 -30.717   6.801  1.00  0.00    -0.393 OA
ATOM     28  H2  UNL     1     -30.160 -30.974   6.545  1.00  0.00     0.210 HD
ENDBRANCH  12  27
BRANCH  13  29
HETATM   29  N2  UNL     1     -29.039 -28.210   7.279  1.00  0.00    -0.391 N 
ATOM     30  H2  UNL     1     -30.044 -28.321   7.145  1.00  0.00     0.159 HD
BRANCH  29  31
HETATM   31  C16 UNL     1     -28.428 -27.268   6.439  1.00  0.00     0.099 C 
BRANCH  31  32
HETATM   32  C17 UNL     1     -28.421 -25.923   7.045  1.00  0.00     0.039 A 
HETATM   33  C18 UNL     1     -27.498 -24.946   6.793  1.00  0.00     0.042 A 
HETATM   34  C19 UNL     1     -27.768 -23.873   7.658  1.00  0.00     0.146 A 
HETATM   35  O3  UNL     1     -28.778 -24.220   8.350  1.00  0.00    -0.300 OA
HETATM   36  C20 UNL     1     -29.245 -25.426   8.059  1.00  0.00     0.194 A 
BRANCH  36  37
HETATM   37  O4  UNL     1     -30.336 -26.009   8.666  1.00  0.00    -0.340 OA
ATOM     38  H4  UNL     1     -30.869 -25.691   9.386  1.00  0.00     0.220 HD
ENDBRANCH  36  37
ENDBRANCH  31  32
ENDBRANCH  29  31
ENDBRANCH  13  29
TORSDOF 6
ENDMDL
MODEL 4
REMARK VINA RESULT: -8.833479997      4.521      9.596
REMARK  6 active torsions:
REMARK  status: ('A' for Active; 'I' for Inactive)
REMARK    1  A    between atoms: C3_5  and  C4_6 
REMARK    2  A    between atoms: C14_17  and  O2_18 
REMARK    3  A    between atoms: C15_20  and  N2_21 
REMARK    4  A    between atoms: N2_21  and  C16_23 
REMARK    5  A    between atoms: C16_23  and  C17_24 
REMARK    6  A    between atoms: C20_28  and  O4_29 
ROOT
HETATM    1  C4  UNL     1     -21.350 -24.812   1.911  1.00  0.00     0.312 C 
HETATM    2  O1  UNL     1     -21.271 -24.028   3.017  1.00  0.00    -0.352 OA
HETATM    3  C5  UNL     1     -20.556 -22.889   2.648  1.00  0.00     0.209 C 
HETATM    4  C6  UNL     1     -19.913 -23.270   1.348  1.00  0.00     0.086 C 
HETATM    5  C7  UNL     1     -18.434 -22.930   1.351  1.00  0.00     0.041 C 
HETATM    6  C8  UNL     1     -18.305 -21.458   1.602  1.00  0.00     0.009 C 
HETATM    7  C9  UNL     1     -19.031 -20.569   0.637  1.00  0.00    -0.002 C 
HETATM    8  C10 UNL     1     -20.317 -21.076   0.148  1.00  0.00    -0.007 C 
HETATM    9  C11 UNL     1     -20.731 -20.670  -1.237  1.00  0.00     0.005 C 
HETATM   10  C12 UNL     1     -20.199 -19.352  -1.667  1.00  0.00     0.008 C 
HETATM   11  C13 UNL     1     -18.803 -19.033  -1.302  1.00  0.00     0.025 C 
HETATM   12  C14 UNL     1     -18.831 -17.710  -0.576  1.00  0.00     0.145 C 
HETATM   13  C15 UNL     1     -17.427 -17.083  -0.905  1.00  0.00     0.110 C 
HETATM   14  C21 UNL     1     -16.454 -18.059  -0.398  1.00  0.00     0.028 C 
HETATM   15  C22 UNL     1     -17.020 -19.269   0.318  1.00  0.00     0.012 C 
HETATM   16  C23 UNL     1     -18.075 -20.036  -0.445  1.00  0.00    -0.034 C 
HETATM   17  C24 UNL     1     -17.422 -21.128  -1.199  1.00  0.00     0.016 C 
HETATM   18  C25 UNL     1     -20.485 -22.572   0.167  1.00  0.00     0.045 C 
HETATM   19  O5  UNL     1     -20.134 -24.617   1.196  1.00  0.00    -0.342 OA
ENDROOT
BRANCH   1  20
HETATM   20  C3  UNL     1     -21.360 -26.296   2.235  1.00  0.00     0.071 A 
HETATM   21  N1  UNL     1     -22.376 -26.828   2.841  1.00  0.00    -0.353 N 
HETATM   22  C2  UNL     1     -22.369 -28.115   3.124  1.00  0.00     0.047 A 
ATOM     23  H1  UNL     1     -23.177 -26.251   3.099  1.00  0.00     0.166 HD
HETATM   24  C1  UNL     1     -23.445 -28.907   3.830  1.00  0.00     0.076 C 
HETATM   25  S1  UNL     1     -20.867 -28.624   2.507  1.00  0.00    -0.087 SA
HETATM   26  C26 UNL     1     -20.321 -27.121   1.912  1.00  0.00     0.081 A 
ENDBRANCH   1  20
BRANCH  12  27
HETATM   27  O2  UNL     1     -19.792 -16.878  -1.096  1.00  0.00    -0.393 OA
ATOM     28  H2  UNL     1     -20.646 -17.293  -1.090  1.00  0.00     0.210 HD
ENDBRANCH  12  27
BRANCH  13  29
HETATM   29  N2  UNL     1     -17.544 -15.748  -0.603  1.00  0.00    -0.391 N 
ATOM     30  H2  UNL     1     -17.948 -15.171  -1.341  1.00  0.00     0.159 HD
BRANCH  29  31
HETATM   31  C16 UNL     1     -17.193 -15.056   0.566  1.00  0.00     0.099 C 
BRANCH  31  32
HETATM   32  C17 UNL     1     -15.750 -15.168   0.851  1.00  0.00     0.039 A 
HETATM   33  C18 UNL     1     -14.746 -14.709   0.044  1.00  0.00     0.042 A 
HETATM   34  C19 UNL     1     -13.527 -15.122   0.606  1.00  0.00     0.146 A 
HETATM   35  O3  UNL     1     -13.823 -15.767   1.662  1.00  0.00    -0.300 OA
HETATM   36  C20 UNL     1     -15.124 -15.850   1.899  1.00  0.00     0.194 A 
BRANCH  36  37
HETATM   37  O4  UNL     1     -15.682 -16.487   2.986  1.00  0.00    -0.340 OA
ATOM     38  H4  UNL     1     -16.316 -16.165   3.616  1.00  0.00     0.220 HD
ENDBRANCH  36  37
ENDBRANCH  31  32
ENDBRANCH  29  31
ENDBRANCH  13  29
TORSDOF 6
ENDMDL
MODEL 5
REMARK VINA RESULT: -8.684799060      9.041     15.778
REMARK  6 active torsions:
REMARK  status: ('A' for Active; 'I' for Inactive)
REMARK    1  A    between atoms: C3_5  and  C4_6 
REMARK    2  A    between atoms: C14_17  and  O2_18 
REMARK    3  A    between atoms: C15_20  and  N2_21 
REMARK    4  A    between atoms: N2_21  and  C16_23 
REMARK    5  A    between atoms: C16_23  and  C17_24 
REMARK    6  A    between atoms: C20_28  and  O4_29 
ROOT
HETATM    1  C4  UNL     1     -29.772 -31.659  10.612  1.00  0.00     0.312 C 
HETATM    2  O1  UNL     1     -28.481 -31.628  11.035  1.00  0.00    -0.352 OA
HETATM    3  C5  UNL     1     -27.702 -31.345   9.913  1.00  0.00     0.209 C 
HETATM    4  C6  UNL     1     -28.625 -31.596   8.758  1.00  0.00     0.086 C 
HETATM    5  C7  UNL     1     -27.961 -32.472   7.711  1.00  0.00     0.041 C 
HETATM    6  C8  UNL     1     -26.712 -31.777   7.259  1.00  0.00     0.009 C 
HETATM    7  C9  UNL     1     -26.901 -30.390   6.720  1.00  0.00    -0.002 C 
HETATM    8  C10 UNL     1     -27.940 -29.588   7.374  1.00  0.00    -0.007 C 
HETATM    9  C11 UNL     1     -28.654 -28.573   6.529  1.00  0.00     0.005 C 
HETATM   10  C12 UNL     1     -27.837 -28.029   5.414  1.00  0.00     0.008 C 
HETATM   11  C13 UNL     1     -26.980 -28.981   4.676  1.00  0.00     0.025 C 
HETATM   12  C14 UNL     1     -25.578 -28.422   4.704  1.00  0.00     0.145 C 
HETATM   13  C15 UNL     1     -24.943 -28.959   3.370  1.00  0.00     0.110 C 
HETATM   14  C21 UNL     1     -25.040 -30.421   3.471  1.00  0.00     0.028 C 
HETATM   15  C22 UNL     1     -25.607 -30.972   4.765  1.00  0.00     0.012 C 
HETATM   16  C23 UNL     1     -26.942 -30.399   5.182  1.00  0.00    -0.034 C 
HETATM   17  C24 UNL     1     -28.019 -31.267   4.659  1.00  0.00     0.016 C 
HETATM   18  C25 UNL     1     -29.043 -30.362   8.044  1.00  0.00     0.045 C 
HETATM   19  O5  UNL     1     -29.746 -32.184   9.289  1.00  0.00    -0.342 OA
ENDROOT
BRANCH   1  20
HETATM   20  C3  UNL     1     -30.628 -32.645  11.389  1.00  0.00     0.071 A 
HETATM   21  N1  UNL     1     -30.887 -33.817  10.898  1.00  0.00    -0.353 N 
HETATM   22  C2  UNL     1     -31.636 -34.661  11.578  1.00  0.00     0.047 A 
ATOM     23  H1  UNL     1     -30.511 -34.085   9.988  1.00  0.00     0.166 HD
HETATM   24  C1  UNL     1     -32.054 -36.054  11.170  1.00  0.00     0.076 C 
HETATM   25  S1  UNL     1     -32.002 -33.781  12.989  1.00  0.00    -0.087 SA
HETATM   26  C26 UNL     1     -31.155 -32.348  12.613  1.00  0.00     0.081 A 
ENDBRANCH   1  20
BRANCH  12  27
HETATM   27  O2  UNL     1     -25.589 -27.050   4.639  1.00  0.00    -0.393 OA
ATOM     28  H2  UNL     1     -24.982 -26.671   5.264  1.00  0.00     0.210 HD
ENDBRANCH  12  27
BRANCH  13  29
HETATM   29  N2  UNL     1     -23.830 -28.183   3.158  1.00  0.00    -0.391 N 
ATOM     30  H2  UNL     1     -23.993 -27.329   2.624  1.00  0.00     0.159 HD
BRANCH  29  31
HETATM   31  C16 UNL     1     -22.502 -28.386   3.563  1.00  0.00     0.099 C 
BRANCH  31  32
HETATM   32  C17 UNL     1     -21.555 -27.624   2.726  1.00  0.00     0.039 A 
HETATM   33  C18 UNL     1     -20.409 -28.123   2.174  1.00  0.00     0.042 A 
HETATM   34  C19 UNL     1     -19.731 -27.054   1.564  1.00  0.00     0.146 A 
HETATM   35  O3  UNL     1     -20.449 -26.022   1.757  1.00  0.00    -0.300 OA
HETATM   36  C20 UNL     1     -21.561 -26.256   2.439  1.00  0.00     0.194 A 
BRANCH  36  37
HETATM   37  O4  UNL     1     -22.499 -25.297   2.758  1.00  0.00    -0.340 OA
ATOM     38  H4  UNL     1     -22.741 -24.508   2.287  1.00  0.00     0.220 HD
ENDBRANCH  36  37
ENDBRANCH  31  32
ENDBRANCH  29  31
ENDBRANCH  13  29
TORSDOF 6
ENDMDL
