MODEL 1
REMARK VINA RESULT: -8.523761130      0.000      0.000
REMARK  6 active torsions:
REMARK  status: ('A' for Active; 'I' for Inactive)
REMARK    1  A    between atoms: C4_4  and  C5_5 
REMARK    2  A    between atoms: C5_5  and  C6_7 
REMARK    3  A    between atoms: C11_13  and  O3_14 
REMARK    4  A    between atoms: C20_24  and  C21_25 
REMARK    5  A    between atoms: N1_26  and  O4_28 
REMARK    6  A    between atoms: C22_30  and  O5_31 
ROOT
HETATM    1  C6  UNL     1     -28.191 -24.881   7.955  1.00  0.00     0.123 C 
HETATM    2  C7  UNL     1     -29.402 -24.253   7.210  1.00  0.00     0.055 C 
HETATM    3  C8  UNL     1     -27.805 -26.083   7.140  1.00  0.00     0.058 C 
HETATM    4  C9  UNL     1     -28.801 -27.128   7.481  1.00  0.00     0.059 A 
HETATM    5  C10 UNL     1     -28.421 -28.370   6.816  1.00  0.00     0.068 A 
HETATM    6  O2  UNL     1     -28.166 -28.856   5.636  1.00  0.00    -0.291 OA
HETATM    7  C11 UNL     1     -27.857 -30.127   5.648  1.00  0.00     0.183 A 
HETATM    8  C12 UNL     1     -27.926 -30.480   7.004  1.00  0.00     0.074 A 
HETATM    9  C13 UNL     1     -28.283 -29.354   7.711  1.00  0.00    -0.019 A 
HETATM   10  C14 UNL     1     -28.576 -28.806   9.094  1.00  0.00     0.029 A 
HETATM   11  C15 UNL     1     -27.423 -29.286   9.888  1.00  0.00     0.016 C 
HETATM   12  C16 UNL     1     -28.987 -27.432   8.961  1.00  0.00     0.008 A 
HETATM   13  C17 UNL     1     -30.541 -27.508   9.042  1.00  0.00     0.014 C 
HETATM   14  C18 UNL     1     -30.924 -27.813  10.463  1.00  0.00     0.007 C 
HETATM   15  C19 UNL     1     -30.706 -26.442  11.118  1.00  0.00     0.008 C 
HETATM   16  C20 UNL     1     -31.479 -26.311  12.356  1.00  0.00     0.060 C 
HETATM   17  C22 UNL     1     -31.359 -24.941  12.928  1.00  0.00     0.127 C 
HETATM   18  C23 UNL     1     -30.107 -24.212  12.628  1.00  0.00     0.033 C 
HETATM   19  C24 UNL     1     -29.376 -24.526  11.407  1.00  0.00     0.015 C 
HETATM   20  C25 UNL     1     -29.285 -26.045  11.101  1.00  0.00    -0.008 C 
HETATM   21  C26 UNL     1     -28.501 -26.457  12.353  1.00  0.00     0.019 C 
HETATM   22  C27 UNL     1     -28.536 -26.327   9.842  1.00  0.00     0.075 C 
HETATM   23  C28 UNL     1     -27.066 -26.374  10.237  1.00  0.00     0.047 C 
HETATM   24  O6  UNL     1     -28.626 -25.096   9.168  1.00  0.00    -0.360 OA
ENDROOT
BRANCH   1  25
HETATM   25  C5  UNL     1     -27.117 -23.868   7.761  1.00  0.00     0.183 C 
HETATM   26  O1  UNL     1     -26.838 -23.031   8.643  1.00  0.00    -0.290 OA
BRANCH  25  27
HETATM   27  C4  UNL     1     -26.331 -23.782   6.550  1.00  0.00     0.055 C 
HETATM   28  C2  UNL     1     -26.287 -22.784   5.732  1.00  0.00    -0.084 C 
HETATM   29  C1  UNL     1     -25.421 -22.850   4.519  1.00  0.00     0.043 C 
HETATM   30  C3  UNL     1     -27.064 -21.534   5.925  1.00  0.00     0.043 C 
ENDBRANCH  25  27
ENDBRANCH   1  25
BRANCH   7  31
HETATM   31  O3  UNL     1     -27.530 -30.978   4.617  1.00  0.00    -0.341 OA
ATOM     32  H3  UNL     1     -28.055 -31.628   4.164  1.00  0.00     0.220 HD
ENDBRANCH   7  31
BRANCH  16  33
HETATM   33  C21 UNL     1     -31.376 -27.410  13.344  1.00  0.00     0.094 C 
HETATM   34  N1  UNL     1     -32.398 -27.994  13.790  1.00  0.00    -0.284 N 
ATOM     35  H1  UNL     1     -33.324 -27.712  13.470  1.00  0.00     0.192 HD
BRANCH  34  36
HETATM   36  O4  UNL     1     -32.267 -29.009  14.704  1.00  0.00    -0.291 OA
ATOM     37  H4  UNL     1     -32.612 -29.873  14.509  1.00  0.00     0.244 HD
ENDBRANCH  34  36
ENDBRANCH  16  33
BRANCH  17  38
HETATM   38  O5  UNL     1     -31.474 -25.071  14.333  1.00  0.00    -0.395 OA
ATOM     39  H5  UNL     1     -32.000 -24.340  14.636  1.00  0.00     0.210 HD
ENDBRANCH  17  38
TORSDOF 6
ENDMDL
MODEL 2
REMARK VINA RESULT: -8.478751009      1.119      1.420
REMARK  6 active torsions:
REMARK  status: ('A' for Active; 'I' for Inactive)
REMARK    1  A    between atoms: C4_4  and  C5_5 
REMARK    2  A    between atoms: C5_5  and  C6_7 
REMARK    3  A    between atoms: C11_13  and  O3_14 
REMARK    4  A    between atoms: C20_24  and  C21_25 
REMARK    5  A    between atoms: N1_26  and  O4_28 
REMARK    6  A    between atoms: C22_30  and  O5_31 
ROOT
HETATM    1  C6  UNL     1     -28.470 -25.237   7.747  1.00  0.00     0.123 C 
HETATM    2  C7  UNL     1     -29.762 -24.804   7.001  1.00  0.00     0.055 C 
HETATM    3  C8  UNL     1     -27.974 -26.449   7.011  1.00  0.00     0.058 C 
HETATM    4  C9  UNL     1     -28.838 -27.567   7.463  1.00  0.00     0.059 A 
HETATM    5  C10 UNL     1     -28.340 -28.808   6.879  1.00  0.00     0.068 A 
HETATM    6  O2  UNL     1     -28.064 -29.353   5.729  1.00  0.00    -0.291 OA
HETATM    7  C11 UNL     1     -27.615 -30.578   5.825  1.00  0.00     0.183 A 
HETATM    8  C12 UNL     1     -27.609 -30.830   7.205  1.00  0.00     0.074 A 
HETATM    9  C13 UNL     1     -28.070 -29.699   7.839  1.00  0.00    -0.019 A 
HETATM   10  C14 UNL     1     -28.386 -29.080   9.187  1.00  0.00     0.029 A 
HETATM   11  C15 UNL     1     -27.166 -29.369   9.974  1.00  0.00     0.016 C 
HETATM   12  C16 UNL     1     -28.950 -27.774   8.967  1.00  0.00     0.008 A 
HETATM   13  C17 UNL     1     -30.483 -28.012   9.107  1.00  0.00     0.014 C 
HETATM   14  C18 UNL     1     -30.793 -28.246  10.559  1.00  0.00     0.007 C 
HETATM   15  C19 UNL     1     -30.711 -26.813  11.103  1.00  0.00     0.008 C 
HETATM   16  C20 UNL     1     -31.461 -26.672  12.354  1.00  0.00     0.060 C 
HETATM   17  C22 UNL     1     -31.479 -25.257  12.818  1.00  0.00     0.127 C 
HETATM   18  C23 UNL     1     -30.325 -24.421  12.422  1.00  0.00     0.033 C 
HETATM   19  C24 UNL     1     -29.596 -24.747  11.203  1.00  0.00     0.015 C 
HETATM   20  C25 UNL     1     -29.344 -26.266  11.007  1.00  0.00    -0.008 C 
HETATM   21  C26 UNL     1     -28.487 -26.492  12.258  1.00  0.00     0.019 C 
HETATM   22  C27 UNL     1     -28.602 -26.561   9.747  1.00  0.00     0.075 C 
HETATM   23  C28 UNL     1     -27.127 -26.418  10.093  1.00  0.00     0.047 C 
HETATM   24  O6  UNL     1     -28.846 -25.403   8.988  1.00  0.00    -0.360 OA
ENDROOT
BRANCH   1  25
HETATM   25  C5  UNL     1     -27.521 -24.131   7.442  1.00  0.00     0.183 C 
HETATM   26  O1  UNL     1     -27.038 -23.978   6.302  1.00  0.00    -0.290 OA
BRANCH  25  27
HETATM   27  C4  UNL     1     -27.096 -23.167   8.433  1.00  0.00     0.055 C 
HETATM   28  C2  UNL     1     -27.715 -22.085   8.768  1.00  0.00    -0.084 C 
HETATM   29  C1  UNL     1     -27.142 -21.190   9.814  1.00  0.00     0.043 C 
HETATM   30  C3  UNL     1     -29.000 -21.658   8.161  1.00  0.00     0.043 C 
ENDBRANCH  25  27
ENDBRANCH   1  25
BRANCH   7  31
HETATM   31  O3  UNL     1     -27.223 -31.465   4.849  1.00  0.00    -0.341 OA
ATOM     32  H3  UNL     1     -26.383 -31.881   4.694  1.00  0.00     0.220 HD
ENDBRANCH   7  31
BRANCH  16  33
HETATM   33  C21 UNL     1     -31.210 -27.673  13.416  1.00  0.00     0.094 C 
HETATM   34  N1  UNL     1     -32.154 -28.279  13.987  1.00  0.00    -0.284 N 
ATOM     35  H1  UNL     1     -33.119 -28.084  13.720  1.00  0.00     0.192 HD
BRANCH  34  36
HETATM   36  O4  UNL     1     -31.887 -29.202  14.967  1.00  0.00    -0.291 OA
ATOM     37  H4  UNL     1     -32.047 -28.988  15.879  1.00  0.00     0.244 HD
ENDBRANCH  34  36
ENDBRANCH  16  33
BRANCH  17  38
HETATM   38  O5  UNL     1     -31.542 -25.289  14.232  1.00  0.00    -0.395 OA
ATOM     39  H5  UNL     1     -32.031 -24.522  14.504  1.00  0.00     0.210 HD
ENDBRANCH  17  38
TORSDOF 6
ENDMDL
MODEL 3
REMARK VINA RESULT: -8.421107134      3.508      7.049
REMARK  6 active torsions:
REMARK  status: ('A' for Active; 'I' for Inactive)
REMARK    1  A    between atoms: C4_4  and  C5_5 
REMARK    2  A    between atoms: C5_5  and  C6_7 
REMARK    3  A    between atoms: C11_13  and  O3_14 
REMARK    4  A    between atoms: C20_24  and  C21_25 
REMARK    5  A    between atoms: N1_26  and  O4_28 
REMARK    6  A    between atoms: C22_30  and  O5_31 
ROOT
HETATM    1  C6  UNL     1     -29.686 -31.409  12.033  1.00  0.00     0.123 C 
HETATM    2  C7  UNL     1     -28.590 -31.821  13.055  1.00  0.00     0.055 C 
HETATM    3  C8  UNL     1     -29.376 -32.185  10.785  1.00  0.00     0.058 C 
HETATM    4  C9  UNL     1     -28.244 -31.471  10.147  1.00  0.00     0.059 A 
HETATM    5  C10 UNL     1     -27.961 -32.099   8.860  1.00  0.00     0.068 A 
HETATM    6  O2  UNL     1     -27.661 -33.251   8.335  1.00  0.00    -0.291 OA
HETATM    7  C11 UNL     1     -27.514 -33.211   7.035  1.00  0.00     0.183 A 
HETATM    8  C12 UNL     1     -27.751 -31.868   6.708  1.00  0.00     0.074 A 
HETATM    9  C13 UNL     1     -28.029 -31.196   7.877  1.00  0.00    -0.019 A 
HETATM   10  C14 UNL     1     -28.377 -29.845   8.471  1.00  0.00     0.029 A 
HETATM   11  C15 UNL     1     -29.487 -29.384   7.608  1.00  0.00     0.016 C 
HETATM   12  C16 UNL     1     -28.432 -29.980   9.904  1.00  0.00     0.008 A 
HETATM   13  C17 UNL     1     -27.048 -29.440  10.372  1.00  0.00     0.014 C 
HETATM   14  C18 UNL     1     -27.041 -27.946  10.199  1.00  0.00     0.007 C 
HETATM   15  C19 UNL     1     -27.898 -27.516  11.397  1.00  0.00     0.008 C 
HETATM   16  C20 UNL     1     -27.634 -26.123  11.770  1.00  0.00     0.060 C 
HETATM   17  C22 UNL     1     -28.377 -25.743  13.004  1.00  0.00     0.127 C 
HETATM   18  C23 UNL     1     -29.643 -26.463  13.256  1.00  0.00     0.033 C 
HETATM   19  C24 UNL     1     -29.813 -27.811  12.726  1.00  0.00     0.015 C 
HETATM   20  C25 UNL     1     -29.290 -27.987  11.275  1.00  0.00    -0.008 C 
HETATM   21  C26 UNL     1     -30.235 -26.987  10.597  1.00  0.00     0.019 C 
HETATM   22  C27 UNL     1     -29.475 -29.378  10.770  1.00  0.00     0.075 C 
HETATM   23  C28 UNL     1     -30.889 -29.429  10.208  1.00  0.00     0.047 C 
HETATM   24  O6  UNL     1     -29.601 -30.107  11.965  1.00  0.00    -0.360 OA
ENDROOT
BRANCH   1  25
HETATM   25  C5  UNL     1     -30.923 -32.004  12.613  1.00  0.00     0.183 C 
HETATM   26  O1  UNL     1     -31.409 -31.591  13.685  1.00  0.00    -0.290 OA
BRANCH  25  27
HETATM   27  C4  UNL     1     -31.639 -33.091  11.982  1.00  0.00     0.055 C 
HETATM   28  C2  UNL     1     -31.501 -34.350  12.232  1.00  0.00    -0.084 C 
HETATM   29  C1  UNL     1     -32.319 -35.353  11.491  1.00  0.00     0.043 C 
HETATM   30  C3  UNL     1     -30.553 -34.883  13.242  1.00  0.00     0.043 C 
ENDBRANCH  25  27
ENDBRANCH   1  25
BRANCH   7  31
HETATM   31  O3  UNL     1     -27.202 -34.208   6.140  1.00  0.00    -0.341 OA
ATOM     32  H3  UNL     1     -26.784 -34.164   5.287  1.00  0.00     0.220 HD
ENDBRANCH   7  31
BRANCH  16  33
HETATM   33  C21 UNL     1     -27.662 -25.111  10.689  1.00  0.00     0.094 C 
HETATM   34  N1  UNL     1     -26.794 -24.203  10.615  1.00  0.00    -0.284 N 
ATOM     35  H1  UNL     1     -26.050 -24.152  11.310  1.00  0.00     0.192 HD
BRANCH  34  36
HETATM   36  O4  UNL     1     -26.848 -23.281   9.600  1.00  0.00    -0.291 OA
ATOM     37  H4  UNL     1     -27.538 -22.629   9.584  1.00  0.00     0.244 HD
ENDBRANCH  34  36
ENDBRANCH  16  33
BRANCH  17  38
HETATM   38  O5  UNL     1     -28.663 -24.360  12.900  1.00  0.00    -0.395 OA
ATOM     39  H5  UNL     1     -28.349 -23.953  13.699  1.00  0.00     0.210 HD
ENDBRANCH  17  38
TORSDOF 6
ENDMDL
MODEL 4
REMARK VINA RESULT: -8.205474077      3.243      6.739
REMARK  6 active torsions:
REMARK  status: ('A' for Active; 'I' for Inactive)
REMARK    1  A    between atoms: C4_4  and  C5_5 
REMARK    2  A    between atoms: C5_5  and  C6_7 
REMARK    3  A    between atoms: C11_13  and  O3_14 
REMARK    4  A    between atoms: C20_24  and  C21_25 
REMARK    5  A    between atoms: N1_26  and  O4_28 
REMARK    6  A    between atoms: C22_30  and  O5_31 
ROOT
HETATM    1  C6  UNL     1     -29.491 -31.459  11.292  1.00  0.00     0.123 C 
HETATM    2  C7  UNL     1     -28.338 -31.946  12.213  1.00  0.00     0.055 C 
HETATM    3  C8  UNL     1     -29.104 -31.897   9.908  1.00  0.00     0.058 C 
HETATM    4  C9  UNL     1     -28.078 -30.925   9.458  1.00  0.00     0.059 A 
HETATM    5  C10 UNL     1     -27.737 -31.215   8.069  1.00  0.00     0.068 A 
HETATM    6  O2  UNL     1     -27.304 -32.177   7.307  1.00  0.00    -0.291 OA
HETATM    7  C11 UNL     1     -27.181 -31.835   6.051  1.00  0.00     0.183 A 
HETATM    8  C12 UNL     1     -27.587 -30.493   6.023  1.00  0.00     0.074 A 
HETATM    9  C13 UNL     1     -27.930 -30.133   7.307  1.00  0.00    -0.019 A 
HETATM   10  C14 UNL     1     -28.435 -29.000   8.179  1.00  0.00     0.029 A 
HETATM   11  C15 UNL     1     -29.605 -28.502   7.422  1.00  0.00     0.016 C 
HETATM   12  C16 UNL     1     -28.453 -29.452   9.546  1.00  0.00     0.008 A 
HETATM   13  C17 UNL     1     -27.140 -28.861  10.141  1.00  0.00     0.014 C 
HETATM   14  C18 UNL     1     -27.322 -27.377  10.300  1.00  0.00     0.007 C 
HETATM   15  C19 UNL     1     -28.208 -27.329  11.552  1.00  0.00     0.008 C 
HETATM   16  C20 UNL     1     -28.114 -26.032  12.225  1.00  0.00     0.060 C 
HETATM   17  C22 UNL     1     -28.882 -26.026  13.501  1.00  0.00     0.127 C 
HETATM   18  C23 UNL     1     -30.045 -26.936  13.572  1.00  0.00     0.033 C 
HETATM   19  C24 UNL     1     -30.054 -28.145  12.756  1.00  0.00     0.015 C 
HETATM   20  C25 UNL     1     -29.533 -27.931  11.309  1.00  0.00    -0.008 C 
HETATM   21  C26 UNL     1     -30.604 -26.932  10.855  1.00  0.00     0.019 C 
HETATM   22  C27 UNL     1     -29.551 -29.189  10.508  1.00  0.00     0.075 C 
HETATM   23  C28 UNL     1     -30.955 -29.291   9.929  1.00  0.00     0.047 C 
HETATM   24  O6  UNL     1     -29.569 -30.173  11.512  1.00  0.00    -0.360 OA
ENDROOT
BRANCH   1  25
HETATM   25  C5  UNL     1     -30.636 -32.315  11.709  1.00  0.00     0.183 C 
HETATM   26  O1  UNL     1     -31.349 -32.024  12.690  1.00  0.00    -0.290 OA
BRANCH  25  27
HETATM   27  C4  UNL     1     -30.998 -33.531  11.015  1.00  0.00     0.055 C 
HETATM   28  C2  UNL     1     -30.865 -34.737  11.456  1.00  0.00    -0.084 C 
HETATM   29  C1  UNL     1     -31.288 -35.892  10.614  1.00  0.00     0.043 C 
HETATM   30  C3  UNL     1     -30.300 -35.060  12.790  1.00  0.00     0.043 C 
ENDBRANCH  25  27
ENDBRANCH   1  25
BRANCH   7  31
HETATM   31  O3  UNL     1     -26.759 -32.564   4.962  1.00  0.00    -0.341 OA
ATOM     32  H3  UNL     1     -26.115 -32.360   4.294  1.00  0.00     0.220 HD
ENDBRANCH   7  31
BRANCH  16  33
HETATM   33  C21 UNL     1     -28.282 -24.818  11.392  1.00  0.00     0.094 C 
HETATM   34  N1  UNL     1     -27.453 -23.872  11.432  1.00  0.00    -0.284 N 
ATOM     35  H1  UNL     1     -26.642 -23.931  12.048  1.00  0.00     0.192 HD
BRANCH  34  36
HETATM   36  O4  UNL     1     -27.637 -22.762  10.647  1.00  0.00    -0.291 OA
ATOM     37  H4  UNL     1     -26.919 -22.421  10.127  1.00  0.00     0.244 HD
ENDBRANCH  34  36
ENDBRANCH  16  33
BRANCH  17  38
HETATM   38  O5  UNL     1     -29.339 -24.701  13.701  1.00  0.00    -0.395 OA
ATOM     39  H5  UNL     1     -30.288 -24.733  13.691  1.00  0.00     0.210 HD
ENDBRANCH  17  38
TORSDOF 6
ENDMDL
MODEL 5
REMARK VINA RESULT: -8.073275625      3.102      5.739
REMARK  6 active torsions:
REMARK  status: ('A' for Active; 'I' for Inactive)
REMARK    1  A    between atoms: C4_4  and  C5_5 
REMARK    2  A    between atoms: C5_5  and  C6_7 
REMARK    3  A    between atoms: C11_13  and  O3_14 
REMARK    4  A    between atoms: C20_24  and  C21_25 
REMARK    5  A    between atoms: N1_26  and  O4_28 
REMARK    6  A    between atoms: C22_30  and  O5_31 
ROOT
HETATM    1  C6  UNL     1     -28.475 -31.446   7.369  1.00  0.00     0.123 C 
HETATM    2  C7  UNL     1     -29.749 -31.509   6.483  1.00  0.00     0.055 C 
HETATM    3  C8  UNL     1     -28.592 -32.607   8.315  1.00  0.00     0.058 C 
HETATM    4  C9  UNL     1     -29.565 -32.177   9.349  1.00  0.00     0.059 A 
HETATM    5  C10 UNL     1     -29.643 -33.212  10.376  1.00  0.00     0.068 A 
HETATM    6  O2  UNL     1     -29.892 -34.480  10.525  1.00  0.00    -0.291 OA
HETATM    7  C11 UNL     1     -29.807 -34.888  11.765  1.00  0.00     0.183 A 
HETATM    8  C12 UNL     1     -29.462 -33.732  12.480  1.00  0.00     0.074 A 
HETATM    9  C13 UNL     1     -29.366 -32.696  11.578  1.00  0.00    -0.019 A 
HETATM   10  C14 UNL     1     -29.072 -31.216  11.424  1.00  0.00     0.029 A 
HETATM   11  C15 UNL     1     -27.810 -31.053  12.179  1.00  0.00     0.016 C 
HETATM   12  C16 UNL     1     -29.276 -30.854  10.045  1.00  0.00     0.008 A 
HETATM   13  C17 UNL     1     -30.697 -30.217  10.043  1.00  0.00     0.014 C 
HETATM   14  C18 UNL     1     -30.612 -28.873  10.710  1.00  0.00     0.007 C 
HETATM   15  C19 UNL     1     -29.963 -28.041   9.596  1.00  0.00     0.008 C 
HETATM   16  C20 UNL     1     -30.231 -26.611   9.770  1.00  0.00     0.060 C 
HETATM   17  C22 UNL     1     -29.701 -25.817   8.626  1.00  0.00     0.127 C 
HETATM   18  C23 UNL     1     -28.530 -26.381   7.922  1.00  0.00     0.033 C 
HETATM   19  C24 UNL     1     -28.324 -27.825   7.925  1.00  0.00     0.015 C 
HETATM   20  C25 UNL     1     -28.591 -28.495   9.300  1.00  0.00    -0.008 C 
HETATM   21  C26 UNL     1     -27.501 -27.766  10.095  1.00  0.00     0.019 C 
HETATM   22  C27 UNL     1     -28.377 -29.971   9.262  1.00  0.00     0.075 C 
HETATM   23  C28 UNL     1     -26.890 -30.180   9.511  1.00  0.00     0.047 C 
HETATM   24  O6  UNL     1     -28.494 -30.247   7.889  1.00  0.00    -0.360 OA
ENDROOT
BRANCH   1  25
HETATM   25  C5  UNL     1     -27.385 -31.781   6.412  1.00  0.00     0.183 C 
HETATM   26  O1  UNL     1     -27.176 -32.954   6.040  1.00  0.00    -0.290 OA
BRANCH  25  27
HETATM   27  C4  UNL     1     -26.500 -30.783   5.851  1.00  0.00     0.055 C 
HETATM   28  C2  UNL     1     -26.829 -29.831   5.043  1.00  0.00    -0.084 C 
HETATM   29  C1  UNL     1     -25.793 -28.878   4.552  1.00  0.00     0.043 C 
HETATM   30  C3  UNL     1     -28.214 -29.615   4.556  1.00  0.00     0.043 C 
ENDBRANCH  25  27
ENDBRANCH   1  25
BRANCH   7  31
HETATM   31  O3  UNL     1     -29.998 -36.137  12.311  1.00  0.00    -0.341 OA
ATOM     32  H3  UNL     1     -29.423 -36.894  12.336  1.00  0.00     0.220 HD
ENDBRANCH   7  31
BRANCH  16  33
HETATM   33  C21 UNL     1     -29.972 -26.027  11.106  1.00  0.00     0.094 C 
HETATM   34  N1  UNL     1     -30.828 -25.310  11.689  1.00  0.00    -0.284 N 
ATOM     35  H1  UNL     1     -31.723 -25.120  11.239  1.00  0.00     0.192 HD
BRANCH  34  36
HETATM   36  O4  UNL     1     -30.557 -24.785  12.927  1.00  0.00    -0.291 OA
ATOM     37  H4  UNL     1     -30.717 -25.300  13.709  1.00  0.00     0.244 HD
ENDBRANCH  34  36
ENDBRANCH  16  33
BRANCH  17  38
HETATM   38  O5  UNL     1     -29.345 -24.546   9.139  1.00  0.00    -0.395 OA
ATOM     39  H5  UNL     1     -28.463 -24.364   8.835  1.00  0.00     0.210 HD
ENDBRANCH  17  38
TORSDOF 6
ENDMDL
