MODEL 1
REMARK VINA RESULT: -8.230769909      0.000      0.000
REMARK  9 active torsions:
REMARK  status: ('A' for Active; 'I' for Inactive)
REMARK    1  A    between atoms: C2_2  and  C3_3 
REMARK    2  A    between atoms: C6_6  and  C7_7 
REMARK    3  A    between atoms: N1_9  and  O1_11 
REMARK    4  A    between atoms: C15_19  and  O2_20 
REMARK    5  A    between atoms: O2_20  and  C16_21 
REMARK    6  A    between atoms: C16_21  and  C17_23 
REMARK    7  A    between atoms: C19_25  and  O4_26 
REMARK    8  A    between atoms: C21_28  and  O5_29 
REMARK    9  A    between atoms: C24_35  and  O6_36 
ROOT
HETATM    1  C3  UNL     1     -17.521 -16.891  -1.600  1.00  0.00    -0.017 C 
HETATM    2  C4  UNL     1     -16.767 -15.665  -1.041  1.00  0.00     0.020 C 
HETATM    3  C5  UNL     1     -17.813 -17.720  -0.386  1.00  0.00     0.021 C 
HETATM    4  C6  UNL     1     -18.193 -19.136  -0.600  1.00  0.00     0.027 C 
HETATM    5  C15 UNL     1     -19.661 -19.266  -0.985  1.00  0.00     0.139 C 
HETATM    6  C23 UNL     1     -19.929 -18.551  -2.303  1.00  0.00     0.065 C 
HETATM    7  C24 UNL     1     -19.996 -17.069  -2.131  1.00  0.00     0.129 C 
HETATM    8  C25 UNL     1     -18.680 -16.395  -2.353  1.00  0.00    -0.011 C 
HETATM    9  C26 UNL     1     -18.947 -14.905  -2.075  1.00  0.00     0.018 C 
HETATM   10  C27 UNL     1     -18.402 -16.433  -3.862  1.00  0.00     0.018 C 
ENDROOT
BRANCH   5  11
HETATM   11  O2  UNL     1     -20.104 -20.584  -1.014  1.00  0.00    -0.310 OA
BRANCH  11  12
HETATM   12  C16 UNL     1     -21.304 -21.015  -0.541  1.00  0.00     0.310 C 
HETATM   13  O3  UNL     1     -22.332 -20.352  -0.823  1.00  0.00    -0.258 OA
BRANCH  12  14
HETATM   14  C17 UNL     1     -21.479 -22.211   0.282  1.00  0.00     0.111 A 
HETATM   15  C18 UNL     1     -22.181 -22.178   1.463  1.00  0.00     0.075 A 
HETATM   16  C19 UNL     1     -22.380 -23.269   2.283  1.00  0.00     0.105 A 
HETATM   17  C21 UNL     1     -21.833 -24.463   1.877  1.00  0.00     0.114 A 
HETATM   18  C22 UNL     1     -21.133 -24.487   0.696  1.00  0.00     0.128 A 
HETATM   19  N2  UNL     1     -20.953 -23.407  -0.085  1.00  0.00    -0.358 N 
ATOM     20  H2  UNL     1     -20.423 -23.487  -0.953  1.00  0.00     0.165 HD
BRANCH  16  21
HETATM   21  O4  UNL     1     -23.108 -23.145   3.467  1.00  0.00    -0.353 OA
HETATM   22  C20 UNL     1     -24.356 -22.528   3.543  1.00  0.00     0.210 C 
ENDBRANCH  16  21
BRANCH  17  23
HETATM   23  O5  UNL     1     -22.017 -25.583   2.684  1.00  0.00    -0.357 OA
ATOM     24  H5  UNL     1     -22.826 -26.073   2.599  1.00  0.00     0.218 HD
ENDBRANCH  17  23
ENDBRANCH  12  14
ENDBRANCH  11  12
ENDBRANCH   5  11
BRANCH   4  25
HETATM   25  C7  UNL     1     -17.819 -20.105   0.459  1.00  0.00     0.047 C 
HETATM   26  C8  UNL     1     -17.828 -19.629   1.838  1.00  0.00     0.015 C 
HETATM   27  N1  UNL     1     -18.183 -18.436   2.122  1.00  0.00    -0.277 N 
HETATM   28  C9  UNL     1     -17.425 -20.479   2.994  1.00  0.00     0.055 C 
ATOM     29  H1  UNL     1     -18.457 -17.835   1.345  1.00  0.00     0.193 HD
HETATM   30  C10 UNL     1     -16.508 -21.597   2.577  1.00  0.00     0.006 C 
HETATM   31  C11 UNL     1     -16.748 -22.125   1.207  1.00  0.00     0.010 C 
HETATM   32  C12 UNL     1     -16.600 -20.945   0.221  1.00  0.00    -0.038 C 
HETATM   33  C13 UNL     1     -15.293 -20.326   0.537  1.00  0.00     0.015 C 
HETATM   34  C14 UNL     1     -16.540 -21.563  -1.144  1.00  0.00     0.015 C 
BRANCH  27  35
HETATM   35  O1  UNL     1     -18.225 -17.899   3.367  1.00  0.00    -0.290 OA
ATOM     36  H1  UNL     1     -17.980 -17.010   3.596  1.00  0.00     0.244 HD
ENDBRANCH  27  35
ENDBRANCH   4  25
BRANCH   7  37
HETATM   37  O6  UNL     1     -20.648 -16.669  -0.969  1.00  0.00    -0.395 OA
ATOM     38  H6  UNL     1     -20.927 -15.761  -0.979  1.00  0.00     0.210 HD
ENDBRANCH   7  37
BRANCH   1  39
HETATM   39  C2  UNL     1     -16.557 -17.521  -2.543  1.00  0.00    -0.027 C 
HETATM   40  C1  UNL     1     -15.284 -17.744  -2.289  1.00  0.00     0.008 C 
ENDBRANCH   1  39
TORSDOF 9
ENDMDL
MODEL 2
REMARK VINA RESULT: -8.192207466      0.834      1.574
REMARK  9 active torsions:
REMARK  status: ('A' for Active; 'I' for Inactive)
REMARK    1  A    between atoms: C2_2  and  C3_3 
REMARK    2  A    between atoms: C6_6  and  C7_7 
REMARK    3  A    between atoms: N1_9  and  O1_11 
REMARK    4  A    between atoms: C15_19  and  O2_20 
REMARK    5  A    between atoms: O2_20  and  C16_21 
REMARK    6  A    between atoms: C16_21  and  C17_23 
REMARK    7  A    between atoms: C19_25  and  O4_26 
REMARK    8  A    between atoms: C21_28  and  O5_29 
REMARK    9  A    between atoms: C24_35  and  O6_36 
ROOT
HETATM    1  C3  UNL     1     -17.321 -16.783  -1.617  1.00  0.00    -0.017 C 
HETATM    2  C4  UNL     1     -16.500 -15.615  -1.030  1.00  0.00     0.020 C 
HETATM    3  C5  UNL     1     -17.662 -17.622  -0.422  1.00  0.00     0.021 C 
HETATM    4  C6  UNL     1     -18.122 -19.008  -0.669  1.00  0.00     0.027 C 
HETATM    5  C15 UNL     1     -19.594 -19.046  -1.058  1.00  0.00     0.139 C 
HETATM    6  C23 UNL     1     -19.818 -18.287  -2.359  1.00  0.00     0.065 C 
HETATM    7  C24 UNL     1     -19.801 -16.807  -2.153  1.00  0.00     0.129 C 
HETATM    8  C25 UNL     1     -18.449 -16.204  -2.359  1.00  0.00    -0.011 C 
HETATM    9  C26 UNL     1     -18.631 -14.709  -2.047  1.00  0.00     0.018 C 
HETATM   10  C27 UNL     1     -18.171 -16.224  -3.869  1.00  0.00     0.018 C 
ENDROOT
BRANCH   5  11
HETATM   11  O2  UNL     1     -20.111 -20.335  -1.117  1.00  0.00    -0.310 OA
BRANCH  11  12
HETATM   12  C16 UNL     1     -21.322 -20.714  -0.627  1.00  0.00     0.310 C 
HETATM   13  O3  UNL     1     -22.332 -20.037  -0.938  1.00  0.00    -0.258 OA
BRANCH  12  14
HETATM   14  C17 UNL     1     -21.528 -21.869   0.246  1.00  0.00     0.111 A 
HETATM   15  C18 UNL     1     -20.722 -22.979   0.176  1.00  0.00     0.075 A 
HETATM   16  C19 UNL     1     -20.865 -24.098   0.969  1.00  0.00     0.105 A 
HETATM   17  C21 UNL     1     -21.888 -24.087   1.887  1.00  0.00     0.114 A 
HETATM   18  C22 UNL     1     -22.690 -22.973   1.950  1.00  0.00     0.128 A 
HETATM   19  N2  UNL     1     -22.528 -21.894   1.163  1.00  0.00    -0.358 N 
ATOM     20  H2  UNL     1     -23.155 -21.096   1.256  1.00  0.00     0.165 HD
BRANCH  16  21
HETATM   21  O4  UNL     1     -19.998 -25.183   0.830  1.00  0.00    -0.353 OA
HETATM   22  C20 UNL     1     -18.823 -25.330   1.567  1.00  0.00     0.210 C 
ENDBRANCH  16  21
BRANCH  17  23
HETATM   23  O5  UNL     1     -22.059 -25.202   2.702  1.00  0.00    -0.357 OA
ATOM     24  H5  UNL     1     -21.355 -25.441   3.294  1.00  0.00     0.218 HD
ENDBRANCH  17  23
ENDBRANCH  12  14
ENDBRANCH  11  12
ENDBRANCH   5  11
BRANCH   4  25
HETATM   25  C7  UNL     1     -17.805 -20.021   0.367  1.00  0.00     0.047 C 
HETATM   26  C8  UNL     1     -17.808 -19.581   1.759  1.00  0.00     0.015 C 
HETATM   27  N1  UNL     1     -18.110 -18.381   2.070  1.00  0.00    -0.277 N 
HETATM   28  C9  UNL     1     -17.457 -20.479   2.896  1.00  0.00     0.055 C 
ATOM     29  H1  UNL     1     -18.347 -17.747   1.307  1.00  0.00     0.193 HD
HETATM   30  C10 UNL     1     -16.589 -21.628   2.458  1.00  0.00     0.006 C 
HETATM   31  C11 UNL     1     -16.838 -22.107   1.073  1.00  0.00     0.010 C 
HETATM   32  C12 UNL     1     -16.624 -20.911   0.119  1.00  0.00    -0.038 C 
HETATM   33  C13 UNL     1     -15.293 -20.361   0.465  1.00  0.00     0.015 C 
HETATM   34  C14 UNL     1     -16.577 -21.495  -1.261  1.00  0.00     0.015 C 
BRANCH  27  35
HETATM   35  O1  UNL     1     -18.141 -17.874   3.329  1.00  0.00    -0.290 OA
ATOM     36  H1  UNL     1     -18.000 -16.965   3.564  1.00  0.00     0.244 HD
ENDBRANCH  27  35
ENDBRANCH   4  25
BRANCH   7  37
HETATM   37  O6  UNL     1     -20.432 -16.397  -0.982  1.00  0.00    -0.395 OA
ATOM     38  H6  UNL     1     -20.551 -15.457  -0.920  1.00  0.00     0.210 HD
ENDBRANCH   7  37
BRANCH   1  39
HETATM   39  C2  UNL     1     -16.393 -17.445  -2.574  1.00  0.00    -0.027 C 
HETATM   40  C1  UNL     1     -15.150 -17.789  -2.308  1.00  0.00     0.008 C 
ENDBRANCH   1  39
TORSDOF 9
ENDMDL
MODEL 3
REMARK VINA RESULT: -8.082751513      1.920      4.882
REMARK  9 active torsions:
REMARK  status: ('A' for Active; 'I' for Inactive)
REMARK    1  A    between atoms: C2_2  and  C3_3 
REMARK    2  A    between atoms: C6_6  and  C7_7 
REMARK    3  A    between atoms: N1_9  and  O1_11 
REMARK    4  A    between atoms: C15_19  and  O2_20 
REMARK    5  A    between atoms: O2_20  and  C16_21 
REMARK    6  A    between atoms: C16_21  and  C17_23 
REMARK    7  A    between atoms: C19_25  and  O4_26 
REMARK    8  A    between atoms: C21_28  and  O5_29 
REMARK    9  A    between atoms: C24_35  and  O6_36 
ROOT
HETATM    1  C3  UNL     1     -15.804 -18.911   1.019  1.00  0.00    -0.017 C 
HETATM    2  C4  UNL     1     -14.310 -18.742   0.668  1.00  0.00     0.020 C 
HETATM    3  C5  UNL     1     -16.497 -18.845  -0.308  1.00  0.00     0.021 C 
HETATM    4  C6  UNL     1     -17.957 -18.598  -0.306  1.00  0.00     0.027 C 
HETATM    5  C15 UNL     1     -18.737 -19.875  -0.016  1.00  0.00     0.139 C 
HETATM    6  C23 UNL     1     -18.393 -20.402   1.371  1.00  0.00     0.065 C 
HETATM    7  C24 UNL     1     -17.063 -21.082   1.397  1.00  0.00     0.129 C 
HETATM    8  C25 UNL     1     -15.945 -20.164   1.774  1.00  0.00    -0.011 C 
HETATM    9  C26 UNL     1     -14.676 -21.029   1.685  1.00  0.00     0.018 C 
HETATM   10  C27 UNL     1     -16.080 -19.879   3.276  1.00  0.00     0.018 C 
ENDROOT
BRANCH   5  11
HETATM   11  O2  UNL     1     -20.109 -19.728  -0.186  1.00  0.00    -0.310 OA
BRANCH  11  12
HETATM   12  C16 UNL     1     -20.971 -20.738  -0.480  1.00  0.00     0.310 C 
HETATM   13  O3  UNL     1     -20.990 -21.186  -1.653  1.00  0.00    -0.258 OA
BRANCH  12  14
HETATM   14  C17 UNL     1     -21.885 -21.344   0.487  1.00  0.00     0.111 A 
HETATM   15  C18 UNL     1     -21.551 -22.485   1.178  1.00  0.00     0.075 A 
HETATM   16  C19 UNL     1     -22.367 -23.104   2.101  1.00  0.00     0.105 A 
HETATM   17  C21 UNL     1     -23.595 -22.530   2.333  1.00  0.00     0.114 A 
HETATM   18  C22 UNL     1     -23.921 -21.391   1.638  1.00  0.00     0.128 A 
HETATM   19  N2  UNL     1     -23.104 -20.807   0.743  1.00  0.00    -0.358 N 
ATOM     20  H2  UNL     1     -23.402 -19.962   0.256  1.00  0.00     0.165 HD
BRANCH  16  21
HETATM   21  O4  UNL     1     -21.948 -24.261   2.758  1.00  0.00    -0.353 OA
HETATM   22  C20 UNL     1     -21.675 -25.463   2.105  1.00  0.00     0.210 C 
ENDBRANCH  16  21
BRANCH  17  23
HETATM   23  O5  UNL     1     -24.442 -23.133   3.259  1.00  0.00    -0.357 OA
ATOM     24  H5  UNL     1     -25.317 -22.778   3.369  1.00  0.00     0.218 HD
ENDBRANCH  17  23
ENDBRANCH  12  14
ENDBRANCH  11  12
ENDBRANCH   5  11
BRANCH   4  25
HETATM   25  C7  UNL     1     -18.523 -17.866  -1.465  1.00  0.00     0.047 C 
HETATM   26  C8  UNL     1     -18.559 -18.564  -2.747  1.00  0.00     0.015 C 
HETATM   27  N1  UNL     1     -18.155 -19.769  -2.853  1.00  0.00    -0.277 N 
HETATM   28  C9  UNL     1     -19.051 -17.930  -4.003  1.00  0.00     0.055 C 
ATOM     29  H1  UNL     1     -17.808 -20.220  -2.006  1.00  0.00     0.193 HD
HETATM   30  C10 UNL     1     -18.956 -16.429  -3.951  1.00  0.00     0.006 C 
HETATM   31  C11 UNL     1     -19.141 -15.837  -2.600  1.00  0.00     0.010 C 
HETATM   32  C12 UNL     1     -18.071 -16.451  -1.671  1.00  0.00    -0.038 C 
HETATM   33  C13 UNL     1     -16.781 -16.260  -2.372  1.00  0.00     0.015 C 
HETATM   34  C14 UNL     1     -18.088 -15.616  -0.425  1.00  0.00     0.015 C 
BRANCH  27  35
HETATM   35  O1  UNL     1     -18.146 -20.503  -3.994  1.00  0.00    -0.290 OA
ATOM     36  H1  UNL     1     -17.978 -21.437  -4.052  1.00  0.00     0.244 HD
ENDBRANCH  27  35
ENDBRANCH   4  25
BRANCH   7  37
HETATM   37  O6  UNL     1     -16.807 -21.854   0.268  1.00  0.00    -0.395 OA
ATOM     38  H6  UNL     1     -15.884 -21.925   0.055  1.00  0.00     0.210 HD
ENDBRANCH   7  37
BRANCH   1  39
HETATM   39  C2  UNL     1     -16.107 -17.762   1.916  1.00  0.00    -0.027 C 
HETATM   40  C1  UNL     1     -15.488 -16.600   1.894  1.00  0.00     0.008 C 
ENDBRANCH   1  39
TORSDOF 9
ENDMDL
MODEL 4
REMARK VINA RESULT: -8.046184052      1.760      2.423
REMARK  9 active torsions:
REMARK  status: ('A' for Active; 'I' for Inactive)
REMARK    1  A    between atoms: C2_2  and  C3_3 
REMARK    2  A    between atoms: C6_6  and  C7_7 
REMARK    3  A    between atoms: N1_9  and  O1_11 
REMARK    4  A    between atoms: C15_19  and  O2_20 
REMARK    5  A    between atoms: O2_20  and  C16_21 
REMARK    6  A    between atoms: C16_21  and  C17_23 
REMARK    7  A    between atoms: C19_25  and  O4_26 
REMARK    8  A    between atoms: C21_28  and  O5_29 
REMARK    9  A    between atoms: C24_35  and  O6_36 
ROOT
HETATM    1  C3  UNL     1     -17.053 -18.608  -3.595  1.00  0.00    -0.017 C 
HETATM    2  C4  UNL     1     -16.055 -17.441  -3.754  1.00  0.00     0.020 C 
HETATM    3  C5  UNL     1     -17.585 -18.441  -2.203  1.00  0.00     0.021 C 
HETATM    4  C6  UNL     1     -18.279 -19.599  -1.594  1.00  0.00     0.027 C 
HETATM    5  C15 UNL     1     -19.719 -19.705  -2.081  1.00  0.00     0.139 C 
HETATM    6  C23 UNL     1     -19.752 -19.934  -3.587  1.00  0.00     0.065 C 
HETATM    7  C24 UNL     1     -19.474 -18.680  -4.349  1.00  0.00     0.129 C 
HETATM    8  C25 UNL     1     -18.028 -18.512  -4.689  1.00  0.00    -0.011 C 
HETATM    9  C26 UNL     1     -17.946 -17.154  -5.409  1.00  0.00     0.018 C 
HETATM   10  C27 UNL     1     -17.703 -19.524  -5.795  1.00  0.00     0.018 C 
ENDROOT
BRANCH   5  11
HETATM   11  O2  UNL     1     -20.459 -20.663  -1.397  1.00  0.00    -0.310 OA
BRANCH  11  12
HETATM   12  C16 UNL     1     -21.613 -20.419  -0.721  1.00  0.00     0.310 C 
HETATM   13  O3  UNL     1     -22.287 -19.407  -1.031  1.00  0.00    -0.258 OA
BRANCH  12  14
HETATM   14  C17 UNL     1     -22.128 -21.268   0.354  1.00  0.00     0.111 A 
HETATM   15  C18 UNL     1     -21.375 -22.281   0.897  1.00  0.00     0.075 A 
HETATM   16  C19 UNL     1     -21.803 -23.114   1.909  1.00  0.00     0.105 A 
HETATM   17  C21 UNL     1     -23.071 -22.904   2.396  1.00  0.00     0.114 A 
HETATM   18  C22 UNL     1     -23.817 -21.890   1.847  1.00  0.00     0.128 A 
HETATM   19  N2  UNL     1     -23.375 -21.091   0.860  1.00  0.00    -0.358 N 
ATOM     20  H2  UNL     1     -23.976 -20.354   0.492  1.00  0.00     0.165 HD
BRANCH  16  21
HETATM   21  O4  UNL     1     -20.970 -24.118   2.403  1.00  0.00    -0.353 OA
HETATM   22  C20 UNL     1     -20.821 -25.365   1.795  1.00  0.00     0.210 C 
ENDBRANCH  16  21
BRANCH  17  23
HETATM   23  O5  UNL     1     -23.532 -23.730   3.418  1.00  0.00    -0.357 OA
ATOM     24  H5  UNL     1     -22.895 -24.122   4.004  1.00  0.00     0.218 HD
ENDBRANCH  17  23
ENDBRANCH  12  14
ENDBRANCH  11  12
ENDBRANCH   5  11
BRANCH   4  25
HETATM   25  C7  UNL     1     -18.191 -19.743  -0.120  1.00  0.00     0.047 C 
HETATM   26  C8  UNL     1     -18.485 -18.563   0.688  1.00  0.00     0.015 C 
HETATM   27  N1  UNL     1     -18.841 -17.464   0.146  1.00  0.00    -0.277 N 
HETATM   28  C9  UNL     1     -18.384 -18.552   2.176  1.00  0.00     0.055 C 
ATOM     29  H1  UNL     1     -18.911 -17.448  -0.872  1.00  0.00     0.193 HD
HETATM   30  C10 UNL     1     -17.446 -19.613   2.684  1.00  0.00     0.006 C 
HETATM   31  C11 UNL     1     -17.400 -20.852   1.863  1.00  0.00     0.010 C 
HETATM   32  C12 UNL     1     -16.986 -20.447   0.430  1.00  0.00    -0.038 C 
HETATM   33  C13 UNL     1     -15.757 -19.637   0.587  1.00  0.00     0.015 C 
HETATM   34  C14 UNL     1     -16.652 -21.728  -0.273  1.00  0.00     0.015 C 
BRANCH  27  35
HETATM   35  O1  UNL     1     -19.135 -16.316   0.806  1.00  0.00    -0.290 OA
ATOM     36  H1  UNL     1     -19.682 -15.612   0.476  1.00  0.00     0.244 HD
ENDBRANCH  27  35
ENDBRANCH   4  25
BRANCH   7  37
HETATM   37  O6  UNL     1     -20.063 -17.546  -3.797  1.00  0.00    -0.395 OA
ATOM     38  H6  UNL     1     -19.446 -16.852  -3.601  1.00  0.00     0.210 HD
ENDBRANCH   7  37
BRANCH   1  39
HETATM   39  C2  UNL     1     -16.225 -19.832  -3.782  1.00  0.00    -0.027 C 
HETATM   40  C1  UNL     1     -15.048 -20.041  -3.231  1.00  0.00     0.008 C 
ENDBRANCH   1  39
TORSDOF 9
ENDMDL
MODEL 5
REMARK VINA RESULT: -8.014371743      1.794      4.736
REMARK  9 active torsions:
REMARK  status: ('A' for Active; 'I' for Inactive)
REMARK    1  A    between atoms: C2_2  and  C3_3 
REMARK    2  A    between atoms: C6_6  and  C7_7 
REMARK    3  A    between atoms: N1_9  and  O1_11 
REMARK    4  A    between atoms: C15_19  and  O2_20 
REMARK    5  A    between atoms: O2_20  and  C16_21 
REMARK    6  A    between atoms: C16_21  and  C17_23 
REMARK    7  A    between atoms: C19_25  and  O4_26 
REMARK    8  A    between atoms: C21_28  and  O5_29 
REMARK    9  A    between atoms: C24_35  and  O6_36 
ROOT
HETATM    1  C3  UNL     1     -16.030 -20.219   1.072  1.00  0.00    -0.017 C 
HETATM    2  C4  UNL     1     -14.530 -20.498   0.833  1.00  0.00     0.020 C 
HETATM    3  C5  UNL     1     -16.638 -20.319  -0.294  1.00  0.00     0.021 C 
HETATM    4  C6  UNL     1     -17.989 -19.743  -0.485  1.00  0.00     0.027 C 
HETATM    5  C15 UNL     1     -19.074 -20.688   0.016  1.00  0.00     0.139 C 
HETATM    6  C23 UNL     1     -18.920 -20.924   1.513  1.00  0.00     0.065 C 
HETATM    7  C24 UNL     1     -17.806 -21.871   1.818  1.00  0.00     0.129 C 
HETATM    8  C25 UNL     1     -16.506 -21.179   2.077  1.00  0.00    -0.011 C 
HETATM    9  C26 UNL     1     -15.493 -22.313   2.309  1.00  0.00     0.018 C 
HETATM   10  C27 UNL     1     -16.616 -20.510   3.454  1.00  0.00     0.018 C 
ENDROOT
BRANCH   5  11
HETATM   11  O2  UNL     1     -20.359 -20.269  -0.311  1.00  0.00    -0.310 OA
BRANCH  11  12
HETATM   12  C16 UNL     1     -21.462 -21.063  -0.311  1.00  0.00     0.310 C 
HETATM   13  O3  UNL     1     -22.432 -20.742  -1.040  1.00  0.00    -0.258 OA
BRANCH  12  14
HETATM   14  C17 UNL     1     -21.595 -22.281   0.489  1.00  0.00     0.111 A 
HETATM   15  C18 UNL     1     -22.367 -22.317   1.625  1.00  0.00     0.075 A 
HETATM   16  C19 UNL     1     -22.532 -23.431   2.421  1.00  0.00     0.105 A 
HETATM   17  C21 UNL     1     -21.873 -24.575   2.038  1.00  0.00     0.114 A 
HETATM   18  C22 UNL     1     -21.104 -24.531   0.901  1.00  0.00     0.128 A 
HETATM   19  N2  UNL     1     -20.960 -23.429   0.142  1.00  0.00    -0.358 N 
ATOM     20  H2  UNL     1     -20.374 -23.456  -0.692  1.00  0.00     0.165 HD
BRANCH  16  21
HETATM   21  O4  UNL     1     -23.336 -23.378   3.560  1.00  0.00    -0.353 OA
HETATM   22  C20 UNL     1     -24.507 -22.625   3.643  1.00  0.00     0.210 C 
ENDBRANCH  16  21
BRANCH  17  23
HETATM   23  O5  UNL     1     -22.020 -25.717   2.821  1.00  0.00    -0.357 OA
ATOM     24  H5  UNL     1     -22.188 -26.545   2.386  1.00  0.00     0.218 HD
ENDBRANCH  17  23
ENDBRANCH  12  14
ENDBRANCH  11  12
ENDBRANCH   5  11
BRANCH   4  25
HETATM   25  C7  UNL     1     -18.313 -19.205  -1.829  1.00  0.00     0.047 C 
HETATM   26  C8  UNL     1     -17.816 -19.945  -2.985  1.00  0.00     0.015 C 
HETATM   27  N1  UNL     1     -17.162 -21.031  -2.842  1.00  0.00    -0.277 N 
HETATM   28  C9  UNL     1     -18.022 -19.491  -4.390  1.00  0.00     0.055 C 
ATOM     29  H1  UNL     1     -17.004 -21.357  -1.888  1.00  0.00     0.193 HD
HETATM   30  C10 UNL     1     -18.254 -18.006  -4.473  1.00  0.00     0.006 C 
HETATM   31  C11 UNL     1     -18.957 -17.416  -3.303  1.00  0.00     0.010 C 
HETATM   32  C12 UNL     1     -18.117 -17.734  -2.046  1.00  0.00    -0.038 C 
HETATM   33  C13 UNL     1     -16.742 -17.286  -2.363  1.00  0.00     0.015 C 
HETATM   34  C14 UNL     1     -18.680 -16.875  -0.954  1.00  0.00     0.015 C 
BRANCH  27  35
HETATM   35  O1  UNL     1     -16.659 -21.790  -3.848  1.00  0.00    -0.290 OA
ATOM     36  H1  UNL     1     -16.180 -22.604  -3.741  1.00  0.00     0.244 HD
ENDBRANCH  27  35
ENDBRANCH   4  25
BRANCH   7  37
HETATM   37  O6  UNL     1     -17.713 -22.934   0.925  1.00  0.00    -0.395 OA
ATOM     38  H6  UNL     1     -17.015 -23.545   1.129  1.00  0.00     0.210 HD
ENDBRANCH   7  37
BRANCH   1  39
HETATM   39  C2  UNL     1     -16.064 -18.847   1.649  1.00  0.00    -0.027 C 
HETATM   40  C1  UNL     1     -15.354 -17.826   1.217  1.00  0.00     0.008 C 
ENDBRANCH   1  39
TORSDOF 9
ENDMDL
