MODEL 1
REMARK VINA RESULT: -9.117281473      0.000      0.000
REMARK  8 active torsions:
REMARK  status: ('A' for Active; 'I' for Inactive)
REMARK    1  A    between atoms: C5_5  and  O1_6 
REMARK    2  A    between atoms: C5_5  and  C8_11 
REMARK    3  A    between atoms: O1_6  and  C6_7 
REMARK    4  A    between atoms: C6_7  and  C7_8 
REMARK    5  A    between atoms: C7_8  and  O2_9 
REMARK    6  A    between atoms: C9_13  and  S2_14 
REMARK    7  A    between atoms: C17_22  and  O3_23 
REMARK    8  A    between atoms: C21_29  and  O4_30 
ROOT
HETATM    1  C1  UNL     1     -13.749 -19.890  -0.887  1.00  0.00     0.102 C 
HETATM    2  C2  UNL     1     -14.914 -20.122  -0.602  1.00  0.00    -0.151 C 
HETATM    3  C3  UNL     1     -16.270 -20.404  -0.229  1.00  0.00     0.013 C 
HETATM    4  C4  UNL     1     -16.656 -19.845   1.121  1.00  0.00     0.060 C 
HETATM    5  C5  UNL     1     -17.131 -21.072  -0.967  1.00  0.00     0.100 C 
ENDROOT
BRANCH   5   6
HETATM    6  O1  UNL     1     -16.810 -21.560  -2.175  1.00  0.00    -0.346 OA
BRANCH   6   7
HETATM    7  C6  UNL     1     -16.658 -21.010  -3.425  1.00  0.00     0.201 C 
BRANCH   7   8
HETATM    8  C7  UNL     1     -16.015 -22.099  -4.309  1.00  0.00     0.190 C 
BRANCH   8   9
HETATM    9  O2  UNL     1     -17.039 -22.597  -5.125  1.00  0.00    -0.399 OA
ATOM     10  H2  UNL     1     -16.631 -22.835  -5.949  1.00  0.00     0.209 HD
ENDBRANCH   8   9
ENDBRANCH   7   8
ENDBRANCH   6   7
ENDBRANCH   5   6
BRANCH   5  11
HETATM   11  C8  UNL     1     -18.485 -21.286  -0.418  1.00  0.00     0.048 A 
HETATM   12  S1  UNL     1     -19.845 -20.289  -0.809  1.00  0.00    -0.079 SA
HETATM   13  C9  UNL     1     -21.019 -21.088   0.123  1.00  0.00     0.048 A 
HETATM   14  C11 UNL     1     -20.331 -22.119   0.722  1.00  0.00    -0.022 A 
HETATM   15  C12 UNL     1     -19.004 -22.220   0.438  1.00  0.00    -0.021 A 
HETATM   16  C25 UNL     1     -21.017 -23.117   1.633  1.00  0.00     0.083 C 
HETATM   17  C13 UNL     1     -18.223 -23.321   1.105  1.00  0.00     0.051 C 
HETATM   18  C14 UNL     1     -17.608 -22.788   2.412  1.00  0.00     0.020 C 
HETATM   19  C15 UNL     1     -19.003 -24.485   1.493  1.00  0.00    -0.028 A 
HETATM   20  C16 UNL     1     -20.336 -24.393   1.770  1.00  0.00    -0.011 A 
HETATM   21  C24 UNL     1     -18.390 -25.711   1.619  1.00  0.00     0.003 A 
HETATM   22  C17 UNL     1     -21.063 -25.488   2.170  1.00  0.00     0.094 A 
HETATM   23  C18 UNL     1     -20.496 -26.718   2.309  1.00  0.00     0.093 A 
HETATM   24  C19 UNL     1     -21.200 -27.894   2.727  1.00  0.00     0.103 C 
HETATM   25  C20 UNL     1     -19.127 -26.805   2.020  1.00  0.00     0.051 A 
HETATM   26  N1  UNL     1     -21.789 -28.849   3.087  1.00  0.00    -0.191 NA
HETATM   27  C21 UNL     1     -18.302 -27.891   2.066  1.00  0.00     0.154 A 
HETATM   28  N2  UNL     1     -17.065 -27.512   1.703  1.00  0.00    -0.341 N 
HETATM   29  C22 UNL     1     -15.908 -28.396   1.630  1.00  0.00     0.158 C 
HETATM   30  C23 UNL     1     -17.098 -26.193   1.429  1.00  0.00     0.105 A 
BRANCH  13  31
HETATM   31  S2  UNL     1     -22.725 -20.573   0.214  1.00  0.00    -0.127 SA
HETATM   32  C10 UNL     1     -23.749 -21.456   1.347  1.00  0.00     0.096 C 
ENDBRANCH  13  31
BRANCH  22  33
HETATM   33  O3  UNL     1     -22.423 -25.358   2.448  1.00  0.00    -0.359 OA
ATOM     34  H3  UNL     1     -22.827 -25.907   3.109  1.00  0.00     0.217 HD
ENDBRANCH  22  33
BRANCH  27  35
HETATM   35  O4  UNL     1     -18.654 -29.206   2.428  1.00  0.00    -0.345 OA
ATOM     36  H4  UNL     1     -19.184 -29.813   1.925  1.00  0.00     0.219 HD
ENDBRANCH  27  35
ENDBRANCH   5  11
TORSDOF 8
ENDMDL
MODEL 2
REMARK VINA RESULT: -8.517282073      3.991      8.312
REMARK  8 active torsions:
REMARK  status: ('A' for Active; 'I' for Inactive)
REMARK    1  A    between atoms: C5_5  and  O1_6 
REMARK    2  A    between atoms: C5_5  and  C8_11 
REMARK    3  A    between atoms: O1_6  and  C6_7 
REMARK    4  A    between atoms: C6_7  and  C7_8 
REMARK    5  A    between atoms: C7_8  and  O2_9 
REMARK    6  A    between atoms: C9_13  and  S2_14 
REMARK    7  A    between atoms: C17_22  and  O3_23 
REMARK    8  A    between atoms: C21_29  and  O4_30 
ROOT
HETATM    1  C1  UNL     1     -24.467 -22.934   3.167  1.00  0.00     0.102 C 
HETATM    2  C2  UNL     1     -23.703 -22.343   2.420  1.00  0.00    -0.151 C 
HETATM    3  C3  UNL     1     -22.836 -21.647   1.513  1.00  0.00     0.013 C 
HETATM    4  C4  UNL     1     -23.496 -20.478   0.820  1.00  0.00     0.060 C 
HETATM    5  C5  UNL     1     -21.577 -21.957   1.288  1.00  0.00     0.100 C 
ENDROOT
BRANCH   5   6
HETATM    6  O1  UNL     1     -20.970 -22.982   1.908  1.00  0.00    -0.346 OA
BRANCH   6   7
HETATM    7  C6  UNL     1     -20.378 -24.147   1.484  1.00  0.00     0.201 C 
BRANCH   7   8
HETATM    8  C7  UNL     1     -21.499 -25.205   1.408  1.00  0.00     0.190 C 
BRANCH   8   9
HETATM    9  O2  UNL     1     -21.980 -25.362   2.713  1.00  0.00    -0.399 OA
ATOM     10  H2  UNL     1     -22.076 -26.297   2.851  1.00  0.00     0.209 HD
ENDBRANCH   8   9
ENDBRANCH   7   8
ENDBRANCH   6   7
ENDBRANCH   5   6
BRANCH   5  11
HETATM   11  C8  UNL     1     -20.834 -21.141   0.307  1.00  0.00     0.048 A 
HETATM   12  S1  UNL     1     -21.388 -20.838  -1.305  1.00  0.00    -0.079 SA
HETATM   13  C9  UNL     1     -20.103 -19.861  -1.834  1.00  0.00     0.048 A 
HETATM   14  C11 UNL     1     -19.265 -19.785  -0.744  1.00  0.00    -0.022 A 
HETATM   15  C12 UNL     1     -19.649 -20.457   0.375  1.00  0.00    -0.021 A 
HETATM   16  C25 UNL     1     -17.988 -18.971  -0.771  1.00  0.00     0.083 C 
HETATM   17  C13 UNL     1     -18.733 -20.415   1.570  1.00  0.00     0.051 C 
HETATM   18  C14 UNL     1     -17.779 -21.623   1.522  1.00  0.00     0.020 C 
HETATM   19  C15 UNL     1     -17.872 -19.247   1.649  1.00  0.00    -0.028 A 
HETATM   20  C16 UNL     1     -17.491 -18.563   0.531  1.00  0.00    -0.011 A 
HETATM   21  C24 UNL     1     -17.396 -18.826   2.869  1.00  0.00     0.003 A 
HETATM   22  C17 UNL     1     -16.649 -17.480   0.606  1.00  0.00     0.094 A 
HETATM   23  C18 UNL     1     -16.154 -17.032   1.792  1.00  0.00     0.093 A 
HETATM   24  C19 UNL     1     -15.269 -15.913   1.931  1.00  0.00     0.103 C 
HETATM   25  C20 UNL     1     -16.551 -17.738   2.935  1.00  0.00     0.051 A 
HETATM   26  N1  UNL     1     -14.530 -15.001   2.029  1.00  0.00    -0.191 NA
HETATM   27  C21 UNL     1     -16.223 -17.521   4.242  1.00  0.00     0.154 A 
HETATM   28  N2  UNL     1     -16.839 -18.443   5.003  1.00  0.00    -0.341 N 
HETATM   29  C22 UNL     1     -16.732 -18.535   6.454  1.00  0.00     0.158 C 
HETATM   30  C23 UNL     1     -17.554 -19.243   4.188  1.00  0.00     0.105 A 
BRANCH  13  31
HETATM   31  S2  UNL     1     -20.001 -19.171  -3.476  1.00  0.00    -0.127 SA
HETATM   32  C10 UNL     1     -18.536 -19.540  -4.388  1.00  0.00     0.096 C 
ENDBRANCH  13  31
BRANCH  22  33
HETATM   33  O3  UNL     1     -16.277 -16.805  -0.557  1.00  0.00    -0.359 OA
ATOM     34  H3  UNL     1     -16.825 -16.107  -0.895  1.00  0.00     0.217 HD
ENDBRANCH  22  33
BRANCH  27  35
HETATM   35  O4  UNL     1     -15.383 -16.510   4.747  1.00  0.00    -0.345 OA
ATOM     36  H4  UNL     1     -15.517 -15.572   4.680  1.00  0.00     0.219 HD
ENDBRANCH  27  35
ENDBRANCH   5  11
TORSDOF 8
ENDMDL
MODEL 3
REMARK VINA RESULT: -8.159862957     11.058     14.665
REMARK  8 active torsions:
REMARK  status: ('A' for Active; 'I' for Inactive)
REMARK    1  A    between atoms: C5_5  and  O1_6 
REMARK    2  A    between atoms: C5_5  and  C8_11 
REMARK    3  A    between atoms: O1_6  and  C6_7 
REMARK    4  A    between atoms: C6_7  and  C7_8 
REMARK    5  A    between atoms: C7_8  and  O2_9 
REMARK    6  A    between atoms: C9_13  and  S2_14 
REMARK    7  A    between atoms: C17_22  and  O3_23 
REMARK    8  A    between atoms: C21_29  and  O4_30 
ROOT
HETATM    1  C1  UNL     1     -28.237 -25.633  15.030  1.00  0.00     0.102 C 
HETATM    2  C2  UNL     1     -28.130 -25.539  13.817  1.00  0.00    -0.151 C 
HETATM    3  C3  UNL     1     -27.970 -25.405  12.398  1.00  0.00     0.013 C 
HETATM    4  C4  UNL     1     -26.540 -25.552  11.932  1.00  0.00     0.060 C 
HETATM    5  C5  UNL     1     -28.951 -25.186  11.547  1.00  0.00     0.100 C 
ENDROOT
BRANCH   5   6
HETATM    6  O1  UNL     1     -30.228 -25.071  11.942  1.00  0.00    -0.346 OA
BRANCH   6   7
HETATM    7  C6  UNL     1     -31.220 -25.966  12.263  1.00  0.00     0.201 C 
BRANCH   7   8
HETATM    8  C7  UNL     1     -31.825 -25.489  13.600  1.00  0.00     0.190 C 
BRANCH   8   9
HETATM    9  O2  UNL     1     -33.185 -25.262  13.357  1.00  0.00    -0.399 OA
ATOM     10  H2  UNL     1     -33.619 -25.312  14.200  1.00  0.00     0.209 HD
ENDBRANCH   8   9
ENDBRANCH   7   8
ENDBRANCH   6   7
ENDBRANCH   5   6
BRANCH   5  11
HETATM   11  C8  UNL     1     -28.604 -25.059  10.118  1.00  0.00     0.048 A 
HETATM   12  S1  UNL     1     -27.949 -23.618   9.415  1.00  0.00    -0.079 SA
HETATM   13  C9  UNL     1     -27.788 -24.168   7.816  1.00  0.00     0.048 A 
HETATM   14  C11 UNL     1     -28.245 -25.467   7.857  1.00  0.00    -0.022 A 
HETATM   15  C12 UNL     1     -28.672 -25.930   9.063  1.00  0.00    -0.021 A 
HETATM   16  C25 UNL     1     -28.248 -26.354   6.629  1.00  0.00     0.083 C 
HETATM   17  C13 UNL     1     -29.207 -27.336   9.127  1.00  0.00     0.051 C 
HETATM   18  C14 UNL     1     -30.732 -27.311   8.920  1.00  0.00     0.020 C 
HETATM   19  C15 UNL     1     -28.695 -28.240   8.109  1.00  0.00    -0.028 A 
HETATM   20  C16 UNL     1     -28.256 -27.781   6.902  1.00  0.00    -0.011 A 
HETATM   21  C24 UNL     1     -28.675 -29.596   8.342  1.00  0.00     0.003 A 
HETATM   22  C17 UNL     1     -27.805 -28.640   5.929  1.00  0.00     0.094 A 
HETATM   23  C18 UNL     1     -27.770 -29.987   6.117  1.00  0.00     0.093 A 
HETATM   24  C19 UNL     1     -27.317 -30.932   5.139  1.00  0.00     0.103 C 
HETATM   25  C20 UNL     1     -28.221 -30.451   7.360  1.00  0.00     0.051 A 
HETATM   26  N1  UNL     1     -26.955 -31.698   4.320  1.00  0.00    -0.191 NA
HETATM   27  C21 UNL     1     -28.298 -31.731   7.829  1.00  0.00     0.154 A 
HETATM   28  N2  UNL     1     -28.788 -31.705   9.081  1.00  0.00    -0.341 N 
HETATM   29  C22 UNL     1     -29.015 -32.881   9.913  1.00  0.00     0.158 C 
HETATM   30  C23 UNL     1     -29.024 -30.420   9.409  1.00  0.00     0.105 A 
BRANCH  13  31
HETATM   31  S2  UNL     1     -27.160 -23.160   6.485  1.00  0.00    -0.127 SA
HETATM   32  C10 UNL     1     -27.409 -21.420   6.639  1.00  0.00     0.096 C 
ENDBRANCH  13  31
BRANCH  22  33
HETATM   33  O3  UNL     1     -27.365 -28.137   4.705  1.00  0.00    -0.359 OA
ATOM     34  H3  UNL     1     -26.761 -28.643   4.174  1.00  0.00     0.217 HD
ENDBRANCH  22  33
BRANCH  27  35
HETATM   35  O4  UNL     1     -27.933 -32.906   7.144  1.00  0.00    -0.345 OA
ATOM     36  H4  UNL     1     -27.211 -33.486   7.352  1.00  0.00     0.219 HD
ENDBRANCH  27  35
ENDBRANCH   5  11
TORSDOF 8
ENDMDL
MODEL 4
REMARK VINA RESULT: -8.154134380      3.880      7.964
REMARK  8 active torsions:
REMARK  status: ('A' for Active; 'I' for Inactive)
REMARK    1  A    between atoms: C5_5  and  O1_6 
REMARK    2  A    between atoms: C5_5  and  C8_11 
REMARK    3  A    between atoms: O1_6  and  C6_7 
REMARK    4  A    between atoms: C6_7  and  C7_8 
REMARK    5  A    between atoms: C7_8  and  O2_9 
REMARK    6  A    between atoms: C9_13  and  S2_14 
REMARK    7  A    between atoms: C17_22  and  O3_23 
REMARK    8  A    between atoms: C21_29  and  O4_30 
ROOT
HETATM    1  C1  UNL     1     -21.560 -26.770   2.757  1.00  0.00     0.102 C 
HETATM    2  C2  UNL     1     -21.284 -25.764   2.122  1.00  0.00    -0.151 C 
HETATM    3  C3  UNL     1     -20.923 -24.599   1.366  1.00  0.00     0.013 C 
HETATM    4  C4  UNL     1     -20.297 -24.915   0.028  1.00  0.00     0.060 C 
HETATM    5  C5  UNL     1     -21.113 -23.358   1.760  1.00  0.00     0.100 C 
ENDROOT
BRANCH   5   6
HETATM    6  O1  UNL     1     -21.683 -23.060   2.938  1.00  0.00    -0.346 OA
BRANCH   6   7
HETATM    7  C6  UNL     1     -22.902 -23.331   3.512  1.00  0.00     0.201 C 
BRANCH   7   8
HETATM    8  C7  UNL     1     -23.948 -22.513   2.725  1.00  0.00     0.190 C 
BRANCH   8   9
HETATM    9  O2  UNL     1     -25.202 -22.959   3.159  1.00  0.00    -0.399 OA
ATOM     10  H2  UNL     1     -25.826 -22.290   2.905  1.00  0.00     0.209 HD
ENDBRANCH   8   9
ENDBRANCH   7   8
ENDBRANCH   6   7
ENDBRANCH   5   6
BRANCH   5  11
HETATM   11  C8  UNL     1     -20.665 -22.276   0.860  1.00  0.00     0.048 A 
HETATM   12  S1  UNL     1     -21.522 -21.800  -0.567  1.00  0.00    -0.079 SA
HETATM   13  C9  UNL     1     -20.490 -20.550  -1.075  1.00  0.00     0.048 A 
HETATM   14  C11 UNL     1     -19.495 -20.523  -0.123  1.00  0.00    -0.022 A 
HETATM   15  C12 UNL     1     -19.589 -21.429   0.889  1.00  0.00    -0.021 A 
HETATM   16  C25 UNL     1     -18.364 -19.518  -0.174  1.00  0.00     0.083 C 
HETATM   17  C13 UNL     1     -18.497 -21.441   1.926  1.00  0.00     0.051 C 
HETATM   18  C14 UNL     1     -17.411 -22.450   1.510  1.00  0.00     0.020 C 
HETATM   19  C15 UNL     1     -17.801 -20.177   2.105  1.00  0.00    -0.028 A 
HETATM   20  C16 UNL     1     -17.712 -19.261   1.098  1.00  0.00    -0.011 A 
HETATM   21  C24 UNL     1     -17.185 -19.897   3.303  1.00  0.00     0.003 A 
HETATM   22  C17 UNL     1     -17.023 -18.083   1.259  1.00  0.00     0.094 A 
HETATM   23  C18 UNL     1     -16.398 -17.767   2.426  1.00  0.00     0.093 A 
HETATM   24  C19 UNL     1     -15.661 -16.559   2.652  1.00  0.00     0.103 C 
HETATM   25  C20 UNL     1     -16.496 -18.712   3.457  1.00  0.00     0.051 A 
HETATM   26  N1  UNL     1     -15.046 -15.568   2.818  1.00  0.00    -0.191 NA
HETATM   27  C21 UNL     1     -15.982 -18.670   4.721  1.00  0.00     0.154 A 
HETATM   28  N2  UNL     1     -16.329 -19.795   5.369  1.00  0.00    -0.341 N 
HETATM   29  C22 UNL     1     -15.964 -20.113   6.744  1.00  0.00     0.158 C 
HETATM   30  C23 UNL     1     -17.058 -20.552   4.526  1.00  0.00     0.105 A 
BRANCH  13  31
HETATM   31  S2  UNL     1     -20.763 -19.584  -2.550  1.00  0.00    -0.127 SA
HETATM   32  C10 UNL     1     -19.334 -19.217  -3.519  1.00  0.00     0.096 C 
ENDBRANCH  13  31
BRANCH  22  33
HETATM   33  O3  UNL     1     -16.950 -17.169   0.209  1.00  0.00    -0.359 OA
ATOM     34  H3  UNL     1     -17.605 -16.486   0.128  1.00  0.00     0.217 HD
ENDBRANCH  22  33
BRANCH  27  35
HETATM   35  O4  UNL     1     -15.213 -17.634   5.286  1.00  0.00    -0.345 OA
ATOM     36  H4  UNL     1     -15.537 -16.850   5.711  1.00  0.00     0.219 HD
ENDBRANCH  27  35
ENDBRANCH   5  11
TORSDOF 8
ENDMDL
MODEL 5
REMARK VINA RESULT: -7.944355398     11.458     14.329
REMARK  8 active torsions:
REMARK  status: ('A' for Active; 'I' for Inactive)
REMARK    1  A    between atoms: C5_5  and  O1_6 
REMARK    2  A    between atoms: C5_5  and  C8_11 
REMARK    3  A    between atoms: O1_6  and  C6_7 
REMARK    4  A    between atoms: C6_7  and  C7_8 
REMARK    5  A    between atoms: C7_8  and  O2_9 
REMARK    6  A    between atoms: C9_13  and  S2_14 
REMARK    7  A    between atoms: C17_22  and  O3_23 
REMARK    8  A    between atoms: C21_29  and  O4_30 
ROOT
HETATM    1  C1  UNL     1     -29.893 -25.608  15.264  1.00  0.00     0.102 C 
HETATM    2  C2  UNL     1     -29.667 -25.448  14.075  1.00  0.00    -0.151 C 
HETATM    3  C3  UNL     1     -29.439 -25.278  12.669  1.00  0.00     0.013 C 
HETATM    4  C4  UNL     1     -30.646 -24.772  11.915  1.00  0.00     0.060 C 
HETATM    5  C5  UNL     1     -28.298 -25.517  12.058  1.00  0.00     0.100 C 
ENDROOT
BRANCH   5   6
HETATM    6  O1  UNL     1     -27.210 -25.950  12.715  1.00  0.00    -0.346 OA
BRANCH   6   7
HETATM    7  C6  UNL     1     -25.861 -25.933  12.457  1.00  0.00     0.201 C 
BRANCH   7   8
HETATM    8  C7  UNL     1     -25.535 -27.259  11.738  1.00  0.00     0.190 C 
BRANCH   8   9
HETATM    9  O2  UNL     1     -24.229 -27.597  12.111  1.00  0.00    -0.399 OA
ATOM     10  H2  UNL     1     -24.179 -28.545  12.075  1.00  0.00     0.209 HD
ENDBRANCH   8   9
ENDBRANCH   7   8
ENDBRANCH   6   7
ENDBRANCH   5   6
BRANCH   5  11
HETATM   11  C8  UNL     1     -28.243 -25.303  10.598  1.00  0.00     0.048 A 
HETATM   12  S1  UNL     1     -27.838 -23.787   9.866  1.00  0.00    -0.079 SA
HETATM   13  C9  UNL     1     -27.951 -24.256   8.237  1.00  0.00     0.048 A 
HETATM   14  C11 UNL     1     -28.301 -25.586   8.291  1.00  0.00    -0.022 A 
HETATM   15  C12 UNL     1     -28.454 -26.132   9.528  1.00  0.00    -0.021 A 
HETATM   16  C25 UNL     1     -28.479 -26.419   7.038  1.00  0.00     0.083 C 
HETATM   17  C13 UNL     1     -28.867 -27.577   9.613  1.00  0.00     0.051 C 
HETATM   18  C14 UNL     1     -30.402 -27.664   9.701  1.00  0.00     0.020 C 
HETATM   19  C15 UNL     1     -28.500 -28.394   8.468  1.00  0.00    -0.028 A 
HETATM   20  C16 UNL     1     -28.335 -27.852   7.227  1.00  0.00    -0.011 A 
HETATM   21  C24 UNL     1     -28.342 -29.753   8.616  1.00  0.00     0.003 A 
HETATM   22  C17 UNL     1     -28.022 -28.632   6.139  1.00  0.00     0.094 A 
HETATM   23  C18 UNL     1     -27.859 -29.979   6.242  1.00  0.00     0.093 A 
HETATM   24  C19 UNL     1     -27.539 -30.844   5.144  1.00  0.00     0.103 C 
HETATM   25  C20 UNL     1     -28.028 -30.528   7.520  1.00  0.00     0.051 A 
HETATM   26  N1  UNL     1     -27.290 -31.543   4.230  1.00  0.00    -0.191 NA
HETATM   27  C21 UNL     1     -27.924 -31.828   7.923  1.00  0.00     0.154 A 
HETATM   28  N2  UNL     1     -28.164 -31.894   9.244  1.00  0.00    -0.341 N 
HETATM   29  C22 UNL     1     -28.144 -33.117  10.036  1.00  0.00     0.158 C 
HETATM   30  C23 UNL     1     -28.420 -30.646   9.682  1.00  0.00     0.105 A 
BRANCH  13  31
HETATM   31  S2  UNL     1     -27.663 -23.146   6.870  1.00  0.00    -0.127 SA
HETATM   32  C10 UNL     1     -27.560 -21.429   7.265  1.00  0.00     0.096 C 
ENDBRANCH  13  31
BRANCH  22  33
HETATM   33  O3  UNL     1     -27.863 -28.045   4.884  1.00  0.00    -0.359 OA
ATOM     34  H3  UNL     1     -28.620 -27.897   4.330  1.00  0.00     0.217 HD
ENDBRANCH  22  33
BRANCH  27  35
HETATM   35  O4  UNL     1     -27.618 -32.942   7.116  1.00  0.00    -0.345 OA
ATOM     36  H4  UNL     1     -27.824 -33.851   7.297  1.00  0.00     0.219 HD
ENDBRANCH  27  35
ENDBRANCH   5  11
TORSDOF 8
ENDMDL
