MODEL 1
REMARK VINA RESULT: -8.681907875      0.000      0.000
REMARK  7 active torsions:
REMARK  status: ('A' for Active; 'I' for Inactive)
REMARK    1  A    between atoms: C2_2  and  C3_3 
REMARK    2  A    between atoms: C2_2  and  C12_13 
REMARK    3  A    between atoms: C3_3  and  C4_4 
REMARK    4  A    between atoms: C4_4  and  C5_5 
REMARK    5  A    between atoms: C5_5  and  C6_7 
REMARK    6  A    between atoms: C14_15  and  O2_17 
REMARK    7  A    between atoms: C22_26  and  O4_27 
ROOT
HETATM    1  C12 UNL     1      -2.987  -5.542  22.118  1.00  0.00    -0.002 C 
HETATM    2  C13 UNL     1      -4.433  -5.810  21.707  1.00  0.00     0.019 C 
HETATM    3  C14 UNL     1      -3.078  -4.245  22.890  1.00  0.00     0.062 C 
HETATM    4  C15 UNL     1      -1.806  -3.533  23.119  1.00  0.00     0.046 C 
HETATM    5  C16 UNL     1      -3.849  -4.294  24.172  1.00  0.00     0.038 C 
HETATM    6  C17 UNL     1      -4.053  -5.629  24.751  1.00  0.00     0.009 C 
HETATM    7  C18 UNL     1      -2.974  -6.618  24.395  1.00  0.00    -0.001 C 
HETATM    8  C19 UNL     1      -3.388  -7.851  25.121  1.00  0.00     0.046 C 
HETATM    9  C20 UNL     1      -2.320  -8.878  25.192  1.00  0.00    -0.024 A 
HETATM   10  C21 UNL     1      -2.455 -10.137  25.665  1.00  0.00     0.152 A 
HETATM   11  O3  UNL     1      -1.279 -10.709  25.551  1.00  0.00    -0.299 OA
HETATM   12  C22 UNL     1      -0.394  -9.890  25.029  1.00  0.00     0.189 A 
HETATM   13  C23 UNL     1      -1.014  -8.659  24.767  1.00  0.00     0.008 A 
HETATM   14  C24 UNL     1      -0.430  -7.458  24.195  1.00  0.00     0.045 C 
HETATM   15  C25 UNL     1      -1.051  -6.925  22.942  1.00  0.00     0.015 C 
HETATM   16  C26 UNL     1      -2.574  -6.708  22.979  1.00  0.00    -0.029 C 
HETATM   17  C27 UNL     1      -3.177  -7.967  22.395  1.00  0.00     0.016 C 
ENDROOT
BRANCH   1  18
HETATM   18  C2  UNL     1      -2.251  -5.316  20.869  1.00  0.00    -0.006 C 
HETATM   19  C1  UNL     1      -1.779  -6.513  20.094  1.00  0.00     0.011 C 
BRANCH  18  20
HETATM   20  C3  UNL     1      -2.882  -4.436  19.825  1.00  0.00     0.013 C 
BRANCH  20  21
HETATM   21  C4  UNL     1      -1.962  -3.246  19.470  1.00  0.00     0.084 C 
BRANCH  21  22
HETATM   22  C5  UNL     1      -1.366  -3.603  18.140  1.00  0.00     0.155 C 
HETATM   23  O1  UNL     1      -1.866  -3.227  17.061  1.00  0.00    -0.293 OA
BRANCH  22  24
HETATM   24  C6  UNL     1      -0.146  -4.427  18.067  1.00  0.00    -0.016 C 
HETATM   25  C7  UNL     1       0.004  -5.277  17.063  1.00  0.00    -0.016 C 
HETATM   26  C8  UNL     1       1.202  -6.142  16.918  1.00  0.00     0.028 C 
HETATM   27  C9  UNL     1       1.478  -6.680  18.330  1.00  0.00     0.004 C 
HETATM   28  C10 UNL     1       1.836  -5.497  19.166  1.00  0.00     0.005 C 
HETATM   29  C11 UNL     1       0.915  -4.335  19.078  1.00  0.00     0.042 C 
ENDBRANCH  22  24
ENDBRANCH  21  22
ENDBRANCH  20  21
ENDBRANCH  18  20
ENDBRANCH   1  18
BRANCH   3  30
HETATM   30  O2  UNL     1      -3.885  -3.333  22.134  1.00  0.00    -0.389 OA
ATOM     31  H2  UNL     1      -3.858  -2.487  22.565  1.00  0.00     0.210 HD
ENDBRANCH   3  30
BRANCH  12  32
HETATM   32  O4  UNL     1       0.948 -10.141  24.758  1.00  0.00    -0.340 OA
ATOM     33  H4  UNL     1       1.362 -10.250  23.910  1.00  0.00     0.220 HD
ENDBRANCH  12  32
TORSDOF 7
ENDMDL
MODEL 2
REMARK VINA RESULT: -8.444379936      1.510      2.022
REMARK  7 active torsions:
REMARK  status: ('A' for Active; 'I' for Inactive)
REMARK    1  A    between atoms: C2_2  and  C3_3 
REMARK    2  A    between atoms: C2_2  and  C12_13 
REMARK    3  A    between atoms: C3_3  and  C4_4 
REMARK    4  A    between atoms: C4_4  and  C5_5 
REMARK    5  A    between atoms: C5_5  and  C6_7 
REMARK    6  A    between atoms: C14_15  and  O2_17 
REMARK    7  A    between atoms: C22_26  and  O4_27 
ROOT
HETATM    1  C12 UNL     1      -2.900  -5.048  22.058  1.00  0.00    -0.002 C 
HETATM    2  C13 UNL     1      -4.166  -5.459  22.805  1.00  0.00     0.019 C 
HETATM    3  C14 UNL     1      -2.577  -3.690  22.639  1.00  0.00     0.062 C 
HETATM    4  C15 UNL     1      -1.614  -2.869  21.879  1.00  0.00     0.046 C 
HETATM    5  C16 UNL     1      -2.204  -3.666  24.089  1.00  0.00     0.038 C 
HETATM    6  C17 UNL     1      -1.775  -4.947  24.665  1.00  0.00     0.009 C 
HETATM    7  C18 UNL     1      -1.153  -5.887  23.666  1.00  0.00    -0.001 C 
HETATM    8  C19 UNL     1      -0.779  -7.068  24.494  1.00  0.00     0.046 C 
HETATM    9  C20 UNL     1       0.142  -8.003  23.802  1.00  0.00    -0.024 A 
HETATM   10  C21 UNL     1       0.535  -9.214  24.254  1.00  0.00     0.152 A 
HETATM   11  O3  UNL     1       1.344  -9.709  23.347  1.00  0.00    -0.299 OA
HETATM   12  C22 UNL     1       1.494  -8.885  22.335  1.00  0.00     0.189 A 
HETATM   13  C23 UNL     1       0.726  -7.734  22.569  1.00  0.00     0.008 A 
HETATM   14  C24 UNL     1       0.584  -6.558  21.728  1.00  0.00     0.045 C 
HETATM   15  C25 UNL     1      -0.799  -6.199  21.283  1.00  0.00     0.015 C 
HETATM   16  C26 UNL     1      -1.862  -6.090  22.390  1.00  0.00    -0.029 C 
HETATM   17  C27 UNL     1      -2.542  -7.441  22.434  1.00  0.00     0.016 C 
ENDROOT
BRANCH   1  18
HETATM   18  C2  UNL     1      -3.295  -4.896  20.653  1.00  0.00    -0.006 C 
HETATM   19  C1  UNL     1      -4.755  -4.744  20.336  1.00  0.00     0.011 C 
BRANCH  18  20
HETATM   20  C3  UNL     1      -2.636  -3.812  19.845  1.00  0.00     0.013 C 
BRANCH  20  21
HETATM   21  C4  UNL     1      -2.830  -4.049  18.331  1.00  0.00     0.084 C 
BRANCH  21  22
HETATM   22  C5  UNL     1      -1.583  -3.513  17.694  1.00  0.00     0.155 C 
HETATM   23  O1  UNL     1      -1.547  -2.408  17.118  1.00  0.00    -0.293 OA
BRANCH  22  24
HETATM   24  C6  UNL     1      -0.333  -4.294  17.729  1.00  0.00    -0.016 C 
HETATM   25  C7  UNL     1      -0.159  -5.279  16.860  1.00  0.00    -0.016 C 
HETATM   26  C8  UNL     1       1.069  -6.113  16.831  1.00  0.00     0.028 C 
HETATM   27  C9  UNL     1       1.376  -6.424  18.303  1.00  0.00     0.004 C 
HETATM   28  C10 UNL     1       1.696  -5.117  18.949  1.00  0.00     0.005 C 
HETATM   29  C11 UNL     1       0.732  -4.015  18.700  1.00  0.00     0.042 C 
ENDBRANCH  22  24
ENDBRANCH  21  22
ENDBRANCH  20  21
ENDBRANCH  18  20
ENDBRANCH   1  18
BRANCH   3  30
HETATM   30  O2  UNL     1      -3.785  -2.919  22.667  1.00  0.00    -0.389 OA
ATOM     31  H2  UNL     1      -3.547  -2.002  22.741  1.00  0.00     0.210 HD
ENDBRANCH   3  30
BRANCH  12  32
HETATM   32  O4  UNL     1       2.270  -9.065  21.193  1.00  0.00    -0.340 OA
ATOM     33  H4  UNL     1       2.564  -8.403  20.577  1.00  0.00     0.220 HD
ENDBRANCH  12  32
TORSDOF 7
ENDMDL
MODEL 3
REMARK VINA RESULT: -8.409100956      1.307      1.890
REMARK  7 active torsions:
REMARK  status: ('A' for Active; 'I' for Inactive)
REMARK    1  A    between atoms: C2_2  and  C3_3 
REMARK    2  A    between atoms: C2_2  and  C12_13 
REMARK    3  A    between atoms: C3_3  and  C4_4 
REMARK    4  A    between atoms: C4_4  and  C5_5 
REMARK    5  A    between atoms: C5_5  and  C6_7 
REMARK    6  A    between atoms: C14_15  and  O2_17 
REMARK    7  A    between atoms: C22_26  and  O4_27 
ROOT
HETATM    1  C12 UNL     1      -2.757  -5.358  21.880  1.00  0.00    -0.002 C 
HETATM    2  C13 UNL     1      -4.116  -5.982  21.573  1.00  0.00     0.019 C 
HETATM    3  C14 UNL     1      -3.106  -4.165  22.739  1.00  0.00     0.062 C 
HETATM    4  C15 UNL     1      -2.046  -3.152  22.908  1.00  0.00     0.046 C 
HETATM    5  C16 UNL     1      -3.709  -4.469  24.075  1.00  0.00     0.038 C 
HETATM    6  C17 UNL     1      -3.502  -5.833  24.580  1.00  0.00     0.009 C 
HETATM    7  C18 UNL     1      -2.244  -6.486  24.072  1.00  0.00    -0.001 C 
HETATM    8  C19 UNL     1      -2.251  -7.814  24.747  1.00  0.00     0.046 C 
HETATM    9  C20 UNL     1      -0.951  -8.525  24.662  1.00  0.00    -0.024 A 
HETATM   10  C21 UNL     1      -0.709  -9.792  25.061  1.00  0.00     0.152 A 
HETATM   11  O3  UNL     1       0.558 -10.029  24.812  1.00  0.00    -0.299 OA
HETATM   12  C22 UNL     1       1.146  -8.984  24.274  1.00  0.00     0.189 A 
HETATM   13  C23 UNL     1       0.205  -7.950  24.146  1.00  0.00     0.008 A 
HETATM   14  C24 UNL     1       0.400  -6.615  23.606  1.00  0.00     0.045 C 
HETATM   15  C25 UNL     1      -0.458  -6.214  22.447  1.00  0.00     0.015 C 
HETATM   16  C26 UNL     1      -1.973  -6.409  22.625  1.00  0.00    -0.029 C 
HETATM   17  C27 UNL     1      -2.283  -7.757  22.011  1.00  0.00     0.016 C 
ENDROOT
BRANCH   1  18
HETATM   18  C2  UNL     1      -2.229  -4.895  20.591  1.00  0.00    -0.006 C 
HETATM   19  C1  UNL     1      -3.195  -4.339  19.584  1.00  0.00     0.011 C 
BRANCH  18  20
HETATM   20  C3  UNL     1      -1.107  -3.894  20.604  1.00  0.00     0.013 C 
BRANCH  20  21
HETATM   21  C4  UNL     1      -0.504  -3.714  19.193  1.00  0.00     0.084 C 
BRANCH  21  22
HETATM   22  C5  UNL     1       0.831  -4.395  19.255  1.00  0.00     0.155 C 
HETATM   23  O1  UNL     1       1.826  -3.870  19.793  1.00  0.00    -0.293 OA
BRANCH  22  24
HETATM   24  C6  UNL     1       1.012  -5.735  18.667  1.00  0.00    -0.016 C 
HETATM   25  C7  UNL     1       1.863  -6.581  19.228  1.00  0.00    -0.016 C 
HETATM   26  C8  UNL     1       2.102  -7.946  18.697  1.00  0.00     0.028 C 
HETATM   27  C9  UNL     1       2.202  -7.770  17.175  1.00  0.00     0.004 C 
HETATM   28  C10 UNL     1       0.860  -7.304  16.718  1.00  0.00     0.005 C 
HETATM   29  C11 UNL     1       0.275  -6.165  17.472  1.00  0.00     0.042 C 
ENDBRANCH  22  24
ENDBRANCH  21  22
ENDBRANCH  20  21
ENDBRANCH  18  20
ENDBRANCH   1  18
BRANCH   3  30
HETATM   30  O2  UNL     1      -4.191  -3.468  22.114  1.00  0.00    -0.389 OA
ATOM     31  H2  UNL     1      -4.594  -2.905  22.765  1.00  0.00     0.210 HD
ENDBRANCH   3  30
BRANCH  12  32
HETATM   32  O4  UNL     1       2.475  -8.860  23.877  1.00  0.00    -0.340 OA
ATOM     33  H4  UNL     1       2.890  -8.118  23.451  1.00  0.00     0.220 HD
ENDBRANCH  12  32
TORSDOF 7
ENDMDL
MODEL 4
REMARK VINA RESULT: -8.281558295      1.029      1.384
REMARK  7 active torsions:
REMARK  status: ('A' for Active; 'I' for Inactive)
REMARK    1  A    between atoms: C2_2  and  C3_3 
REMARK    2  A    between atoms: C2_2  and  C12_13 
REMARK    3  A    between atoms: C3_3  and  C4_4 
REMARK    4  A    between atoms: C4_4  and  C5_5 
REMARK    5  A    between atoms: C5_5  and  C6_7 
REMARK    6  A    between atoms: C14_15  and  O2_17 
REMARK    7  A    between atoms: C22_26  and  O4_27 
ROOT
HETATM    1  C12 UNL     1      -3.211  -5.081  21.573  1.00  0.00    -0.002 C 
HETATM    2  C13 UNL     1      -4.622  -5.661  21.507  1.00  0.00     0.019 C 
HETATM    3  C14 UNL     1      -3.381  -3.844  22.425  1.00  0.00     0.062 C 
HETATM    4  C15 UNL     1      -2.274  -2.869  22.384  1.00  0.00     0.046 C 
HETATM    5  C16 UNL     1      -3.778  -4.076  23.850  1.00  0.00     0.038 C 
HETATM    6  C17 UNL     1      -3.541  -5.427  24.374  1.00  0.00     0.009 C 
HETATM    7  C18 UNL     1      -2.401  -6.148  23.705  1.00  0.00    -0.001 C 
HETATM    8  C19 UNL     1      -2.347  -7.449  24.429  1.00  0.00     0.046 C 
HETATM    9  C20 UNL     1      -1.101  -8.213  24.174  1.00  0.00    -0.024 A 
HETATM   10  C21 UNL     1      -0.842  -9.474  24.584  1.00  0.00     0.152 A 
HETATM   11  O3  UNL     1       0.362  -9.770  24.152  1.00  0.00    -0.299 OA
HETATM   12  C22 UNL     1       0.893  -8.769  23.486  1.00  0.00     0.189 A 
HETATM   13  C23 UNL     1      -0.021  -7.705  23.461  1.00  0.00     0.008 A 
HETATM   14  C24 UNL     1       0.132  -6.399  22.842  1.00  0.00     0.045 C 
HETATM   15  C25 UNL     1      -0.882  -6.007  21.813  1.00  0.00     0.015 C 
HETATM   16  C26 UNL     1      -2.357  -6.135  22.232  1.00  0.00    -0.029 C 
HETATM   17  C27 UNL     1      -2.804  -7.491  21.731  1.00  0.00     0.016 C 
ENDROOT
BRANCH   1  18
HETATM   18  C2  UNL     1      -2.876  -4.687  20.200  1.00  0.00    -0.006 C 
HETATM   19  C1  UNL     1      -3.909  -3.946  19.399  1.00  0.00     0.011 C 
BRANCH  18  20
HETATM   20  C3  UNL     1      -1.615  -3.898  19.978  1.00  0.00     0.013 C 
BRANCH  20  21
HETATM   21  C4  UNL     1      -1.760  -2.945  18.771  1.00  0.00     0.084 C 
BRANCH  21  22
HETATM   22  C5  UNL     1      -1.128  -3.677  17.624  1.00  0.00     0.155 C 
HETATM   23  O1  UNL     1      -1.526  -3.551  16.449  1.00  0.00    -0.293 OA
BRANCH  22  24
HETATM   24  C6  UNL     1       0.007  -4.589  17.856  1.00  0.00    -0.016 C 
HETATM   25  C7  UNL     1       0.095  -5.709  17.155  1.00  0.00    -0.016 C 
HETATM   26  C8  UNL     1       1.205  -6.679  17.330  1.00  0.00     0.028 C 
HETATM   27  C9  UNL     1       1.397  -6.795  18.849  1.00  0.00     0.004 C 
HETATM   28  C10 UNL     1       1.851  -5.453  19.318  1.00  0.00     0.005 C 
HETATM   29  C11 UNL     1       1.051  -4.294  18.846  1.00  0.00     0.042 C 
ENDBRANCH  22  24
ENDBRANCH  21  22
ENDBRANCH  20  21
ENDBRANCH  18  20
ENDBRANCH   1  18
BRANCH   3  30
HETATM   30  O2  UNL     1      -4.527  -3.128  21.946  1.00  0.00    -0.389 OA
ATOM     31  H2  UNL     1      -5.075  -2.916  22.693  1.00  0.00     0.210 HD
ENDBRANCH   3  30
BRANCH  12  32
HETATM   32  O4  UNL     1       2.147  -8.713  22.883  1.00  0.00    -0.340 OA
ATOM     33  H4  UNL     1       2.541  -9.348  22.295  1.00  0.00     0.220 HD
ENDBRANCH  12  32
TORSDOF 7
ENDMDL
MODEL 5
REMARK VINA RESULT: -8.280761354      2.099      4.813
REMARK  7 active torsions:
REMARK  status: ('A' for Active; 'I' for Inactive)
REMARK    1  A    between atoms: C2_2  and  C3_3 
REMARK    2  A    between atoms: C2_2  and  C12_13 
REMARK    3  A    between atoms: C3_3  and  C4_4 
REMARK    4  A    between atoms: C4_4  and  C5_5 
REMARK    5  A    between atoms: C5_5  and  C6_7 
REMARK    6  A    between atoms: C14_15  and  O2_17 
REMARK    7  A    between atoms: C22_26  and  O4_27 
ROOT
HETATM    1  C12 UNL     1      -2.934  -6.701  22.791  1.00  0.00    -0.002 C 
HETATM    2  C13 UNL     1      -3.581  -8.012  22.353  1.00  0.00     0.019 C 
HETATM    3  C14 UNL     1      -2.663  -6.919  24.262  1.00  0.00     0.062 C 
HETATM    4  C15 UNL     1      -2.368  -5.710  25.055  1.00  0.00     0.046 C 
HETATM    5  C16 UNL     1      -1.662  -7.981  24.597  1.00  0.00     0.038 C 
HETATM    6  C17 UNL     1      -0.758  -8.380  23.510  1.00  0.00     0.009 C 
HETATM    7  C18 UNL     1      -0.504  -7.293  22.499  1.00  0.00    -0.001 C 
HETATM    8  C19 UNL     1       0.451  -7.927  21.548  1.00  0.00     0.046 C 
HETATM    9  C20 UNL     1       1.106  -6.956  20.637  1.00  0.00    -0.024 A 
HETATM   10  C21 UNL     1       1.907  -7.259  19.591  1.00  0.00     0.152 A 
HETATM   11  O3  UNL     1       2.273  -6.118  19.055  1.00  0.00    -0.299 OA
HETATM   12  C22 UNL     1       1.752  -5.097  19.697  1.00  0.00     0.189 A 
HETATM   13  C23 UNL     1       0.968  -5.578  20.756  1.00  0.00     0.008 A 
HETATM   14  C24 UNL     1       0.205  -4.817  21.732  1.00  0.00     0.045 C 
HETATM   15  C25 UNL     1      -1.264  -5.089  21.813  1.00  0.00     0.015 C 
HETATM   16  C26 UNL     1      -1.673  -6.563  21.975  1.00  0.00    -0.029 C 
HETATM   17  C27 UNL     1      -1.956  -7.062  20.575  1.00  0.00     0.016 C 
ENDROOT
BRANCH   1  18
HETATM   18  C2  UNL     1      -3.969  -5.672  22.632  1.00  0.00    -0.006 C 
HETATM   19  C1  UNL     1      -3.828  -4.393  23.407  1.00  0.00     0.011 C 
BRANCH  18  20
HETATM   20  C3  UNL     1      -4.303  -5.214  21.239  1.00  0.00     0.013 C 
BRANCH  20  21
HETATM   21  C4  UNL     1      -5.641  -4.441  21.213  1.00  0.00     0.084 C 
BRANCH  21  22
HETATM   22  C5  UNL     1      -5.293  -3.088  20.665  1.00  0.00     0.155 C 
HETATM   23  O1  UNL     1      -6.007  -2.084  20.858  1.00  0.00    -0.293 OA
BRANCH  22  24
HETATM   24  C6  UNL     1      -4.072  -2.901  19.861  1.00  0.00    -0.016 C 
HETATM   25  C7  UNL     1      -3.990  -3.462  18.664  1.00  0.00    -0.016 C 
HETATM   26  C8  UNL     1      -2.795  -3.323  17.794  1.00  0.00     0.028 C 
HETATM   27  C9  UNL     1      -1.594  -3.512  18.733  1.00  0.00     0.004 C 
HETATM   28  C10 UNL     1      -1.628  -2.369  19.692  1.00  0.00     0.005 C 
HETATM   29  C11 UNL     1      -2.936  -2.108  20.346  1.00  0.00     0.042 C 
ENDBRANCH  22  24
ENDBRANCH  21  22
ENDBRANCH  20  21
ENDBRANCH  18  20
ENDBRANCH   1  18
BRANCH   3  30
HETATM   30  O2  UNL     1      -3.844  -7.474  24.854  1.00  0.00    -0.389 OA
ATOM     31  H2  UNL     1      -3.575  -8.071  25.543  1.00  0.00     0.210 HD
ENDBRANCH   3  30
BRANCH  12  32
HETATM   32  O4  UNL     1       1.914  -3.741  19.421  1.00  0.00    -0.340 OA
ATOM     33  H4  UNL     1       1.241  -3.105  19.205  1.00  0.00     0.220 HD
ENDBRANCH  12  32
TORSDOF 7
ENDMDL
