MODEL 1
REMARK VINA RESULT: -9.165917129      0.000      0.000
REMARK  6 active torsions:
REMARK  status: ('A' for Active; 'I' for Inactive)
REMARK    1  A    between atoms: C14_15  and  C15_16 
REMARK    2  A    between atoms: C15_16  and  C16_17 
REMARK    3  A    between atoms: C16_17  and  O2_18 
REMARK    4  A    between atoms: C16_17  and  C17_20 
REMARK    5  A    between atoms: C19_22  and  O3_23 
REMARK    6  A    between atoms: N1_25  and  C20_26 
ROOT
HETATM    1  C15 UNL     1       5.777 -14.442  17.987  1.00  0.00     0.048 C 
ENDROOT
BRANCH   1   2
HETATM    2  C14 UNL     1       6.176 -14.581  19.415  1.00  0.00    -0.012 C 
HETATM    3  C4  UNL     1       7.448 -15.265  19.704  1.00  0.00     0.003 C 
HETATM    4  C3  UNL     1       7.114 -16.499  20.497  1.00  0.00     0.010 C 
HETATM    5  C5  UNL     1       8.503 -14.410  20.387  1.00  0.00     0.024 C 
HETATM    6  C2  UNL     1       5.613 -16.663  20.494  1.00  0.00    -0.017 C 
HETATM    7  C1  UNL     1       5.159 -17.799  19.605  1.00  0.00     0.010 C 
HETATM    8  C27 UNL     1       5.039 -15.347  20.091  1.00  0.00     0.016 C 
HETATM    9  C6  UNL     1       9.730 -15.197  20.653  1.00  0.00     0.035 C 
HETATM   10  C12 UNL     1       7.957 -13.647  21.563  1.00  0.00     0.134 C 
HETATM   11  C7  UNL     1      10.281 -15.128  22.015  1.00  0.00    -0.023 C 
HETATM   12  C8  UNL     1       9.625 -14.703  23.067  1.00  0.00    -0.077 C 
HETATM   13  C9  UNL     1       9.456 -14.371  24.508  1.00  0.00     0.035 C 
HETATM   14  C11 UNL     1       8.213 -14.249  22.893  1.00  0.00     0.044 C 
HETATM   15  C10 UNL     1       8.527 -13.246  24.018  1.00  0.00     0.016 C 
HETATM   16  O1  UNL     1       6.583 -13.458  21.420  1.00  0.00    -0.384 OA
HETATM   17  C13 UNL     1       6.237 -13.203  20.096  1.00  0.00     0.178 C 
ENDBRANCH   1   2
BRANCH   1  18
HETATM   18  C16 UNL     1       6.112 -13.191  17.279  1.00  0.00     0.153 C 
BRANCH  18  19
HETATM   19  O2  UNL     1       7.306 -13.188  16.609  1.00  0.00    -0.391 OA
ATOM     20  H2  UNL     1       8.059 -12.891  17.107  1.00  0.00     0.210 HD
ENDBRANCH  18  19
BRANCH  18  21
HETATM   21  C17 UNL     1       5.038 -13.000  16.229  1.00  0.00    -0.010 A 
HETATM   22  C18 UNL     1       4.110 -11.980  16.245  1.00  0.00     0.067 A 
HETATM   23  C19 UNL     1       3.298 -12.126  15.137  1.00  0.00     0.142 A 
HETATM   24  N1  UNL     1       3.732 -13.214  14.471  1.00  0.00    -0.333 N 
HETATM   25  C26 UNL     1       4.782 -13.747  15.124  1.00  0.00     0.103 A 
BRANCH  23  26
HETATM   26  O3  UNL     1       2.240 -11.287  14.805  1.00  0.00    -0.346 OA
ATOM     27  H3  UNL     1       2.315 -10.356  14.629  1.00  0.00     0.219 HD
ENDBRANCH  23  26
BRANCH  24  28
HETATM   28  C20 UNL     1       3.193 -13.761  13.248  1.00  0.00     0.091 C 
HETATM   29  C21 UNL     1       3.977 -14.923  12.729  1.00  0.00     0.026 C 
HETATM   30  C22 UNL     1       3.487 -15.264  11.343  1.00  0.00     0.002 C 
HETATM   31  C23 UNL     1       2.306 -14.405  10.940  1.00  0.00     0.000 C 
HETATM   32  C24 UNL     1       1.215 -14.406  11.979  1.00  0.00     0.002 C 
HETATM   33  C25 UNL     1       1.757 -14.151  13.360  1.00  0.00     0.026 C 
ENDBRANCH  24  28
ENDBRANCH  18  21
ENDBRANCH   1  18
TORSDOF 6
ENDMDL
MODEL 2
REMARK VINA RESULT: -9.165267103      1.450      1.941
REMARK  6 active torsions:
REMARK  status: ('A' for Active; 'I' for Inactive)
REMARK    1  A    between atoms: C14_15  and  C15_16 
REMARK    2  A    between atoms: C15_16  and  C16_17 
REMARK    3  A    between atoms: C16_17  and  O2_18 
REMARK    4  A    between atoms: C16_17  and  C17_20 
REMARK    5  A    between atoms: C19_22  and  O3_23 
REMARK    6  A    between atoms: N1_25  and  C20_26 
ROOT
HETATM    1  C15 UNL     1       7.093 -14.872  17.532  1.00  0.00     0.048 C 
ENDROOT
BRANCH   1   2
HETATM    2  C14 UNL     1       7.122 -14.861  19.021  1.00  0.00    -0.012 C 
HETATM    3  C4  UNL     1       8.228 -15.572  19.686  1.00  0.00     0.003 C 
HETATM    4  C3  UNL     1       7.617 -16.684  20.493  1.00  0.00     0.010 C 
HETATM    5  C5  UNL     1       9.152 -14.696  20.519  1.00  0.00     0.024 C 
HETATM    6  C2  UNL     1       6.152 -16.770  20.133  1.00  0.00    -0.017 C 
HETATM    7  C1  UNL     1       5.839 -17.978  19.279  1.00  0.00     0.010 C 
HETATM    8  C27 UNL     1       5.798 -15.483  19.467  1.00  0.00     0.016 C 
HETATM    9  C6  UNL     1      10.211 -15.509  21.162  1.00  0.00     0.035 C 
HETATM   10  C12 UNL     1       8.399 -13.773  21.439  1.00  0.00     0.134 C 
HETATM   11  C7  UNL     1      10.421 -15.308  22.603  1.00  0.00    -0.023 C 
HETATM   12  C8  UNL     1       9.565 -14.728  23.409  1.00  0.00    -0.077 C 
HETATM   13  C9  UNL     1       9.080 -14.220  24.722  1.00  0.00     0.035 C 
HETATM   14  C11 UNL     1       8.278 -14.226  22.845  1.00  0.00     0.044 C 
HETATM   15  C10 UNL     1       8.389 -13.115  23.904  1.00  0.00     0.016 C 
HETATM   16  O1  UNL     1       7.120 -13.532  20.940  1.00  0.00    -0.384 OA
HETATM   17  C13 UNL     1       7.125 -13.417  19.552  1.00  0.00     0.178 C 
ENDBRANCH   1   2
BRANCH   1  18
HETATM   18  C16 UNL     1       6.350 -13.806  16.834  1.00  0.00     0.153 C 
BRANCH  18  19
HETATM   19  O2  UNL     1       7.105 -12.957  16.069  1.00  0.00    -0.391 OA
ATOM     20  H2  UNL     1       6.777 -12.069  15.992  1.00  0.00     0.210 HD
ENDBRANCH  18  19
BRANCH  18  21
HETATM   21  C17 UNL     1       5.405 -14.505  15.879  1.00  0.00    -0.010 A 
HETATM   22  C18 UNL     1       5.127 -15.855  15.912  1.00  0.00     0.067 A 
HETATM   23  C19 UNL     1       4.229 -16.130  14.898  1.00  0.00     0.142 A 
HETATM   24  N1  UNL     1       3.975 -14.966  14.270  1.00  0.00    -0.333 N 
HETATM   25  C26 UNL     1       4.681 -13.980  14.856  1.00  0.00     0.103 A 
BRANCH  23  26
HETATM   26  O3  UNL     1       3.709 -17.388  14.611  1.00  0.00    -0.346 OA
ATOM     27  H3  UNL     1       3.425 -17.678  13.752  1.00  0.00     0.219 HD
ENDBRANCH  23  26
BRANCH  24  28
HETATM   28  C20 UNL     1       3.095 -14.756  13.146  1.00  0.00     0.091 C 
HETATM   29  C21 UNL     1       1.996 -13.785  13.434  1.00  0.00     0.026 C 
HETATM   30  C22 UNL     1       1.002 -13.817  12.298  1.00  0.00     0.002 C 
HETATM   31  C23 UNL     1       1.459 -14.736  11.182  1.00  0.00     0.000 C 
HETATM   32  C24 UNL     1       2.869 -14.442  10.739  1.00  0.00     0.002 C 
HETATM   33  C25 UNL     1       3.811 -14.329  11.908  1.00  0.00     0.026 C 
ENDBRANCH  24  28
ENDBRANCH  18  21
ENDBRANCH   1  18
TORSDOF 6
ENDMDL
MODEL 3
REMARK VINA RESULT: -8.958070657     11.736     14.293
REMARK  6 active torsions:
REMARK  status: ('A' for Active; 'I' for Inactive)
REMARK    1  A    between atoms: C14_15  and  C15_16 
REMARK    2  A    between atoms: C15_16  and  C16_17 
REMARK    3  A    between atoms: C16_17  and  O2_18 
REMARK    4  A    between atoms: C16_17  and  C17_20 
REMARK    5  A    between atoms: C19_22  and  O3_23 
REMARK    6  A    between atoms: N1_25  and  C20_26 
ROOT
HETATM    1  C15 UNL     1      -1.294  -4.711  22.951  1.00  0.00     0.048 C 
ENDROOT
BRANCH   1   2
HETATM    2  C14 UNL     1      -0.820  -5.595  21.850  1.00  0.00    -0.012 C 
HETATM    3  C4  UNL     1      -1.181  -5.219  20.472  1.00  0.00     0.003 C 
HETATM    4  C3  UNL     1      -2.043  -6.324  19.924  1.00  0.00     0.010 C 
HETATM    5  C5  UNL     1      -0.007  -4.898  19.560  1.00  0.00     0.024 C 
HETATM    6  C2  UNL     1      -2.375  -7.262  21.060  1.00  0.00    -0.017 C 
HETATM    7  C1  UNL     1      -3.812  -7.131  21.512  1.00  0.00     0.010 C 
HETATM    8  C27 UNL     1      -1.397  -6.978  22.150  1.00  0.00     0.016 C 
HETATM    9  C6  UNL     1      -0.475  -4.557  18.196  1.00  0.00     0.035 C 
HETATM   10  C12 UNL     1       1.079  -5.938  19.629  1.00  0.00     0.134 C 
HETATM   11  C7  UNL     1       0.180  -5.248  17.076  1.00  0.00    -0.023 C 
HETATM   12  C8  UNL     1       0.897  -6.341  17.187  1.00  0.00    -0.077 C 
HETATM   13  C9  UNL     1       1.737  -7.460  16.680  1.00  0.00     0.035 C 
HETATM   14  C11 UNL     1       1.074  -6.944  18.541  1.00  0.00     0.044 C 
HETATM   15  C10 UNL     1       2.464  -7.370  18.034  1.00  0.00     0.016 C 
HETATM   16  O1  UNL     1       1.030  -6.607  20.851  1.00  0.00    -0.384 OA
HETATM   17  C13 UNL     1       0.710  -5.743  21.894  1.00  0.00     0.178 C 
ENDBRANCH   1   2
BRANCH   1  18
HETATM   18  C16 UNL     1      -2.069  -5.312  24.054  1.00  0.00     0.153 C 
BRANCH  18  19
HETATM   19  O2  UNL     1      -1.629  -5.024  25.317  1.00  0.00    -0.391 OA
ATOM     20  H2  UNL     1      -1.919  -4.194  25.677  1.00  0.00     0.210 HD
ENDBRANCH  18  19
BRANCH  18  21
HETATM   21  C17 UNL     1      -3.466  -4.735  23.952  1.00  0.00    -0.010 A 
HETATM   22  C18 UNL     1      -4.472  -4.971  24.863  1.00  0.00     0.067 A 
HETATM   23  C19 UNL     1      -5.596  -4.285  24.446  1.00  0.00     0.142 A 
HETATM   24  N1  UNL     1      -5.267  -3.649  23.304  1.00  0.00    -0.333 N 
HETATM   25  C26 UNL     1      -3.983  -3.916  22.999  1.00  0.00     0.103 A 
BRANCH  23  26
HETATM   26  O3  UNL     1      -6.819  -4.276  25.108  1.00  0.00    -0.346 OA
ATOM     27  H3  UNL     1      -6.973  -3.899  25.966  1.00  0.00     0.219 HD
ENDBRANCH  23  26
BRANCH  24  28
HETATM   28  C20 UNL     1      -6.119  -2.805  22.500  1.00  0.00     0.091 C 
HETATM   29  C21 UNL     1      -5.615  -2.623  21.105  1.00  0.00     0.026 C 
HETATM   30  C22 UNL     1      -6.427  -1.546  20.428  1.00  0.00     0.002 C 
HETATM   31  C23 UNL     1      -7.551  -1.051  21.316  1.00  0.00     0.000 C 
HETATM   32  C24 UNL     1      -8.387  -2.178  21.865  1.00  0.00     0.002 C 
HETATM   33  C25 UNL     1      -7.535  -3.273  22.451  1.00  0.00     0.026 C 
ENDBRANCH  24  28
ENDBRANCH  18  21
ENDBRANCH   1  18
TORSDOF 6
ENDMDL
MODEL 4
REMARK VINA RESULT: -8.945018457      1.194      1.663
REMARK  6 active torsions:
REMARK  status: ('A' for Active; 'I' for Inactive)
REMARK    1  A    between atoms: C14_15  and  C15_16 
REMARK    2  A    between atoms: C15_16  and  C16_17 
REMARK    3  A    between atoms: C16_17  and  O2_18 
REMARK    4  A    between atoms: C16_17  and  C17_20 
REMARK    5  A    between atoms: C19_22  and  O3_23 
REMARK    6  A    between atoms: N1_25  and  C20_26 
ROOT
HETATM    1  C15 UNL     1       6.005 -14.847  17.483  1.00  0.00     0.048 C 
ENDROOT
BRANCH   1   2
HETATM    2  C14 UNL     1       6.441 -15.297  18.833  1.00  0.00    -0.012 C 
HETATM    3  C4  UNL     1       7.578 -14.593  19.452  1.00  0.00     0.003 C 
HETATM    4  C3  UNL     1       8.680 -15.603  19.626  1.00  0.00     0.010 C 
HETATM    5  C5  UNL     1       7.260 -13.859  20.744  1.00  0.00     0.024 C 
HETATM    6  C2  UNL     1       8.270 -16.867  18.908  1.00  0.00    -0.017 C 
HETATM    7  C1  UNL     1       9.048 -17.079  17.629  1.00  0.00     0.010 C 
HETATM    8  C27 UNL     1       6.799 -16.776  18.683  1.00  0.00     0.016 C 
HETATM    9  C6  UNL     1       8.472 -13.208  21.294  1.00  0.00     0.035 C 
HETATM   10  C12 UNL     1       6.486 -14.708  21.716  1.00  0.00     0.134 C 
HETATM   11  C7  UNL     1       8.767 -13.444  22.715  1.00  0.00    -0.023 C 
HETATM   12  C8  UNL     1       8.248 -14.408  23.436  1.00  0.00    -0.077 C 
HETATM   13  C9  UNL     1       8.042 -15.201  24.679  1.00  0.00     0.035 C 
HETATM   14  C11 UNL     1       7.285 -15.346  22.789  1.00  0.00     0.044 C 
HETATM   15  C10 UNL     1       6.604 -15.404  24.168  1.00  0.00     0.016 C 
HETATM   16  O1  UNL     1       5.784 -15.702  21.036  1.00  0.00    -0.384 OA
HETATM   17  C13 UNL     1       5.271 -15.232  19.830  1.00  0.00     0.178 C 
ENDBRANCH   1   2
BRANCH   1  18
HETATM   18  C16 UNL     1       6.106 -13.413  17.151  1.00  0.00     0.153 C 
BRANCH  18  19
HETATM   19  O2  UNL     1       7.285 -13.015  16.579  1.00  0.00    -0.391 OA
ATOM     20  H2  UNL     1       8.071 -13.406  16.940  1.00  0.00     0.210 HD
ENDBRANCH  18  19
BRANCH  18  21
HETATM   21  C17 UNL     1       5.026 -13.140  16.124  1.00  0.00    -0.010 A 
HETATM   22  C18 UNL     1       4.146 -12.082  16.186  1.00  0.00     0.067 A 
HETATM   23  C19 UNL     1       3.312 -12.156  15.087  1.00  0.00     0.142 A 
HETATM   24  N1  UNL     1       3.687 -13.240  14.380  1.00  0.00    -0.333 N 
HETATM   25  C26 UNL     1       4.721 -13.839  15.000  1.00  0.00     0.103 A 
BRANCH  23  26
HETATM   26  O3  UNL     1       2.287 -11.260  14.799  1.00  0.00    -0.346 OA
ATOM     27  H3  UNL     1       1.675 -11.345  14.078  1.00  0.00     0.219 HD
ENDBRANCH  23  26
BRANCH  24  28
HETATM   28  C20 UNL     1       3.106 -13.723  13.150  1.00  0.00     0.091 C 
HETATM   29  C21 UNL     1       3.908 -14.810  12.510  1.00  0.00     0.026 C 
HETATM   30  C22 UNL     1       3.360 -15.074  11.129  1.00  0.00     0.002 C 
HETATM   31  C23 UNL     1       2.126 -14.241  10.848  1.00  0.00     0.000 C 
HETATM   32  C24 UNL     1       1.092 -14.364  11.937  1.00  0.00     0.002 C 
HETATM   33  C25 UNL     1       1.695 -14.182  13.305  1.00  0.00     0.026 C 
ENDBRANCH  24  28
ENDBRANCH  18  21
ENDBRANCH   1  18
TORSDOF 6
ENDMDL
MODEL 5
REMARK VINA RESULT: -8.667350302      2.019      2.899
REMARK  6 active torsions:
REMARK  status: ('A' for Active; 'I' for Inactive)
REMARK    1  A    between atoms: C14_15  and  C15_16 
REMARK    2  A    between atoms: C15_16  and  C16_17 
REMARK    3  A    between atoms: C16_17  and  O2_18 
REMARK    4  A    between atoms: C16_17  and  C17_20 
REMARK    5  A    between atoms: C19_22  and  O3_23 
REMARK    6  A    between atoms: N1_25  and  C20_26 
ROOT
HETATM    1  C15 UNL     1       6.906 -14.500  17.781  1.00  0.00     0.048 C 
ENDROOT
BRANCH   1   2
HETATM    2  C14 UNL     1       6.327 -14.450  19.152  1.00  0.00    -0.012 C 
HETATM    3  C4  UNL     1       7.189 -13.951  20.237  1.00  0.00     0.003 C 
HETATM    4  C3  UNL     1       7.373 -15.083  21.211  1.00  0.00     0.010 C 
HETATM    5  C5  UNL     1       6.703 -12.680  20.917  1.00  0.00     0.024 C 
HETATM    6  C2  UNL     1       6.793 -16.331  20.588  1.00  0.00    -0.017 C 
HETATM    7  C1  UNL     1       7.863 -17.297  20.132  1.00  0.00     0.010 C 
HETATM    8  C27 UNL     1       5.905 -15.883  19.477  1.00  0.00     0.016 C 
HETATM    9  C6  UNL     1       7.625 -12.278  22.006  1.00  0.00     0.035 C 
HETATM   10  C12 UNL     1       5.248 -12.748  21.295  1.00  0.00     0.134 C 
HETATM   11  C7  UNL     1       7.020 -11.972  23.310  1.00  0.00    -0.023 C 
HETATM   12  C8  UNL     1       5.810 -12.323  23.674  1.00  0.00    -0.077 C 
HETATM   13  C9  UNL     1       4.654 -12.407  24.608  1.00  0.00     0.035 C 
HETATM   14  C11 UNL     1       4.967 -13.089  22.710  1.00  0.00     0.044 C 
HETATM   15  C10 UNL     1       3.780 -12.341  23.343  1.00  0.00     0.016 C 
HETATM   16  O1  UNL     1       4.578 -13.657  20.479  1.00  0.00    -0.384 OA
HETATM   17  C13 UNL     1       5.042 -13.605  19.167  1.00  0.00     0.178 C 
ENDBRANCH   1   2
BRANCH   1  18
HETATM   18  C16 UNL     1       6.435 -13.523  16.780  1.00  0.00     0.153 C 
BRANCH  18  19
HETATM   19  O2  UNL     1       7.400 -12.987  15.972  1.00  0.00    -0.391 OA
ATOM     20  H2  UNL     1       7.124 -12.264  15.421  1.00  0.00     0.210 HD
ENDBRANCH  18  19
BRANCH  18  21
HETATM   21  C17 UNL     1       5.490 -14.276  15.867  1.00  0.00    -0.010 A 
HETATM   22  C18 UNL     1       5.236 -15.628  15.958  1.00  0.00     0.067 A 
HETATM   23  C19 UNL     1       4.330 -15.959  14.968  1.00  0.00     0.142 A 
HETATM   24  N1  UNL     1       4.048 -14.824  14.298  1.00  0.00    -0.333 N 
HETATM   25  C26 UNL     1       4.744 -13.805  14.834  1.00  0.00     0.103 A 
BRANCH  23  26
HETATM   26  O3  UNL     1       3.827 -17.235  14.739  1.00  0.00    -0.346 OA
ATOM     27  H3  UNL     1       3.840 -17.685  13.902  1.00  0.00     0.219 HD
ENDBRANCH  23  26
BRANCH  24  28
HETATM   28  C20 UNL     1       3.150 -14.674  13.178  1.00  0.00     0.091 C 
HETATM   29  C21 UNL     1       2.028 -13.724  13.448  1.00  0.00     0.026 C 
HETATM   30  C22 UNL     1       1.023 -13.820  12.326  1.00  0.00     0.002 C 
HETATM   31  C23 UNL     1       1.492 -14.762  11.235  1.00  0.00     0.000 C 
HETATM   32  C24 UNL     1       2.888 -14.445  10.765  1.00  0.00     0.002 C 
HETATM   33  C25 UNL     1       3.840 -14.269  11.919  1.00  0.00     0.026 C 
ENDBRANCH  24  28
ENDBRANCH  18  21
ENDBRANCH   1  18
TORSDOF 6
ENDMDL
