MODEL 1
REMARK VINA RESULT: -7.580197883      0.000      0.000
REMARK  8 active torsions:
REMARK  status: ('A' for Active; 'I' for Inactive)
REMARK    1  A    between atoms: C4_4  and  C6_6 
REMARK    2  A    between atoms: C6_6  and  C7_7 
REMARK    3  A    between atoms: C6_6  and  C12_14 
REMARK    4  A    between atoms: C7_7  and  O2_9 
REMARK    5  A    between atoms: O2_9  and  C8_10 
REMARK    6  A    between atoms: C15_17  and  C16_18 
REMARK    7  A    between atoms: C16_18  and  O3_19 
REMARK    8  A    between atoms: C17_21  and  O4_22 
ROOT
HETATM    1  C12 UNL     1      -1.165  -5.508  21.898  1.00  0.00    -0.002 C 
HETATM    2  C13 UNL     1      -1.251  -4.186  22.720  1.00  0.00     0.021 C 
HETATM    3  C14 UNL     1      -0.214  -6.337  22.768  1.00  0.00     0.024 C 
HETATM    4  C15 UNL     1       0.336  -7.520  22.038  1.00  0.00     0.039 C 
HETATM    5  C17 UNL     1       1.179  -6.901  20.903  1.00  0.00     0.130 C 
HETATM    6  C18 UNL     1       0.117  -6.383  19.908  1.00  0.00     0.032 C 
HETATM    7  C19 UNL     1       0.803  -6.171  18.631  1.00  0.00    -0.041 C 
HETATM    8  C20 UNL     1       1.198  -7.532  18.044  1.00  0.00     0.015 C 
HETATM    9  C21 UNL     1       0.125  -5.458  17.513  1.00  0.00     0.015 C 
HETATM   10  C22 UNL     1       2.046  -5.349  18.978  1.00  0.00     0.009 C 
HETATM   11  C23 UNL     1       1.609  -4.127  19.678  1.00  0.00     0.002 C 
HETATM   12  C24 UNL     1       0.660  -4.220  20.801  1.00  0.00     0.011 C 
HETATM   13  C25 UNL     1      -0.529  -5.203  20.576  1.00  0.00    -0.026 C 
HETATM   14  C26 UNL     1      -1.444  -4.368  19.756  1.00  0.00     0.016 C 
ENDROOT
BRANCH   1  15
HETATM   15  C6  UNL     1      -2.545  -6.011  22.033  1.00  0.00     0.032 C 
BRANCH  15  16
HETATM   16  C4  UNL     1      -2.962  -7.386  22.270  1.00  0.00    -0.047 C 
HETATM   17  C2  UNL     1      -2.858  -8.108  23.364  1.00  0.00    -0.081 C 
HETATM   18  C1  UNL     1      -3.474  -9.470  23.480  1.00  0.00     0.043 C 
HETATM   19  C3  UNL     1      -2.140  -7.696  24.583  1.00  0.00     0.043 C 
HETATM   20  C5  UNL     1      -3.772  -8.162  21.230  1.00  0.00     0.049 C 
ENDBRANCH  15  16
BRANCH  15  21
HETATM   21  C7  UNL     1      -3.502  -5.066  22.708  1.00  0.00     0.291 C 
HETATM   22  O1  UNL     1      -4.007  -5.392  23.861  1.00  0.00    -0.260 OA
BRANCH  21  23
HETATM   23  O2  UNL     1      -3.944  -3.869  22.274  1.00  0.00    -0.307 OA
BRANCH  23  24
HETATM   24  C8  UNL     1      -4.950  -3.447  21.463  1.00  0.00     0.060 C 
HETATM   25  C9  UNL     1      -5.961  -2.640  22.307  1.00  0.00     0.046 C 
HETATM   26  C10 UNL     1      -4.671  -2.631  20.266  1.00  0.00     0.046 C 
HETATM   27  C11 UNL     1      -5.785  -4.649  20.978  1.00  0.00     0.046 C 
ENDBRANCH  23  24
ENDBRANCH  21  23
ENDBRANCH  15  21
ENDBRANCH   1  15
BRANCH   4  28
HETATM   28  C16 UNL     1       1.240  -8.273  22.945  1.00  0.00     0.171 C 
BRANCH  28  29
HETATM   29  O3  UNL     1       2.152  -7.412  23.539  1.00  0.00    -0.400 OA
ATOM     30  H3  UNL     1       2.953  -7.876  23.750  1.00  0.00     0.209 HD
ENDBRANCH  28  29
ENDBRANCH   4  28
BRANCH   5  31
HETATM   31  O4  UNL     1       1.906  -7.954  20.446  1.00  0.00    -0.395 OA
ATOM     32  H4  UNL     1       2.144  -7.688  19.565  1.00  0.00     0.210 HD
ENDBRANCH   5  31
TORSDOF 8
ENDMDL
MODEL 2
REMARK VINA RESULT: -7.450901876     10.361     13.353
REMARK  8 active torsions:
REMARK  status: ('A' for Active; 'I' for Inactive)
REMARK    1  A    between atoms: C4_4  and  C6_6 
REMARK    2  A    between atoms: C6_6  and  C7_7 
REMARK    3  A    between atoms: C6_6  and  C12_14 
REMARK    4  A    between atoms: C7_7  and  O2_9 
REMARK    5  A    between atoms: O2_9  and  C8_10 
REMARK    6  A    between atoms: C15_17  and  C16_18 
REMARK    7  A    between atoms: C16_18  and  O3_19 
REMARK    8  A    between atoms: C17_21  and  O4_22 
ROOT
HETATM    1  C12 UNL     1       7.741 -14.818  20.226  1.00  0.00    -0.002 C 
HETATM    2  C13 UNL     1       8.633 -14.430  19.006  1.00  0.00     0.021 C 
HETATM    3  C14 UNL     1       7.398 -13.437  20.793  1.00  0.00     0.024 C 
HETATM    4  C15 UNL     1       6.850 -13.515  22.182  1.00  0.00     0.039 C 
HETATM    5  C17 UNL     1       8.024 -14.072  23.016  1.00  0.00     0.130 C 
HETATM    6  C18 UNL     1       8.074 -15.562  22.614  1.00  0.00     0.032 C 
HETATM    7  C19 UNL     1       8.854 -16.252  23.645  1.00  0.00    -0.041 C 
HETATM    8  C20 UNL     1       8.051 -16.270  24.951  1.00  0.00     0.015 C 
HETATM    9  C21 UNL     1       9.294 -17.661  23.451  1.00  0.00     0.015 C 
HETATM   10  C22 UNL     1      10.129 -15.419  23.804  1.00  0.00     0.009 C 
HETATM   11  C23 UNL     1      10.774 -15.309  22.483  1.00  0.00     0.002 C 
HETATM   12  C24 UNL     1       9.981 -14.913  21.305  1.00  0.00     0.011 C 
HETATM   13  C25 UNL     1       8.580 -15.587  21.200  1.00  0.00    -0.026 C 
HETATM   14  C26 UNL     1       8.938 -16.909  20.624  1.00  0.00     0.016 C 
ENDROOT
BRANCH   1  15
HETATM   15  C6  UNL     1       6.567 -15.392  19.541  1.00  0.00     0.032 C 
BRANCH  15  16
HETATM   16  C4  UNL     1       6.005 -16.722  19.725  1.00  0.00    -0.047 C 
HETATM   17  C2  UNL     1       6.076 -17.769  18.934  1.00  0.00    -0.081 C 
HETATM   18  C1  UNL     1       5.558 -19.115  19.346  1.00  0.00     0.043 C 
HETATM   19  C3  UNL     1       6.645 -17.764  17.575  1.00  0.00     0.043 C 
HETATM   20  C5  UNL     1       5.340 -17.130  21.041  1.00  0.00     0.049 C 
ENDBRANCH  15  16
BRANCH  15  21
HETATM   21  C7  UNL     1       5.466 -14.411  19.238  1.00  0.00     0.291 C 
HETATM   22  O1  UNL     1       4.392 -14.419  19.969  1.00  0.00    -0.260 OA
BRANCH  21  23
HETATM   23  O2  UNL     1       5.420 -13.477  18.267  1.00  0.00    -0.307 OA
BRANCH  23  24
HETATM   24  C8  UNL     1       5.391 -13.497  16.909  1.00  0.00     0.060 C 
HETATM   25  C9  UNL     1       6.751 -12.995  16.377  1.00  0.00     0.046 C 
HETATM   26  C10 UNL     1       5.097 -14.742  16.172  1.00  0.00     0.046 C 
HETATM   27  C11 UNL     1       4.400 -12.441  16.380  1.00  0.00     0.046 C 
ENDBRANCH  23  24
ENDBRANCH  21  23
ENDBRANCH  15  21
ENDBRANCH   1  15
BRANCH   4  28
HETATM   28  C16 UNL     1       6.538 -12.143  22.660  1.00  0.00     0.171 C 
BRANCH  28  29
HETATM   29  O3  UNL     1       7.662 -11.335  22.570  1.00  0.00    -0.400 OA
ATOM     30  H3  UNL     1       7.599 -10.614  23.185  1.00  0.00     0.209 HD
ENDBRANCH  28  29
ENDBRANCH   4  28
BRANCH   5  31
HETATM   31  O4  UNL     1       7.626 -13.853  24.297  1.00  0.00    -0.395 OA
ATOM     32  H4  UNL     1       8.105 -14.510  24.789  1.00  0.00     0.210 HD
ENDBRANCH   5  31
TORSDOF 8
ENDMDL
MODEL 3
REMARK VINA RESULT: -7.358189875      0.648      1.401
REMARK  8 active torsions:
REMARK  status: ('A' for Active; 'I' for Inactive)
REMARK    1  A    between atoms: C4_4  and  C6_6 
REMARK    2  A    between atoms: C6_6  and  C7_7 
REMARK    3  A    between atoms: C6_6  and  C12_14 
REMARK    4  A    between atoms: C7_7  and  O2_9 
REMARK    5  A    between atoms: O2_9  and  C8_10 
REMARK    6  A    between atoms: C15_17  and  C16_18 
REMARK    7  A    between atoms: C16_18  and  O3_19 
REMARK    8  A    between atoms: C17_21  and  O4_22 
ROOT
HETATM    1  C12 UNL     1      -1.097  -5.798  21.974  1.00  0.00    -0.002 C 
HETATM    2  C13 UNL     1      -1.292  -4.441  22.718  1.00  0.00     0.021 C 
HETATM    3  C14 UNL     1      -0.092  -6.498  22.893  1.00  0.00     0.024 C 
HETATM    4  C15 UNL     1       0.555  -7.674  22.234  1.00  0.00     0.039 C 
HETATM    5  C17 UNL     1       1.357  -7.057  21.069  1.00  0.00     0.130 C 
HETATM    6  C18 UNL     1       0.266  -6.682  20.042  1.00  0.00     0.032 C 
HETATM    7  C19 UNL     1       0.944  -6.490  18.757  1.00  0.00    -0.041 C 
HETATM    8  C20 UNL     1       1.448  -7.847  18.251  1.00  0.00     0.015 C 
HETATM    9  C21 UNL     1       0.222  -5.897  17.597  1.00  0.00     0.015 C 
HETATM   10  C22 UNL     1       2.117  -5.554  19.061  1.00  0.00     0.009 C 
HETATM   11  C23 UNL     1       1.580  -4.333  19.688  1.00  0.00     0.002 C 
HETATM   12  C24 UNL     1       0.631  -4.435  20.811  1.00  0.00     0.011 C 
HETATM   13  C25 UNL     1      -0.475  -5.520  20.639  1.00  0.00    -0.026 C 
HETATM   14  C26 UNL     1      -1.446  -4.807  19.768  1.00  0.00     0.016 C 
ENDROOT
BRANCH   1  15
HETATM   15  C6  UNL     1      -2.434  -6.398  22.132  1.00  0.00     0.032 C 
BRANCH  15  16
HETATM   16  C4  UNL     1      -2.776  -7.603  22.876  1.00  0.00    -0.047 C 
HETATM   17  C2  UNL     1      -3.535  -8.614  22.515  1.00  0.00    -0.081 C 
HETATM   18  C1  UNL     1      -3.665  -9.850  23.354  1.00  0.00     0.043 C 
HETATM   19  C3  UNL     1      -4.343  -8.665  21.285  1.00  0.00     0.043 C 
HETATM   20  C5  UNL     1      -2.111  -7.925  24.215  1.00  0.00     0.049 C 
ENDBRANCH  15  16
BRANCH  15  21
HETATM   21  C7  UNL     1      -3.568  -5.412  22.213  1.00  0.00     0.291 C 
HETATM   22  O1  UNL     1      -4.011  -5.049  23.380  1.00  0.00    -0.260 OA
BRANCH  21  23
HETATM   23  O2  UNL     1      -4.235  -4.818  21.203  1.00  0.00    -0.307 OA
BRANCH  23  24
HETATM   24  C8  UNL     1      -4.668  -3.556  20.942  1.00  0.00     0.060 C 
HETATM   25  C9  UNL     1      -4.756  -3.369  19.412  1.00  0.00     0.046 C 
HETATM   26  C10 UNL     1      -5.946  -3.062  21.491  1.00  0.00     0.046 C 
HETATM   27  C11 UNL     1      -3.597  -2.528  21.357  1.00  0.00     0.046 C 
ENDBRANCH  23  24
ENDBRANCH  21  23
ENDBRANCH  15  21
ENDBRANCH   1  15
BRANCH   4  28
HETATM   28  C16 UNL     1       1.508  -8.302  23.186  1.00  0.00     0.171 C 
BRANCH  28  29
HETATM   29  O3  UNL     1       2.300  -7.331  23.783  1.00  0.00    -0.400 OA
ATOM     30  H3  UNL     1       3.154  -7.302  23.367  1.00  0.00     0.209 HD
ENDBRANCH  28  29
ENDBRANCH   4  28
BRANCH   5  31
HETATM   31  O4  UNL     1       2.167  -8.074  20.676  1.00  0.00    -0.395 OA
ATOM     32  H4  UNL     1       2.988  -7.636  20.481  1.00  0.00     0.210 HD
ENDBRANCH   5  31
TORSDOF 8
ENDMDL
MODEL 4
REMARK VINA RESULT: -7.299365351     11.144     14.490
REMARK  8 active torsions:
REMARK  status: ('A' for Active; 'I' for Inactive)
REMARK    1  A    between atoms: C4_4  and  C6_6 
REMARK    2  A    between atoms: C6_6  and  C7_7 
REMARK    3  A    between atoms: C6_6  and  C12_14 
REMARK    4  A    between atoms: C7_7  and  O2_9 
REMARK    5  A    between atoms: O2_9  and  C8_10 
REMARK    6  A    between atoms: C15_17  and  C16_18 
REMARK    7  A    between atoms: C16_18  and  O3_19 
REMARK    8  A    between atoms: C17_21  and  O4_22 
ROOT
HETATM    1  C12 UNL     1       8.092 -16.616  19.849  1.00  0.00    -0.002 C 
HETATM    2  C13 UNL     1       9.394 -16.814  20.684  1.00  0.00     0.021 C 
HETATM    3  C14 UNL     1       7.046 -17.238  20.780  1.00  0.00     0.024 C 
HETATM    4  C15 UNL     1       5.756 -17.515  20.077  1.00  0.00     0.039 C 
HETATM    5  C17 UNL     1       6.124 -18.584  19.026  1.00  0.00     0.130 C 
HETATM    6  C18 UNL     1       6.898 -17.784  17.956  1.00  0.00     0.032 C 
HETATM    7  C19 UNL     1       6.914 -18.606  16.743  1.00  0.00    -0.041 C 
HETATM    8  C20 UNL     1       5.495 -18.674  16.167  1.00  0.00     0.015 C 
HETATM    9  C21 UNL     1       7.776 -18.236  15.585  1.00  0.00     0.015 C 
HETATM   10  C22 UNL     1       7.380 -19.989  17.205  1.00  0.00     0.009 C 
HETATM   11  C23 UNL     1       8.677 -19.833  17.888  1.00  0.00     0.002 C 
HETATM   12  C24 UNL     1       8.845 -18.802  18.927  1.00  0.00     0.011 C 
HETATM   13  C25 UNL     1       8.211 -17.419  18.589  1.00  0.00    -0.026 C 
HETATM   14  C26 UNL     1       9.254 -16.829  17.711  1.00  0.00     0.016 C 
ENDROOT
BRANCH   1  15
HETATM   15  C6  UNL     1       7.973 -15.146  19.861  1.00  0.00     0.032 C 
BRANCH  15  16
HETATM   16  C4  UNL     1       6.802 -14.355  19.512  1.00  0.00    -0.047 C 
HETATM   17  C2  UNL     1       6.454 -13.855  18.347  1.00  0.00    -0.081 C 
HETATM   18  C1  UNL     1       5.132 -13.182  18.131  1.00  0.00     0.043 C 
HETATM   19  C3  UNL     1       7.292 -13.879  17.135  1.00  0.00     0.043 C 
HETATM   20  C5  UNL     1       5.671 -14.124  20.516  1.00  0.00     0.049 C 
ENDBRANCH  15  16
BRANCH  15  21
HETATM   21  C7  UNL     1       8.748 -14.455  20.951  1.00  0.00     0.291 C 
HETATM   22  O1  UNL     1       9.578 -13.506  20.635  1.00  0.00    -0.260 OA
BRANCH  21  23
HETATM   23  O2  UNL     1       8.714 -14.687  22.279  1.00  0.00    -0.307 OA
BRANCH  23  24
HETATM   24  C8  UNL     1       8.107 -14.104  23.346  1.00  0.00     0.060 C 
HETATM   25  C9  UNL     1       9.095 -14.094  24.533  1.00  0.00     0.046 C 
HETATM   26  C10 UNL     1       7.559 -12.737  23.256  1.00  0.00     0.046 C 
HETATM   27  C11 UNL     1       6.957 -14.994  23.858  1.00  0.00     0.046 C 
ENDBRANCH  23  24
ENDBRANCH  21  23
ENDBRANCH  15  21
ENDBRANCH   1  15
BRANCH   4  28
HETATM   28  C16 UNL     1       4.794 -18.109  21.042  1.00  0.00     0.171 C 
BRANCH  28  29
HETATM   29  O3  UNL     1       3.491 -17.903  20.611  1.00  0.00    -0.400 OA
ATOM     30  H3  UNL     1       3.008 -18.720  20.621  1.00  0.00     0.209 HD
ENDBRANCH  28  29
ENDBRANCH   4  28
BRANCH   5  31
HETATM   31  O4  UNL     1       4.913 -19.042  18.612  1.00  0.00    -0.395 OA
ATOM     32  H4  UNL     1       4.907 -18.834  17.685  1.00  0.00     0.210 HD
ENDBRANCH   5  31
TORSDOF 8
ENDMDL
MODEL 5
REMARK VINA RESULT: -7.236117904      1.803      5.828
REMARK  8 active torsions:
REMARK  status: ('A' for Active; 'I' for Inactive)
REMARK    1  A    between atoms: C4_4  and  C6_6 
REMARK    2  A    between atoms: C6_6  and  C7_7 
REMARK    3  A    between atoms: C6_6  and  C12_14 
REMARK    4  A    between atoms: C7_7  and  O2_9 
REMARK    5  A    between atoms: O2_9  and  C8_10 
REMARK    6  A    between atoms: C15_17  and  C16_18 
REMARK    7  A    between atoms: C16_18  and  O3_19 
REMARK    8  A    between atoms: C17_21  and  O4_22 
ROOT
HETATM    1  C12 UNL     1      -1.662  -6.822  22.253  1.00  0.00    -0.002 C 
HETATM    2  C13 UNL     1      -2.392  -8.185  22.462  1.00  0.00     0.021 C 
HETATM    3  C14 UNL     1      -1.805  -6.194  23.643  1.00  0.00     0.024 C 
HETATM    4  C15 UNL     1      -1.515  -4.727  23.634  1.00  0.00     0.039 C 
HETATM    5  C17 UNL     1      -2.628  -4.130  22.748  1.00  0.00     0.130 C 
HETATM    6  C18 UNL     1      -2.209  -4.542  21.320  1.00  0.00     0.032 C 
HETATM    7  C19 UNL     1      -2.951  -3.678  20.397  1.00  0.00    -0.041 C 
HETATM    8  C20 UNL     1      -2.419  -2.245  20.517  1.00  0.00     0.015 C 
HETATM    9  C21 UNL     1      -2.959  -3.958  18.934  1.00  0.00     0.015 C 
HETATM   10  C22 UNL     1      -4.407  -3.757  20.861  1.00  0.00     0.009 C 
HETATM   11  C23 UNL     1      -4.811  -5.175  20.871  1.00  0.00     0.002 C 
HETATM   12  C24 UNL     1      -3.954  -6.181  21.522  1.00  0.00     0.011 C 
HETATM   13  C25 UNL     1      -2.429  -6.026  21.241  1.00  0.00    -0.026 C 
HETATM   14  C26 UNL     1      -2.314  -6.665  19.905  1.00  0.00     0.016 C 
ENDROOT
BRANCH   1  15
HETATM   15  C6  UNL     1      -0.276  -7.277  22.041  1.00  0.00     0.032 C 
BRANCH  15  16
HETATM   16  C4  UNL     1       0.708  -6.707  21.133  1.00  0.00    -0.047 C 
HETATM   17  C2  UNL     1       1.570  -7.320  20.352  1.00  0.00    -0.081 C 
HETATM   18  C1  UNL     1       2.419  -6.575  19.365  1.00  0.00     0.043 C 
HETATM   19  C3  UNL     1       1.819  -8.771  20.345  1.00  0.00     0.043 C 
HETATM   20  C5  UNL     1       0.750  -5.204  20.847  1.00  0.00     0.049 C 
ENDBRANCH  15  16
BRANCH  15  21
HETATM   21  C7  UNL     1       0.413  -7.809  23.269  1.00  0.00     0.291 C 
HETATM   22  O1  UNL     1       1.298  -7.070  23.869  1.00  0.00    -0.260 OA
BRANCH  21  23
HETATM   23  O2  UNL     1       0.247  -9.002  23.873  1.00  0.00    -0.307 OA
BRANCH  23  24
HETATM   24  C8  UNL     1      -0.135  -9.414  25.111  1.00  0.00     0.060 C 
HETATM   25  C9  UNL     1       1.072 -10.082  25.805  1.00  0.00     0.046 C 
HETATM   26  C10 UNL     1      -0.696  -8.462  26.089  1.00  0.00     0.046 C 
HETATM   27  C11 UNL     1      -1.153 -10.566  25.001  1.00  0.00     0.046 C 
ENDBRANCH  23  24
ENDBRANCH  21  23
ENDBRANCH  15  21
ENDBRANCH   1  15
BRANCH   4  28
HETATM   28  C16 UNL     1      -1.667  -4.193  25.013  1.00  0.00     0.171 C 
BRANCH  28  29
HETATM   29  O3  UNL     1      -2.283  -5.133  25.827  1.00  0.00    -0.400 OA
ATOM     30  H3  UNL     1      -3.139  -4.823  26.098  1.00  0.00     0.209 HD
ENDBRANCH  28  29
ENDBRANCH   4  28
BRANCH   5  31
HETATM   31  O4  UNL     1      -2.539  -2.797  22.993  1.00  0.00    -0.395 OA
ATOM     32  H4  UNL     1      -1.900  -2.746  23.694  1.00  0.00     0.210 HD
ENDBRANCH   5  31
TORSDOF 8
ENDMDL
