MODEL 1
REMARK VINA RESULT: -8.210122149      0.000      0.000
REMARK  6 active torsions:
REMARK  status: ('A' for Active; 'I' for Inactive)
REMARK    1  A    between atoms: C2_2  and  O1_3 
REMARK    2  A    between atoms: C4_6  and  C5_7 
REMARK    3  A    between atoms: C5_7  and  C6_8 
REMARK    4  A    between atoms: N1_9  and  O2_11 
REMARK    5  A    between atoms: O2_11  and  C7_12 
REMARK    6  A    between atoms: C15_20  and  O3_22 
ROOT
HETATM    1  C5  UNL     1       6.900 -16.428  18.366  1.00  0.00     0.052 C 
ENDROOT
BRANCH   1   2
HETATM    2  C4  UNL     1       6.250 -15.643  19.431  1.00  0.00     0.002 C 
HETATM    3  C3  UNL     1       5.705 -16.659  20.449  1.00  0.00     0.043 C 
HETATM    4  C2  UNL     1       6.666 -17.022  21.510  1.00  0.00     0.055 C 
HETATM    5  C1  UNL     1       5.953 -18.043  22.408  1.00  0.00     0.045 C 
HETATM    6  C26 UNL     1       7.034 -15.772  22.276  1.00  0.00     0.043 C 
HETATM    7  C25 UNL     1       6.746 -14.496  21.558  1.00  0.00     0.005 C 
HETATM    8  C17 UNL     1       7.002 -14.525  20.068  1.00  0.00    -0.036 C 
HETATM    9  C22 UNL     1       7.451 -13.392  22.301  1.00  0.00    -0.043 C 
HETATM   10  C18 UNL     1       6.363 -13.235  19.514  1.00  0.00     0.016 C 
HETATM   11  C19 UNL     1       8.450 -14.466  19.726  1.00  0.00     0.010 C 
HETATM   12  C20 UNL     1       9.329 -13.842  20.782  1.00  0.00     0.002 C 
HETATM   13  C21 UNL     1       8.620 -12.790  21.588  1.00  0.00     0.009 C 
HETATM   14  C23 UNL     1       7.998 -13.877  23.659  1.00  0.00     0.015 C 
HETATM   15  C24 UNL     1       6.503 -12.244  22.639  1.00  0.00     0.015 C 
BRANCH   4  16
HETATM   16  O1  UNL     1       7.828 -17.648  21.095  1.00  0.00    -0.390 OA
ATOM     17  H1  UNL     1       8.230 -17.048  20.478  1.00  0.00     0.210 HD
ENDBRANCH   4  16
ENDBRANCH   1   2
BRANCH   1  18
HETATM   18  C6  UNL     1       6.308 -16.234  17.021  1.00  0.00     0.087 C 
HETATM   19  N1  UNL     1       5.196 -15.597  16.864  1.00  0.00    -0.279 N 
ATOM     20  H1  UNL     1       4.710 -15.216  17.675  1.00  0.00     0.193 HD
BRANCH  19  21
HETATM   21  O2  UNL     1       4.668 -15.432  15.610  1.00  0.00    -0.248 OA
BRANCH  21  22
HETATM   22  C7  UNL     1       5.567 -15.139  14.547  1.00  0.00     0.288 C 
HETATM   23  C8  UNL     1       5.685 -13.615  14.508  1.00  0.00     0.064 C 
HETATM   24  C9  UNL     1       4.250 -13.103  14.362  1.00  0.00     0.015 C 
HETATM   25  C10 UNL     1       3.679 -13.746  13.134  1.00  0.00     0.049 C 
HETATM   26  C11 UNL     1       3.775 -15.265  13.209  1.00  0.00     0.131 C 
HETATM   27  C15 UNL     1       2.248 -13.399  12.883  1.00  0.00     0.060 C 
HETATM   28  C12 UNL     1       3.117 -15.804  11.961  1.00  0.00     0.032 C 
HETATM   29  O4  UNL     1       5.099 -15.628  13.331  1.00  0.00    -0.353 OA
HETATM   30  C13 UNL     1       2.879 -14.740  10.927  1.00  0.00     0.006 C 
HETATM   31  C14 UNL     1       1.989 -13.631  11.395  1.00  0.00     0.038 C 
HETATM   32  C16 UNL     1       1.909 -11.986  13.275  1.00  0.00     0.046 C 
BRANCH  27  33
HETATM   33  O3  UNL     1       1.417 -14.316  13.553  1.00  0.00    -0.390 OA
ATOM     34  H3  UNL     1       0.540 -13.958  13.623  1.00  0.00     0.210 HD
ENDBRANCH  27  33
ENDBRANCH  21  22
ENDBRANCH  19  21
ENDBRANCH   1  18
TORSDOF 6
ENDMDL
MODEL 2
REMARK VINA RESULT: -8.148088542      8.027     11.889
REMARK  6 active torsions:
REMARK  status: ('A' for Active; 'I' for Inactive)
REMARK    1  A    between atoms: C2_2  and  O1_3 
REMARK    2  A    between atoms: C4_6  and  C5_7 
REMARK    3  A    between atoms: C5_7  and  C6_8 
REMARK    4  A    between atoms: N1_9  and  O2_11 
REMARK    5  A    between atoms: O2_11  and  C7_12 
REMARK    6  A    between atoms: C15_20  and  O3_22 
ROOT
HETATM    1  C5  UNL     1       0.559  -8.178  22.017  1.00  0.00     0.052 C 
ENDROOT
BRANCH   1   2
HETATM    2  C4  UNL     1       0.369  -6.752  22.336  1.00  0.00     0.002 C 
HETATM    3  C3  UNL     1       1.321  -5.969  21.416  1.00  0.00     0.043 C 
HETATM    4  C2  UNL     1       0.730  -5.602  20.113  1.00  0.00     0.055 C 
HETATM    5  C1  UNL     1       1.822  -4.850  19.339  1.00  0.00     0.045 C 
HETATM    6  C26 UNL     1      -0.477  -4.726  20.360  1.00  0.00     0.043 C 
HETATM    7  C25 UNL     1      -1.035  -4.813  21.742  1.00  0.00     0.005 C 
HETATM    8  C17 UNL     1      -1.013  -6.193  22.358  1.00  0.00    -0.036 C 
HETATM    9  C22 UNL     1      -2.386  -4.148  21.724  1.00  0.00    -0.043 C 
HETATM   10  C18 UNL     1      -1.344  -5.984  23.850  1.00  0.00     0.016 C 
HETATM   11  C19 UNL     1      -2.064  -7.093  21.808  1.00  0.00     0.010 C 
HETATM   12  C20 UNL     1      -3.258  -6.388  21.215  1.00  0.00     0.002 C 
HETATM   13  C21 UNL     1      -3.552  -5.072  21.878  1.00  0.00     0.009 C 
HETATM   14  C23 UNL     1      -2.631  -3.388  20.405  1.00  0.00     0.015 C 
HETATM   15  C24 UNL     1      -2.511  -3.095  22.822  1.00  0.00     0.015 C 
BRANCH   4  16
HETATM   16  O1  UNL     1       0.358  -6.652  19.292  1.00  0.00    -0.390 OA
ATOM     17  H1  UNL     1      -0.365  -6.320  18.773  1.00  0.00     0.210 HD
ENDBRANCH   4  16
ENDBRANCH   1   2
BRANCH   1  18
HETATM   18  C6  UNL     1       1.854  -8.736  22.475  1.00  0.00     0.087 C 
HETATM   19  N1  UNL     1       2.248  -9.908  22.103  1.00  0.00    -0.279 N 
ATOM     20  H1  UNL     1       1.663 -10.467  21.482  1.00  0.00     0.193 HD
BRANCH  19  21
HETATM   21  O2  UNL     1       3.449 -10.402  22.540  1.00  0.00    -0.248 OA
BRANCH  21  22
HETATM   22  C7  UNL     1       3.475 -11.058  23.802  1.00  0.00     0.288 C 
HETATM   23  C8  UNL     1       4.610 -10.401  24.590  1.00  0.00     0.064 C 
HETATM   24  C9  UNL     1       5.851 -10.548  23.708  1.00  0.00     0.015 C 
HETATM   25  C10 UNL     1       6.015 -12.010  23.423  1.00  0.00     0.049 C 
HETATM   26  C11 UNL     1       4.755 -12.597  22.797  1.00  0.00     0.131 C 
HETATM   27  C15 UNL     1       7.155 -12.323  22.510  1.00  0.00     0.060 C 
HETATM   28  C12 UNL     1       5.053 -14.046  22.495  1.00  0.00     0.032 C 
HETATM   29  O4  UNL     1       3.697 -12.424  23.664  1.00  0.00    -0.353 OA
HETATM   30  C13 UNL     1       6.307 -14.530  23.166  1.00  0.00     0.006 C 
HETATM   31  C14 UNL     1       7.538 -13.780  22.759  1.00  0.00     0.038 C 
HETATM   32  C16 UNL     1       8.337 -11.413  22.715  1.00  0.00     0.046 C 
BRANCH  27  33
HETATM   33  O3  UNL     1       6.715 -12.277  21.174  1.00  0.00    -0.390 OA
ATOM     34  H3  UNL     1       7.143 -12.962  20.674  1.00  0.00     0.210 HD
ENDBRANCH  27  33
ENDBRANCH  21  22
ENDBRANCH  19  21
ENDBRANCH   1  18
TORSDOF 6
ENDMDL
MODEL 3
REMARK VINA RESULT: -8.103082865      1.748      2.548
REMARK  6 active torsions:
REMARK  status: ('A' for Active; 'I' for Inactive)
REMARK    1  A    between atoms: C2_2  and  O1_3 
REMARK    2  A    between atoms: C4_6  and  C5_7 
REMARK    3  A    between atoms: C5_7  and  C6_8 
REMARK    4  A    between atoms: N1_9  and  O2_11 
REMARK    5  A    between atoms: O2_11  and  C7_12 
REMARK    6  A    between atoms: C15_20  and  O3_22 
ROOT
HETATM    1  C5  UNL     1       5.629 -13.287  19.515  1.00  0.00     0.052 C 
ENDROOT
BRANCH   1   2
HETATM    2  C4  UNL     1       6.020 -14.380  20.424  1.00  0.00     0.002 C 
HETATM    3  C3  UNL     1       6.806 -15.392  19.574  1.00  0.00     0.043 C 
HETATM    4  C2  UNL     1       8.258 -15.126  19.513  1.00  0.00     0.055 C 
HETATM    5  C1  UNL     1       8.861 -16.220  18.619  1.00  0.00     0.045 C 
HETATM    6  C26 UNL     1       8.818 -15.186  20.916  1.00  0.00     0.043 C 
HETATM    7  C25 UNL     1       7.801 -15.036  21.998  1.00  0.00     0.005 C 
HETATM    8  C17 UNL     1       6.696 -14.046  21.709  1.00  0.00    -0.036 C 
HETATM    9  C22 UNL     1       8.546 -14.798  23.285  1.00  0.00    -0.043 C 
HETATM   10  C18 UNL     1       5.634 -14.283  22.803  1.00  0.00     0.016 C 
HETATM   11  C19 UNL     1       7.136 -12.629  21.839  1.00  0.00     0.010 C 
HETATM   12  C20 UNL     1       8.331 -12.414  22.734  1.00  0.00     0.002 C 
HETATM   13  C21 UNL     1       8.419 -13.419  23.848  1.00  0.00     0.009 C 
HETATM   14  C23 UNL     1      10.059 -15.043  23.123  1.00  0.00     0.015 C 
HETATM   15  C24 UNL     1       8.100 -15.763  24.381  1.00  0.00     0.015 C 
BRANCH   4  16
HETATM   16  O1  UNL     1       8.637 -13.929  18.932  1.00  0.00    -0.390 OA
ATOM     17  H1  UNL     1       8.686 -13.307  19.649  1.00  0.00     0.210 HD
ENDBRANCH   4  16
ENDBRANCH   1   2
BRANCH   1  18
HETATM   18  C6  UNL     1       5.244 -13.734  18.156  1.00  0.00     0.087 C 
HETATM   19  N1  UNL     1       4.642 -12.941  17.334  1.00  0.00    -0.279 N 
ATOM     20  H1  UNL     1       4.423 -11.987  17.618  1.00  0.00     0.193 HD
BRANCH  19  21
HETATM   21  O2  UNL     1       4.296 -13.379  16.083  1.00  0.00    -0.248 OA
BRANCH  21  22
HETATM   22  C7  UNL     1       4.934 -14.552  15.592  1.00  0.00     0.288 C 
HETATM   23  C8  UNL     1       6.100 -14.064  14.732  1.00  0.00     0.064 C 
HETATM   24  C9  UNL     1       5.473 -13.132  13.693  1.00  0.00     0.015 C 
HETATM   25  C10 UNL     1       4.419 -13.920  12.978  1.00  0.00     0.049 C 
HETATM   26  C11 UNL     1       3.406 -14.506  13.954  1.00  0.00     0.131 C 
HETATM   27  C15 UNL     1       3.658 -13.129  11.965  1.00  0.00     0.060 C 
HETATM   28  C12 UNL     1       2.364 -15.218  13.126  1.00  0.00     0.032 C 
HETATM   29  O4  UNL     1       4.061 -15.334  14.841  1.00  0.00    -0.353 OA
HETATM   30  C13 UNL     1       2.792 -15.409  11.698  1.00  0.00     0.006 C 
HETATM   31  C14 UNL     1       3.065 -14.128  10.973  1.00  0.00     0.038 C 
HETATM   32  C16 UNL     1       4.509 -12.108  11.258  1.00  0.00     0.046 C 
BRANCH  27  33
HETATM   33  O3  UNL     1       2.551 -12.515  12.582  1.00  0.00    -0.390 OA
ATOM     34  H3  UNL     1       1.774 -12.655  12.053  1.00  0.00     0.210 HD
ENDBRANCH  27  33
ENDBRANCH  21  22
ENDBRANCH  19  21
ENDBRANCH   1  18
TORSDOF 6
ENDMDL
MODEL 4
REMARK VINA RESULT: -8.040244601      1.977      9.258
REMARK  6 active torsions:
REMARK  status: ('A' for Active; 'I' for Inactive)
REMARK    1  A    between atoms: C2_2  and  O1_3 
REMARK    2  A    between atoms: C4_6  and  C5_7 
REMARK    3  A    between atoms: C5_7  and  C6_8 
REMARK    4  A    between atoms: N1_9  and  O2_11 
REMARK    5  A    between atoms: O2_11  and  C7_12 
REMARK    6  A    between atoms: C15_20  and  O3_22 
ROOT
HETATM    1  C5  UNL     1       4.105 -12.385  15.647  1.00  0.00     0.052 C 
ENDROOT
BRANCH   1   2
HETATM    2  C4  UNL     1       4.519 -12.866  14.316  1.00  0.00     0.002 C 
HETATM    3  C3  UNL     1       5.438 -14.075  14.558  1.00  0.00     0.043 C 
HETATM    4  C2  UNL     1       4.724 -15.366  14.636  1.00  0.00     0.055 C 
HETATM    5  C1  UNL     1       5.795 -16.437  14.892  1.00  0.00     0.045 C 
HETATM    6  C26 UNL     1       4.006 -15.602  13.327  1.00  0.00     0.043 C 
HETATM    7  C25 UNL     1       3.801 -14.375  12.502  1.00  0.00     0.005 C 
HETATM    8  C17 UNL     1       3.476 -13.122  13.283  1.00  0.00    -0.036 C 
HETATM    9  C22 UNL     1       2.814 -14.721  11.419  1.00  0.00    -0.043 C 
HETATM   10  C18 UNL     1       3.607 -11.962  12.275  1.00  0.00     0.016 C 
HETATM   11  C19 UNL     1       2.074 -13.096  13.784  1.00  0.00     0.010 C 
HETATM   12  C20 UNL     1       1.106 -13.955  13.009  1.00  0.00     0.002 C 
HETATM   13  C21 UNL     1       1.469 -14.084  11.557  1.00  0.00     0.009 C 
HETATM   14  C23 UNL     1       2.550 -16.239  11.352  1.00  0.00     0.015 C 
HETATM   15  C24 UNL     1       3.339 -14.345  10.036  1.00  0.00     0.015 C 
BRANCH   4  16
HETATM   16  O1  UNL     1       3.818 -15.502  15.673  1.00  0.00    -0.390 OA
ATOM     17  H1  UNL     1       3.040 -15.878  15.278  1.00  0.00     0.210 HD
ENDBRANCH   4  16
ENDBRANCH   1   2
BRANCH   1  18
HETATM   18  C6  UNL     1       5.070 -12.689  16.731  1.00  0.00     0.087 C 
HETATM   19  N1  UNL     1       4.721 -12.639  17.972  1.00  0.00    -0.279 N 
ATOM     20  H1  UNL     1       3.765 -12.387  18.222  1.00  0.00     0.193 HD
BRANCH  19  21
HETATM   21  O2  UNL     1       5.632 -12.924  18.956  1.00  0.00    -0.248 OA
BRANCH  21  22
HETATM   22  C7  UNL     1       5.634 -14.241  19.495  1.00  0.00     0.288 C 
HETATM   23  C8  UNL     1       4.638 -14.218  20.655  1.00  0.00     0.064 C 
HETATM   24  C9  UNL     1       5.116 -13.093  21.575  1.00  0.00     0.015 C 
HETATM   25  C10 UNL     1       6.537 -13.400  21.940  1.00  0.00     0.049 C 
HETATM   26  C11 UNL     1       7.402 -13.575  20.697  1.00  0.00     0.131 C 
HETATM   27  C15 UNL     1       7.181 -12.355  22.790  1.00  0.00     0.060 C 
HETATM   28  C12 UNL     1       8.813 -13.815  21.179  1.00  0.00     0.032 C 
HETATM   29  O4  UNL     1       6.899 -14.611  19.939  1.00  0.00    -0.353 OA
HETATM   30  C13 UNL     1       8.878 -14.122  22.649  1.00  0.00     0.006 C 
HETATM   31  C14 UNL     1       8.342 -13.027  23.519  1.00  0.00     0.038 C 
HETATM   32  C16 UNL     1       6.226 -11.722  23.767  1.00  0.00     0.046 C 
BRANCH  27  33
HETATM   33  O3  UNL     1       7.773 -11.378  21.968  1.00  0.00    -0.390 OA
ATOM     34  H3  UNL     1       7.395 -11.423  21.097  1.00  0.00     0.210 HD
ENDBRANCH  27  33
ENDBRANCH  21  22
ENDBRANCH  19  21
ENDBRANCH   1  18
TORSDOF 6
ENDMDL
MODEL 5
REMARK VINA RESULT: -8.026942136      1.050      1.209
REMARK  6 active torsions:
REMARK  status: ('A' for Active; 'I' for Inactive)
REMARK    1  A    between atoms: C2_2  and  O1_3 
REMARK    2  A    between atoms: C4_6  and  C5_7 
REMARK    3  A    between atoms: C5_7  and  C6_8 
REMARK    4  A    between atoms: N1_9  and  O2_11 
REMARK    5  A    between atoms: O2_11  and  C7_12 
REMARK    6  A    between atoms: C15_20  and  O3_22 
ROOT
HETATM    1  C5  UNL     1       6.826 -16.210  18.366  1.00  0.00     0.052 C 
ENDROOT
BRANCH   1   2
HETATM    2  C4  UNL     1       6.169 -15.495  19.475  1.00  0.00     0.002 C 
HETATM    3  C3  UNL     1       5.675 -16.572  20.455  1.00  0.00     0.043 C 
HETATM    4  C2  UNL     1       6.666 -16.947  21.484  1.00  0.00     0.055 C 
HETATM    5  C1  UNL     1       6.003 -18.030  22.348  1.00  0.00     0.045 C 
HETATM    6  C26 UNL     1       7.005 -15.720  22.299  1.00  0.00     0.043 C 
HETATM    7  C25 UNL     1       6.662 -14.424  21.641  1.00  0.00     0.005 C 
HETATM    8  C17 UNL     1       6.894 -14.381  20.148  1.00  0.00    -0.036 C 
HETATM    9  C22 UNL     1       7.343 -13.330  22.421  1.00  0.00    -0.043 C 
HETATM   10  C18 UNL     1       6.203 -13.091  19.661  1.00  0.00     0.016 C 
HETATM   11  C19 UNL     1       8.333 -14.257  19.786  1.00  0.00     0.010 C 
HETATM   12  C20 UNL     1       9.208 -13.650  20.854  1.00  0.00     0.002 C 
HETATM   13  C21 UNL     1       8.478 -12.659  21.717  1.00  0.00     0.009 C 
HETATM   14  C23 UNL     1       7.929 -13.855  23.747  1.00  0.00     0.015 C 
HETATM   15  C24 UNL     1       6.364 -12.231  22.823  1.00  0.00     0.015 C 
BRANCH   4  16
HETATM   16  O1  UNL     1       7.840 -17.515  21.024  1.00  0.00    -0.390 OA
ATOM     17  H1  UNL     1       8.003 -18.254  21.599  1.00  0.00     0.210 HD
ENDBRANCH   4  16
ENDBRANCH   1   2
BRANCH   1  18
HETATM   18  C6  UNL     1       6.340 -15.824  17.020  1.00  0.00     0.087 C 
HETATM   19  N1  UNL     1       5.251 -15.147  16.870  1.00  0.00    -0.279 N 
ATOM     20  H1  UNL     1       4.709 -14.868  17.687  1.00  0.00     0.193 HD
BRANCH  19  21
HETATM   21  O2  UNL     1       4.822 -14.802  15.615  1.00  0.00    -0.248 OA
BRANCH  21  22
HETATM   22  C7  UNL     1       4.651 -15.846  14.664  1.00  0.00     0.288 C 
HETATM   23  C8  UNL     1       5.648 -15.556  13.542  1.00  0.00     0.064 C 
HETATM   24  C9  UNL     1       5.328 -14.135  13.074  1.00  0.00     0.015 C 
HETATM   25  C10 UNL     1       3.881 -14.120  12.683  1.00  0.00     0.049 C 
HETATM   26  C11 UNL     1       2.993 -14.595  13.825  1.00  0.00     0.131 C 
HETATM   27  C15 UNL     1       3.385 -12.775  12.260  1.00  0.00     0.060 C 
HETATM   28  C12 UNL     1       1.566 -14.478  13.345  1.00  0.00     0.032 C 
HETATM   29  O4  UNL     1       3.351 -15.882  14.170  1.00  0.00    -0.353 OA
HETATM   30  C13 UNL     1       1.471 -14.258  11.862  1.00  0.00     0.006 C 
HETATM   31  C14 UNL     1       2.151 -13.009  11.392  1.00  0.00     0.038 C 
HETATM   32  C16 UNL     1       4.422 -11.974  11.518  1.00  0.00     0.046 C 
BRANCH  27  33
HETATM   33  O3  UNL     1       2.921 -12.070  13.386  1.00  0.00    -0.390 OA
ATOM     34  H3  UNL     1       3.428 -11.274  13.494  1.00  0.00     0.210 HD
ENDBRANCH  27  33
ENDBRANCH  21  22
ENDBRANCH  19  21
ENDBRANCH   1  18
TORSDOF 6
ENDMDL
