MODEL 1
REMARK VINA RESULT: -8.070439496      0.000      0.000
REMARK  16 active torsions:
REMARK  status: ('A' for Active; 'I' for Inactive)
REMARK       I    between atoms: C2_2  and  N1_4 
REMARK    1  A    between atoms: N1_4  and  C3_6 
REMARK    2  A    between atoms: C4_7  and  C5_8 
REMARK    3  A    between atoms: C5_8  and  O2_9 
REMARK    4  A    between atoms: C5_8  and  O3_11 
REMARK    5  A    between atoms: C6_14  and  C7_15 
REMARK    6  A    between atoms: C7_15  and  O5_16 
REMARK    7  A    between atoms: C7_15  and  N2_18 
REMARK    8  A    between atoms: C11_24  and  C12_25 
REMARK    9  A    between atoms: C12_25  and  O6_26 
REMARK   10  A    between atoms: C12_25  and  C13_28 
REMARK   11  A    between atoms: C13_28  and  O7_29 
REMARK   12  A    between atoms: C13_28  and  O8_31 
REMARK   13  A    between atoms: C14_33  and  O9_34 
REMARK   14  A    between atoms: O9_34  and  C15_35 
REMARK   15  A    between atoms: C16_38  and  O12_39 
REMARK   16  A    between atoms: C18_43  and  N4_44 
REMARK       I    between atoms: N4_44  and  C19_46 
REMARK       I    between atoms: C19_46  and  N5_47 
REMARK       I    between atoms: C19_46  and  N6_51 
ROOT
HETATM    1  C3  UNL     1      -5.397   9.808  58.258  1.00  0.00     0.100 C 
HETATM    2  C4  UNL     1      -4.201  10.455  58.390  1.00  0.00     0.137 C 
HETATM    3  O4  UNL     1      -3.593  11.237  57.526  1.00  0.00    -0.304 OA
HETATM    4  C6  UNL     1      -4.021  11.778  56.416  1.00  0.00     0.139 C 
HETATM    5  C16 UNL     1      -5.273  11.631  55.861  1.00  0.00     0.153 C 
HETATM    6  C17 UNL     1      -6.402  10.948  56.340  1.00  0.00     0.236 C 
HETATM    7  O13 UNL     1      -7.445  11.166  55.667  1.00  0.00    -0.283 OA
HETATM    8  C18 UNL     1      -6.503  10.097  57.421  1.00  0.00     0.114 C 
ENDROOT
BRANCH   4   9
HETATM    9  C7  UNL     1      -3.119  12.626  55.659  1.00  0.00     0.289 C 
BRANCH   9  10
HETATM   10  O5  UNL     1      -2.028  13.009  56.470  1.00  0.00    -0.370 OA
ATOM     11  H5  UNL     1      -1.300  13.282  55.923  1.00  0.00     0.212 HD
ENDBRANCH   9  10
BRANCH   9  12
HETATM   12  N2  UNL     1      -2.546  12.100  54.462  1.00  0.00    -0.282 N 
HETATM   13  C8  UNL     1      -2.584  12.747  53.284  1.00  0.00     0.083 A 
HETATM   14  C9  UNL     1      -3.227  14.102  53.169  1.00  0.00     0.089 C 
HETATM   15  N3  UNL     1      -2.051  12.179  52.191  1.00  0.00    -0.355 N 
HETATM   16  C10 UNL     1      -1.466  10.977  52.196  1.00  0.00     0.103 A 
ATOM     17  H3  UNL     1      -2.095  12.692  51.311  1.00  0.00     0.166 HD
HETATM   18  C11 UNL     1      -1.397  10.258  53.398  1.00  0.00     0.042 A 
HETATM   19  C14 UNL     1      -1.954  10.874  54.493  1.00  0.00     0.170 A 
BRANCH  18  20
HETATM   20  C12 UNL     1      -0.782   8.905  53.413  1.00  0.00     0.211 C 
BRANCH  20  21
HETATM   21  O6  UNL     1       0.437   8.828  54.023  1.00  0.00    -0.386 OA
ATOM     22  H6  UNL     1       0.459   9.131  54.923  1.00  0.00     0.210 HD
ENDBRANCH  20  21
BRANCH  20  23
HETATM   23  C13 UNL     1      -0.807   8.247  52.058  1.00  0.00     0.287 C 
BRANCH  23  24
HETATM   24  O7  UNL     1      -1.590   7.078  52.228  1.00  0.00    -0.368 OA
ATOM     25  H7  UNL     1      -1.867   6.835  51.352  1.00  0.00     0.212 HD
ENDBRANCH  23  24
BRANCH  23  26
HETATM   26  O8  UNL     1       0.433   7.780  51.636  1.00  0.00    -0.368 OA
ATOM     27  H8  UNL     1       0.763   8.215  50.859  1.00  0.00     0.212 HD
ENDBRANCH  23  26
ENDBRANCH  20  23
ENDBRANCH  18  20
BRANCH  19  28
HETATM   28  O9  UNL     1      -1.886  10.165  55.688  1.00  0.00    -0.235 OA
BRANCH  28  29
HETATM   29  C15 UNL     1      -2.234   8.832  55.830  1.00  0.00     0.339 C 
HETATM   30  O10 UNL     1      -3.344   8.408  55.485  1.00  0.00    -0.623 OA
HETATM   31  O11 UNL     1      -1.256   7.991  56.386  1.00  0.00    -0.623 OA
ENDBRANCH  28  29
ENDBRANCH  19  28
ENDBRANCH   9  12
ENDBRANCH   4   9
BRANCH   5  32
HETATM   32  O12 UNL     1      -5.486  12.240  54.641  1.00  0.00    -0.355 OA
ATOM     33  H12 UNL     1      -5.659  11.668  53.903  1.00  0.00     0.218 HD
ENDBRANCH   5  32
BRANCH   2  34
HETATM   34  C5  UNL     1      -3.531  10.217  59.696  1.00  0.00     0.315 C 
BRANCH  34  35
HETATM   35  O2  UNL     1      -4.376  10.500  60.774  1.00  0.00    -0.365 OA
ATOM     36  H2  UNL     1      -3.959  10.318  61.608  1.00  0.00     0.213 HD
ENDBRANCH  34  35
BRANCH  34  37
HETATM   37  O3  UNL     1      -2.354  10.929  59.812  1.00  0.00    -0.365 OA
ATOM     38  H3  UNL     1      -1.597  10.409  59.568  1.00  0.00     0.213 HD
ENDBRANCH  34  37
ENDBRANCH   2  34
BRANCH   1  39
HETATM   39  N1  UNL     1      -5.632   8.643  59.067  1.00  0.00    -0.323 N 
HETATM   40  C2  UNL     1      -5.533   7.387  58.410  1.00  0.00     0.218 C 
HETATM   41  C1  UNL     1      -5.762   6.117  59.170  1.00  0.00     0.117 C 
HETATM   42  O1  UNL     1      -5.252   7.281  57.170  1.00  0.00    -0.274 OA
ATOM     43  H1  UNL     1      -5.858   8.715  60.058  1.00  0.00     0.169 HD
ENDBRANCH   1  39
BRANCH   8  44
HETATM   44  N4  UNL     1      -7.577   9.533  57.722  1.00  0.00    -0.336 N 
HETATM   45  C19 UNL     1      -8.716   9.934  58.433  1.00  0.00     0.480 C 
HETATM   46  N5  UNL     1      -9.653  10.768  57.687  1.00  0.00    -0.033 N 
HETATM   47  N6  UNL     1      -9.467   8.691  58.773  1.00  0.00    -0.033 N 
ATOM     48  H53 UNL     1      -9.171  11.583  57.307  1.00  0.00     0.278 HD
ATOM     49  H52 UNL     1      -9.926  10.302  56.822  1.00  0.00     0.278 HD
ATOM     50  H51 UNL     1     -10.482  11.060  58.205  1.00  0.00     0.278 HD
ATOM     51  H63 UNL     1      -9.683   8.115  57.959  1.00  0.00     0.278 HD
ATOM     52  H62 UNL     1      -8.903   8.003  59.271  1.00  0.00     0.278 HD
ATOM     53  H61 UNL     1     -10.296   8.983  59.290  1.00  0.00     0.278 HD
ATOM     54  H4  UNL     1      -7.638   8.576  57.376  1.00  0.00     0.163 HD
ENDBRANCH   8  44
TORSDOF 16
ENDMDL
MODEL 2
REMARK VINA RESULT: -7.785721919      1.938      2.549
REMARK  16 active torsions:
REMARK  status: ('A' for Active; 'I' for Inactive)
REMARK       I    between atoms: C2_2  and  N1_4 
REMARK    1  A    between atoms: N1_4  and  C3_6 
REMARK    2  A    between atoms: C4_7  and  C5_8 
REMARK    3  A    between atoms: C5_8  and  O2_9 
REMARK    4  A    between atoms: C5_8  and  O3_11 
REMARK    5  A    between atoms: C6_14  and  C7_15 
REMARK    6  A    between atoms: C7_15  and  O5_16 
REMARK    7  A    between atoms: C7_15  and  N2_18 
REMARK    8  A    between atoms: C11_24  and  C12_25 
REMARK    9  A    between atoms: C12_25  and  O6_26 
REMARK   10  A    between atoms: C12_25  and  C13_28 
REMARK   11  A    between atoms: C13_28  and  O7_29 
REMARK   12  A    between atoms: C13_28  and  O8_31 
REMARK   13  A    between atoms: C14_33  and  O9_34 
REMARK   14  A    between atoms: O9_34  and  C15_35 
REMARK   15  A    between atoms: C16_38  and  O12_39 
REMARK   16  A    between atoms: C18_43  and  N4_44 
REMARK       I    between atoms: N4_44  and  C19_46 
REMARK       I    between atoms: C19_46  and  N5_47 
REMARK       I    between atoms: C19_46  and  N6_51 
ROOT
HETATM    1  C3  UNL     1      -5.303  11.525  59.606  1.00  0.00     0.100 C 
HETATM    2  C4  UNL     1      -4.358  12.220  58.905  1.00  0.00     0.137 C 
HETATM    3  O4  UNL     1      -4.109  12.191  57.614  1.00  0.00    -0.304 OA
HETATM    4  C6  UNL     1      -4.789  11.675  56.625  1.00  0.00     0.139 C 
HETATM    5  C16 UNL     1      -5.983  10.993  56.717  1.00  0.00     0.153 C 
HETATM    6  C17 UNL     1      -6.793  10.733  57.834  1.00  0.00     0.236 C 
HETATM    7  O13 UNL     1      -7.913  10.237  57.537  1.00  0.00    -0.283 OA
HETATM    8  C18 UNL     1      -6.520  10.947  59.168  1.00  0.00     0.114 C 
ENDROOT
BRANCH   4   9
HETATM    9  C7  UNL     1      -4.271  11.809  55.276  1.00  0.00     0.289 C 
BRANCH   9  10
HETATM   10  O5  UNL     1      -4.289  13.168  54.889  1.00  0.00    -0.370 OA
ATOM     11  H5  UNL     1      -3.495  13.598  55.184  1.00  0.00     0.212 HD
ENDBRANCH   9  10
BRANCH   9  12
HETATM   12  N2  UNL     1      -2.945  11.350  55.015  1.00  0.00    -0.282 N 
HETATM   13  C8  UNL     1      -1.898  12.180  54.865  1.00  0.00     0.083 A 
HETATM   14  C9  UNL     1      -2.069  13.669  54.994  1.00  0.00     0.089 C 
HETATM   15  N3  UNL     1      -0.683  11.681  54.589  1.00  0.00    -0.355 N 
HETATM   16  C10 UNL     1      -0.437  10.374  54.451  1.00  0.00     0.103 A 
ATOM     17  H3  UNL     1       0.094  12.333  54.480  1.00  0.00     0.166 HD
HETATM   18  C11 UNL     1      -1.494   9.463  54.597  1.00  0.00     0.042 A 
HETATM   19  C14 UNL     1      -2.720  10.014  54.879  1.00  0.00     0.170 A 
BRANCH  18  20
HETATM   20  C12 UNL     1      -1.244   8.009  54.411  1.00  0.00     0.211 C 
BRANCH  20  21
HETATM   21  O6  UNL     1      -0.570   7.400  55.429  1.00  0.00    -0.386 OA
ATOM     22  H6  UNL     1      -1.104   7.150  56.174  1.00  0.00     0.210 HD
ENDBRANCH  20  21
BRANCH  20  23
HETATM   23  C13 UNL     1      -0.674   7.693  53.053  1.00  0.00     0.287 C 
BRANCH  23  24
HETATM   24  O7  UNL     1      -1.658   6.899  52.412  1.00  0.00    -0.368 OA
ATOM     25  H7  UNL     1      -2.442   7.435  52.401  1.00  0.00     0.212 HD
ENDBRANCH  23  24
BRANCH  23  26
HETATM   26  O8  UNL     1       0.457   6.887  53.091  1.00  0.00    -0.368 OA
ATOM     27  H8  UNL     1       1.192   7.230  52.596  1.00  0.00     0.212 HD
ENDBRANCH  23  26
ENDBRANCH  20  23
ENDBRANCH  18  20
BRANCH  19  28
HETATM   28  O9  UNL     1      -3.771   9.114  55.027  1.00  0.00    -0.235 OA
BRANCH  28  29
HETATM   29  C15 UNL     1      -4.063   8.437  56.200  1.00  0.00     0.339 C 
HETATM   30  O10 UNL     1      -3.359   8.549  57.211  1.00  0.00    -0.623 OA
HETATM   31  O11 UNL     1      -5.204   7.618  56.175  1.00  0.00    -0.623 OA
ENDBRANCH  28  29
ENDBRANCH  19  28
ENDBRANCH   9  12
ENDBRANCH   4   9
BRANCH   5  32
HETATM   32  O12 UNL     1      -6.491  10.472  55.545  1.00  0.00    -0.355 OA
ATOM     33  H12 UNL     1      -5.860  10.210  54.886  1.00  0.00     0.218 HD
ENDBRANCH   5  32
BRANCH   2  34
HETATM   34  C5  UNL     1      -3.523  13.116  59.749  1.00  0.00     0.315 C 
BRANCH  34  35
HETATM   35  O2  UNL     1      -4.253  14.208  60.229  1.00  0.00    -0.365 OA
ATOM     36  H2  UNL     1      -4.352  14.885  59.569  1.00  0.00     0.213 HD
ENDBRANCH  34  35
BRANCH  34  37
HETATM   37  O3  UNL     1      -2.394  13.550  59.084  1.00  0.00    -0.365 OA
ATOM     38  H3  UNL     1      -2.080  14.382  59.420  1.00  0.00     0.213 HD
ENDBRANCH  34  37
ENDBRANCH   2  34
BRANCH   1  39
HETATM   39  N1  UNL     1      -5.087  11.312  61.010  1.00  0.00    -0.323 N 
HETATM   40  C2  UNL     1      -4.160  10.294  61.360  1.00  0.00     0.218 C 
HETATM   41  C1  UNL     1      -3.870   9.998  62.800  1.00  0.00     0.117 C 
HETATM   42  O1  UNL     1      -3.544   9.596  60.487  1.00  0.00    -0.274 OA
ATOM     43  H1  UNL     1      -5.573  11.863  61.718  1.00  0.00     0.169 HD
ENDBRANCH   1  39
BRANCH   8  44
HETATM   44  N4  UNL     1      -7.333  10.642  60.068  1.00  0.00    -0.336 N 
HETATM   45  C19 UNL     1      -8.429  11.297  60.646  1.00  0.00     0.480 C 
HETATM   46  N5  UNL     1      -9.661  11.256  59.865  1.00  0.00    -0.033 N 
HETATM   47  N6  UNL     1      -8.734  10.578  61.917  1.00  0.00    -0.033 N 
ATOM     48  H53 UNL     1      -9.492  11.616  58.925  1.00  0.00     0.278 HD
ATOM     49  H52 UNL     1      -9.905  10.291  59.645  1.00  0.00     0.278 HD
ATOM     50  H51 UNL     1     -10.458  11.733  60.285  1.00  0.00     0.278 HD
ATOM     51  H63 UNL     1      -8.886   9.577  61.787  1.00  0.00     0.278 HD
ATOM     52  H62 UNL     1      -7.932  10.506  62.542  1.00  0.00     0.278 HD
ATOM     53  H61 UNL     1      -9.532  11.055  62.337  1.00  0.00     0.278 HD
ATOM     54  H4  UNL     1      -7.163   9.720  60.467  1.00  0.00     0.163 HD
ENDBRANCH   8  44
TORSDOF 16
ENDMDL
MODEL 3
REMARK VINA RESULT: -7.717107376      1.876      2.700
REMARK  16 active torsions:
REMARK  status: ('A' for Active; 'I' for Inactive)
REMARK       I    between atoms: C2_2  and  N1_4 
REMARK    1  A    between atoms: N1_4  and  C3_6 
REMARK    2  A    between atoms: C4_7  and  C5_8 
REMARK    3  A    between atoms: C5_8  and  O2_9 
REMARK    4  A    between atoms: C5_8  and  O3_11 
REMARK    5  A    between atoms: C6_14  and  C7_15 
REMARK    6  A    between atoms: C7_15  and  O5_16 
REMARK    7  A    between atoms: C7_15  and  N2_18 
REMARK    8  A    between atoms: C11_24  and  C12_25 
REMARK    9  A    between atoms: C12_25  and  O6_26 
REMARK   10  A    between atoms: C12_25  and  C13_28 
REMARK   11  A    between atoms: C13_28  and  O7_29 
REMARK   12  A    between atoms: C13_28  and  O8_31 
REMARK   13  A    between atoms: C14_33  and  O9_34 
REMARK   14  A    between atoms: O9_34  and  C15_35 
REMARK   15  A    between atoms: C16_38  and  O12_39 
REMARK   16  A    between atoms: C18_43  and  N4_44 
REMARK       I    between atoms: N4_44  and  C19_46 
REMARK       I    between atoms: C19_46  and  N5_47 
REMARK       I    between atoms: C19_46  and  N6_51 
ROOT
HETATM    1  C3  UNL     1      -5.353  11.063  59.606  1.00  0.00     0.100 C 
HETATM    2  C4  UNL     1      -4.226  11.511  58.976  1.00  0.00     0.137 C 
HETATM    3  O4  UNL     1      -4.008  11.651  57.687  1.00  0.00    -0.304 OA
HETATM    4  C6  UNL     1      -4.831  11.609  56.673  1.00  0.00     0.139 C 
HETATM    5  C16 UNL     1      -6.188  11.379  56.726  1.00  0.00     0.153 C 
HETATM    6  C17 UNL     1      -7.033  11.202  57.833  1.00  0.00     0.236 C 
HETATM    7  O13 UNL     1      -8.258  11.194  57.534  1.00  0.00    -0.283 OA
HETATM    8  C18 UNL     1      -6.697  11.041  59.161  1.00  0.00     0.114 C 
ENDROOT
BRANCH   4   9
HETATM    9  C7  UNL     1      -4.304  11.817  55.337  1.00  0.00     0.289 C 
BRANCH   9  10
HETATM   10  O5  UNL     1      -4.306  13.197  55.031  1.00  0.00    -0.370 OA
ATOM     11  H5  UNL     1      -3.994  13.693  55.779  1.00  0.00     0.212 HD
ENDBRANCH   9  10
BRANCH   9  12
HETATM   12  N2  UNL     1      -2.982  11.360  55.055  1.00  0.00    -0.282 N 
HETATM   13  C8  UNL     1      -1.938  12.191  54.889  1.00  0.00     0.083 A 
HETATM   14  C9  UNL     1      -2.109  13.680  55.021  1.00  0.00     0.089 C 
HETATM   15  N3  UNL     1      -0.727  11.694  54.595  1.00  0.00    -0.355 N 
HETATM   16  C10 UNL     1      -0.482  10.387  54.452  1.00  0.00     0.103 A 
ATOM     17  H3  UNL     1       0.047  12.347  54.474  1.00  0.00     0.166 HD
HETATM   18  C11 UNL     1      -1.534   9.475  54.614  1.00  0.00     0.042 A 
HETATM   19  C14 UNL     1      -2.757  10.024  54.915  1.00  0.00     0.170 A 
BRANCH  18  20
HETATM   20  C12 UNL     1      -1.286   8.022  54.424  1.00  0.00     0.211 C 
BRANCH  20  21
HETATM   21  O6  UNL     1      -0.646   7.401  55.457  1.00  0.00    -0.386 OA
ATOM     22  H6  UNL     1      -1.209   6.921  56.052  1.00  0.00     0.210 HD
ENDBRANCH  20  21
BRANCH  20  23
HETATM   23  C13 UNL     1      -0.677   7.714  53.081  1.00  0.00     0.287 C 
BRANCH  23  24
HETATM   24  O7  UNL     1      -1.644   6.928  52.405  1.00  0.00    -0.368 OA
ATOM     25  H7  UNL     1      -1.798   7.376  51.582  1.00  0.00     0.212 HD
ENDBRANCH  23  24
BRANCH  23  26
HETATM   26  O8  UNL     1       0.450   6.902  53.147  1.00  0.00    -0.368 OA
ATOM     27  H8  UNL     1       1.240   7.314  52.818  1.00  0.00     0.212 HD
ENDBRANCH  23  26
ENDBRANCH  20  23
ENDBRANCH  18  20
BRANCH  19  28
HETATM   28  O9  UNL     1      -3.804   9.123  55.080  1.00  0.00    -0.235 OA
BRANCH  28  29
HETATM   29  C15 UNL     1      -4.107   8.481  56.270  1.00  0.00     0.339 C 
HETATM   30  O10 UNL     1      -3.279   8.378  57.183  1.00  0.00    -0.623 OA
HETATM   31  O11 UNL     1      -5.405   7.956  56.378  1.00  0.00    -0.623 OA
ENDBRANCH  28  29
ENDBRANCH  19  28
ENDBRANCH   9  12
ENDBRANCH   4   9
BRANCH   5  32
HETATM   32  O12 UNL     1      -6.853  11.308  55.520  1.00  0.00    -0.355 OA
ATOM     33  H12 UNL     1      -7.295  12.097  55.229  1.00  0.00     0.218 HD
ENDBRANCH   5  32
BRANCH   2  34
HETATM   34  C5  UNL     1      -3.124  11.877  59.906  1.00  0.00     0.315 C 
BRANCH  34  35
HETATM   35  O2  UNL     1      -2.339  12.916  59.399  1.00  0.00    -0.365 OA
ATOM     36  H2  UNL     1      -1.986  13.463  60.091  1.00  0.00     0.213 HD
ENDBRANCH  34  35
BRANCH  34  37
HETATM   37  O3  UNL     1      -2.333  10.792  60.224  1.00  0.00    -0.365 OA
ATOM     38  H3  UNL     1      -1.559  11.046  60.714  1.00  0.00     0.213 HD
ENDBRANCH  34  37
ENDBRANCH   2  34
BRANCH   1  39
HETATM   39  N1  UNL     1      -5.221  10.517  60.929  1.00  0.00    -0.323 N 
HETATM   40  C2  UNL     1      -5.506  11.396  62.007  1.00  0.00     0.218 C 
HETATM   41  C1  UNL     1      -5.395  10.917  63.422  1.00  0.00     0.117 C 
HETATM   42  O1  UNL     1      -5.861  12.609  61.829  1.00  0.00    -0.274 OA
ATOM     43  H1  UNL     1      -4.937   9.550  61.084  1.00  0.00     0.169 HD
ENDBRANCH   1  39
BRANCH   8  44
HETATM   44  N4  UNL     1      -7.562  10.867  60.047  1.00  0.00    -0.336 N 
HETATM   45  C19 UNL     1      -8.642   9.985  60.187  1.00  0.00     0.480 C 
HETATM   46  N5  UNL     1      -8.290   8.636  60.617  1.00  0.00    -0.033 N 
HETATM   47  N6  UNL     1      -9.507  10.539  61.269  1.00  0.00    -0.033 N 
ATOM     48  H53 UNL     1      -7.592   8.239  59.989  1.00  0.00     0.278 HD
ATOM     49  H52 UNL     1      -7.752   8.672  61.482  1.00  0.00     0.278 HD
ATOM     50  H51 UNL     1      -9.076   7.994  60.719  1.00  0.00     0.278 HD
ATOM     51  H63 UNL     1      -9.006  10.703  62.142  1.00  0.00     0.278 HD
ATOM     52  H62 UNL     1      -9.794  11.503  61.102  1.00  0.00     0.278 HD
ATOM     53  H61 UNL     1     -10.293   9.897  61.371  1.00  0.00     0.278 HD
ATOM     54  H4  UNL     1      -7.460  11.503  60.837  1.00  0.00     0.163 HD
ENDBRANCH   8  44
TORSDOF 16
ENDMDL
MODEL 4
REMARK VINA RESULT: -7.620795715      2.568      4.265
REMARK  16 active torsions:
REMARK  status: ('A' for Active; 'I' for Inactive)
REMARK       I    between atoms: C2_2  and  N1_4 
REMARK    1  A    between atoms: N1_4  and  C3_6 
REMARK    2  A    between atoms: C4_7  and  C5_8 
REMARK    3  A    between atoms: C5_8  and  O2_9 
REMARK    4  A    between atoms: C5_8  and  O3_11 
REMARK    5  A    between atoms: C6_14  and  C7_15 
REMARK    6  A    between atoms: C7_15  and  O5_16 
REMARK    7  A    between atoms: C7_15  and  N2_18 
REMARK    8  A    between atoms: C11_24  and  C12_25 
REMARK    9  A    between atoms: C12_25  and  O6_26 
REMARK   10  A    between atoms: C12_25  and  C13_28 
REMARK   11  A    between atoms: C13_28  and  O7_29 
REMARK   12  A    between atoms: C13_28  and  O8_31 
REMARK   13  A    between atoms: C14_33  and  O9_34 
REMARK   14  A    between atoms: O9_34  and  C15_35 
REMARK   15  A    between atoms: C16_38  and  O12_39 
REMARK   16  A    between atoms: C18_43  and  N4_44 
REMARK       I    between atoms: N4_44  and  C19_46 
REMARK       I    between atoms: C19_46  and  N5_47 
REMARK       I    between atoms: C19_46  and  N6_51 
ROOT
HETATM    1  C3  UNL     1      -6.143  11.417  59.709  1.00  0.00     0.100 C 
HETATM    2  C4  UNL     1      -6.672  11.300  58.455  1.00  0.00     0.137 C 
HETATM    3  O4  UNL     1      -6.083  10.898  57.350  1.00  0.00    -0.304 OA
HETATM    4  C6  UNL     1      -4.928  10.317  57.162  1.00  0.00     0.139 C 
HETATM    5  C16 UNL     1      -4.007   9.987  58.133  1.00  0.00     0.153 C 
HETATM    6  C17 UNL     1      -4.077  10.118  59.529  1.00  0.00     0.236 C 
HETATM    7  O13 UNL     1      -3.130   9.548  60.135  1.00  0.00    -0.283 OA
HETATM    8  C18 UNL     1      -5.024  10.770  60.289  1.00  0.00     0.114 C 
ENDROOT
BRANCH   4   9
HETATM    9  C7  UNL     1      -4.534   9.967  55.811  1.00  0.00     0.289 C 
BRANCH   9  10
HETATM   10  O5  UNL     1      -5.642  10.087  54.942  1.00  0.00    -0.370 OA
ATOM     11  H5  UNL     1      -6.335  10.577  55.369  1.00  0.00     0.212 HD
ENDBRANCH   9  10
BRANCH   9  12
HETATM   12  N2  UNL     1      -3.481  10.713  55.200  1.00  0.00    -0.282 N 
HETATM   13  C8  UNL     1      -3.516  12.049  55.059  1.00  0.00     0.083 A 
HETATM   14  C9  UNL     1      -4.682  12.849  55.571  1.00  0.00     0.089 C 
HETATM   15  N3  UNL     1      -2.504  12.684  54.447  1.00  0.00    -0.355 N 
HETATM   16  C10 UNL     1      -1.431  12.056  53.954  1.00  0.00     0.103 A 
ATOM     17  H3  UNL     1      -2.556  13.698  54.352  1.00  0.00     0.166 HD
HETATM   18  C11 UNL     1      -1.343  10.662  54.074  1.00  0.00     0.042 A 
HETATM   19  C14 UNL     1      -2.398  10.051  54.707  1.00  0.00     0.170 A 
BRANCH  18  20
HETATM   20  C12 UNL     1      -0.173   9.945  53.501  1.00  0.00     0.211 C 
BRANCH  20  21
HETATM   21  O6  UNL     1       1.033  10.268  54.050  1.00  0.00    -0.386 OA
ATOM     22  H6  UNL     1       1.701  10.536  53.430  1.00  0.00     0.210 HD
ENDBRANCH  20  21
BRANCH  20  23
HETATM   23  C13 UNL     1      -0.163   9.975  51.994  1.00  0.00     0.287 C 
BRANCH  23  24
HETATM   24  O7  UNL     1      -0.820   8.784  51.594  1.00  0.00    -0.368 OA
ATOM     25  H7  UNL     1      -0.903   8.851  50.650  1.00  0.00     0.212 HD
ENDBRANCH  23  24
BRANCH  23  26
HETATM   26  O8  UNL     1       1.107   9.878  51.438  1.00  0.00    -0.368 OA
ATOM     27  H8  UNL     1       1.286  10.530  50.770  1.00  0.00     0.212 HD
ENDBRANCH  23  26
ENDBRANCH  20  23
ENDBRANCH  18  20
BRANCH  19  28
HETATM   28  O9  UNL     1      -2.314   8.668  54.831  1.00  0.00    -0.235 OA
BRANCH  28  29
HETATM   29  C15 UNL     1      -1.185   7.986  55.258  1.00  0.00     0.339 C 
HETATM   30  O10 UNL     1      -0.800   8.034  56.433  1.00  0.00    -0.623 OA
HETATM   31  O11 UNL     1      -0.507   7.237  54.283  1.00  0.00    -0.623 OA
ENDBRANCH  28  29
ENDBRANCH  19  28
ENDBRANCH   9  12
ENDBRANCH   4   9
BRANCH   5  32
HETATM   32  O12 UNL     1      -2.818   9.440  57.699  1.00  0.00    -0.355 OA
ATOM     33  H12 UNL     1      -2.399   8.815  58.278  1.00  0.00     0.218 HD
ENDBRANCH   5  32
BRANCH   2  34
HETATM   34  C5  UNL     1      -8.106  11.688  58.370  1.00  0.00     0.315 C 
BRANCH  34  35
HETATM   35  O2  UNL     1      -8.913  10.873  59.168  1.00  0.00    -0.365 OA
ATOM     36  H2  UNL     1      -9.835  10.976  58.960  1.00  0.00     0.213 HD
ENDBRANCH  34  35
BRANCH  34  37
HETATM   37  O3  UNL     1      -8.566  11.690  57.069  1.00  0.00    -0.365 OA
ATOM     38  H3  UNL     1      -8.867  12.550  56.798  1.00  0.00     0.213 HD
ENDBRANCH  34  37
ENDBRANCH   2  34
BRANCH   1  39
HETATM   39  N1  UNL     1      -6.773  12.322  60.631  1.00  0.00    -0.323 N 
HETATM   40  C2  UNL     1      -6.276  13.653  60.649  1.00  0.00     0.218 C 
HETATM   41  C1  UNL     1      -6.869  14.668  61.577  1.00  0.00     0.117 C 
HETATM   42  O1  UNL     1      -5.323  14.041  59.894  1.00  0.00    -0.274 OA
ATOM     43  H1  UNL     1      -7.535  12.025  61.239  1.00  0.00     0.169 HD
ENDBRANCH   1  39
BRANCH   8  44
HETATM   44  N4  UNL     1      -4.948  10.827  61.536  1.00  0.00    -0.336 N 
HETATM   45  C19 UNL     1      -3.950  11.238  62.429  1.00  0.00     0.480 C 
HETATM   46  N5  UNL     1      -3.830  12.682  62.606  1.00  0.00    -0.033 N 
HETATM   47  N6  UNL     1      -4.325  10.699  63.768  1.00  0.00    -0.033 N 
ATOM     48  H53 UNL     1      -3.702  13.136  61.701  1.00  0.00     0.278 HD
ATOM     49  H52 UNL     1      -4.729  13.078  62.879  1.00  0.00     0.278 HD
ATOM     50  H51 UNL     1      -3.103  12.981  63.255  1.00  0.00     0.278 HD
ATOM     51  H63 UNL     1      -5.264  10.969  64.062  1.00  0.00     0.278 HD
ATOM     52  H62 UNL     1      -4.476   9.691  63.769  1.00  0.00     0.278 HD
ATOM     53  H61 UNL     1      -3.598  10.999  64.417  1.00  0.00     0.278 HD
ATOM     54  H4  UNL     1      -5.795  10.505  62.004  1.00  0.00     0.163 HD
ENDBRANCH   8  44
TORSDOF 16
ENDMDL
MODEL 5
REMARK VINA RESULT: -7.587223222      2.478      3.370
REMARK  16 active torsions:
REMARK  status: ('A' for Active; 'I' for Inactive)
REMARK       I    between atoms: C2_2  and  N1_4 
REMARK    1  A    between atoms: N1_4  and  C3_6 
REMARK    2  A    between atoms: C4_7  and  C5_8 
REMARK    3  A    between atoms: C5_8  and  O2_9 
REMARK    4  A    between atoms: C5_8  and  O3_11 
REMARK    5  A    between atoms: C6_14  and  C7_15 
REMARK    6  A    between atoms: C7_15  and  O5_16 
REMARK    7  A    between atoms: C7_15  and  N2_18 
REMARK    8  A    between atoms: C11_24  and  C12_25 
REMARK    9  A    between atoms: C12_25  and  O6_26 
REMARK   10  A    between atoms: C12_25  and  C13_28 
REMARK   11  A    between atoms: C13_28  and  O7_29 
REMARK   12  A    between atoms: C13_28  and  O8_31 
REMARK   13  A    between atoms: C14_33  and  O9_34 
REMARK   14  A    between atoms: O9_34  and  C15_35 
REMARK   15  A    between atoms: C16_38  and  O12_39 
REMARK   16  A    between atoms: C18_43  and  N4_44 
REMARK       I    between atoms: N4_44  and  C19_46 
REMARK       I    between atoms: C19_46  and  N5_47 
REMARK       I    between atoms: C19_46  and  N6_51 
ROOT
HETATM    1  C3  UNL     1      -5.497  12.351  59.883  1.00  0.00     0.100 C 
HETATM    2  C4  UNL     1      -4.709  12.582  58.791  1.00  0.00     0.137 C 
HETATM    3  O4  UNL     1      -4.837  12.105  57.572  1.00  0.00    -0.304 OA
HETATM    4  C6  UNL     1      -5.824  11.463  57.007  1.00  0.00     0.139 C 
HETATM    5  C16 UNL     1      -7.018  11.109  57.596  1.00  0.00     0.153 C 
HETATM    6  C17 UNL     1      -7.508  11.380  58.882  1.00  0.00     0.236 C 
HETATM    7  O13 UNL     1      -8.719  11.063  59.036  1.00  0.00    -0.283 OA
HETATM    8  C18 UNL     1      -6.849  11.934  59.960  1.00  0.00     0.114 C 
ENDROOT
BRANCH   4   9
HETATM    9  C7  UNL     1      -5.692  11.064  55.618  1.00  0.00     0.289 C 
BRANCH   9  10
HETATM   10  O5  UNL     1      -6.392  11.970  54.790  1.00  0.00    -0.370 OA
ATOM     11  H5  UNL     1      -5.777  12.450  54.246  1.00  0.00     0.212 HD
ENDBRANCH   9  10
BRANCH   9  12
HETATM   12  N2  UNL     1      -4.380  10.969  55.066  1.00  0.00    -0.282 N 
HETATM   13  C8  UNL     1      -3.797  11.970  54.382  1.00  0.00     0.083 A 
HETATM   14  C9  UNL     1      -4.506  13.282  54.182  1.00  0.00     0.089 C 
HETATM   15  N3  UNL     1      -2.571  11.801  53.863  1.00  0.00    -0.355 N 
HETATM   16  C10 UNL     1      -1.869  10.670  53.985  1.00  0.00     0.103 A 
ATOM     17  H3  UNL     1      -2.153  12.576  53.349  1.00  0.00     0.166 HD
HETATM   18  C11 UNL     1      -2.428   9.593  54.688  1.00  0.00     0.042 A 
HETATM   19  C14 UNL     1      -3.683   9.807  55.204  1.00  0.00     0.170 A 
BRANCH  18  20
HETATM   20  C12 UNL     1      -1.675   8.316  54.802  1.00  0.00     0.211 C 
BRANCH  20  21
HETATM   21  O6  UNL     1      -0.923   8.184  55.932  1.00  0.00    -0.386 OA
ATOM     22  H6  UNL     1      -0.317   7.452  55.932  1.00  0.00     0.210 HD
ENDBRANCH  20  21
BRANCH  20  23
HETATM   23  C13 UNL     1      -0.915   7.983  53.545  1.00  0.00     0.287 C 
BRANCH  23  24
HETATM   24  O7  UNL     1      -1.792   7.171  52.784  1.00  0.00    -0.368 OA
ATOM     25  H7  UNL     1      -1.407   6.303  52.803  1.00  0.00     0.212 HD
ENDBRANCH  23  24
BRANCH  23  26
HETATM   26  O8  UNL     1       0.204   7.186  53.758  1.00  0.00    -0.368 OA
ATOM     27  H8  UNL     1       0.890   7.613  54.258  1.00  0.00     0.212 HD
ENDBRANCH  23  26
ENDBRANCH  20  23
ENDBRANCH  18  20
BRANCH  19  28
HETATM   28  O9  UNL     1      -4.242   8.742  55.904  1.00  0.00    -0.235 OA
BRANCH  28  29
HETATM   29  C15 UNL     1      -3.997   8.467  57.240  1.00  0.00     0.339 C 
HETATM   30  O10 UNL     1      -4.491   7.484  57.804  1.00  0.00    -0.623 OA
HETATM   31  O11 UNL     1      -3.155   9.367  57.914  1.00  0.00    -0.623 OA
ENDBRANCH  28  29
ENDBRANCH  19  28
ENDBRANCH   9  12
ENDBRANCH   4   9
BRANCH   5  32
HETATM   32  O12 UNL     1      -7.893  10.370  56.827  1.00  0.00    -0.355 OA
ATOM     33  H12 UNL     1      -7.782  10.422  55.885  1.00  0.00     0.218 HD
ENDBRANCH   5  32
BRANCH   2  34
HETATM   34  C5  UNL     1      -3.569  13.499  59.057  1.00  0.00     0.315 C 
BRANCH  34  35
HETATM   35  O2  UNL     1      -3.401  14.432  58.030  1.00  0.00    -0.365 OA
ATOM     36  H2  UNL     1      -2.942  15.209  58.329  1.00  0.00     0.213 HD
ENDBRANCH  34  35
BRANCH  34  37
HETATM   37  O3  UNL     1      -2.392  12.812  59.276  1.00  0.00    -0.365 OA
ATOM     38  H3  UNL     1      -1.654  13.399  59.398  1.00  0.00     0.213 HD
ENDBRANCH  34  37
ENDBRANCH   2  34
BRANCH   1  39
HETATM   39  N1  UNL     1      -4.924  12.541  61.187  1.00  0.00    -0.323 N 
HETATM   40  C2  UNL     1      -4.309  11.406  61.779  1.00  0.00     0.218 C 
HETATM   41  C1  UNL     1      -3.684  11.506  63.137  1.00  0.00     0.117 C 
HETATM   42  O1  UNL     1      -4.259  10.271  61.199  1.00  0.00    -0.274 OA
ATOM     43  H1  UNL     1      -4.957  13.443  61.662  1.00  0.00     0.169 HD
ENDBRANCH   1  39
BRANCH   8  44
HETATM   44  N4  UNL     1      -7.409  12.099  61.066  1.00  0.00    -0.336 N 
HETATM   45  C19 UNL     1      -8.193  13.123  61.612  1.00  0.00     0.480 C 
HETATM   46  N5  UNL     1      -9.589  13.131  61.186  1.00  0.00    -0.033 N 
HETATM   47  N6  UNL     1      -8.224  12.898  63.086  1.00  0.00    -0.033 N 
ATOM     48  H53 UNL     1      -9.645  13.150  60.168  1.00  0.00     0.278 HD
ATOM     49  H52 UNL     1     -10.018  12.224  61.371  1.00  0.00     0.278 HD
ATOM     50  H51 UNL     1     -10.160  13.876  61.583  1.00  0.00     0.278 HD
ATOM     51  H63 UNL     1      -8.544  11.965  63.345  1.00  0.00     0.278 HD
ATOM     52  H62 UNL     1      -7.296  12.836  63.503  1.00  0.00     0.278 HD
ATOM     53  H61 UNL     1      -8.795  13.644  63.483  1.00  0.00     0.278 HD
ATOM     54  H4  UNL     1      -7.263  11.321  61.709  1.00  0.00     0.163 HD
ENDBRANCH   8  44
TORSDOF 16
ENDMDL
