MODEL 1
REMARK VINA RESULT: -9.315757271      0.000      0.000
REMARK  17 active torsions:
REMARK  status: ('A' for Active; 'I' for Inactive)
REMARK    1  A    between atoms: N1_1  and  C1_4 
REMARK    2  A    between atoms: C2_7  and  N3_8 
REMARK    3  A    between atoms: N4_11  and  C3_12 
REMARK    4  A    between atoms: C4_16  and  C5_17 
REMARK    5  A    between atoms: C4_16  and  C6_20 
REMARK    6  A    between atoms: C5_17  and  O1_18 
REMARK    7  A    between atoms: C6_20  and  O2_21 
REMARK    8  A    between atoms: O2_21  and  C7_22 
REMARK    9  A    between atoms: C7_22  and  C8_24 
REMARK   10  A    between atoms: C9_25  and  C10_26 
REMARK   11  A    between atoms: C10_26  and  O4_27 
REMARK   12  A    between atoms: C10_26  and  O5_29 
REMARK   13  A    between atoms: C11_32  and  C12_33 
REMARK   14  A    between atoms: C12_33  and  O7_34 
REMARK   15  A    between atoms: C12_33  and  O8_36 
REMARK   16  A    between atoms: C16_43  and  S1_44 
REMARK   17  A    between atoms: S1_44  and  N7_45 
ROOT
HETATM    1  C3  UNL     1      -4.941   8.658  57.725  1.00  0.00     0.259 C 
HETATM    2  N5  UNL     1      -4.103   9.483  58.259  1.00  0.00    -0.265 N 
ATOM      3  H5  UNL     1      -3.993   9.644  59.260  1.00  0.00     0.186 HD
HETATM    4  N6  UNL     1      -3.370  10.117  57.257  1.00  0.00    -0.094 NA
HETATM    5  C4  UNL     1      -4.070   9.948  56.008  1.00  0.00     0.202 C 
HETATM    6  O10 UNL     1      -4.799   8.712  56.363  1.00  0.00    -0.285 OA
ENDROOT
BRANCH   5   7
HETATM    7  C5  UNL     1      -5.147  10.926  55.735  1.00  0.00     0.225 C 
BRANCH   7   8
HETATM    8  O1  UNL     1      -6.181  10.403  54.968  1.00  0.00    -0.396 OA
ATOM      9  H1  UNL     1      -5.994  10.406  54.037  1.00  0.00     0.209 HD
ENDBRANCH   7   8
ENDBRANCH   5   7
BRANCH   5  10
HETATM   10  C6  UNL     1      -3.193   9.520  54.891  1.00  0.00     0.240 C 
BRANCH  10  11
HETATM   11  O2  UNL     1      -2.427   8.390  55.012  1.00  0.00    -0.313 OA
BRANCH  11  12
HETATM   12  C7  UNL     1      -1.145   8.059  54.664  1.00  0.00     0.300 C 
HETATM   13  O3  UNL     1      -0.547   7.365  55.498  1.00  0.00    -0.259 OA
BRANCH  12  14
HETATM   14  C8  UNL     1      -0.599   8.531  53.378  1.00  0.00     0.124 A 
HETATM   15  C9  UNL     1       0.143   9.648  53.252  1.00  0.00     0.128 A 
HETATM   16  O6  UNL     1       0.515  10.056  52.021  1.00  0.00    -0.308 OA
HETATM   17  C11 UNL     1       0.216   9.453  50.914  1.00  0.00     0.111 A 
HETATM   18  C13 UNL     1      -0.539   8.304  50.995  1.00  0.00     0.093 A 
HETATM   19  C14 UNL     1      -0.956   7.827  52.209  1.00  0.00     0.193 A 
HETATM   20  O9  UNL     1      -1.644   6.788  52.350  1.00  0.00    -0.287 OA
BRANCH  15  21
HETATM   21  C10 UNL     1       0.583  10.446  54.412  1.00  0.00     0.314 C 
BRANCH  21  22
HETATM   22  O4  UNL     1       1.362   9.819  55.342  1.00  0.00    -0.365 OA
ATOM     23  H4  UNL     1       1.185   8.901  55.510  1.00  0.00     0.213 HD
ENDBRANCH  21  22
BRANCH  21  24
HETATM   24  O5  UNL     1      -0.485  11.148  54.992  1.00  0.00    -0.365 OA
ATOM     25  H5  UNL     1      -0.347  12.088  54.957  1.00  0.00     0.213 HD
ENDBRANCH  21  24
ENDBRANCH  15  21
BRANCH  17  26
HETATM   26  C12 UNL     1       0.678   9.987  49.588  1.00  0.00     0.312 C 
BRANCH  26  27
HETATM   27  O7  UNL     1       0.317  11.305  49.404  1.00  0.00    -0.365 OA
ATOM     28  H7  UNL     1       0.550  11.847  50.148  1.00  0.00     0.213 HD
ENDBRANCH  26  27
BRANCH  26  29
HETATM   29  O8  UNL     1       2.051   9.877  49.492  1.00  0.00    -0.365 OA
ATOM     30  H8  UNL     1       2.462  10.343  50.210  1.00  0.00     0.213 HD
ENDBRANCH  26  29
ENDBRANCH  17  26
ENDBRANCH  12  14
ENDBRANCH  11  12
ENDBRANCH  10  11
ENDBRANCH   5  10
BRANCH   1  31
HETATM   31  N4  UNL     1      -5.871   7.818  58.401  1.00  0.00    -0.118 N 
HETATM   32  C2  UNL     1      -5.586   6.507  58.585  1.00  0.00     0.687 A 
HETATM   33  N2  UNL     1      -6.417   5.661  59.214  1.00  0.00    -0.175 N 
HETATM   34  C1  UNL     1      -7.593   6.089  59.699  1.00  0.00     0.139 A 
ATOM     35  H2  UNL     1      -6.152   4.683  59.325  1.00  0.00     0.186 HD
HETATM   36  C16 UNL     1      -7.913   7.406  59.531  1.00  0.00     0.139 A 
HETATM   37  C15 UNL     1      -7.042   8.256  58.882  1.00  0.00     0.148 A 
BRANCH  32  38
HETATM   38  N3  UNL     1      -4.459   6.083  58.123  1.00  0.00    -0.234 N 
ATOM     39  H32 UNL     1      -4.094   5.216  58.516  1.00  0.00     0.174 HD
ATOM     40  H31 UNL     1      -3.973   6.609  57.397  1.00  0.00     0.174 HD
ENDBRANCH  32  38
BRANCH  34  41
HETATM   41  N1  UNL     1      -8.417   5.278  60.315  1.00  0.00    -0.384 N 
ATOM     42  H12 UNL     1      -8.148   4.313  60.505  1.00  0.00     0.157 HD
ATOM     43  H11 UNL     1      -9.341   5.585  60.620  1.00  0.00     0.157 HD
ENDBRANCH  34  41
BRANCH  36  44
HETATM   44  S1  UNL     1      -9.439   7.979  60.157  1.00  0.00     0.261 S 
HETATM   45  O11 UNL     1     -10.549   7.181  59.537  1.00  0.00    -0.201 OA
HETATM   46  O12 UNL     1      -9.655   9.423  59.805  1.00  0.00    -0.201 OA
BRANCH  44  47
HETATM   47  N7  UNL     1      -9.466   7.837  61.881  1.00  0.00    -0.324 N 
ATOM     48  H72 UNL     1     -10.174   7.319  62.402  1.00  0.00     0.169 HD
ATOM     49  H71 UNL     1      -8.678   8.342  62.286  1.00  0.00     0.169 HD
ENDBRANCH  44  47
ENDBRANCH  36  44
ENDBRANCH   1  31
TORSDOF 17
ENDMDL
MODEL 2
REMARK VINA RESULT: -9.072238724      1.667      2.335
REMARK  17 active torsions:
REMARK  status: ('A' for Active; 'I' for Inactive)
REMARK    1  A    between atoms: N1_1  and  C1_4 
REMARK    2  A    between atoms: C2_7  and  N3_8 
REMARK    3  A    between atoms: N4_11  and  C3_12 
REMARK    4  A    between atoms: C4_16  and  C5_17 
REMARK    5  A    between atoms: C4_16  and  C6_20 
REMARK    6  A    between atoms: C5_17  and  O1_18 
REMARK    7  A    between atoms: C6_20  and  O2_21 
REMARK    8  A    between atoms: O2_21  and  C7_22 
REMARK    9  A    between atoms: C7_22  and  C8_24 
REMARK   10  A    between atoms: C9_25  and  C10_26 
REMARK   11  A    between atoms: C10_26  and  O4_27 
REMARK   12  A    between atoms: C10_26  and  O5_29 
REMARK   13  A    between atoms: C11_32  and  C12_33 
REMARK   14  A    between atoms: C12_33  and  O7_34 
REMARK   15  A    between atoms: C12_33  and  O8_36 
REMARK   16  A    between atoms: C16_43  and  S1_44 
REMARK   17  A    between atoms: S1_44  and  N7_45 
ROOT
HETATM    1  C3  UNL     1      -5.545  10.121  57.349  1.00  0.00     0.259 C 
HETATM    2  N5  UNL     1      -5.120  11.182  57.950  1.00  0.00    -0.265 N 
ATOM      3  H5  UNL     1      -5.101  11.318  58.961  1.00  0.00     0.186 HD
HETATM    4  N6  UNL     1      -4.690  12.112  57.005  1.00  0.00    -0.094 NA
HETATM    5  C4  UNL     1      -5.241  11.746  55.725  1.00  0.00     0.202 C 
HETATM    6  O10 UNL     1      -5.415  10.304  55.997  1.00  0.00    -0.285 OA
ENDROOT
BRANCH   5   7
HETATM    7  C5  UNL     1      -6.617  12.221  55.455  1.00  0.00     0.225 C 
BRANCH   7   8
HETATM    8  O1  UNL     1      -7.337  11.373  54.625  1.00  0.00    -0.396 OA
ATOM      9  H1  UNL     1      -7.018  11.365  53.730  1.00  0.00     0.209 HD
ENDBRANCH   7   8
ENDBRANCH   5   7
BRANCH   5  10
HETATM   10  C6  UNL     1      -4.249  11.770  54.623  1.00  0.00     0.240 C 
BRANCH  10  11
HETATM   11  O2  UNL     1      -2.975  11.309  54.836  1.00  0.00    -0.313 OA
BRANCH  11  12
HETATM   12  C7  UNL     1      -1.732  11.699  54.415  1.00  0.00     0.300 C 
HETATM   13  O3  UNL     1      -1.205  12.579  55.109  1.00  0.00    -0.259 OA
BRANCH  12  14
HETATM   14  C8  UNL     1      -1.141  11.069  53.219  1.00  0.00     0.124 A 
HETATM   15  C9  UNL     1      -0.221  10.087  53.276  1.00  0.00     0.128 A 
HETATM   16  O6  UNL     1       0.337   9.641  52.132  1.00  0.00    -0.308 OA
HETATM   17  C11 UNL     1       0.060  10.081  50.946  1.00  0.00     0.111 A 
HETATM   18  C13 UNL     1      -0.879  11.084  50.839  1.00  0.00     0.093 A 
HETATM   19  C14 UNL     1      -1.489  11.590  51.955  1.00  0.00     0.193 A 
HETATM   20  O9  UNL     1      -2.350  12.502  51.926  1.00  0.00    -0.287 OA
BRANCH  15  21
HETATM   21  C10 UNL     1       0.200   9.463  54.545  1.00  0.00     0.314 C 
BRANCH  21  22
HETATM   22  O4  UNL     1       1.409   9.840  55.056  1.00  0.00    -0.365 OA
ATOM     23  H4  UNL     1       1.437  10.076  55.976  1.00  0.00     0.213 HD
ENDBRANCH  21  22
BRANCH  21  24
HETATM   24  O5  UNL     1       0.043   8.068  54.512  1.00  0.00    -0.365 OA
ATOM     25  H5  UNL     1       0.870   7.619  54.646  1.00  0.00     0.213 HD
ENDBRANCH  21  24
ENDBRANCH  15  21
BRANCH  17  26
HETATM   26  C12 UNL     1       0.737   9.519  49.729  1.00  0.00     0.312 C 
BRANCH  26  27
HETATM   27  O7  UNL     1       1.823  10.275  49.342  1.00  0.00    -0.365 OA
ATOM     28  H7  UNL     1       1.760  10.556  48.437  1.00  0.00     0.213 HD
ENDBRANCH  26  27
BRANCH  26  29
HETATM   29  O8  UNL     1       1.153   8.226  49.980  1.00  0.00    -0.365 OA
ATOM     30  H8  UNL     1       1.217   8.086  50.917  1.00  0.00     0.213 HD
ENDBRANCH  26  29
ENDBRANCH  17  26
ENDBRANCH  12  14
ENDBRANCH  11  12
ENDBRANCH  10  11
ENDBRANCH   5  10
BRANCH   1  31
HETATM   31  N4  UNL     1      -6.068   8.942  57.953  1.00  0.00    -0.118 N 
HETATM   32  C2  UNL     1      -5.377   7.780  57.872  1.00  0.00     0.687 A 
HETATM   33  N2  UNL     1      -5.812   6.634  58.419  1.00  0.00    -0.175 N 
HETATM   34  C1  UNL     1      -6.977   6.589  59.083  1.00  0.00     0.139 A 
ATOM     35  H2  UNL     1      -5.250   5.787  58.328  1.00  0.00     0.186 HD
HETATM   36  C16 UNL     1      -7.700   7.744  59.184  1.00  0.00     0.139 A 
HETATM   37  C15 UNL     1      -7.232   8.909  58.614  1.00  0.00     0.148 A 
BRANCH  32  38
HETATM   38  N3  UNL     1      -4.256   7.809  57.236  1.00  0.00    -0.234 N 
ATOM     39  H32 UNL     1      -3.413   7.603  57.772  1.00  0.00     0.174 HD
ATOM     40  H31 UNL     1      -4.238   8.031  56.241  1.00  0.00     0.174 HD
ENDBRANCH  32  38
BRANCH  34  41
HETATM   41  N1  UNL     1      -7.417   5.480  59.623  1.00  0.00    -0.384 N 
ATOM     42  H12 UNL     1      -8.416   5.338  59.772  1.00  0.00     0.157 HD
ATOM     43  H11 UNL     1      -6.781   4.734  59.907  1.00  0.00     0.157 HD
ENDBRANCH  34  41
BRANCH  36  44
HETATM   44  S1  UNL     1      -9.218   7.703  60.046  1.00  0.00     0.261 S 
HETATM   45  O11 UNL     1      -8.989   7.110  61.406  1.00  0.00    -0.201 OA
HETATM   46  O12 UNL     1     -10.219   6.843  59.329  1.00  0.00    -0.201 OA
BRANCH  44  47
HETATM   47  N7  UNL     1      -9.874   9.299  60.171  1.00  0.00    -0.324 N 
ATOM     48  H72 UNL     1     -10.811   9.559  59.864  1.00  0.00     0.169 HD
ATOM     49  H71 UNL     1      -9.189   9.927  60.593  1.00  0.00     0.169 HD
ENDBRANCH  44  47
ENDBRANCH  36  44
ENDBRANCH   1  31
TORSDOF 17
ENDMDL
MODEL 3
REMARK VINA RESULT: -8.850042607      1.377      2.115
REMARK  17 active torsions:
REMARK  status: ('A' for Active; 'I' for Inactive)
REMARK    1  A    between atoms: N1_1  and  C1_4 
REMARK    2  A    between atoms: C2_7  and  N3_8 
REMARK    3  A    between atoms: N4_11  and  C3_12 
REMARK    4  A    between atoms: C4_16  and  C5_17 
REMARK    5  A    between atoms: C4_16  and  C6_20 
REMARK    6  A    between atoms: C5_17  and  O1_18 
REMARK    7  A    between atoms: C6_20  and  O2_21 
REMARK    8  A    between atoms: O2_21  and  C7_22 
REMARK    9  A    between atoms: C7_22  and  C8_24 
REMARK   10  A    between atoms: C9_25  and  C10_26 
REMARK   11  A    between atoms: C10_26  and  O4_27 
REMARK   12  A    between atoms: C10_26  and  O5_29 
REMARK   13  A    between atoms: C11_32  and  C12_33 
REMARK   14  A    between atoms: C12_33  and  O7_34 
REMARK   15  A    between atoms: C12_33  and  O8_36 
REMARK   16  A    between atoms: C16_43  and  S1_44 
REMARK   17  A    between atoms: S1_44  and  N7_45 
ROOT
HETATM    1  C3  UNL     1      -5.229   9.157  57.958  1.00  0.00     0.259 C 
HETATM    2  N5  UNL     1      -4.131   9.617  58.460  1.00  0.00    -0.265 N 
ATOM      3  H5  UNL     1      -3.814   9.466  59.418  1.00  0.00     0.186 HD
HETATM    4  N6  UNL     1      -3.447  10.349  57.492  1.00  0.00    -0.094 NA
HETATM    5  C4  UNL     1      -4.370  10.677  56.435  1.00  0.00     0.202 C 
HETATM    6  O10 UNL     1      -5.314   9.561  56.652  1.00  0.00    -0.285 OA
ENDROOT
BRANCH   5   7
HETATM    7  C5  UNL     1      -5.198  11.885  56.655  1.00  0.00     0.225 C 
BRANCH   7   8
HETATM    8  O1  UNL     1      -5.444  12.601  55.490  1.00  0.00    -0.396 OA
ATOM      9  H1  UNL     1      -6.313  12.455  55.137  1.00  0.00     0.209 HD
ENDBRANCH   7   8
ENDBRANCH   5   7
BRANCH   5  10
HETATM   10  C6  UNL     1      -3.835  10.416  55.077  1.00  0.00     0.240 C 
BRANCH  10  11
HETATM   11  O2  UNL     1      -2.889   9.442  54.887  1.00  0.00    -0.313 OA
BRANCH  11  12
HETATM   12  C7  UNL     1      -1.547   9.450  54.615  1.00  0.00     0.300 C 
HETATM   13  O3  UNL     1      -0.820   9.277  55.603  1.00  0.00    -0.259 OA
BRANCH  12  14
HETATM   14  C8  UNL     1      -1.090   9.653  53.228  1.00  0.00     0.124 A 
HETATM   15  C9  UNL     1      -0.612   8.661  52.451  1.00  0.00     0.128 A 
HETATM   16  O6  UNL     1      -0.123   8.960  51.230  1.00  0.00    -0.308 OA
HETATM   17  C11 UNL     1      -0.071  10.148  50.717  1.00  0.00     0.111 A 
HETATM   18  C13 UNL     1      -0.553  11.193  51.475  1.00  0.00     0.093 A 
HETATM   19  C14 UNL     1      -1.064  10.970  52.725  1.00  0.00     0.193 A 
HETATM   20  O9  UNL     1      -1.517  11.877  53.464  1.00  0.00    -0.287 OA
BRANCH  15  21
HETATM   21  C10 UNL     1      -0.610   7.248  52.875  1.00  0.00     0.314 C 
BRANCH  21  22
HETATM   22  O4  UNL     1       0.595   6.606  52.901  1.00  0.00    -0.365 OA
ATOM     23  H4  UNL     1       0.583   5.665  53.037  1.00  0.00     0.213 HD
ENDBRANCH  21  22
BRANCH  21  24
HETATM   24  O5  UNL     1      -1.599   6.507  52.210  1.00  0.00    -0.365 OA
ATOM     25  H5  UNL     1      -1.551   5.584  52.428  1.00  0.00     0.213 HD
ENDBRANCH  21  24
ENDBRANCH  15  21
BRANCH  17  26
HETATM   26  C12 UNL     1       0.494  10.379  49.345  1.00  0.00     0.312 C 
BRANCH  26  27
HETATM   27  O7  UNL     1       0.290  11.671  48.910  1.00  0.00    -0.365 OA
ATOM     28  H7  UNL     1      -0.111  11.700  48.049  1.00  0.00     0.213 HD
ENDBRANCH  26  27
BRANCH  26  29
HETATM   29  O8  UNL     1       1.849  10.111  49.345  1.00  0.00    -0.365 OA
ATOM     30  H8  UNL     1       1.990   9.172  49.328  1.00  0.00     0.213 HD
ENDBRANCH  26  29
ENDBRANCH  17  26
ENDBRANCH  12  14
ENDBRANCH  11  12
ENDBRANCH  10  11
ENDBRANCH   5  10
BRANCH   1  31
HETATM   31  N4  UNL     1      -6.209   8.361  58.617  1.00  0.00    -0.118 N 
HETATM   32  C2  UNL     1      -6.240   7.023  58.414  1.00  0.00     0.687 A 
HETATM   33  N2  UNL     1      -7.136   6.216  59.004  1.00  0.00    -0.175 N 
HETATM   34  C1  UNL     1      -8.061   6.713  59.840  1.00  0.00     0.139 A 
ATOM     35  H2  UNL     1      -7.114   5.214  58.816  1.00  0.00     0.186 HD
HETATM   36  C16 UNL     1      -8.059   8.060  60.067  1.00  0.00     0.139 A 
HETATM   37  C15 UNL     1      -7.128   8.868  59.450  1.00  0.00     0.148 A 
BRANCH  32  38
HETATM   38  N3  UNL     1      -5.356   6.533  57.613  1.00  0.00    -0.234 N 
ATOM     39  H32 UNL     1      -5.539   5.603  57.236  1.00  0.00     0.174 HD
ATOM     40  H31 UNL     1      -4.521   7.070  57.382  1.00  0.00     0.174 HD
ENDBRANCH  32  38
BRANCH  34  41
HETATM   41  N1  UNL     1      -8.944   5.942  60.424  1.00  0.00    -0.384 N 
ATOM     42  H12 UNL     1      -9.617   6.332  61.083  1.00  0.00     0.157 HD
ATOM     43  H11 UNL     1      -8.983   4.939  60.239  1.00  0.00     0.157 HD
ENDBRANCH  34  41
BRANCH  36  44
HETATM   44  S1  UNL     1      -9.256   8.723  61.153  1.00  0.00     0.261 S 
HETATM   45  O11 UNL     1      -9.198   7.977  62.454  1.00  0.00    -0.201 OA
HETATM   46  O12 UNL     1     -10.639   8.562  60.589  1.00  0.00    -0.201 OA
BRANCH  44  47
HETATM   47  N7  UNL     1      -8.969  10.411  61.396  1.00  0.00    -0.324 N 
ATOM     48  H72 UNL     1      -8.753  10.831  62.300  1.00  0.00     0.169 HD
ATOM     49  H71 UNL     1      -9.047  10.911  60.510  1.00  0.00     0.169 HD
ENDBRANCH  44  47
ENDBRANCH  36  44
ENDBRANCH   1  31
TORSDOF 17
ENDMDL
MODEL 4
REMARK VINA RESULT: -8.769310352      3.861      9.325
REMARK  17 active torsions:
REMARK  status: ('A' for Active; 'I' for Inactive)
REMARK    1  A    between atoms: N1_1  and  C1_4 
REMARK    2  A    between atoms: C2_7  and  N3_8 
REMARK    3  A    between atoms: N4_11  and  C3_12 
REMARK    4  A    between atoms: C4_16  and  C5_17 
REMARK    5  A    between atoms: C4_16  and  C6_20 
REMARK    6  A    between atoms: C5_17  and  O1_18 
REMARK    7  A    between atoms: C6_20  and  O2_21 
REMARK    8  A    between atoms: O2_21  and  C7_22 
REMARK    9  A    between atoms: C7_22  and  C8_24 
REMARK   10  A    between atoms: C9_25  and  C10_26 
REMARK   11  A    between atoms: C10_26  and  O4_27 
REMARK   12  A    between atoms: C10_26  and  O5_29 
REMARK   13  A    between atoms: C11_32  and  C12_33 
REMARK   14  A    between atoms: C12_33  and  O7_34 
REMARK   15  A    between atoms: C12_33  and  O8_36 
REMARK   16  A    between atoms: C16_43  and  S1_44 
REMARK   17  A    between atoms: S1_44  and  N7_45 
ROOT
HETATM    1  C3  UNL     1      -2.588  11.220  55.431  1.00  0.00     0.259 C 
HETATM    2  N5  UNL     1      -2.270  12.470  55.494  1.00  0.00    -0.265 N 
ATOM      3  H5  UNL     1      -1.464  12.895  55.035  1.00  0.00     0.186 HD
HETATM    4  N6  UNL     1      -3.196  13.148  56.285  1.00  0.00    -0.094 NA
HETATM    5  C4  UNL     1      -3.918  12.177  57.070  1.00  0.00     0.202 C 
HETATM    6  O10 UNL     1      -3.726  11.022  56.169  1.00  0.00    -0.285 OA
ENDROOT
BRANCH   5   7
HETATM    7  C5  UNL     1      -3.266  11.754  58.330  1.00  0.00     0.225 C 
BRANCH   7   8
HETATM    8  O1  UNL     1      -3.486  10.418  58.639  1.00  0.00    -0.396 OA
ATOM      9  H1  UNL     1      -3.535   9.859  57.872  1.00  0.00     0.209 HD
ENDBRANCH   7   8
ENDBRANCH   5   7
BRANCH   5  10
HETATM   10  C6  UNL     1      -5.387  12.380  57.058  1.00  0.00     0.240 C 
BRANCH  10  11
HETATM   11  O2  UNL     1      -6.210  11.475  57.677  1.00  0.00    -0.313 OA
BRANCH  11  12
HETATM   12  C7  UNL     1      -7.161  10.591  57.242  1.00  0.00     0.300 C 
HETATM   13  O3  UNL     1      -7.731  10.921  56.194  1.00  0.00    -0.259 OA
BRANCH  12  14
HETATM   14  C8  UNL     1      -7.420   9.365  58.021  1.00  0.00     0.124 A 
HETATM   15  C9  UNL     1      -6.577   8.315  58.055  1.00  0.00     0.128 A 
HETATM   16  O6  UNL     1      -6.945   7.197  58.714  1.00  0.00    -0.308 OA
HETATM   17  C11 UNL     1      -8.068   7.035  59.338  1.00  0.00     0.111 A 
HETATM   18  C13 UNL     1      -8.961   8.085  59.333  1.00  0.00     0.093 A 
HETATM   19  C14 UNL     1      -8.659   9.253  58.685  1.00  0.00     0.193 A 
HETATM   20  O9  UNL     1      -9.427  10.244  58.643  1.00  0.00    -0.287 OA
BRANCH  15  21
HETATM   21  C10 UNL     1      -5.252   8.337  57.408  1.00  0.00     0.314 C 
BRANCH  21  22
HETATM   22  O4  UNL     1      -5.221   8.282  56.044  1.00  0.00    -0.365 OA
ATOM     23  H4  UNL     1      -5.961   8.653  55.577  1.00  0.00     0.213 HD
ENDBRANCH  21  22
BRANCH  21  24
HETATM   24  O5  UNL     1      -4.371   7.419  58.002  1.00  0.00    -0.365 OA
ATOM     25  H5  UNL     1      -3.562   7.836  58.276  1.00  0.00     0.213 HD
ENDBRANCH  21  24
ENDBRANCH  15  21
BRANCH  17  26
HETATM   26  C12 UNL     1      -8.388   5.748  60.044  1.00  0.00     0.312 C 
BRANCH  26  27
HETATM   27  O7  UNL     1      -7.254   5.027  60.349  1.00  0.00    -0.365 OA
ATOM     28  H7  UNL     1      -6.604   5.070  59.657  1.00  0.00     0.213 HD
ENDBRANCH  26  27
BRANCH  26  29
HETATM   29  O8  UNL     1      -9.082   6.014  61.208  1.00  0.00    -0.365 OA
ATOM     30  H8  UNL     1      -8.624   6.679  61.710  1.00  0.00     0.213 HD
ENDBRANCH  26  29
ENDBRANCH  17  26
ENDBRANCH  12  14
ENDBRANCH  11  12
ENDBRANCH  10  11
ENDBRANCH   5  10
BRANCH   1  31
HETATM   31  N4  UNL     1      -1.900  10.191  54.726  1.00  0.00    -0.118 N 
HETATM   32  C2  UNL     1      -1.753   8.969  55.290  1.00  0.00     0.687 A 
HETATM   33  N2  UNL     1      -1.116   7.957  54.680  1.00  0.00    -0.175 N 
HETATM   34  C1  UNL     1      -0.586   8.116  53.458  1.00  0.00     0.139 A 
ATOM     35  H2  UNL     1      -1.035   7.055  55.151  1.00  0.00     0.186 HD
HETATM   36  C16 UNL     1      -0.716   9.337  52.859  1.00  0.00     0.139 A 
HETATM   37  C15 UNL     1      -1.375  10.362  53.506  1.00  0.00     0.148 A 
BRANCH  32  38
HETATM   38  N3  UNL     1      -2.258   8.802  56.465  1.00  0.00    -0.234 N 
ATOM     39  H32 UNL     1      -1.745   9.203  57.250  1.00  0.00     0.174 HD
ATOM     40  H31 UNL     1      -3.131   8.289  56.578  1.00  0.00     0.174 HD
ENDBRANCH  32  38
BRANCH  34  41
HETATM   41  N1  UNL     1       0.038   7.140  52.847  1.00  0.00    -0.384 N 
ATOM     42  H12 UNL     1       0.038   7.082  51.829  1.00  0.00     0.157 HD
ATOM     43  H11 UNL     1       0.538   6.417  53.367  1.00  0.00     0.157 HD
ENDBRANCH  34  41
BRANCH  36  44
HETATM   44  S1  UNL     1      -0.032   9.562  51.268  1.00  0.00     0.261 S 
HETATM   45  O11 UNL     1      -0.455   8.419  50.392  1.00  0.00    -0.201 OA
HETATM   46  O12 UNL     1       1.468   9.570  51.325  1.00  0.00    -0.201 OA
BRANCH  44  47
HETATM   47  N7  UNL     1      -0.552  11.073  50.605  1.00  0.00    -0.324 N 
ATOM     48  H72 UNL     1      -1.415  11.548  50.870  1.00  0.00     0.169 HD
ATOM     49  H71 UNL     1       0.127  11.407  49.921  1.00  0.00     0.169 HD
ENDBRANCH  44  47
ENDBRANCH  36  44
ENDBRANCH   1  31
TORSDOF 17
ENDMDL
MODEL 5
REMARK VINA RESULT: -8.714323626      1.936      2.828
REMARK  17 active torsions:
REMARK  status: ('A' for Active; 'I' for Inactive)
REMARK    1  A    between atoms: N1_1  and  C1_4 
REMARK    2  A    between atoms: C2_7  and  N3_8 
REMARK    3  A    between atoms: N4_11  and  C3_12 
REMARK    4  A    between atoms: C4_16  and  C5_17 
REMARK    5  A    between atoms: C4_16  and  C6_20 
REMARK    6  A    between atoms: C5_17  and  O1_18 
REMARK    7  A    between atoms: C6_20  and  O2_21 
REMARK    8  A    between atoms: O2_21  and  C7_22 
REMARK    9  A    between atoms: C7_22  and  C8_24 
REMARK   10  A    between atoms: C9_25  and  C10_26 
REMARK   11  A    between atoms: C10_26  and  O4_27 
REMARK   12  A    between atoms: C10_26  and  O5_29 
REMARK   13  A    between atoms: C11_32  and  C12_33 
REMARK   14  A    between atoms: C12_33  and  O7_34 
REMARK   15  A    between atoms: C12_33  and  O8_36 
REMARK   16  A    between atoms: C16_43  and  S1_44 
REMARK   17  A    between atoms: S1_44  and  N7_45 
ROOT
HETATM    1  C3  UNL     1      -4.570   8.395  57.936  1.00  0.00     0.259 C 
HETATM    2  N5  UNL     1      -3.863   9.371  58.400  1.00  0.00    -0.265 N 
ATOM      3  H5  UNL     1      -4.012   9.831  59.299  1.00  0.00     0.186 HD
HETATM    4  N6  UNL     1      -2.866   9.701  57.484  1.00  0.00    -0.094 NA
HETATM    5  C4  UNL     1      -3.221   9.139  56.205  1.00  0.00     0.202 C 
HETATM    6  O10 UNL     1      -4.074   8.042  56.709  1.00  0.00    -0.285 OA
ENDROOT
BRANCH   5   7
HETATM    7  C5  UNL     1      -4.144   9.950  55.378  1.00  0.00     0.225 C 
BRANCH   7   8
HETATM    8  O1  UNL     1      -5.455   9.493  55.411  1.00  0.00    -0.396 OA
ATOM      9  H1  UNL     1      -5.955   9.842  56.139  1.00  0.00     0.209 HD
ENDBRANCH   7   8
ENDBRANCH   5   7
BRANCH   5  10
HETATM   10  C6  UNL     1      -2.104   8.427  55.539  1.00  0.00     0.240 C 
BRANCH  10  11
HETATM   11  O2  UNL     1      -0.845   8.968  55.541  1.00  0.00    -0.313 OA
BRANCH  11  12
HETATM   12  C7  UNL     1      -0.114   9.699  54.644  1.00  0.00     0.300 C 
HETATM   13  O3  UNL     1       1.113   9.628  54.798  1.00  0.00    -0.259 OA
BRANCH  12  14
HETATM   14  C8  UNL     1      -0.813  10.480  53.606  1.00  0.00     0.124 A 
HETATM   15  C9  UNL     1      -0.887  10.101  52.315  1.00  0.00     0.128 A 
HETATM   16  O6  UNL     1      -1.460  10.929  51.418  1.00  0.00    -0.308 OA
HETATM   17  C11 UNL     1      -1.964  12.091  51.690  1.00  0.00     0.111 A 
HETATM   18  C13 UNL     1      -1.913  12.519  52.999  1.00  0.00     0.093 A 
HETATM   19  C14 UNL     1      -1.346  11.735  53.968  1.00  0.00     0.193 A 
HETATM   20  O9  UNL     1      -1.269  12.066  55.175  1.00  0.00    -0.287 OA
BRANCH  15  21
HETATM   21  C10 UNL     1      -0.376   8.803  51.837  1.00  0.00     0.314 C 
BRANCH  21  22
HETATM   22  O4  UNL     1       0.112   8.755  50.562  1.00  0.00    -0.365 OA
ATOM     23  H4  UNL     1       0.515   9.545  50.221  1.00  0.00     0.213 HD
ENDBRANCH  21  22
BRANCH  21  24
HETATM   24  O5  UNL     1      -1.278   7.761  52.104  1.00  0.00    -0.365 OA
ATOM     25  H5  UNL     1      -1.408   7.642  53.038  1.00  0.00     0.213 HD
ENDBRANCH  21  24
ENDBRANCH  15  21
BRANCH  17  26
HETATM   26  C12 UNL     1      -2.582  12.942  50.619  1.00  0.00     0.312 C 
BRANCH  26  27
HETATM   27  O7  UNL     1      -3.564  12.271  49.923  1.00  0.00    -0.365 OA
ATOM     28  H7  UNL     1      -3.509  12.424  48.987  1.00  0.00     0.213 HD
ENDBRANCH  26  27
BRANCH  26  29
HETATM   29  O8  UNL     1      -3.124  14.081  51.181  1.00  0.00    -0.365 OA
ATOM     30  H8  UNL     1      -2.843  14.846  50.692  1.00  0.00     0.213 HD
ENDBRANCH  26  29
ENDBRANCH  17  26
ENDBRANCH  12  14
ENDBRANCH  11  12
ENDBRANCH  10  11
ENDBRANCH   5  10
BRANCH   1  31
HETATM   31  N4  UNL     1      -5.682   7.764  58.564  1.00  0.00    -0.118 N 
HETATM   32  C2  UNL     1      -5.678   6.424  58.755  1.00  0.00     0.687 A 
HETATM   33  N2  UNL     1      -6.693   5.768  59.340  1.00  0.00    -0.175 N 
HETATM   34  C1  UNL     1      -7.779   6.428  59.770  1.00  0.00     0.139 A 
ATOM     35  H2  UNL     1      -6.637   4.756  59.460  1.00  0.00     0.186 HD
HETATM   36  C16 UNL     1      -7.816   7.781  59.593  1.00  0.00     0.139 A 
HETATM   37  C15 UNL     1      -6.762   8.433  58.990  1.00  0.00     0.148 A 
BRANCH  32  38
HETATM   38  N3  UNL     1      -4.639   5.778  58.346  1.00  0.00    -0.234 N 
ATOM     39  H32 UNL     1      -4.188   5.156  59.017  1.00  0.00     0.174 HD
ATOM     40  H31 UNL     1      -4.304   5.900  57.391  1.00  0.00     0.174 HD
ENDBRANCH  32  38
BRANCH  34  41
HETATM   41  N1  UNL     1      -8.779   5.804  60.343  1.00  0.00    -0.384 N 
ATOM     42  H12 UNL     1      -8.838   5.746  61.359  1.00  0.00     0.157 HD
ATOM     43  H11 UNL     1      -9.519   5.364  59.795  1.00  0.00     0.157 HD
ENDBRANCH  34  41
BRANCH  36  44
HETATM   44  S1  UNL     1      -9.224   8.655  60.147  1.00  0.00     0.261 S 
HETATM   45  O11 UNL     1      -9.457   8.332  61.594  1.00  0.00    -0.201 OA
HETATM   46  O12 UNL     1     -10.446   8.246  59.378  1.00  0.00    -0.201 OA
BRANCH  44  47
HETATM   47  N7  UNL     1      -8.994  10.355  59.924  1.00  0.00    -0.324 N 
ATOM     48  H72 UNL     1      -9.582  10.940  59.331  1.00  0.00     0.169 HD
ATOM     49  H71 UNL     1      -8.192  10.675  60.469  1.00  0.00     0.169 HD
ENDBRANCH  44  47
ENDBRANCH  36  44
ENDBRANCH   1  31
TORSDOF 17
ENDMDL
