MODEL 1
REMARK VINA RESULT: -8.083415397      0.000      0.000
REMARK  13 active torsions:
REMARK  status: ('A' for Active; 'I' for Inactive)
REMARK    1  A    between atoms: N1_1  and  C1_4 
REMARK    2  A    between atoms: C2_10  and  N4_11 
REMARK    3  A    between atoms: C4_13  and  C5_14 
REMARK    4  A    between atoms: C5_14  and  O2_15 
REMARK    5  A    between atoms: O2_15  and  N5_16 
REMARK    6  A    between atoms: N5_16  and  C6_17 
REMARK    7  A    between atoms: C8_21  and  C9_22 
REMARK    8  A    between atoms: C10_25  and  C11_26 
REMARK    9  A    between atoms: C12_31  and  O7_32 
REMARK   10  A    between atoms: C13_34  and  C14_35 
REMARK   11  A    between atoms: C16_39  and  O10_40 
REMARK   12  A    between atoms: C16_39  and  C17_42 
REMARK   13  A    between atoms: C17_42  and  O11_43 
ROOT
HETATM    1  C6  UNL     1      -4.231   9.599  57.934  1.00  0.00     0.167 C 
HETATM    2  C7  UNL     1      -5.603   9.591  57.312  1.00  0.00     0.130 C 
HETATM    3  N6  UNL     1      -6.226   8.348  57.632  1.00  0.00    -0.374 N 
ATOM      4  H6  UNL     1      -6.024   7.627  56.938  1.00  0.00     0.160 HD
HETATM    5  C8  UNL     1      -7.075   7.853  58.701  1.00  0.00     0.139 C 
HETATM    6  C10 UNL     1      -7.879   8.612  59.412  1.00  0.00     0.141 C 
HETATM    7  N7  UNL     1      -8.027  10.067  59.209  1.00  0.00    -0.355 N 
ATOM      8  H7  UNL     1      -8.348  10.632  59.995  1.00  0.00     0.162 HD
HETATM    9  C12 UNL     1      -7.745  10.732  57.964  1.00  0.00     0.239 C 
HETATM   10  C13 UNL     1      -6.248  10.839  57.678  1.00  0.00     0.116 C 
HETATM   11  C15 UNL     1      -5.515  11.386  58.861  1.00  0.00     0.069 C 
HETATM   12  C16 UNL     1      -4.268  10.602  59.037  1.00  0.00     0.102 C 
ENDROOT
BRANCH   1  13
HETATM   13  N5  UNL     1      -3.183   9.967  56.986  1.00  0.00    -0.090 NA
BRANCH  13  14
HETATM   14  O2  UNL     1      -2.242   8.966  56.924  1.00  0.00    -0.280 OA
BRANCH  14  15
HETATM   15  C5  UNL     1      -2.382   8.430  55.625  1.00  0.00     0.255 C 
BRANCH  15  16
HETATM   16  C4  UNL     1      -1.592   9.223  54.646  1.00  0.00     0.066 A 
HETATM   17  C3  UNL     1      -1.183   8.804  53.389  1.00  0.00     0.144 A 
HETATM   18  N4  UNL     1      -0.494   9.781  52.794  1.00  0.00    -0.228 N 
HETATM   19  N9  UNL     1      -0.472  10.784  53.654  1.00  0.00    -0.014 NA
HETATM   20  N8  UNL     1      -1.118  10.476  54.763  1.00  0.00    -0.284 N 
ATOM     21  H8  UNL     1      -1.238  11.085  55.573  1.00  0.00     0.184 HD
BRANCH  18  22
HETATM   22  C2  UNL     1       0.113   9.788  51.497  1.00  0.00     0.193 A 
HETATM   23  C1  UNL     1      -0.170  10.665  50.486  1.00  0.00     0.169 A 
HETATM   24  N2  UNL     1       0.612  10.330  49.445  1.00  0.00    -0.222 N 
HETATM   25  O1  UNL     1       1.328   9.311  49.801  1.00  0.00    -0.153 OA
ATOM     26  H2  UNL     1       0.638  10.794  48.538  1.00  0.00     0.198 HD
HETATM   27  N3  UNL     1       1.063   8.958  51.012  1.00  0.00    -0.221 N 
ATOM     28  H3  UNL     1       1.495   8.185  51.517  1.00  0.00     0.198 HD
BRANCH  23  29
HETATM   29  N1  UNL     1      -1.021  11.655  50.471  1.00  0.00    -0.381 N 
ATOM     30  H12 UNL     1      -2.032  11.630  50.336  1.00  0.00     0.157 HD
ATOM     31  H11 UNL     1      -0.763  12.633  50.602  1.00  0.00     0.157 HD
ENDBRANCH  23  29
ENDBRANCH  18  22
ENDBRANCH  15  16
ENDBRANCH  14  15
ENDBRANCH  13  14
ENDBRANCH   1  13
BRANCH  12  32
HETATM   32  O10 UNL     1      -3.115  11.416  58.954  1.00  0.00    -0.386 OA
ATOM     33  H10 UNL     1      -3.030  11.740  58.066  1.00  0.00     0.210 HD
ENDBRANCH  12  32
BRANCH  12  34
HETATM   34  C17 UNL     1      -4.174   9.950  60.412  1.00  0.00     0.203 C 
BRANCH  34  35
HETATM   35  O11 UNL     1      -2.876   9.526  60.677  1.00  0.00    -0.398 OA
ATOM     36  H11 UNL     1      -2.639   9.697  61.581  1.00  0.00     0.209 HD
ENDBRANCH  34  35
ENDBRANCH  12  34
BRANCH  10  37
HETATM   37  C14 UNL     1      -6.188  11.795  56.539  1.00  0.00     0.188 C 
HETATM   38  O8  UNL     1      -6.138  13.013  56.754  1.00  0.00    -0.647 OA
HETATM   39  O9  UNL     1      -6.186  11.324  55.243  1.00  0.00    -0.647 OA
ENDBRANCH  10  37
BRANCH   5  40
HETATM   40  C9  UNL     1      -7.015   6.466  58.963  1.00  0.00     0.229 C 
HETATM   41  O3  UNL     1      -7.837   5.657  59.328  1.00  0.00    -0.643 OA
HETATM   42  O4  UNL     1      -5.727   5.865  58.763  1.00  0.00    -0.643 OA
ENDBRANCH   5  40
BRANCH   9  43
HETATM   43  O7  UNL     1      -8.372  10.209  56.862  1.00  0.00    -0.375 OA
ATOM     44  H7  UNL     1      -7.934  10.361  56.033  1.00  0.00     0.212 HD
ENDBRANCH   9  43
BRANCH   6  45
HETATM   45  C11 UNL     1      -8.714   8.145  60.460  1.00  0.00     0.229 C 
HETATM   46  O5  UNL     1      -8.525   7.991  61.658  1.00  0.00    -0.643 OA
HETATM   47  O6  UNL     1     -10.048   7.769  60.104  1.00  0.00    -0.643 OA
ENDBRANCH   6  45
TORSDOF 13
ENDMDL
MODEL 2
REMARK VINA RESULT: -7.873449321      2.310      3.777
REMARK  13 active torsions:
REMARK  status: ('A' for Active; 'I' for Inactive)
REMARK    1  A    between atoms: N1_1  and  C1_4 
REMARK    2  A    between atoms: C2_10  and  N4_11 
REMARK    3  A    between atoms: C4_13  and  C5_14 
REMARK    4  A    between atoms: C5_14  and  O2_15 
REMARK    5  A    between atoms: O2_15  and  N5_16 
REMARK    6  A    between atoms: N5_16  and  C6_17 
REMARK    7  A    between atoms: C8_21  and  C9_22 
REMARK    8  A    between atoms: C10_25  and  C11_26 
REMARK    9  A    between atoms: C12_31  and  O7_32 
REMARK   10  A    between atoms: C13_34  and  C14_35 
REMARK   11  A    between atoms: C16_39  and  O10_40 
REMARK   12  A    between atoms: C16_39  and  C17_42 
REMARK   13  A    between atoms: C17_42  and  O11_43 
ROOT
HETATM    1  C6  UNL     1      -4.482  13.281  57.019  1.00  0.00     0.167 C 
HETATM    2  C7  UNL     1      -5.565  12.421  56.421  1.00  0.00     0.130 C 
HETATM    3  N6  UNL     1      -4.969  11.201  55.982  1.00  0.00    -0.374 N 
ATOM      4  H6  UNL     1      -4.634  11.263  55.020  1.00  0.00     0.160 HD
HETATM    5  C8  UNL     1      -4.719   9.895  56.565  1.00  0.00     0.139 C 
HETATM    6  C10 UNL     1      -5.440   9.371  57.530  1.00  0.00     0.141 C 
HETATM    7  N7  UNL     1      -6.604  10.042  58.142  1.00  0.00    -0.355 N 
ATOM      8  H7  UNL     1      -6.868   9.777  59.092  1.00  0.00     0.162 HD
HETATM    9  C12 UNL     1      -7.387  11.048  57.475  1.00  0.00     0.239 C 
HETATM   10  C13 UNL     1      -6.662  12.389  57.372  1.00  0.00     0.116 C 
HETATM   11  C15 UNL     1      -6.110  12.801  58.699  1.00  0.00     0.069 C 
HETATM   12  C16 UNL     1      -4.744  13.339  58.486  1.00  0.00     0.102 C 
ENDROOT
BRANCH   1  13
HETATM   13  N5  UNL     1      -4.476  14.637  56.479  1.00  0.00    -0.090 NA
BRANCH  13  14
HETATM   14  O2  UNL     1      -3.180  15.043  56.262  1.00  0.00    -0.280 OA
BRANCH  14  15
HETATM   15  C5  UNL     1      -2.955  14.785  54.892  1.00  0.00     0.255 C 
BRANCH  15  16
HETATM   16  C4  UNL     1      -2.187  13.524  54.718  1.00  0.00     0.066 A 
HETATM   17  C3  UNL     1      -2.090  12.775  53.555  1.00  0.00     0.144 A 
HETATM   18  N4  UNL     1      -1.317  11.708  53.774  1.00  0.00    -0.228 N 
HETATM   19  N9  UNL     1      -0.941  11.786  55.038  1.00  0.00    -0.014 NA
HETATM   20  N8  UNL     1      -1.446  12.858  55.621  1.00  0.00    -0.284 N 
ATOM     21  H8  UNL     1      -1.299  13.134  56.591  1.00  0.00     0.184 HD
BRANCH  18  22
HETATM   22  C2  UNL     1      -0.946  10.669  52.861  1.00  0.00     0.193 A 
HETATM   23  C1  UNL     1      -0.602   9.389  53.202  1.00  0.00     0.169 A 
HETATM   24  N2  UNL     1      -0.326   8.739  52.058  1.00  0.00    -0.222 N 
HETATM   25  O1  UNL     1      -0.491   9.571  51.081  1.00  0.00    -0.153 OA
ATOM     26  H2  UNL     1      -0.037   7.765  51.975  1.00  0.00     0.198 HD
HETATM   27  N3  UNL     1      -0.859  10.728  51.514  1.00  0.00    -0.221 N 
ATOM     28  H3  UNL     1      -1.053  11.547  50.938  1.00  0.00     0.198 HD
BRANCH  23  29
HETATM   29  N1  UNL     1      -0.536   8.844  54.387  1.00  0.00    -0.381 N 
ATOM     30  H12 UNL     1       0.221   8.884  55.070  1.00  0.00     0.157 HD
ATOM     31  H11 UNL     1      -1.279   8.279  54.798  1.00  0.00     0.157 HD
ENDBRANCH  23  29
ENDBRANCH  18  22
ENDBRANCH  15  16
ENDBRANCH  14  15
ENDBRANCH  13  14
ENDBRANCH   1  13
BRANCH  12  32
HETATM   32  O10 UNL     1      -4.628  14.679  58.919  1.00  0.00    -0.386 OA
ATOM     33  H10 UNL     1      -4.194  14.693  59.764  1.00  0.00     0.210 HD
ENDBRANCH  12  32
BRANCH  12  34
HETATM   34  C17 UNL     1      -3.687  12.588  59.290  1.00  0.00     0.203 C 
BRANCH  34  35
HETATM   35  O11 UNL     1      -2.414  12.816  58.779  1.00  0.00    -0.398 OA
ATOM     36  H11 UNL     1      -1.751  12.694  59.448  1.00  0.00     0.209 HD
ENDBRANCH  34  35
ENDBRANCH  12  34
BRANCH  10  37
HETATM   37  C14 UNL     1      -7.736  13.323  56.940  1.00  0.00     0.188 C 
HETATM   38  O8  UNL     1      -7.831  13.651  55.750  1.00  0.00    -0.647 OA
HETATM   39  O9  UNL     1      -8.629  13.821  57.865  1.00  0.00    -0.647 OA
ENDBRANCH  10  37
BRANCH   5  40
HETATM   40  C9  UNL     1      -3.631   9.166  56.034  1.00  0.00     0.229 C 
HETATM   41  O3  UNL     1      -3.491   8.501  55.034  1.00  0.00    -0.643 OA
HETATM   42  O4  UNL     1      -2.432   9.203  56.822  1.00  0.00    -0.643 OA
ENDBRANCH   5  40
BRANCH   9  43
HETATM   43  O7  UNL     1      -7.858  10.700  56.235  1.00  0.00    -0.375 OA
ATOM     44  H7  UNL     1      -8.797  10.787  56.117  1.00  0.00     0.212 HD
ENDBRANCH   9  43
BRANCH   6  45
HETATM   45  C11 UNL     1      -5.209   8.097  58.112  1.00  0.00     0.229 C 
HETATM   46  O5  UNL     1      -5.545   6.968  57.785  1.00  0.00    -0.643 OA
HETATM   47  O6  UNL     1      -4.439   8.068  59.317  1.00  0.00    -0.643 OA
ENDBRANCH   6  45
TORSDOF 13
ENDMDL
MODEL 3
REMARK VINA RESULT: -7.811273511      1.859      3.632
REMARK  13 active torsions:
REMARK  status: ('A' for Active; 'I' for Inactive)
REMARK    1  A    between atoms: N1_1  and  C1_4 
REMARK    2  A    between atoms: C2_10  and  N4_11 
REMARK    3  A    between atoms: C4_13  and  C5_14 
REMARK    4  A    between atoms: C5_14  and  O2_15 
REMARK    5  A    between atoms: O2_15  and  N5_16 
REMARK    6  A    between atoms: N5_16  and  C6_17 
REMARK    7  A    between atoms: C8_21  and  C9_22 
REMARK    8  A    between atoms: C10_25  and  C11_26 
REMARK    9  A    between atoms: C12_31  and  O7_32 
REMARK   10  A    between atoms: C13_34  and  C14_35 
REMARK   11  A    between atoms: C16_39  and  O10_40 
REMARK   12  A    between atoms: C16_39  and  C17_42 
REMARK   13  A    between atoms: C17_42  and  O11_43 
ROOT
HETATM    1  C6  UNL     1      -4.250  11.263  56.798  1.00  0.00     0.167 C 
HETATM    2  C7  UNL     1      -4.742  11.664  58.164  1.00  0.00     0.130 C 
HETATM    3  N6  UNL     1      -6.145  11.909  58.073  1.00  0.00    -0.374 N 
ATOM      4  H6  UNL     1      -6.350  12.879  57.831  1.00  0.00     0.160 HD
HETATM    5  C8  UNL     1      -7.353  11.121  58.239  1.00  0.00     0.139 C 
HETATM    6  C10 UNL     1      -7.436  10.054  59.002  1.00  0.00     0.141 C 
HETATM    7  N7  UNL     1      -6.310   9.524  59.797  1.00  0.00    -0.355 N 
ATOM      8  H7  UNL     1      -6.320   8.535  60.045  1.00  0.00     0.162 HD
HETATM    9  C12 UNL     1      -5.199  10.325  60.240  1.00  0.00     0.239 C 
HETATM   10  C13 UNL     1      -4.239  10.683  59.108  1.00  0.00     0.116 C 
HETATM   11  C15 UNL     1      -3.861   9.467  58.324  1.00  0.00     0.069 C 
HETATM   12  C16 UNL     1      -3.887   9.818  56.882  1.00  0.00     0.102 C 
ENDROOT
BRANCH   1  13
HETATM   13  N5  UNL     1      -3.081  12.027  56.371  1.00  0.00    -0.090 NA
BRANCH  13  14
HETATM   14  O2  UNL     1      -3.433  12.881  55.354  1.00  0.00    -0.280 OA
BRANCH  14  15
HETATM   15  C5  UNL     1      -2.201  13.335  54.833  1.00  0.00     0.255 C 
BRANCH  15  16
HETATM   16  C4  UNL     1      -1.414  12.197  54.287  1.00  0.00     0.066 A 
HETATM   17  C3  UNL     1      -1.355  11.800  52.960  1.00  0.00     0.144 A 
HETATM   18  N4  UNL     1      -0.549  10.742  52.846  1.00  0.00    -0.228 N 
HETATM   19  N9  UNL     1      -0.115  10.483  54.066  1.00  0.00    -0.014 NA
HETATM   20  N8  UNL     1      -0.616  11.335  54.942  1.00  0.00    -0.284 N 
ATOM     21  H8  UNL     1      -0.429  11.339  55.944  1.00  0.00     0.184 HD
BRANCH  18  22
HETATM   22  C2  UNL     1      -0.197  10.007  51.668  1.00  0.00     0.193 A 
HETATM   23  C1  UNL     1      -0.166   8.644  51.554  1.00  0.00     0.169 A 
HETATM   24  N2  UNL     1       0.210   8.363  50.295  1.00  0.00    -0.222 N 
HETATM   25  O1  UNL     1       0.398   9.487  49.679  1.00  0.00    -0.153 OA
ATOM     26  H2  UNL     1       0.328   7.433  49.896  1.00  0.00     0.198 HD
HETATM   27  N3  UNL     1       0.166  10.487  50.458  1.00  0.00    -0.221 N 
ATOM     28  H3  UNL     1       0.244  11.472  50.204  1.00  0.00     0.198 HD
BRANCH  23  29
HETATM   29  N1  UNL     1      -0.439   7.739  52.455  1.00  0.00    -0.381 N 
ATOM     30  H12 UNL     1       0.203   7.179  53.017  1.00  0.00     0.157 HD
ATOM     31  H11 UNL     1      -1.384   7.465  52.723  1.00  0.00     0.157 HD
ENDBRANCH  23  29
ENDBRANCH  18  22
ENDBRANCH  15  16
ENDBRANCH  14  15
ENDBRANCH  13  14
ENDBRANCH   1  13
BRANCH  12  32
HETATM   32  O10 UNL     1      -2.630   9.626  56.267  1.00  0.00    -0.386 OA
ATOM     33  H10 UNL     1      -1.990   9.407  56.935  1.00  0.00     0.210 HD
ENDBRANCH  12  32
BRANCH  12  34
HETATM   34  C17 UNL     1      -4.840   8.937  56.081  1.00  0.00     0.203 C 
BRANCH  34  35
HETATM   35  O11 UNL     1      -5.805   9.701  55.435  1.00  0.00    -0.398 OA
ATOM     36  H11 UNL     1      -6.314   9.171  54.833  1.00  0.00     0.209 HD
ENDBRANCH  34  35
ENDBRANCH  12  34
BRANCH  10  37
HETATM   37  C14 UNL     1      -3.056  11.229  59.826  1.00  0.00     0.188 C 
HETATM   38  O8  UNL     1      -2.999  12.436  60.098  1.00  0.00    -0.647 OA
HETATM   39  O9  UNL     1      -2.024  10.390  60.192  1.00  0.00    -0.647 OA
ENDBRANCH  10  37
BRANCH   5  40
HETATM   40  C9  UNL     1      -8.494  11.558  57.528  1.00  0.00     0.229 C 
HETATM   41  O3  UNL     1      -9.443  12.244  57.829  1.00  0.00    -0.643 OA
HETATM   42  O4  UNL     1      -8.568  11.112  56.166  1.00  0.00    -0.643 OA
ENDBRANCH   5  40
BRANCH   9  43
HETATM   43  O7  UNL     1      -5.534  11.469  60.919  1.00  0.00    -0.375 OA
ATOM     44  H7  UNL     1      -4.894  11.767  61.555  1.00  0.00     0.212 HD
ENDBRANCH   9  43
BRANCH   6  45
HETATM   45  C11 UNL     1      -8.607   9.272  59.174  1.00  0.00     0.229 C 
HETATM   46  O5  UNL     1      -8.996   8.242  58.643  1.00  0.00    -0.643 OA
HETATM   47  O6  UNL     1      -9.553   9.730  60.145  1.00  0.00    -0.643 OA
ENDBRANCH   6  45
TORSDOF 13
ENDMDL
MODEL 4
REMARK VINA RESULT: -7.785409021      2.711      5.413
REMARK  13 active torsions:
REMARK  status: ('A' for Active; 'I' for Inactive)
REMARK    1  A    between atoms: N1_1  and  C1_4 
REMARK    2  A    between atoms: C2_10  and  N4_11 
REMARK    3  A    between atoms: C4_13  and  C5_14 
REMARK    4  A    between atoms: C5_14  and  O2_15 
REMARK    5  A    between atoms: O2_15  and  N5_16 
REMARK    6  A    between atoms: N5_16  and  C6_17 
REMARK    7  A    between atoms: C8_21  and  C9_22 
REMARK    8  A    between atoms: C10_25  and  C11_26 
REMARK    9  A    between atoms: C12_31  and  O7_32 
REMARK   10  A    between atoms: C13_34  and  C14_35 
REMARK   11  A    between atoms: C16_39  and  O10_40 
REMARK   12  A    between atoms: C16_39  and  C17_42 
REMARK   13  A    between atoms: C17_42  and  O11_43 
ROOT
HETATM    1  C6  UNL     1      -3.596  10.406  55.786  1.00  0.00     0.167 C 
HETATM    2  C7  UNL     1      -3.050  11.183  56.956  1.00  0.00     0.130 C 
HETATM    3  N6  UNL     1      -2.657  12.471  56.485  1.00  0.00    -0.374 N 
ATOM      4  H6  UNL     1      -1.689  12.483  56.162  1.00  0.00     0.160 HD
HETATM    5  C8  UNL     1      -3.293  13.770  56.351  1.00  0.00     0.139 C 
HETATM    6  C10 UNL     1      -4.289  14.181  57.102  1.00  0.00     0.141 C 
HETATM    7  N7  UNL     1      -4.886  13.377  58.187  1.00  0.00    -0.355 N 
ATOM      8  H7  UNL     1      -5.849  13.576  58.460  1.00  0.00     0.162 HD
HETATM    9  C12 UNL     1      -4.185  12.329  58.882  1.00  0.00     0.239 C 
HETATM   10  C13 UNL     1      -4.015  11.070  58.035  1.00  0.00     0.116 C 
HETATM   11  C15 UNL     1      -5.316  10.657  57.425  1.00  0.00     0.069 C 
HETATM   12  C16 UNL     1      -5.063  10.261  56.017  1.00  0.00     0.102 C 
ENDROOT
BRANCH   1  13
HETATM   13  N5  UNL     1      -2.999   9.080  55.660  1.00  0.00    -0.090 NA
BRANCH  13  14
HETATM   14  O2  UNL     1      -1.695   9.117  56.095  1.00  0.00    -0.280 OA
BRANCH  14  15
HETATM   15  C5  UNL     1      -1.110   7.950  55.556  1.00  0.00     0.255 C 
BRANCH  15  16
HETATM   16  C4  UNL     1      -0.979   8.066  54.080  1.00  0.00     0.066 A 
HETATM   17  C3  UNL     1      -0.204   8.987  53.393  1.00  0.00     0.144 A 
HETATM   18  N4  UNL     1      -0.335   8.790  52.078  1.00  0.00    -0.228 N 
HETATM   19  N9  UNL     1      -1.168   7.774  51.945  1.00  0.00    -0.014 NA
HETATM   20  N8  UNL     1      -1.566   7.326  53.121  1.00  0.00    -0.284 N 
ATOM     21  H8  UNL     1      -2.209   6.550  53.278  1.00  0.00     0.184 HD
BRANCH  18  22
HETATM   22  C2  UNL     1       0.280   9.505  51.001  1.00  0.00     0.193 A 
HETATM   23  C1  UNL     1      -0.135  10.710  50.500  1.00  0.00     0.169 A 
HETATM   24  N2  UNL     1       0.708  11.031  49.502  1.00  0.00    -0.222 N 
HETATM   25  O1  UNL     1       1.582  10.081  49.402  1.00  0.00    -0.153 OA
ATOM     26  H2  UNL     1       0.666  11.872  48.928  1.00  0.00     0.198 HD
HETATM   27  N3  UNL     1       1.364   9.157  50.273  1.00  0.00    -0.221 N 
ATOM     28  H3  UNL     1       1.916   8.307  50.393  1.00  0.00     0.198 HD
BRANCH  23  29
HETATM   29  N1  UNL     1      -1.142  11.451  50.873  1.00  0.00    -0.381 N 
ATOM     30  H12 UNL     1      -1.779  11.320  51.659  1.00  0.00     0.157 HD
ATOM     31  H11 UNL     1      -1.433  12.303  50.393  1.00  0.00     0.157 HD
ENDBRANCH  23  29
ENDBRANCH  18  22
ENDBRANCH  15  16
ENDBRANCH  14  15
ENDBRANCH  13  14
ENDBRANCH   1  13
BRANCH  12  32
HETATM   32  O10 UNL     1      -5.436   8.922  55.767  1.00  0.00    -0.386 OA
ATOM     33  H10 UNL     1      -5.681   8.512  56.589  1.00  0.00     0.210 HD
ENDBRANCH  12  32
BRANCH  12  34
HETATM   34  C17 UNL     1      -5.886  11.075  55.023  1.00  0.00     0.203 C 
BRANCH  34  35
HETATM   35  O11 UNL     1      -6.387  12.229  55.615  1.00  0.00    -0.398 OA
ATOM     36  H11 UNL     1      -6.616  12.075  56.524  1.00  0.00     0.209 HD
ENDBRANCH  34  35
ENDBRANCH  12  34
BRANCH  10  37
HETATM   37  C14 UNL     1      -3.556  10.057  59.023  1.00  0.00     0.188 C 
HETATM   38  O8  UNL     1      -4.285   9.099  59.313  1.00  0.00    -0.647 OA
HETATM   39  O9  UNL     1      -2.316  10.183  59.614  1.00  0.00    -0.647 OA
ENDBRANCH  10  37
BRANCH   5  40
HETATM   40  C9  UNL     1      -2.781  14.621  55.346  1.00  0.00     0.229 C 
HETATM   41  O3  UNL     1      -2.061  15.593  55.373  1.00  0.00    -0.643 OA
HETATM   42  O4  UNL     1      -3.180  14.290  54.007  1.00  0.00    -0.643 OA
ENDBRANCH   5  40
BRANCH   9  43
HETATM   43  O7  UNL     1      -2.967  12.683  59.404  1.00  0.00    -0.375 OA
ATOM     44  H7  UNL     1      -2.413  13.200  58.832  1.00  0.00     0.212 HD
ENDBRANCH   9  43
BRANCH   6  45
HETATM   45  C11 UNL     1      -4.923  15.446  56.984  1.00  0.00     0.229 C 
HETATM   46  O5  UNL     1      -4.665  16.545  57.453  1.00  0.00    -0.643 OA
HETATM   47  O6  UNL     1      -6.096  15.506  56.168  1.00  0.00    -0.643 OA
ENDBRANCH   6  45
TORSDOF 13
ENDMDL
MODEL 5
REMARK VINA RESULT: -7.760255487      0.973      1.490
REMARK  13 active torsions:
REMARK  status: ('A' for Active; 'I' for Inactive)
REMARK    1  A    between atoms: N1_1  and  C1_4 
REMARK    2  A    between atoms: C2_10  and  N4_11 
REMARK    3  A    between atoms: C4_13  and  C5_14 
REMARK    4  A    between atoms: C5_14  and  O2_15 
REMARK    5  A    between atoms: O2_15  and  N5_16 
REMARK    6  A    between atoms: N5_16  and  C6_17 
REMARK    7  A    between atoms: C8_21  and  C9_22 
REMARK    8  A    between atoms: C10_25  and  C11_26 
REMARK    9  A    between atoms: C12_31  and  O7_32 
REMARK   10  A    between atoms: C13_34  and  C14_35 
REMARK   11  A    between atoms: C16_39  and  O10_40 
REMARK   12  A    between atoms: C16_39  and  C17_42 
REMARK   13  A    between atoms: C17_42  and  O11_43 
ROOT
HETATM    1  C6  UNL     1      -4.128   9.993  57.659  1.00  0.00     0.167 C 
HETATM    2  C7  UNL     1      -5.532   9.835  57.134  1.00  0.00     0.130 C 
HETATM    3  N6  UNL     1      -5.990   8.531  57.487  1.00  0.00    -0.374 N 
ATOM      4  H6  UNL     1      -5.759   7.837  56.775  1.00  0.00     0.160 HD
HETATM    5  C8  UNL     1      -6.703   7.945  58.608  1.00  0.00     0.139 C 
HETATM    6  C10 UNL     1      -7.533   8.610  59.379  1.00  0.00     0.141 C 
HETATM    7  N7  UNL     1      -7.854  10.040  59.199  1.00  0.00    -0.355 N 
ATOM      8  H7  UNL     1      -8.179  10.566  60.011  1.00  0.00     0.162 HD
HETATM    9  C12 UNL     1      -7.734  10.733  57.943  1.00  0.00     0.239 C 
HETATM   10  C13 UNL     1      -6.282  11.004  57.554  1.00  0.00     0.116 C 
HETATM   11  C15 UNL     1      -5.533  11.628  58.688  1.00  0.00     0.069 C 
HETATM   12  C16 UNL     1      -4.197  10.986  58.770  1.00  0.00     0.102 C 
ENDROOT
BRANCH   1  13
HETATM   13  N5  UNL     1      -3.197  10.475  56.643  1.00  0.00    -0.090 NA
BRANCH  13  14
HETATM   14  O2  UNL     1      -3.300   9.698  55.514  1.00  0.00    -0.280 OA
BRANCH  14  15
HETATM   15  C5  UNL     1      -2.295   8.718  55.666  1.00  0.00     0.255 C 
BRANCH  15  16
HETATM   16  C4  UNL     1      -1.485   8.604  54.424  1.00  0.00     0.066 A 
HETATM   17  C3  UNL     1      -1.306   9.591  53.467  1.00  0.00     0.144 A 
HETATM   18  N4  UNL     1      -0.517   9.129  52.492  1.00  0.00    -0.228 N 
HETATM   19  N9  UNL     1      -0.211   7.890  52.830  1.00  0.00    -0.014 NA
HETATM   20  N8  UNL     1      -0.775   7.554  53.976  1.00  0.00    -0.284 N 
ATOM     21  H8  UNL     1      -0.687   6.651  54.441  1.00  0.00     0.184 HD
BRANCH  18  22
HETATM   22  C2  UNL     1      -0.069   9.801  51.310  1.00  0.00     0.193 A 
HETATM   23  C1  UNL     1       0.904   9.356  50.456  1.00  0.00     0.169 A 
HETATM   24  N2  UNL     1       1.019  10.274  49.480  1.00  0.00    -0.222 N 
HETATM   25  O1  UNL     1       0.170  11.220  49.725  1.00  0.00    -0.153 OA
ATOM     26  H2  UNL     1       1.661  10.232  48.690  1.00  0.00     0.198 HD
HETATM   27  N3  UNL     1      -0.496  10.978  50.801  1.00  0.00    -0.221 N 
ATOM     28  H3  UNL     1      -1.222  11.573  51.201  1.00  0.00     0.198 HD
BRANCH  23  29
HETATM   29  N1  UNL     1       1.616   8.264  50.521  1.00  0.00    -0.381 N 
ATOM     30  H12 UNL     1       2.238   7.861  49.820  1.00  0.00     0.157 HD
ATOM     31  H11 UNL     1       1.637   7.643  51.330  1.00  0.00     0.157 HD
ENDBRANCH  23  29
ENDBRANCH  18  22
ENDBRANCH  15  16
ENDBRANCH  14  15
ENDBRANCH  13  14
ENDBRANCH   1  13
BRANCH  12  32
HETATM   32  O10 UNL     1      -3.150  11.922  58.614  1.00  0.00    -0.386 OA
ATOM     33  H10 UNL     1      -3.319  12.447  57.841  1.00  0.00     0.210 HD
ENDBRANCH  12  32
BRANCH  12  34
HETATM   34  C17 UNL     1      -3.936  10.348  60.130  1.00  0.00     0.203 C 
BRANCH  34  35
HETATM   35  O11 UNL     1      -3.887   8.962  60.031  1.00  0.00    -0.398 OA
ATOM     36  H11 UNL     1      -3.435   8.582  60.775  1.00  0.00     0.209 HD
ENDBRANCH  34  35
ENDBRANCH  12  34
BRANCH  10  37
HETATM   37  C14 UNL     1      -6.408  11.962  56.422  1.00  0.00     0.188 C 
HETATM   38  O8  UNL     1      -6.352  11.552  55.255  1.00  0.00    -0.647 OA
HETATM   39  O9  UNL     1      -6.590  13.305  56.673  1.00  0.00    -0.647 OA
ENDBRANCH  10  37
BRANCH   5  40
HETATM   40  C9  UNL     1      -6.473   6.573  58.854  1.00  0.00     0.229 C 
HETATM   41  O3  UNL     1      -7.171   5.589  58.768  1.00  0.00    -0.643 OA
HETATM   42  O4  UNL     1      -5.147   6.249  59.297  1.00  0.00    -0.643 OA
ENDBRANCH   5  40
BRANCH   9  43
HETATM   43  O7  UNL     1      -8.377  10.145  56.884  1.00  0.00    -0.375 OA
ATOM     44  H7  UNL     1      -7.818   9.667  56.283  1.00  0.00     0.212 HD
ENDBRANCH   9  43
BRANCH   6  45
HETATM   45  C11 UNL     1      -8.237   8.054  60.480  1.00  0.00     0.229 C 
HETATM   46  O5  UNL     1      -8.803   6.983  60.640  1.00  0.00    -0.643 OA
HETATM   47  O6  UNL     1      -8.333   8.860  61.658  1.00  0.00    -0.643 OA
ENDBRANCH   6  45
TORSDOF 13
ENDMDL
