MODEL 1
REMARK VINA RESULT: -8.652596772      0.000      0.000
REMARK  14 active torsions:
REMARK  status: ('A' for Active; 'I' for Inactive)
REMARK    1  A    between atoms: C3_6  and  O1_7 
REMARK    2  A    between atoms: O1_7  and  C4_8 
REMARK    3  A    between atoms: C4_8  and  C5_9 
REMARK    4  A    between atoms: C4_8  and  C6_12 
REMARK    5  A    between atoms: C5_9  and  O2_10 
REMARK    6  A    between atoms: C6_12  and  N2_13 
REMARK    7  A    between atoms: C6_12  and  O3_17 
REMARK    8  A    between atoms: C7_20  and  C8_21 
REMARK    9  A    between atoms: C9_26  and  C10_27 
REMARK   10  A    between atoms: C11_28  and  N5_29 
REMARK   11  A    between atoms: C14_37  and  C15_38 
REMARK   12  A    between atoms: C15_38  and  N9_39 
REMARK   13  A    between atoms: C15_38  and  C16_43 
REMARK   14  A    between atoms: C18_51  and  N12_52 
ROOT
HETATM    1  C8  UNL     1      -3.589   9.766  56.240  1.00  0.00     0.154 A 
HETATM    2  N3  UNL     1      -3.586   8.463  56.453  1.00  0.00    -0.283 N 
ATOM      3  H3  UNL     1      -3.317   7.739  55.787  1.00  0.00     0.188 HD
HETATM    4  N4  UNL     1      -4.006   8.273  57.720  1.00  0.00    -0.283 N 
ATOM      5  H4  UNL     1      -4.102   7.356  58.157  1.00  0.00     0.188 HD
HETATM    6  C9  UNL     1      -4.276   9.410  58.327  1.00  0.00     0.139 A 
HETATM    7  N13 UNL     1      -4.006  10.353  57.370  1.00  0.00    -0.325 N 
ATOM      8  H13 UNL     1      -4.108  11.359  57.501  1.00  0.00     0.169 HD
ENDROOT
BRANCH   6   9
HETATM    9  C10 UNL     1      -4.730   9.784  59.675  1.00  0.00     0.097 A 
HETATM   10  C11 UNL     1      -5.983  10.070  60.041  1.00  0.00     0.125 A 
HETATM   11  N10 UNL     1      -6.270  10.471  61.300  1.00  0.00    -0.338 N 
HETATM   12  C17 UNL     1      -5.305  10.591  62.222  1.00  0.00     0.183 A 
ATOM     13  H10 UNL     1      -7.235  10.685  61.551  1.00  0.00     0.168 HD
HETATM   14  N11 UNL     1      -4.023  10.316  61.920  1.00  0.00    -0.338 N 
HETATM   15  C18 UNL     1      -3.749   9.923  60.677  1.00  0.00     0.117 A 
ATOM     16  H11 UNL     1      -3.286  10.406  62.620  1.00  0.00     0.168 HD
BRANCH  10  17
HETATM   17  N5  UNL     1      -7.156   9.897  59.207  1.00  0.00    -0.326 N 
HETATM   18  C12 UNL     1      -7.689  11.199  58.793  1.00  0.00     0.252 C 
HETATM   19  N6  UNL     1      -8.607  11.009  57.702  1.00  0.00    -0.348 N 
HETATM   20  C13 UNL     1      -9.546   9.900  57.834  1.00  0.00     0.186 C 
ATOM     21  H6  UNL     1      -8.602  11.616  56.882  1.00  0.00     0.163 HD
HETATM   22  N7  UNL     1     -10.861  10.125  57.378  1.00  0.00    -0.064 NA
HETATM   23  N8  UNL     1      -9.092   8.813  58.346  1.00  0.00    -0.341 N 
HETATM   24  C14 UNL     1      -7.694   8.685  58.777  1.00  0.00     0.230 C 
ATOM     25  H8  UNL     1      -9.720   8.016  58.457  1.00  0.00     0.164 HD
BRANCH  24  26
HETATM   26  C15 UNL     1      -7.595   7.461  59.663  1.00  0.00     0.325 C 
BRANCH  26  27
HETATM   27  N9  UNL     1      -9.049   7.041  59.762  1.00  0.00    -0.061 N 
ATOM     28  H93 UNL     1      -9.590   7.141  58.903  1.00  0.00     0.275 HD
ATOM     29  H92 UNL     1      -9.207   6.038  59.854  1.00  0.00     0.275 HD
ATOM     30  H91 UNL     1      -9.371   7.607  60.547  1.00  0.00     0.275 HD
ENDBRANCH  26  27
BRANCH  26  31
HETATM   31  C16 UNL     1      -6.954   6.288  59.091  1.00  0.00     0.208 C 
HETATM   32  O5  UNL     1      -6.236   6.440  58.049  1.00  0.00    -0.646 OA
HETATM   33  O6  UNL     1      -7.028   4.979  59.540  1.00  0.00    -0.646 OA
ENDBRANCH  26  31
ENDBRANCH  24  26
ENDBRANCH  10  17
BRANCH  15  34
HETATM   34  N12 UNL     1      -2.522   9.648  60.343  1.00  0.00    -0.385 N 
ATOM     35 2H12 UNL     1      -2.225   8.675  60.261  1.00  0.00     0.157 HD
ATOM     36 1H12 UNL     1      -1.899  10.439  60.175  1.00  0.00     0.157 HD
ENDBRANCH  15  34
ENDBRANCH   6   9
BRANCH   1  37
HETATM   37  C7  UNL     1      -3.223  10.538  55.010  1.00  0.00     0.337 C 
HETATM   38  O4  UNL     1      -2.270   9.929  54.240  1.00  0.00    -0.301 OA
HETATM   39  C3  UNL     1      -0.962  10.252  54.581  1.00  0.00     0.475 C 
HETATM   40  N1  UNL     1      -0.728  11.652  54.701  1.00  0.00     0.001 N 
HETATM   41  C2  UNL     1      -1.943  12.434  54.578  1.00  0.00     0.325 C 
ATOM     42  H12 UNL     1      -0.022  11.964  54.034  1.00  0.00     0.286 HD
ATOM     43  H11 UNL     1      -0.240  11.868  55.569  1.00  0.00     0.286 HD
HETATM   44  C1  UNL     1      -1.639  13.794  55.180  1.00  0.00     0.071 C 
HETATM   45  O7  UNL     1      -2.916  11.854  55.341  1.00  0.00    -0.321 OA
BRANCH  39  46
HETATM   46  O1  UNL     1      -0.101   9.733  53.620  1.00  0.00    -0.327 OA
BRANCH  46  47
HETATM   47  C4  UNL     1      -0.687   8.977  52.647  1.00  0.00     0.206 C 
BRANCH  47  48
HETATM   48  C5  UNL     1       0.059   9.049  51.320  1.00  0.00     0.200 C 
BRANCH  48  49
HETATM   49  O2  UNL     1       1.339   9.609  51.512  1.00  0.00    -0.398 OA
ATOM     50  H2  UNL     1       1.971   8.924  51.697  1.00  0.00     0.209 HD
ENDBRANCH  48  49
ENDBRANCH  47  48
BRANCH  47  51
HETATM   51  C6  UNL     1      -0.694   7.518  53.041  1.00  0.00     0.347 C 
BRANCH  51  52
HETATM   52  N2  UNL     1       0.584   6.929  52.694  1.00  0.00    -0.051 N 
ATOM     53  H23 UNL     1       0.558   6.450  51.794  1.00  0.00     0.277 HD
ATOM     54  H22 UNL     1       1.285   7.633  52.462  1.00  0.00     0.277 HD
ATOM     55  H21 UNL     1       0.884   6.316  53.452  1.00  0.00     0.277 HD
ENDBRANCH  51  52
BRANCH  51  56
HETATM   56  O3  UNL     1      -1.681   6.896  52.277  1.00  0.00    -0.368 OA
ATOM     57  H3  UNL     1      -1.576   5.960  52.399  1.00  0.00     0.212 HD
ENDBRANCH  51  56
ENDBRANCH  47  51
ENDBRANCH  46  47
ENDBRANCH  39  46
ENDBRANCH   1  37
TORSDOF 14
ENDMDL
MODEL 2
REMARK VINA RESULT: -8.051311960      0.962      1.077
REMARK  14 active torsions:
REMARK  status: ('A' for Active; 'I' for Inactive)
REMARK    1  A    between atoms: C3_6  and  O1_7 
REMARK    2  A    between atoms: O1_7  and  C4_8 
REMARK    3  A    between atoms: C4_8  and  C5_9 
REMARK    4  A    between atoms: C4_8  and  C6_12 
REMARK    5  A    between atoms: C5_9  and  O2_10 
REMARK    6  A    between atoms: C6_12  and  N2_13 
REMARK    7  A    between atoms: C6_12  and  O3_17 
REMARK    8  A    between atoms: C7_20  and  C8_21 
REMARK    9  A    between atoms: C9_26  and  C10_27 
REMARK   10  A    between atoms: C11_28  and  N5_29 
REMARK   11  A    between atoms: C14_37  and  C15_38 
REMARK   12  A    between atoms: C15_38  and  N9_39 
REMARK   13  A    between atoms: C15_38  and  C16_43 
REMARK   14  A    between atoms: C18_51  and  N12_52 
ROOT
HETATM    1  C8  UNL     1      -3.586   9.797  56.257  1.00  0.00     0.154 A 
HETATM    2  N3  UNL     1      -3.647   8.501  56.506  1.00  0.00    -0.283 N 
ATOM      3  H3  UNL     1      -3.435   7.746  55.854  1.00  0.00     0.188 HD
HETATM    4  N4  UNL     1      -4.043   8.367  57.788  1.00  0.00    -0.283 N 
ATOM      5  H4  UNL     1      -4.177   7.468  58.252  1.00  0.00     0.188 HD
HETATM    6  C9  UNL     1      -4.236   9.533  58.370  1.00  0.00     0.139 A 
HETATM    7  N13 UNL     1      -3.941  10.435  57.381  1.00  0.00    -0.325 N 
ATOM      8  H13 UNL     1      -3.986  11.448  57.486  1.00  0.00     0.169 HD
ENDROOT
BRANCH   6   9
HETATM    9  C10 UNL     1      -4.633   9.966  59.718  1.00  0.00     0.097 A 
HETATM   10  C11 UNL     1      -5.854  10.353  60.101  1.00  0.00     0.125 A 
HETATM   11  N10 UNL     1      -6.085  10.799  61.357  1.00  0.00    -0.338 N 
HETATM   12  C17 UNL     1      -5.095  10.863  62.258  1.00  0.00     0.183 A 
ATOM     13  H10 UNL     1      -7.026  11.091  61.621  1.00  0.00     0.168 HD
HETATM   14  N11 UNL     1      -3.844  10.487  61.938  1.00  0.00    -0.338 N 
HETATM   15  C18 UNL     1      -3.625  10.050  60.699  1.00  0.00     0.117 A 
ATOM     16  H11 UNL     1      -3.089  10.534  62.622  1.00  0.00     0.168 HD
BRANCH  10  17
HETATM   17  N5  UNL     1      -7.053  10.254  59.293  1.00  0.00    -0.326 N 
HETATM   18  C12 UNL     1      -7.273  11.495  58.545  1.00  0.00     0.252 C 
HETATM   19  N6  UNL     1      -8.234  11.255  57.501  1.00  0.00    -0.348 N 
HETATM   20  C13 UNL     1      -9.405  10.466  57.871  1.00  0.00     0.186 C 
ATOM     21  H6  UNL     1      -8.105  11.617  56.557  1.00  0.00     0.163 HD
HETATM   22  N7  UNL     1     -10.639  10.869  57.323  1.00  0.00    -0.064 NA
HETATM   23  N8  UNL     1      -9.208   9.469  58.657  1.00  0.00    -0.341 N 
HETATM   24  C14 UNL     1      -7.870   9.132  59.160  1.00  0.00     0.230 C 
ATOM     25  H8  UNL     1     -10.003   8.896  58.939  1.00  0.00     0.164 HD
BRANCH  24  26
HETATM   26  C15 UNL     1      -8.043   8.184  60.328  1.00  0.00     0.325 C 
BRANCH  26  27
HETATM   27  N9  UNL     1      -8.970   8.978  61.227  1.00  0.00    -0.061 N 
ATOM     28  H93 UNL     1      -8.517   9.690  61.799  1.00  0.00     0.275 HD
ATOM     29  H92 UNL     1      -9.593   9.626  60.746  1.00  0.00     0.275 HD
ATOM     30  H91 UNL     1      -9.435   8.233  61.748  1.00  0.00     0.275 HD
ENDBRANCH  26  27
BRANCH  26  31
HETATM   31  C16 UNL     1      -8.795   6.965  60.077  1.00  0.00     0.208 C 
HETATM   32  O5  UNL     1      -8.317   5.862  60.503  1.00  0.00    -0.646 OA
HETATM   33  O6  UNL     1     -10.001   6.837  59.407  1.00  0.00    -0.646 OA
ENDBRANCH  26  31
ENDBRANCH  24  26
ENDBRANCH  10  17
BRANCH  15  34
HETATM   34  N12 UNL     1      -2.429   9.676  60.348  1.00  0.00    -0.385 N 
ATOM     35 2H12 UNL     1      -1.864   9.118  60.989  1.00  0.00     0.157 HD
ATOM     36 1H12 UNL     1      -2.105   9.967  59.425  1.00  0.00     0.157 HD
ENDBRANCH  15  34
ENDBRANCH   6   9
BRANCH   1  37
HETATM   37  C7  UNL     1      -3.212  10.515  54.998  1.00  0.00     0.337 C 
HETATM   38  O4  UNL     1      -2.223   9.896  54.283  1.00  0.00    -0.301 OA
HETATM   39  C3  UNL     1      -0.934  10.273  54.637  1.00  0.00     0.475 C 
HETATM   40  N1  UNL     1      -0.742  11.684  54.689  1.00  0.00     0.001 N 
HETATM   41  C2  UNL     1      -1.975  12.422  54.498  1.00  0.00     0.325 C 
ATOM     42  H12 UNL     1      -0.029  11.982  54.023  1.00  0.00     0.286 HD
ATOM     43  H11 UNL     1      -0.281  11.958  55.556  1.00  0.00     0.286 HD
HETATM   44  C1  UNL     1      -1.725  13.820  55.036  1.00  0.00     0.071 C 
HETATM   45  O7  UNL     1      -2.950  11.854  55.267  1.00  0.00    -0.321 OA
BRANCH  39  46
HETATM   46  O1  UNL     1      -0.035   9.732  53.724  1.00  0.00    -0.327 OA
BRANCH  46  47
HETATM   47  C4  UNL     1      -0.587   8.997  52.715  1.00  0.00     0.206 C 
BRANCH  47  48
HETATM   48  C5  UNL     1       0.228   9.062  51.429  1.00  0.00     0.200 C 
BRANCH  48  49
HETATM   49  O2  UNL     1      -0.441   8.375  50.395  1.00  0.00    -0.398 OA
ATOM     50  H2  UNL     1      -0.933   8.988  49.860  1.00  0.00     0.209 HD
ENDBRANCH  48  49
ENDBRANCH  47  48
BRANCH  47  51
HETATM   51  C6  UNL     1      -0.648   7.535  53.096  1.00  0.00     0.347 C 
BRANCH  51  52
HETATM   52  N2  UNL     1       0.589   6.893  52.699  1.00  0.00    -0.051 N 
ATOM     53  H23 UNL     1       1.260   6.834  53.465  1.00  0.00     0.277 HD
ATOM     54  H22 UNL     1       0.471   5.893  52.534  1.00  0.00     0.277 HD
ATOM     55  H21 UNL     1       0.969   7.378  51.886  1.00  0.00     0.277 HD
ENDBRANCH  51  52
BRANCH  51  56
HETATM   56  O3  UNL     1      -1.688   6.968  52.360  1.00  0.00    -0.368 OA
ATOM     57  H3  UNL     1      -1.776   7.482  51.566  1.00  0.00     0.212 HD
ENDBRANCH  51  56
ENDBRANCH  47  51
ENDBRANCH  46  47
ENDBRANCH  39  46
ENDBRANCH   1  37
TORSDOF 14
ENDMDL
MODEL 3
REMARK VINA RESULT: -7.925250031      1.053      1.326
REMARK  14 active torsions:
REMARK  status: ('A' for Active; 'I' for Inactive)
REMARK    1  A    between atoms: C3_6  and  O1_7 
REMARK    2  A    between atoms: O1_7  and  C4_8 
REMARK    3  A    between atoms: C4_8  and  C5_9 
REMARK    4  A    between atoms: C4_8  and  C6_12 
REMARK    5  A    between atoms: C5_9  and  O2_10 
REMARK    6  A    between atoms: C6_12  and  N2_13 
REMARK    7  A    between atoms: C6_12  and  O3_17 
REMARK    8  A    between atoms: C7_20  and  C8_21 
REMARK    9  A    between atoms: C9_26  and  C10_27 
REMARK   10  A    between atoms: C11_28  and  N5_29 
REMARK   11  A    between atoms: C14_37  and  C15_38 
REMARK   12  A    between atoms: C15_38  and  N9_39 
REMARK   13  A    between atoms: C15_38  and  C16_43 
REMARK   14  A    between atoms: C18_51  and  N12_52 
ROOT
HETATM    1  C8  UNL     1      -3.812  10.360  56.243  1.00  0.00     0.154 A 
HETATM    2  N3  UNL     1      -3.529   9.076  56.371  1.00  0.00    -0.283 N 
ATOM      3  H3  UNL     1      -3.205   8.449  55.635  1.00  0.00     0.188 HD
HETATM    4  N4  UNL     1      -3.751   8.753  57.661  1.00  0.00    -0.283 N 
ATOM      5  H4  UNL     1      -3.614   7.818  58.046  1.00  0.00     0.188 HD
HETATM    6  C9  UNL     1      -4.165   9.786  58.365  1.00  0.00     0.139 A 
HETATM    7  N13 UNL     1      -4.199  10.803  57.447  1.00  0.00    -0.325 N 
ATOM      8  H13 UNL     1      -4.480  11.762  57.652  1.00  0.00     0.169 HD
ENDROOT
BRANCH   6   9
HETATM    9  C10 UNL     1      -4.519  10.006  59.775  1.00  0.00     0.097 A 
HETATM   10  C11 UNL     1      -5.746  10.221  60.262  1.00  0.00     0.125 A 
HETATM   11  N10 UNL     1      -5.942  10.480  61.575  1.00  0.00    -0.338 N 
HETATM   12  C17 UNL     1      -4.910  10.527  62.429  1.00  0.00     0.183 A 
ATOM     13  H10 UNL     1      -6.888  10.643  61.919  1.00  0.00     0.168 HD
HETATM   14  N11 UNL     1      -3.652  10.317  62.005  1.00  0.00    -0.338 N 
HETATM   15  C18 UNL     1      -3.467  10.064  60.710  1.00  0.00     0.117 A 
ATOM     16  H11 UNL     1      -2.865  10.352  62.653  1.00  0.00     0.168 HD
BRANCH  10  17
HETATM   17  N5  UNL     1      -6.976  10.107  59.505  1.00  0.00    -0.326 N 
HETATM   18  C12 UNL     1      -7.612  11.419  59.358  1.00  0.00     0.252 C 
HETATM   19  N6  UNL     1      -8.611  11.349  58.325  1.00  0.00    -0.348 N 
HETATM   20  C13 UNL     1      -9.474  10.171  58.341  1.00  0.00     0.186 C 
ATOM     21  H6  UNL     1      -8.711  12.080  57.621  1.00  0.00     0.163 HD
HETATM   22  N7  UNL     1     -10.834  10.378  58.032  1.00  0.00    -0.064 NA
HETATM   23  N8  UNL     1      -8.918   9.049  58.626  1.00  0.00    -0.341 N 
HETATM   24  C14 UNL     1      -7.483   8.947  58.920  1.00  0.00     0.230 C 
ATOM     25  H8  UNL     1      -9.490   8.204  58.649  1.00  0.00     0.164 HD
BRANCH  24  26
HETATM   26  C15 UNL     1      -7.241   7.605  59.577  1.00  0.00     0.325 C 
BRANCH  26  27
HETATM   27  N9  UNL     1      -8.651   7.053  59.665  1.00  0.00    -0.061 N 
ATOM     28  H93 UNL     1      -9.215   7.165  58.823  1.00  0.00     0.275 HD
ATOM     29  H92 UNL     1      -8.719   6.036  59.688  1.00  0.00     0.275 HD
ATOM     30  H91 UNL     1      -9.004   7.532  60.494  1.00  0.00     0.275 HD
ENDBRANCH  26  27
BRANCH  26  31
HETATM   31  C16 UNL     1      -6.547   6.603  58.784  1.00  0.00     0.208 C 
HETATM   32  O5  UNL     1      -6.644   5.381  59.135  1.00  0.00    -0.646 OA
HETATM   33  O6  UNL     1      -5.760   6.807  57.662  1.00  0.00    -0.646 OA
ENDBRANCH  26  31
ENDBRANCH  24  26
ENDBRANCH  10  17
BRANCH  15  34
HETATM   34  N12 UNL     1      -2.264   9.856  60.258  1.00  0.00    -0.385 N 
ATOM     35 2H12 UNL     1      -1.896  10.444  59.511  1.00  0.00     0.157 HD
ATOM     36 1H12 UNL     1      -1.736   9.094  60.684  1.00  0.00     0.157 HD
ENDBRANCH  15  34
ENDBRANCH   6   9
BRANCH   1  37
HETATM   37  C7  UNL     1      -3.753  11.239  55.032  1.00  0.00     0.337 C 
HETATM   38  O4  UNL     1      -3.054  10.695  53.990  1.00  0.00    -0.301 OA
HETATM   39  C3  UNL     1      -1.693  10.971  54.003  1.00  0.00     0.475 C 
HETATM   40  N1  UNL     1      -1.387  12.352  54.179  1.00  0.00     0.001 N 
HETATM   41  C2  UNL     1      -2.565  13.154  54.448  1.00  0.00     0.325 C 
ATOM     42  H12 UNL     1      -0.869  12.717  53.380  1.00  0.00     0.286 HD
ATOM     43  H11 UNL     1      -0.683  12.481  54.905  1.00  0.00     0.286 HD
HETATM   44  C1  UNL     1      -2.069  14.449  55.066  1.00  0.00     0.071 C 
HETATM   45  O7  UNL     1      -3.325  12.515  55.385  1.00  0.00    -0.321 OA
BRANCH  39  46
HETATM   46  O1  UNL     1      -1.129  10.536  52.808  1.00  0.00    -0.327 OA
BRANCH  46  47
HETATM   47  C4  UNL     1      -0.256   9.493  52.911  1.00  0.00     0.206 C 
BRANCH  47  48
HETATM   48  C5  UNL     1      -0.813   8.341  53.737  1.00  0.00     0.200 C 
BRANCH  48  49
HETATM   49  O2  UNL     1       0.098   7.264  53.745  1.00  0.00    -0.398 OA
ATOM     50  H2  UNL     1      -0.217   6.574  54.318  1.00  0.00     0.209 HD
ENDBRANCH  48  49
ENDBRANCH  47  48
BRANCH  47  51
HETATM   51  C6  UNL     1       0.047   8.919  51.546  1.00  0.00     0.347 C 
BRANCH  51  52
HETATM   52  N2  UNL     1      -0.015   9.981  50.563  1.00  0.00    -0.051 N 
ATOM     53  H23 UNL     1      -0.943  10.401  50.502  1.00  0.00     0.277 HD
ATOM     54  H22 UNL     1       0.499  10.812  50.856  1.00  0.00     0.277 HD
ATOM     55  H21 UNL     1       0.308   9.621  49.665  1.00  0.00     0.277 HD
ENDBRANCH  51  52
BRANCH  51  56
HETATM   56  O3  UNL     1      -0.964   8.002  51.259  1.00  0.00    -0.368 OA
ATOM     57  H3  UNL     1      -1.457   7.876  52.062  1.00  0.00     0.212 HD
ENDBRANCH  51  56
ENDBRANCH  47  51
ENDBRANCH  46  47
ENDBRANCH  39  46
ENDBRANCH   1  37
TORSDOF 14
ENDMDL
MODEL 4
REMARK VINA RESULT: -7.813660385      2.179      3.461
REMARK  14 active torsions:
REMARK  status: ('A' for Active; 'I' for Inactive)
REMARK    1  A    between atoms: C3_6  and  O1_7 
REMARK    2  A    between atoms: O1_7  and  C4_8 
REMARK    3  A    between atoms: C4_8  and  C5_9 
REMARK    4  A    between atoms: C4_8  and  C6_12 
REMARK    5  A    between atoms: C5_9  and  O2_10 
REMARK    6  A    between atoms: C6_12  and  N2_13 
REMARK    7  A    between atoms: C6_12  and  O3_17 
REMARK    8  A    between atoms: C7_20  and  C8_21 
REMARK    9  A    between atoms: C9_26  and  C10_27 
REMARK   10  A    between atoms: C11_28  and  N5_29 
REMARK   11  A    between atoms: C14_37  and  C15_38 
REMARK   12  A    between atoms: C15_38  and  N9_39 
REMARK   13  A    between atoms: C15_38  and  C16_43 
REMARK   14  A    between atoms: C18_51  and  N12_52 
ROOT
HETATM    1  C8  UNL     1      -4.391   9.944  57.047  1.00  0.00     0.154 A 
HETATM    2  N3  UNL     1      -3.672   9.907  58.155  1.00  0.00    -0.283 N 
ATOM      3  H3  UNL     1      -2.803  10.411  58.333  1.00  0.00     0.188 HD
HETATM    4  N4  UNL     1      -4.306   9.075  59.005  1.00  0.00    -0.283 N 
ATOM      5  H4  UNL     1      -3.972   8.856  59.944  1.00  0.00     0.188 HD
HETATM    6  C9  UNL     1      -5.408   8.579  58.481  1.00  0.00     0.139 A 
HETATM    7  N13 UNL     1      -5.448   9.141  57.232  1.00  0.00    -0.325 N 
ATOM      8  H13 UNL     1      -6.179   8.973  56.542  1.00  0.00     0.169 HD
ENDROOT
BRANCH   6   9
HETATM    9  C10 UNL     1      -6.465   7.672  58.954  1.00  0.00     0.097 A 
HETATM   10  C11 UNL     1      -7.670   8.026  59.412  1.00  0.00     0.125 A 
HETATM   11  N10 UNL     1      -8.537   7.104  59.888  1.00  0.00    -0.338 N 
HETATM   12  C17 UNL     1      -8.215   5.803  59.911  1.00  0.00     0.183 A 
ATOM     13  H10 UNL     1      -9.448   7.403  60.233  1.00  0.00     0.168 HD
HETATM   14  N11 UNL     1      -7.020   5.379  59.462  1.00  0.00    -0.338 N 
HETATM   15  C18 UNL     1      -6.170   6.294  58.997  1.00  0.00     0.117 A 
ATOM     16  H11 UNL     1      -6.772   4.390  59.478  1.00  0.00     0.168 HD
BRANCH  10  17
HETATM   17  N5  UNL     1      -8.219   9.367  59.366  1.00  0.00    -0.326 N 
HETATM   18  C12 UNL     1      -8.932   9.587  58.104  1.00  0.00     0.252 C 
HETATM   19  N6  UNL     1      -9.756  10.760  58.224  1.00  0.00    -0.348 N 
HETATM   20  C13 UNL     1      -9.143  11.916  58.871  1.00  0.00     0.186 C 
ATOM     21  H6  UNL     1     -10.714  10.782  57.876  1.00  0.00     0.163 HD
HETATM   22  N7  UNL     1      -9.441  13.180  58.323  1.00  0.00    -0.064 NA
HETATM   23  N8  UNL     1      -8.393  11.682  59.887  1.00  0.00    -0.341 N 
HETATM   24  C14 UNL     1      -8.162  10.320  60.382  1.00  0.00     0.230 C 
ATOM     25  H8  UNL     1      -7.946  12.466  60.364  1.00  0.00     0.164 HD
BRANCH  24  26
HETATM   26  C15 UNL     1      -6.965  10.363  61.308  1.00  0.00     0.325 C 
BRANCH  26  27
HETATM   27  N9  UNL     1      -6.173  11.516  60.724  1.00  0.00    -0.061 N 
ATOM     28  H93 UNL     1      -5.488  11.257  60.014  1.00  0.00     0.275 HD
ATOM     29  H92 UNL     1      -6.700  12.144  60.120  1.00  0.00     0.275 HD
ATOM     30  H91 UNL     1      -5.787  11.944  61.566  1.00  0.00     0.275 HD
ENDBRANCH  26  27
BRANCH  26  31
HETATM   31  C16 UNL     1      -7.209  10.793  62.675  1.00  0.00     0.208 C 
HETATM   32  O5  UNL     1      -8.151  11.626  62.887  1.00  0.00    -0.646 OA
HETATM   33  O6  UNL     1      -6.526  10.410  63.819  1.00  0.00    -0.646 OA
ENDBRANCH  26  31
ENDBRANCH  24  26
ENDBRANCH  10  17
BRANCH  15  34
HETATM   34  N12 UNL     1      -5.004   5.927  58.554  1.00  0.00    -0.385 N 
ATOM     35 2H12 UNL     1      -4.285   5.622  59.211  1.00  0.00     0.157 HD
ATOM     36 1H12 UNL     1      -4.860   5.962  57.545  1.00  0.00     0.157 HD
ENDBRANCH  15  34
ENDBRANCH   6   9
BRANCH   1  37
HETATM   37  C7  UNL     1      -4.154  10.697  55.775  1.00  0.00     0.337 C 
HETATM   38  O4  UNL     1      -3.712   9.913  54.744  1.00  0.00    -0.301 OA
HETATM   39  C3  UNL     1      -2.331   9.774  54.678  1.00  0.00     0.475 C 
HETATM   40  N1  UNL     1      -1.625  11.010  54.740  1.00  0.00     0.001 N 
HETATM   41  C2  UNL     1      -2.498  12.138  55.001  1.00  0.00     0.325 C 
ATOM     42  H12 UNL     1      -1.074  11.160  53.895  1.00  0.00     0.286 HD
ATOM     43  H11 UNL     1      -0.869  10.966  55.422  1.00  0.00     0.286 HD
HETATM   44  C1  UNL     1      -1.606  13.261  55.502  1.00  0.00     0.071 C 
HETATM   45  O7  UNL     1      -3.350  11.807  56.015  1.00  0.00    -0.321 OA
BRANCH  39  46
HETATM   46  O1  UNL     1      -1.996   9.125  53.494  1.00  0.00    -0.327 OA
BRANCH  46  47
HETATM   47  C4  UNL     1      -0.680   8.799  53.350  1.00  0.00     0.206 C 
BRANCH  47  48
HETATM   48  C5  UNL     1      -0.482   7.420  52.731  1.00  0.00     0.200 C 
BRANCH  48  49
HETATM   49  O2  UNL     1      -1.724   6.885  52.331  1.00  0.00    -0.398 OA
ATOM     50  H2  UNL     1      -1.699   5.936  52.373  1.00  0.00     0.209 HD
ENDBRANCH  48  49
ENDBRANCH  47  48
BRANCH  47  51
HETATM   51  C6  UNL     1       0.010   9.773  52.423  1.00  0.00     0.347 C 
BRANCH  51  52
HETATM   52  N2  UNL     1       0.404   9.077  51.215  1.00  0.00    -0.051 N 
ATOM     53  H23 UNL     1       0.276   8.068  51.289  1.00  0.00     0.277 HD
ATOM     54  H22 UNL     1      -0.238   9.248  50.442  1.00  0.00     0.277 HD
ATOM     55  H21 UNL     1       1.366   9.330  50.986  1.00  0.00     0.277 HD
ENDBRANCH  51  52
BRANCH  51  56
HETATM   56  O3  UNL     1       1.166  10.203  53.075  1.00  0.00    -0.368 OA
ATOM     57  H3  UNL     1       0.914  10.930  53.632  1.00  0.00     0.212 HD
ENDBRANCH  51  56
ENDBRANCH  47  51
ENDBRANCH  46  47
ENDBRANCH  39  46
ENDBRANCH   1  37
TORSDOF 14
ENDMDL
MODEL 5
REMARK VINA RESULT: -7.810370286      1.994      3.190
REMARK  14 active torsions:
REMARK  status: ('A' for Active; 'I' for Inactive)
REMARK    1  A    between atoms: C3_6  and  O1_7 
REMARK    2  A    between atoms: O1_7  and  C4_8 
REMARK    3  A    between atoms: C4_8  and  C5_9 
REMARK    4  A    between atoms: C4_8  and  C6_12 
REMARK    5  A    between atoms: C5_9  and  O2_10 
REMARK    6  A    between atoms: C6_12  and  N2_13 
REMARK    7  A    between atoms: C6_12  and  O3_17 
REMARK    8  A    between atoms: C7_20  and  C8_21 
REMARK    9  A    between atoms: C9_26  and  C10_27 
REMARK   10  A    between atoms: C11_28  and  N5_29 
REMARK   11  A    between atoms: C14_37  and  C15_38 
REMARK   12  A    between atoms: C15_38  and  N9_39 
REMARK   13  A    between atoms: C15_38  and  C16_43 
REMARK   14  A    between atoms: C18_51  and  N12_52 
ROOT
HETATM    1  C8  UNL     1      -3.899   9.797  56.678  1.00  0.00     0.154 A 
HETATM    2  N3  UNL     1      -3.223   9.838  57.812  1.00  0.00    -0.283 N 
ATOM      3  H3  UNL     1      -2.319  10.286  57.964  1.00  0.00     0.188 HD
HETATM    4  N4  UNL     1      -3.956   9.176  58.730  1.00  0.00    -0.283 N 
ATOM      5  H4  UNL     1      -3.673   9.050  59.702  1.00  0.00     0.188 HD
HETATM    6  C9  UNL     1      -5.080   8.713  58.223  1.00  0.00     0.139 A 
HETATM    7  N13 UNL     1      -5.030   9.116  56.915  1.00  0.00    -0.325 N 
ATOM      8  H13 UNL     1      -5.751   8.925  56.219  1.00  0.00     0.169 HD
ENDROOT
BRANCH   6   9
HETATM    9  C10 UNL     1      -6.229   7.966  58.758  1.00  0.00     0.097 A 
HETATM   10  C11 UNL     1      -7.322   8.487  59.324  1.00  0.00     0.125 A 
HETATM   11  N10 UNL     1      -8.286   7.695  59.845  1.00  0.00    -0.338 N 
HETATM   12  C17 UNL     1      -8.175   6.360  59.807  1.00  0.00     0.183 A 
ATOM     13  H10 UNL     1      -9.108   8.120  60.273  1.00  0.00     0.168 HD
HETATM   14  N11 UNL     1      -7.102   5.771  59.249  1.00  0.00    -0.338 N 
HETATM   15  C18 UNL     1      -6.156   6.559  58.740  1.00  0.00     0.117 A 
ATOM     16  H11 UNL     1      -7.016   4.755  59.218  1.00  0.00     0.168 HD
BRANCH  10  17
HETATM   17  N5  UNL     1      -7.651   9.898  59.360  1.00  0.00    -0.326 N 
HETATM   18  C12 UNL     1      -7.012  10.546  60.509  1.00  0.00     0.252 C 
HETATM   19  N6  UNL     1      -7.049  11.973  60.330  1.00  0.00    -0.348 N 
HETATM   20  C13 UNL     1      -8.309  12.530  59.848  1.00  0.00     0.186 C 
ATOM     21  H6  UNL     1      -6.241  12.563  60.529  1.00  0.00     0.163 HD
HETATM   22  N7  UNL     1      -8.718  13.755  60.413  1.00  0.00    -0.064 NA
HETATM   23  N8  UNL     1      -8.933  11.860  58.946  1.00  0.00    -0.341 N 
HETATM   24  C14 UNL     1      -8.406  10.596  58.418  1.00  0.00     0.230 C 
ATOM     25  H8  UNL     1      -9.818  12.218  58.587  1.00  0.00     0.164 HD
BRANCH  24  26
HETATM   26  C15 UNL     1      -9.533   9.896  57.688  1.00  0.00     0.325 C 
BRANCH  26  27
HETATM   27  N9  UNL     1     -10.658  10.001  58.699  1.00  0.00    -0.061 N 
ATOM     28  H93 UNL     1     -10.373  10.270  59.641  1.00  0.00     0.275 HD
ATOM     29  H92 UNL     1     -11.291  10.788  58.565  1.00  0.00     0.275 HD
ATOM     30  H91 UNL     1     -11.088   9.078  58.621  1.00  0.00     0.275 HD
ENDBRANCH  26  27
BRANCH  26  31
HETATM   31  C16 UNL     1     -10.078  10.572  56.522  1.00  0.00     0.208 C 
HETATM   32  O5  UNL     1     -10.659   9.867  55.632  1.00  0.00    -0.646 OA
HETATM   33  O6  UNL     1     -10.042  11.926  56.234  1.00  0.00    -0.646 OA
ENDBRANCH  26  31
ENDBRANCH  24  26
ENDBRANCH  10  17
BRANCH  15  34
HETATM   34  N12 UNL     1      -5.102   6.030  58.192  1.00  0.00    -0.385 N 
ATOM     35 2H12 UNL     1      -4.532   6.584  57.552  1.00  0.00     0.157 HD
ATOM     36 1H12 UNL     1      -4.891   5.062  58.434  1.00  0.00     0.157 HD
ENDBRANCH  15  34
ENDBRANCH   6   9
BRANCH   1  37
HETATM   37  C7  UNL     1      -3.555  10.361  55.335  1.00  0.00     0.337 C 
HETATM   38  O4  UNL     1      -2.558   9.681  54.690  1.00  0.00    -0.301 OA
HETATM   39  C3  UNL     1      -1.276  10.130  54.978  1.00  0.00     0.475 C 
HETATM   40  N1  UNL     1      -1.119  11.540  54.852  1.00  0.00     0.001 N 
HETATM   41  C2  UNL     1      -2.372  12.220  54.586  1.00  0.00     0.325 C 
ATOM     42  H12 UNL     1      -0.420  11.769  54.146  1.00  0.00     0.286 HD
ATOM     43  H11 UNL     1      -0.657  11.931  55.673  1.00  0.00     0.286 HD
HETATM   44  C1  UNL     1      -2.151  13.679  54.943  1.00  0.00     0.071 C 
HETATM   45  O7  UNL     1      -3.324  11.729  55.432  1.00  0.00    -0.321 OA
BRANCH  39  46
HETATM   46  O1  UNL     1      -0.373   9.500  54.129  1.00  0.00    -0.327 OA
BRANCH  46  47
HETATM   47  C4  UNL     1      -0.911   8.918  53.019  1.00  0.00     0.206 C 
BRANCH  47  48
HETATM   48  C5  UNL     1      -0.177   9.305  51.740  1.00  0.00     0.200 C 
BRANCH  48  49
HETATM   49  O2  UNL     1       1.085   9.851  52.052  1.00  0.00    -0.398 OA
ATOM     50  H2  UNL     1       1.278  10.580  51.473  1.00  0.00     0.209 HD
ENDBRANCH  48  49
ENDBRANCH  47  48
BRANCH  47  51
HETATM   51  C6  UNL     1      -0.820   7.412  53.111  1.00  0.00     0.347 C 
BRANCH  51  52
HETATM   52  N2  UNL     1       0.509   6.995  52.712  1.00  0.00    -0.051 N 
ATOM     53  H23 UNL     1       0.633   7.009  51.699  1.00  0.00     0.277 HD
ATOM     54  H22 UNL     1       1.221   7.684  52.953  1.00  0.00     0.277 HD
ATOM     55  H21 UNL     1       0.704   6.078  53.114  1.00  0.00     0.277 HD
ENDBRANCH  51  52
BRANCH  51  56
HETATM   56  O3  UNL     1      -1.733   6.894  52.193  1.00  0.00    -0.368 OA
ATOM     57  H3  UNL     1      -1.639   5.949  52.215  1.00  0.00     0.212 HD
ENDBRANCH  51  56
ENDBRANCH  47  51
ENDBRANCH  46  47
ENDBRANCH  39  46
ENDBRANCH   1  37
TORSDOF 14
ENDMDL
