MODEL 1
REMARK VINA RESULT: -9.846553843      0.000      0.000
REMARK  14 active torsions:
REMARK  status: ('A' for Active; 'I' for Inactive)
REMARK    1  A    between atoms: C2_2  and  C5_5 
REMARK    2  A    between atoms: C5_5  and  O2_7 
REMARK    3  A    between atoms: O2_7  and  C6_8 
REMARK    4  A    between atoms: C6_8  and  C7_9 
REMARK    5  A    between atoms: C7_9  and  N1_10 
REMARK    6  A    between atoms: C10_13  and  C11_14 
REMARK    7  A    between atoms: C11_14  and  N2_15 
REMARK    8  A    between atoms: C14_18  and  C15_19 
REMARK    9  A    between atoms: C17_21  and  C18_22 
REMARK       I    between atoms: C18_22  and  N3_24 
REMARK   10  A    between atoms: N3_24  and  C19_26 
REMARK   11  A    between atoms: C19_26  and  C20_27 
REMARK   12  A    between atoms: C20_27  and  C21_28 
REMARK   13  A    between atoms: C21_28  and  N4_29 
REMARK       I    between atoms: N4_29  and  C22_31 
REMARK       I    between atoms: C22_31  and  N5_33 
REMARK   14  A    between atoms: C25_36  and  C26_37 
ROOT
HETATM    1  C15 UNL     1      12.655  19.251  16.297  1.00  0.00     0.039 A 
HETATM    2  C16 UNL     1      11.562  19.017  15.493  1.00  0.00     0.072 A 
HETATM    3  C17 UNL     1      10.883  17.924  16.004  1.00  0.00     0.168 A 
HETATM    4  O5  UNL     1      11.562  17.550  17.055  1.00  0.00    -0.232 OA
HETATM    5  N6  UNL     1      12.600  18.310  17.246  1.00  0.00    -0.264 N 
ATOM      6  H6  UNL     1      13.272  18.204  18.006  1.00  0.00     0.194 HD
ENDROOT
BRANCH   1   7
HETATM    7  C14 UNL     1      13.682  20.310  16.175  1.00  0.00     0.041 C 
HETATM    8  C13 UNL     1      15.049  19.720  16.112  1.00  0.00     0.041 C 
HETATM    9  C12 UNL     1      15.714  19.841  14.771  1.00  0.00     0.273 C 
HETATM   10  N2  UNL     1      15.550  21.123  14.166  1.00  0.00     0.088 N 
HETATM   11  C31 UNL     1      14.163  21.291  13.884  1.00  0.00     0.273 C 
HETATM   12  C30 UNL     1      13.277  21.206  15.066  1.00  0.00     0.041 C 
BRANCH  10  13
HETATM   13  C11 UNL     1      16.151  22.140  14.960  1.00  0.00     0.277 C 
BRANCH  13  14
HETATM   14  C10 UNL     1      17.431  22.652  14.349  1.00  0.00     0.017 C 
HETATM   15  C9  UNL     1      17.298  24.075  13.867  1.00  0.00     0.025 C 
HETATM   16  C8  UNL     1      18.340  24.911  14.575  1.00  0.00     0.117 C 
HETATM   17  N1  UNL     1      18.135  24.807  15.983  1.00  0.00    -0.410 N 
HETATM   18  C33 UNL     1      18.416  23.504  16.493  1.00  0.00     0.117 C 
HETATM   19  C32 UNL     1      18.532  22.478  15.378  1.00  0.00     0.025 C 
BRANCH  17  20
HETATM   20  C7  UNL     1      18.580  25.907  16.769  1.00  0.00     0.143 C 
BRANCH  20  21
HETATM   21  C6  UNL     1      18.737  25.531  18.210  1.00  0.00     0.198 C 
BRANCH  21  22
HETATM   22  O2  UNL     1      17.538  25.795  18.938  1.00  0.00    -0.319 OA
BRANCH  22  23
HETATM   23  C5  UNL     1      17.012  24.831  19.776  1.00  0.00     0.266 C 
HETATM   24  O1  UNL     1      17.761  24.402  20.694  1.00  0.00    -0.264 OA
BRANCH  23  25
HETATM   25  C2  UNL     1      15.641  24.288  19.653  1.00  0.00     0.037 C 
HETATM   26  C1  UNL     1      15.100  23.944  21.017  1.00  0.00     0.025 C 
HETATM   27  C3  UNL     1      15.640  23.083  18.729  1.00  0.00     0.025 C 
HETATM   28  C4  UNL     1      14.755  25.360  19.045  1.00  0.00     0.025 C 
ENDBRANCH  23  25
ENDBRANCH  22  23
ENDBRANCH  21  22
ENDBRANCH  20  21
ENDBRANCH  17  20
ENDBRANCH  13  14
ENDBRANCH  10  13
ENDBRANCH   1   7
BRANCH   3  29
HETATM   29  C18 UNL     1       9.657  17.349  15.434  1.00  0.00     0.281 C 
HETATM   30  O3  UNL     1       8.737  18.161  15.235  1.00  0.00    -0.265 OA
HETATM   31  N3  UNL     1       9.568  16.000  15.154  1.00  0.00    -0.335 N 
ATOM     32  H3  UNL     1      10.426  15.495  15.377  1.00  0.00     0.168 HD
BRANCH  31  33
HETATM   33  C19 UNL     1       8.567  15.161  14.632  1.00  0.00     0.066 C 
BRANCH  33  34
HETATM   34  C20 UNL     1       7.149  15.339  14.958  1.00  0.00     0.064 C 
BRANCH  34  35
HETATM   35  C21 UNL     1       6.569  14.809  16.204  1.00  0.00     0.129 C 
BRANCH  35  36
HETATM   36  N4  UNL     1       6.378  15.812  17.240  1.00  0.00    -0.343 N 
HETATM   37  C22 UNL     1       7.397  16.031  18.197  1.00  0.00     0.318 C 
HETATM   38  O4  UNL     1       8.448  15.341  18.120  1.00  0.00    -0.247 OA
HETATM   39  N5  UNL     1       7.235  17.013  19.224  1.00  0.00    -0.334 N 
HETATM   40  C23 UNL     1       6.072  17.849  19.393  1.00  0.00     0.128 C 
HETATM   41  C29 UNL     1       8.224  17.304  20.240  1.00  0.00     0.132 C 
HETATM   42  C24 UNL     1       6.344  18.669  20.634  1.00  0.00     0.026 C 
HETATM   43  C25 UNL     1       7.338  17.807  21.379  1.00  0.00     0.009 C 
ATOM     44  H4  UNL     1       5.514  16.353  17.277  1.00  0.00     0.164 HD
BRANCH  43  45
HETATM   45  C26 UNL     1       6.629  16.628  21.965  1.00  0.00    -0.009 A 
HETATM   46  C27 UNL     1       7.183  16.104  23.238  1.00  0.00     0.005 A 
HETATM   47  C28 UNL     1       5.817  16.725  23.199  1.00  0.00     0.005 A 
ENDBRANCH  43  45
ENDBRANCH  35  36
ENDBRANCH  34  35
ENDBRANCH  33  34
ENDBRANCH  31  33
ENDBRANCH   3  29
TORSDOF 14
ENDMDL
MODEL 2
REMARK VINA RESULT: -9.844405921      1.903     11.113
REMARK  14 active torsions:
REMARK  status: ('A' for Active; 'I' for Inactive)
REMARK    1  A    between atoms: C2_2  and  C5_5 
REMARK    2  A    between atoms: C5_5  and  O2_7 
REMARK    3  A    between atoms: O2_7  and  C6_8 
REMARK    4  A    between atoms: C6_8  and  C7_9 
REMARK    5  A    between atoms: C7_9  and  N1_10 
REMARK    6  A    between atoms: C10_13  and  C11_14 
REMARK    7  A    between atoms: C11_14  and  N2_15 
REMARK    8  A    between atoms: C14_18  and  C15_19 
REMARK    9  A    between atoms: C17_21  and  C18_22 
REMARK       I    between atoms: C18_22  and  N3_24 
REMARK   10  A    between atoms: N3_24  and  C19_26 
REMARK   11  A    between atoms: C19_26  and  C20_27 
REMARK   12  A    between atoms: C20_27  and  C21_28 
REMARK   13  A    between atoms: C21_28  and  N4_29 
REMARK       I    between atoms: N4_29  and  C22_31 
REMARK       I    between atoms: C22_31  and  N5_33 
REMARK   14  A    between atoms: C25_36  and  C26_37 
ROOT
HETATM    1  C15 UNL     1      13.118  19.362  17.031  1.00  0.00     0.039 A 
HETATM    2  C16 UNL     1      14.046  20.372  17.152  1.00  0.00     0.072 A 
HETATM    3  C17 UNL     1      14.682  20.515  15.931  1.00  0.00     0.168 A 
HETATM    4  O5  UNL     1      14.140  19.622  15.146  1.00  0.00    -0.232 OA
HETATM    5  N6  UNL     1      13.224  18.938  15.767  1.00  0.00    -0.264 N 
ATOM      6  H6  UNL     1      12.669  18.190  15.351  1.00  0.00     0.194 HD
ENDROOT
BRANCH   1   7
HETATM    7  C14 UNL     1      12.182  18.840  18.053  1.00  0.00     0.041 C 
HETATM    8  C13 UNL     1      11.826  19.900  19.037  1.00  0.00     0.041 C 
HETATM    9  C12 UNL     1      10.408  20.384  18.941  1.00  0.00     0.273 C 
HETATM   10  N2  UNL     1       9.458  19.334  18.770  1.00  0.00     0.088 N 
HETATM   11  C31 UNL     1       9.707  18.729  17.504  1.00  0.00     0.273 C 
HETATM   12  C30 UNL     1      11.067  18.169  17.344  1.00  0.00     0.041 C 
BRANCH  10  13
HETATM   13  C11 UNL     1       9.463  18.457  19.891  1.00  0.00     0.277 C 
BRANCH  13  14
HETATM   14  C10 UNL     1       8.219  18.604  20.731  1.00  0.00     0.017 C 
HETATM   15  C9  UNL     1       7.066  19.169  19.940  1.00  0.00     0.025 C 
HETATM   16  C8  UNL     1       5.923  18.181  20.003  1.00  0.00     0.117 C 
HETATM   17  N1  UNL     1       6.365  16.931  19.475  1.00  0.00    -0.410 N 
HETATM   18  C33 UNL     1       7.343  16.294  20.297  1.00  0.00     0.117 C 
HETATM   19  C32 UNL     1       7.911  17.246  21.335  1.00  0.00     0.025 C 
BRANCH  17  20
HETATM   20  C7  UNL     1       5.362  16.092  18.913  1.00  0.00     0.143 C 
BRANCH  20  21
HETATM   21  C6  UNL     1       5.567  15.891  17.444  1.00  0.00     0.198 C 
BRANCH  21  22
HETATM   22  O2  UNL     1       6.701  16.626  16.984  1.00  0.00    -0.319 OA
BRANCH  22  23
HETATM   23  C5  UNL     1       7.727  15.973  16.328  1.00  0.00     0.266 C 
HETATM   24  O1  UNL     1       8.391  15.136  16.996  1.00  0.00    -0.264 OA
BRANCH  23  25
HETATM   25  C2  UNL     1       8.079  16.204  14.908  1.00  0.00     0.037 C 
HETATM   26  C1  UNL     1       9.545  15.931  14.692  1.00  0.00     0.025 C 
HETATM   27  C3  UNL     1       7.706  17.620  14.504  1.00  0.00     0.025 C 
HETATM   28  C4  UNL     1       7.282  15.234  14.055  1.00  0.00     0.025 C 
ENDBRANCH  23  25
ENDBRANCH  22  23
ENDBRANCH  21  22
ENDBRANCH  20  21
ENDBRANCH  17  20
ENDBRANCH  13  14
ENDBRANCH  10  13
ENDBRANCH   1   7
BRANCH   3  29
HETATM   29  C18 UNL     1      15.744  21.488  15.640  1.00  0.00     0.281 C 
HETATM   30  O3  UNL     1      15.458  22.671  15.892  1.00  0.00    -0.265 OA
HETATM   31  N3  UNL     1      16.959  21.082  15.123  1.00  0.00    -0.335 N 
ATOM     32  H3  UNL     1      17.011  20.072  14.991  1.00  0.00     0.168 HD
BRANCH  31  33
HETATM   33  C19 UNL     1      18.141  21.740  14.738  1.00  0.00     0.066 C 
BRANCH  33  34
HETATM   34  C20 UNL     1      18.138  23.113  14.224  1.00  0.00     0.064 C 
BRANCH  34  35
HETATM   35  C21 UNL     1      18.606  24.246  15.041  1.00  0.00     0.129 C 
BRANCH  35  36
HETATM   36  N4  UNL     1      17.665  24.662  16.069  1.00  0.00    -0.343 N 
HETATM   37  C22 UNL     1      17.864  24.248  17.408  1.00  0.00     0.318 C 
HETATM   38  O4  UNL     1      18.861  23.523  17.666  1.00  0.00    -0.247 OA
HETATM   39  N5  UNL     1      16.955  24.646  18.437  1.00  0.00    -0.334 N 
HETATM   40  C23 UNL     1      15.790  25.472  18.239  1.00  0.00     0.128 C 
HETATM   41  C29 UNL     1      17.083  24.271  19.829  1.00  0.00     0.132 C 
HETATM   42  C24 UNL     1      15.125  25.561  19.594  1.00  0.00     0.026 C 
HETATM   43  C25 UNL     1      15.623  24.310  20.281  1.00  0.00     0.009 C 
ATOM     44  H4  UNL     1      16.866  25.247  15.827  1.00  0.00     0.164 HD
BRANCH  43  45
HETATM   45  C26 UNL     1      14.931  23.118  19.701  1.00  0.00    -0.009 A 
HETATM   46  C27 UNL     1      14.040  22.372  20.624  1.00  0.00     0.005 A 
HETATM   47  C28 UNL     1      13.473  23.099  19.440  1.00  0.00     0.005 A 
ENDBRANCH  43  45
ENDBRANCH  35  36
ENDBRANCH  34  35
ENDBRANCH  33  34
ENDBRANCH  31  33
ENDBRANCH   3  29
TORSDOF 14
ENDMDL
MODEL 3
REMARK VINA RESULT: -9.815130952      1.783      3.933
REMARK  14 active torsions:
REMARK  status: ('A' for Active; 'I' for Inactive)
REMARK    1  A    between atoms: C2_2  and  C5_5 
REMARK    2  A    between atoms: C5_5  and  O2_7 
REMARK    3  A    between atoms: O2_7  and  C6_8 
REMARK    4  A    between atoms: C6_8  and  C7_9 
REMARK    5  A    between atoms: C7_9  and  N1_10 
REMARK    6  A    between atoms: C10_13  and  C11_14 
REMARK    7  A    between atoms: C11_14  and  N2_15 
REMARK    8  A    between atoms: C14_18  and  C15_19 
REMARK    9  A    between atoms: C17_21  and  C18_22 
REMARK       I    between atoms: C18_22  and  N3_24 
REMARK   10  A    between atoms: N3_24  and  C19_26 
REMARK   11  A    between atoms: C19_26  and  C20_27 
REMARK   12  A    between atoms: C20_27  and  C21_28 
REMARK   13  A    between atoms: C21_28  and  N4_29 
REMARK       I    between atoms: N4_29  and  C22_31 
REMARK       I    between atoms: C22_31  and  N5_33 
REMARK   14  A    between atoms: C25_36  and  C26_37 
ROOT
HETATM    1  C15 UNL     1      13.091  19.878  18.175  1.00  0.00     0.039 A 
HETATM    2  C16 UNL     1      11.961  20.659  18.278  1.00  0.00     0.072 A 
HETATM    3  C17 UNL     1      11.080  20.021  19.135  1.00  0.00     0.168 A 
HETATM    4  O5  UNL     1      11.682  18.922  19.504  1.00  0.00    -0.232 OA
HETATM    5  N6  UNL     1      12.857  18.818  18.956  1.00  0.00    -0.264 N 
ATOM      6  H6  UNL     1      13.504  18.043  19.102  1.00  0.00     0.194 HD
ENDROOT
BRANCH   1   7
HETATM    7  C14 UNL     1      14.319  20.131  17.389  1.00  0.00     0.041 C 
HETATM    8  C13 UNL     1      14.080  19.892  15.938  1.00  0.00     0.041 C 
HETATM    9  C12 UNL     1      14.080  21.136  15.097  1.00  0.00     0.273 C 
HETATM   10  N2  UNL     1      15.130  22.046  15.424  1.00  0.00     0.088 N 
HETATM   11  C31 UNL     1      14.893  22.519  16.748  1.00  0.00     0.273 C 
HETATM   12  C30 UNL     1      14.841  21.462  17.781  1.00  0.00     0.041 C 
BRANCH  10  13
HETATM   13  C11 UNL     1      16.403  21.455  15.193  1.00  0.00     0.277 C 
BRANCH  13  14
HETATM   14  C10 UNL     1      17.121  22.094  14.031  1.00  0.00     0.017 C 
HETATM   15  C9  UNL     1      16.616  23.487  13.752  1.00  0.00     0.025 C 
HETATM   16  C8  UNL     1      17.784  24.441  13.854  1.00  0.00     0.117 C 
HETATM   17  N1  UNL     1      18.352  24.336  15.158  1.00  0.00    -0.410 N 
HETATM   18  C33 UNL     1      18.985  23.078  15.391  1.00  0.00     0.117 C 
HETATM   19  C32 UNL     1      18.608  22.055  14.333  1.00  0.00     0.025 C 
BRANCH  17  20
HETATM   20  C7  UNL     1      19.029  25.488  15.649  1.00  0.00     0.143 C 
BRANCH  20  21
HETATM   21  C6  UNL     1      18.810  25.677  17.118  1.00  0.00     0.198 C 
BRANCH  21  22
HETATM   22  O2  UNL     1      17.442  25.451  17.460  1.00  0.00    -0.319 OA
BRANCH  22  23
HETATM   23  C5  UNL     1      17.125  24.723  18.591  1.00  0.00     0.266 C 
HETATM   24  O1  UNL     1      17.711  23.618  18.742  1.00  0.00    -0.264 OA
BRANCH  23  25
HETATM   25  C2  UNL     1      16.150  25.167  19.613  1.00  0.00     0.037 C 
HETATM   26  C1  UNL     1      14.966  25.816  18.945  1.00  0.00     0.025 C 
HETATM   27  C3  UNL     1      16.822  26.106  20.599  1.00  0.00     0.025 C 
HETATM   28  C4  UNL     1      15.661  23.945  20.368  1.00  0.00     0.025 C 
ENDBRANCH  23  25
ENDBRANCH  22  23
ENDBRANCH  21  22
ENDBRANCH  20  21
ENDBRANCH  17  20
ENDBRANCH  13  14
ENDBRANCH  10  13
ENDBRANCH   1   7
BRANCH   3  29
HETATM   29  C18 UNL     1       9.752  20.527  19.512  1.00  0.00     0.281 C 
HETATM   30  O3  UNL     1       9.703  21.744  19.758  1.00  0.00    -0.265 OA
HETATM   31  N3  UNL     1       8.662  19.682  19.577  1.00  0.00    -0.335 N 
ATOM     32  H3  UNL     1       8.896  18.720  19.332  1.00  0.00     0.168 HD
BRANCH  31  33
HETATM   33  C19 UNL     1       7.303  19.842  19.903  1.00  0.00     0.066 C 
BRANCH  33  34
HETATM   34  C20 UNL     1       6.555  18.829  20.653  1.00  0.00     0.064 C 
BRANCH  34  35
HETATM   35  C21 UNL     1       5.958  17.658  19.989  1.00  0.00     0.129 C 
BRANCH  35  36
HETATM   36  N4  UNL     1       6.273  17.558  18.572  1.00  0.00    -0.343 N 
HETATM   37  C22 UNL     1       7.295  16.678  18.144  1.00  0.00     0.318 C 
HETATM   38  O4  UNL     1       7.907  16.004  19.015  1.00  0.00    -0.247 OA
HETATM   39  N5  UNL     1       7.621  16.559  16.757  1.00  0.00    -0.334 N 
HETATM   40  C23 UNL     1       6.978  17.285  15.690  1.00  0.00     0.128 C 
HETATM   41  C29 UNL     1       8.648  15.685  16.231  1.00  0.00     0.132 C 
HETATM   42  C24 UNL     1       7.701  16.870  14.429  1.00  0.00     0.026 C 
HETATM   43  C25 UNL     1       9.047  16.430  14.958  1.00  0.00     0.009 C 
ATOM     44  H4  UNL     1       5.760  18.118  17.892  1.00  0.00     0.164 HD
BRANCH  43  45
HETATM   45  C26 UNL     1       9.839  17.633  15.359  1.00  0.00    -0.009 A 
HETATM   46  C27 UNL     1      10.861  17.416  16.413  1.00  0.00     0.005 A 
HETATM   47  C28 UNL     1      11.272  17.788  15.018  1.00  0.00     0.005 A 
ENDBRANCH  43  45
ENDBRANCH  35  36
ENDBRANCH  34  35
ENDBRANCH  33  34
ENDBRANCH  31  33
ENDBRANCH   3  29
TORSDOF 14
ENDMDL
MODEL 4
REMARK VINA RESULT: -9.641242139      2.338     10.987
REMARK  14 active torsions:
REMARK  status: ('A' for Active; 'I' for Inactive)
REMARK    1  A    between atoms: C2_2  and  C5_5 
REMARK    2  A    between atoms: C5_5  and  O2_7 
REMARK    3  A    between atoms: O2_7  and  C6_8 
REMARK    4  A    between atoms: C6_8  and  C7_9 
REMARK    5  A    between atoms: C7_9  and  N1_10 
REMARK    6  A    between atoms: C10_13  and  C11_14 
REMARK    7  A    between atoms: C11_14  and  N2_15 
REMARK    8  A    between atoms: C14_18  and  C15_19 
REMARK    9  A    between atoms: C17_21  and  C18_22 
REMARK       I    between atoms: C18_22  and  N3_24 
REMARK   10  A    between atoms: N3_24  and  C19_26 
REMARK   11  A    between atoms: C19_26  and  C20_27 
REMARK   12  A    between atoms: C20_27  and  C21_28 
REMARK   13  A    between atoms: C21_28  and  N4_29 
REMARK       I    between atoms: N4_29  and  C22_31 
REMARK       I    between atoms: C22_31  and  N5_33 
REMARK   14  A    between atoms: C25_36  and  C26_37 
ROOT
HETATM    1  C15 UNL     1      14.275  20.479  16.103  1.00  0.00     0.039 A 
HETATM    2  C16 UNL     1      14.798  21.495  15.333  1.00  0.00     0.072 A 
HETATM    3  C17 UNL     1      16.083  21.131  14.966  1.00  0.00     0.168 A 
HETATM    4  O5  UNL     1      16.283  19.958  15.505  1.00  0.00    -0.232 OA
HETATM    5  N6  UNL     1      15.241  19.558  16.173  1.00  0.00    -0.264 N 
ATOM      6  H6  UNL     1      15.172  18.673  16.675  1.00  0.00     0.194 HD
ENDROOT
BRANCH   1   7
HETATM    7  C14 UNL     1      12.934  20.389  16.725  1.00  0.00     0.041 C 
HETATM    8  C13 UNL     1      13.017  19.768  18.077  1.00  0.00     0.041 C 
HETATM    9  C12 UNL     1      12.751  20.716  19.211  1.00  0.00     0.273 C 
HETATM   10  N2  UNL     1      11.644  21.585  18.981  1.00  0.00     0.088 N 
HETATM   11  C31 UNL     1      11.984  22.435  17.889  1.00  0.00     0.273 C 
HETATM   12  C30 UNL     1      12.301  21.726  16.629  1.00  0.00     0.041 C 
BRANCH  10  13
HETATM   13  C11 UNL     1      10.437  20.844  18.841  1.00  0.00     0.277 C 
BRANCH  13  14
HETATM   14  C10 UNL     1       9.770  20.593  20.170  1.00  0.00     0.017 C 
HETATM   15  C9  UNL     1       8.313  20.981  20.153  1.00  0.00     0.025 C 
HETATM   16  C8  UNL     1       7.496  19.761  20.513  1.00  0.00     0.117 C 
HETATM   17  N1  UNL     1       7.779  18.724  19.574  1.00  0.00    -0.410 N 
HETATM   18  C33 UNL     1       9.110  18.222  19.681  1.00  0.00     0.117 C 
HETATM   19  C32 UNL     1       9.988  19.133  20.524  1.00  0.00     0.025 C 
BRANCH  17  20
HETATM   20  C7  UNL     1       6.751  17.761  19.366  1.00  0.00     0.143 C 
BRANCH  20  21
HETATM   21  C6  UNL     1       7.241  16.590  18.574  1.00  0.00     0.198 C 
BRANCH  21  22
HETATM   22  O2  UNL     1       7.109  16.833  17.173  1.00  0.00    -0.319 OA
BRANCH  22  23
HETATM   23  C5  UNL     1       8.129  16.478  16.312  1.00  0.00     0.266 C 
HETATM   24  O1  UNL     1       8.546  15.291  16.379  1.00  0.00    -0.264 OA
BRANCH  23  25
HETATM   25  C2  UNL     1       8.744  17.403  15.333  1.00  0.00     0.037 C 
HETATM   26  C1  UNL     1       9.660  16.641  14.411  1.00  0.00     0.025 C 
HETATM   27  C3  UNL     1       9.478  18.515  16.060  1.00  0.00     0.025 C 
HETATM   28  C4  UNL     1       7.636  18.022  14.500  1.00  0.00     0.025 C 
ENDBRANCH  23  25
ENDBRANCH  22  23
ENDBRANCH  21  22
ENDBRANCH  20  21
ENDBRANCH  17  20
ENDBRANCH  13  14
ENDBRANCH  10  13
ENDBRANCH   1   7
BRANCH   3  29
HETATM   29  C18 UNL     1      16.986  21.943  14.139  1.00  0.00     0.281 C 
HETATM   30  O3  UNL     1      18.159  21.535  14.084  1.00  0.00    -0.265 OA
HETATM   31  N3  UNL     1      16.530  23.070  13.484  1.00  0.00    -0.335 N 
ATOM     32  H3  UNL     1      15.537  23.240  13.642  1.00  0.00     0.168 HD
BRANCH  31  33
HETATM   33  C19 UNL     1      17.120  24.038  12.651  1.00  0.00     0.066 C 
BRANCH  33  34
HETATM   34  C20 UNL     1      17.208  25.450  13.034  1.00  0.00     0.064 C 
BRANCH  34  35
HETATM   35  C21 UNL     1      18.337  25.968  13.824  1.00  0.00     0.129 C 
BRANCH  35  36
HETATM   36  N4  UNL     1      18.021  26.200  15.225  1.00  0.00    -0.343 N 
HETATM   37  C22 UNL     1      18.295  25.191  16.179  1.00  0.00     0.318 C 
HETATM   38  O4  UNL     1      18.806  24.113  15.778  1.00  0.00    -0.247 OA
HETATM   39  N5  UNL     1      17.996  25.396  17.563  1.00  0.00    -0.334 N 
HETATM   40  C23 UNL     1      17.412  26.593  18.115  1.00  0.00     0.128 C 
HETATM   41  C29 UNL     1      18.244  24.422  18.604  1.00  0.00     0.132 C 
HETATM   42  C24 UNL     1      17.236  26.310  19.590  1.00  0.00     0.026 C 
HETATM   43  C25 UNL     1      17.169  24.800  19.623  1.00  0.00     0.009 C 
ATOM     44  H4  UNL     1      17.605  27.084  15.518  1.00  0.00     0.164 HD
BRANCH  43  45
HETATM   45  C26 UNL     1      15.848  24.351  19.086  1.00  0.00    -0.009 A 
HETATM   46  C27 UNL     1      15.778  22.941  18.628  1.00  0.00     0.005 A 
HETATM   47  C28 UNL     1      14.979  23.398  19.814  1.00  0.00     0.005 A 
ENDBRANCH  43  45
ENDBRANCH  35  36
ENDBRANCH  34  35
ENDBRANCH  33  34
ENDBRANCH  31  33
ENDBRANCH   3  29
TORSDOF 14
ENDMDL
MODEL 5
REMARK VINA RESULT: -9.620732166      1.176      1.757
REMARK  14 active torsions:
REMARK  status: ('A' for Active; 'I' for Inactive)
REMARK    1  A    between atoms: C2_2  and  C5_5 
REMARK    2  A    between atoms: C5_5  and  O2_7 
REMARK    3  A    between atoms: O2_7  and  C6_8 
REMARK    4  A    between atoms: C6_8  and  C7_9 
REMARK    5  A    between atoms: C7_9  and  N1_10 
REMARK    6  A    between atoms: C10_13  and  C11_14 
REMARK    7  A    between atoms: C11_14  and  N2_15 
REMARK    8  A    between atoms: C14_18  and  C15_19 
REMARK    9  A    between atoms: C17_21  and  C18_22 
REMARK       I    between atoms: C18_22  and  N3_24 
REMARK   10  A    between atoms: N3_24  and  C19_26 
REMARK   11  A    between atoms: C19_26  and  C20_27 
REMARK   12  A    between atoms: C20_27  and  C21_28 
REMARK   13  A    between atoms: C21_28  and  N4_29 
REMARK       I    between atoms: N4_29  and  C22_31 
REMARK       I    between atoms: C22_31  and  N5_33 
REMARK   14  A    between atoms: C25_36  and  C26_37 
ROOT
HETATM    1  C15 UNL     1      12.270  20.178  16.038  1.00  0.00     0.039 A 
HETATM    2  C16 UNL     1      12.068  18.815  16.038  1.00  0.00     0.072 A 
HETATM    3  C17 UNL     1      10.703  18.587  16.010  1.00  0.00     0.168 A 
HETATM    4  O5  UNL     1      10.149  19.770  15.995  1.00  0.00    -0.232 OA
HETATM    5  N6  UNL     1      11.045  20.713  16.011  1.00  0.00    -0.264 N 
ATOM      6  H6  UNL     1      10.842  21.713  16.003  1.00  0.00     0.194 HD
ENDROOT
BRANCH   1   7
HETATM    7  C14 UNL     1      13.549  20.922  16.053  1.00  0.00     0.041 C 
HETATM    8  C13 UNL     1      14.685  20.017  16.389  1.00  0.00     0.041 C 
HETATM    9  C12 UNL     1      15.620  19.746  15.245  1.00  0.00     0.273 C 
HETATM   10  N2  UNL     1      15.939  20.909  14.482  1.00  0.00     0.088 N 
HETATM   11  C31 UNL     1      14.741  21.356  13.855  1.00  0.00     0.273 C 
HETATM   12  C30 UNL     1      13.642  21.688  14.788  1.00  0.00     0.041 C 
BRANCH  10  13
HETATM   13  C11 UNL     1      16.619  21.869  15.282  1.00  0.00     0.277 C 
BRANCH  13  14
HETATM   14  C10 UNL     1      17.742  22.540  14.530  1.00  0.00     0.017 C 
HETATM   15  C9  UNL     1      17.365  23.927  14.072  1.00  0.00     0.025 C 
HETATM   16  C8  UNL     1      18.361  24.902  14.659  1.00  0.00     0.117 C 
HETATM   17  N1  UNL     1      18.334  24.788  16.081  1.00  0.00    -0.410 N 
HETATM   18  C33 UNL     1      18.843  23.540  16.550  1.00  0.00     0.117 C 
HETATM   19  C32 UNL     1      18.967  22.525  15.425  1.00  0.00     0.025 C 
BRANCH  17  20
HETATM   20  C7  UNL     1      18.716  25.946  16.816  1.00  0.00     0.143 C 
BRANCH  20  21
HETATM   21  C6  UNL     1      18.829  25.661  18.281  1.00  0.00     0.198 C 
BRANCH  21  22
HETATM   22  O2  UNL     1      17.591  25.919  18.945  1.00  0.00    -0.319 OA
BRANCH  22  23
HETATM   23  C5  UNL     1      17.041  24.961  19.775  1.00  0.00     0.266 C 
HETATM   24  O1  UNL     1      17.740  24.580  20.751  1.00  0.00    -0.264 OA
BRANCH  23  25
HETATM   25  C2  UNL     1      15.697  24.372  19.579  1.00  0.00     0.037 C 
HETATM   26  C1  UNL     1      15.127  23.939  20.905  1.00  0.00     0.025 C 
HETATM   27  C3  UNL     1      15.775  23.216  18.597  1.00  0.00     0.025 C 
HETATM   28  C4  UNL     1      14.788  25.439  18.995  1.00  0.00     0.025 C 
ENDBRANCH  23  25
ENDBRANCH  22  23
ENDBRANCH  21  22
ENDBRANCH  20  21
ENDBRANCH  17  20
ENDBRANCH  13  14
ENDBRANCH  10  13
ENDBRANCH   1   7
BRANCH   3  29
HETATM   29  C18 UNL     1      10.068  17.262  16.001  1.00  0.00     0.281 C 
HETATM   30  O3  UNL     1       9.767  16.814  17.120  1.00  0.00    -0.265 OA
HETATM   31  N3  UNL     1       9.838  16.592  14.815  1.00  0.00    -0.335 N 
ATOM     32  H3  UNL     1      10.145  17.122  13.999  1.00  0.00     0.168 HD
BRANCH  31  33
HETATM   33  C19 UNL     1       9.278  15.348  14.473  1.00  0.00     0.066 C 
BRANCH  33  34
HETATM   34  C20 UNL     1       7.858  15.195  14.142  1.00  0.00     0.064 C 
BRANCH  34  35
HETATM   35  C21 UNL     1       6.902  14.600  15.091  1.00  0.00     0.129 C 
BRANCH  35  36
HETATM   36  N4  UNL     1       7.160  14.938  16.481  1.00  0.00    -0.343 N 
HETATM   37  C22 UNL     1       6.352  15.904  17.128  1.00  0.00     0.318 C 
HETATM   38  O4  UNL     1       5.426  16.446  16.468  1.00  0.00    -0.247 OA
HETATM   39  N5  UNL     1       6.584  16.252  18.495  1.00  0.00    -0.334 N 
HETATM   40  C23 UNL     1       7.616  15.688  19.329  1.00  0.00     0.128 C 
HETATM   41  C29 UNL     1       5.807  17.225  19.233  1.00  0.00     0.132 C 
HETATM   42  C24 UNL     1       7.499  16.409  20.654  1.00  0.00     0.026 C 
HETATM   43  C25 UNL     1       6.833  17.707  20.258  1.00  0.00     0.009 C 
ATOM     44  H4  UNL     1       7.919  14.483  16.988  1.00  0.00     0.164 HD
BRANCH  43  45
HETATM   45  C26 UNL     1       7.822  18.574  19.547  1.00  0.00    -0.009 A 
HETATM   46  C27 UNL     1       8.029  19.927  20.120  1.00  0.00     0.005 A 
HETATM   47  C28 UNL     1       9.139  18.917  20.130  1.00  0.00     0.005 A 
ENDBRANCH  43  45
ENDBRANCH  35  36
ENDBRANCH  34  35
ENDBRANCH  33  34
ENDBRANCH  31  33
ENDBRANCH   3  29
TORSDOF 14
ENDMDL
