MODEL 1
REMARK VINA RESULT: -10.119727721      0.000      0.000
REMARK  11 active torsions:
REMARK  status: ('A' for Active; 'I' for Inactive)
REMARK    1  A    between atoms: C2_2  and  N1_3 
REMARK    2  A    between atoms: N3_13  and  C8_14 
REMARK    3  A    between atoms: C8_14  and  C9_15 
REMARK    4  A    between atoms: C9_15  and  C10_16 
REMARK    5  A    between atoms: C10_16  and  N4_17 
REMARK    6  A    between atoms: N4_17  and  C12_19 
REMARK    7  A    between atoms: C12_19  and  C13_20 
REMARK    8  A    between atoms: C13_20  and  C14_21 
REMARK    9  A    between atoms: C14_21  and  N5_22 
REMARK       I    between atoms: N5_22  and  C15_24 
REMARK   10  A    between atoms: C15_24  and  C16_26 
REMARK   11  A    between atoms: C26_38  and  C27_39 
ROOT
HETATM    1  N5  UNL     1      11.932  19.453  19.733  1.00  0.00    -0.337 N 
ATOM      2  H5  UNL     1      12.017  20.435  19.994  1.00  0.00     0.168 HD
HETATM    3  C15 UNL     1      12.813  19.059  18.711  1.00  0.00     0.255 C 
HETATM    4  O3  UNL     1      12.828  17.907  18.268  1.00  0.00    -0.267 OA
ENDROOT
BRANCH   3   5
HETATM    5  C16 UNL     1      13.767  20.030  18.117  1.00  0.00     0.035 A 
HETATM    6  C17 UNL     1      14.206  19.761  16.829  1.00  0.00     0.026 A 
HETATM    7  C18 UNL     1      15.086  20.657  16.213  1.00  0.00    -0.028 A 
HETATM    8  C19 UNL     1      15.486  21.757  16.880  1.00  0.00     0.070 A 
HETATM    9  C33 UNL     1      15.596  20.403  14.853  1.00  0.00     0.043 C 
HETATM   10  C20 UNL     1      15.050  22.019  18.155  1.00  0.00     0.062 A 
HETATM   11  N8  UNL     1      16.303  22.711  16.426  1.00  0.00    -0.324 N 
HETATM   12  C21 UNL     1      14.174  21.152  18.807  1.00  0.00     0.049 A 
HETATM   13  N6  UNL     1      15.638  23.185  18.481  1.00  0.00    -0.339 N 
HETATM   14  C22 UNL     1      16.396  23.594  17.419  1.00  0.00     0.136 A 
ATOM     15  H6  UNL     1      15.534  23.679  19.367  1.00  0.00     0.167 HD
HETATM   16  C23 UNL     1      17.149  24.824  17.419  1.00  0.00     0.076 A 
HETATM   17  C24 UNL     1      17.108  25.684  18.534  1.00  0.00     0.034 A 
HETATM   18  N7  UNL     1      17.876  25.183  16.369  1.00  0.00    -0.362 N 
HETATM   19  C25 UNL     1      17.803  26.851  18.514  1.00  0.00     0.019 A 
HETATM   20  C26 UNL     1      18.555  27.214  17.416  1.00  0.00     0.025 A 
HETATM   21  C29 UNL     1      18.554  26.332  16.362  1.00  0.00     0.103 A 
ATOM     22  H7  UNL     1      17.919  24.571  15.555  1.00  0.00     0.165 HD
HETATM   23  C30 UNL     1      16.817  22.585  15.075  1.00  0.00     0.088 C 
HETATM   24  C31 UNL     1      15.954  23.384  14.102  1.00  0.00     0.033 C 
HETATM   25  C32 UNL     1      16.884  21.151  14.616  1.00  0.00     0.030 C 
BRANCH  20  26
HETATM   26  C27 UNL     1      19.297  28.451  17.362  1.00  0.00     0.157 C 
HETATM   27  C28 UNL     1      20.513  28.585  18.191  1.00  0.00     0.097 C 
HETATM   28  O4  UNL     1      18.875  29.382  16.599  1.00  0.00    -0.293 OA
ENDBRANCH  20  26
ENDBRANCH   3   5
BRANCH   1  29
HETATM   29  C14 UNL     1      10.955  18.752  20.465  1.00  0.00     0.066 C 
BRANCH  29  30
HETATM   30  C13 UNL     1       9.548  19.164  20.507  1.00  0.00     0.074 C 
BRANCH  30  31
HETATM   31  C12 UNL     1       8.538  18.086  20.603  1.00  0.00     0.277 C 
BRANCH  31  32
HETATM   32  N4  UNL     1       7.416  18.391  19.682  1.00  0.00     0.084 N 
HETATM   33  C11 UNL     1       6.859  19.647  20.110  1.00  0.00     0.309 C 
BRANCH  32  34
HETATM   34  C10 UNL     1       6.537  17.291  19.638  1.00  0.00     0.273 C 
BRANCH  34  35
HETATM   35  C9  UNL     1       6.382  16.774  18.189  1.00  0.00     0.052 C 
BRANCH  35  36
HETATM   36  C8  UNL     1       7.357  15.668  17.958  1.00  0.00     0.154 C 
BRANCH  36  37
HETATM   37  N3  UNL     1       8.039  15.808  16.706  1.00  0.00    -0.253 N 
HETATM   38  N1  UNL     1       7.697  15.093  15.558  1.00  0.00    -0.238 N 
HETATM   39  C3  UNL     1       8.415  15.328  14.328  1.00  0.00     0.338 C 
HETATM   40  O1  UNL     1       8.080  14.667  13.325  1.00  0.00    -0.245 OA
HETATM   41  N2  UNL     1       9.474  16.301  14.314  1.00  0.00    -0.324 N 
HETATM   42  C4  UNL     1       9.360  17.415  15.255  1.00  0.00     0.110 C 
ATOM     43  H2  UNL     1      10.266  16.218  13.677  1.00  0.00     0.165 HD
HETATM   44  C5  UNL     1       8.104  18.176  14.879  1.00  0.00     0.049 C 
HETATM   45  C6  UNL     1      10.570  18.285  15.298  1.00  0.00     0.049 C 
HETATM   46  C7  UNL     1       9.118  16.764  16.593  1.00  0.00     0.266 C 
HETATM   47  O2  UNL     1       9.836  17.043  17.583  1.00  0.00    -0.269 OA
BRANCH  38  48
HETATM   48  C2  UNL     1       6.616  14.136  15.619  1.00  0.00     0.150 C 
HETATM   49  C1  UNL     1       5.282  14.674  15.226  1.00  0.00     0.028 C 
ENDBRANCH  38  48
ENDBRANCH  36  37
ENDBRANCH  35  36
ENDBRANCH  34  35
ENDBRANCH  32  34
ENDBRANCH  31  32
ENDBRANCH  30  31
ENDBRANCH  29  30
ENDBRANCH   1  29
TORSDOF 11
ENDMDL
MODEL 2
REMARK VINA RESULT: -9.993015568      1.634      2.875
REMARK  11 active torsions:
REMARK  status: ('A' for Active; 'I' for Inactive)
REMARK    1  A    between atoms: C2_2  and  N1_3 
REMARK    2  A    between atoms: N3_13  and  C8_14 
REMARK    3  A    between atoms: C8_14  and  C9_15 
REMARK    4  A    between atoms: C9_15  and  C10_16 
REMARK    5  A    between atoms: C10_16  and  N4_17 
REMARK    6  A    between atoms: N4_17  and  C12_19 
REMARK    7  A    between atoms: C12_19  and  C13_20 
REMARK    8  A    between atoms: C13_20  and  C14_21 
REMARK    9  A    between atoms: C14_21  and  N5_22 
REMARK       I    between atoms: N5_22  and  C15_24 
REMARK   10  A    between atoms: C15_24  and  C16_26 
REMARK   11  A    between atoms: C26_38  and  C27_39 
ROOT
HETATM    1  N5  UNL     1      11.757  19.546  19.971  1.00  0.00    -0.337 N 
ATOM      2  H5  UNL     1      11.735  20.498  20.337  1.00  0.00     0.168 HD
HETATM    3  C15 UNL     1      12.711  19.350  18.958  1.00  0.00     0.255 C 
HETATM    4  O3  UNL     1      12.857  18.259  18.399  1.00  0.00    -0.267 OA
ENDROOT
BRANCH   3   5
HETATM    5  C16 UNL     1      13.587  20.464  18.515  1.00  0.00     0.035 A 
HETATM    6  C17 UNL     1      13.699  21.547  19.375  1.00  0.00     0.026 A 
HETATM    7  C18 UNL     1      14.531  22.613  19.018  1.00  0.00    -0.028 A 
HETATM    8  C19 UNL     1      15.205  22.566  17.852  1.00  0.00     0.070 A 
HETATM    9  C33 UNL     1      14.665  23.795  19.890  1.00  0.00     0.043 C 
HETATM   10  C20 UNL     1      15.091  21.492  17.002  1.00  0.00     0.062 A 
HETATM   11  N8  UNL     1      16.047  23.489  17.380  1.00  0.00    -0.324 N 
HETATM   12  C21 UNL     1      14.271  20.410  17.320  1.00  0.00     0.049 A 
HETATM   13  N6  UNL     1      15.903  21.790  15.972  1.00  0.00    -0.339 N 
HETATM   14  C22 UNL     1      16.477  23.006  16.215  1.00  0.00     0.136 A 
ATOM     15  H6  UNL     1      16.062  21.207  15.150  1.00  0.00     0.167 HD
HETATM   16  C23 UNL     1      17.425  23.621  15.319  1.00  0.00     0.076 A 
HETATM   17  C24 UNL     1      17.822  22.960  14.140  1.00  0.00     0.034 A 
HETATM   18  N7  UNL     1      17.957  24.806  15.590  1.00  0.00    -0.362 N 
HETATM   19  C25 UNL     1      18.732  23.538  13.313  1.00  0.00     0.019 A 
HETATM   20  C26 UNL     1      19.280  24.770  13.608  1.00  0.00     0.025 A 
HETATM   21  C29 UNL     1      18.851  25.362  14.770  1.00  0.00     0.103 A 
ATOM     22  H7  UNL     1      17.679  25.299  16.438  1.00  0.00     0.165 HD
HETATM   23  C30 UNL     1      16.293  24.667  18.190  1.00  0.00     0.088 C 
HETATM   24  C31 UNL     1      17.556  24.482  19.026  1.00  0.00     0.033 C 
HETATM   25  C32 UNL     1      15.137  24.990  19.101  1.00  0.00     0.030 C 
BRANCH  20  26
HETATM   26  C27 UNL     1      20.254  25.407  12.754  1.00  0.00     0.157 C 
HETATM   27  C28 UNL     1      20.455  24.876  11.390  1.00  0.00     0.097 C 
HETATM   28  O4  UNL     1      20.906  26.404  13.211  1.00  0.00    -0.293 OA
ENDBRANCH  20  26
ENDBRANCH   3   5
BRANCH   1  29
HETATM   29  C14 UNL     1      10.827  18.681  20.578  1.00  0.00     0.066 C 
BRANCH  29  30
HETATM   30  C13 UNL     1       9.415  19.036  20.758  1.00  0.00     0.074 C 
BRANCH  30  31
HETATM   31  C12 UNL     1       8.435  17.929  20.691  1.00  0.00     0.277 C 
BRANCH  31  32
HETATM   32  N4  UNL     1       7.376  18.280  19.715  1.00  0.00     0.084 N 
HETATM   33  C11 UNL     1       6.836  19.550  20.126  1.00  0.00     0.309 C 
BRANCH  32  34
HETATM   34  C10 UNL     1       6.465  17.210  19.610  1.00  0.00     0.273 C 
BRANCH  34  35
HETATM   35  C9  UNL     1       6.363  16.721  18.147  1.00  0.00     0.052 C 
BRANCH  35  36
HETATM   36  C8  UNL     1       7.354  15.628  17.927  1.00  0.00     0.154 C 
BRANCH  36  37
HETATM   37  N3  UNL     1       8.054  15.781  16.686  1.00  0.00    -0.253 N 
HETATM   38  N1  UNL     1       7.733  15.073  15.528  1.00  0.00    -0.238 N 
HETATM   39  C3  UNL     1       8.467  15.321  14.311  1.00  0.00     0.338 C 
HETATM   40  O1  UNL     1       8.150  14.666  13.297  1.00  0.00    -0.245 OA
HETATM   41  N2  UNL     1       9.522  16.299  14.319  1.00  0.00    -0.324 N 
HETATM   42  C4  UNL     1       9.390  17.405  15.268  1.00  0.00     0.110 C 
ATOM     43  H2  UNL     1      10.324  16.224  13.694  1.00  0.00     0.165 HD
HETATM   44  C5  UNL     1       8.135  18.163  14.879  1.00  0.00     0.049 C 
HETATM   45  C6  UNL     1      10.594  18.281  15.335  1.00  0.00     0.049 C 
HETATM   46  C7  UNL     1       9.131  16.742  16.596  1.00  0.00     0.266 C 
HETATM   47  O2  UNL     1       9.833  17.017  17.599  1.00  0.00    -0.269 OA
BRANCH  38  48
HETATM   48  C2  UNL     1       6.655  14.111  15.565  1.00  0.00     0.150 C 
HETATM   49  C1  UNL     1       5.327  14.643  15.147  1.00  0.00     0.028 C 
ENDBRANCH  38  48
ENDBRANCH  36  37
ENDBRANCH  35  36
ENDBRANCH  34  35
ENDBRANCH  32  34
ENDBRANCH  31  32
ENDBRANCH  30  31
ENDBRANCH  29  30
ENDBRANCH   1  29
TORSDOF 11
ENDMDL
MODEL 3
REMARK VINA RESULT: -9.872560447      1.134      1.288
REMARK  11 active torsions:
REMARK  status: ('A' for Active; 'I' for Inactive)
REMARK    1  A    between atoms: C2_2  and  N1_3 
REMARK    2  A    between atoms: N3_13  and  C8_14 
REMARK    3  A    between atoms: C8_14  and  C9_15 
REMARK    4  A    between atoms: C9_15  and  C10_16 
REMARK    5  A    between atoms: C10_16  and  N4_17 
REMARK    6  A    between atoms: N4_17  and  C12_19 
REMARK    7  A    between atoms: C12_19  and  C13_20 
REMARK    8  A    between atoms: C13_20  and  C14_21 
REMARK    9  A    between atoms: C14_21  and  N5_22 
REMARK       I    between atoms: N5_22  and  C15_24 
REMARK   10  A    between atoms: C15_24  and  C16_26 
REMARK   11  A    between atoms: C26_38  and  C27_39 
ROOT
HETATM    1  N5  UNL     1      10.096  21.210  19.855  1.00  0.00    -0.337 N 
ATOM      2  H5  UNL     1      10.180  22.171  19.523  1.00  0.00     0.168 HD
HETATM    3  C15 UNL     1      11.217  20.411  19.570  1.00  0.00     0.255 C 
HETATM    4  O3  UNL     1      11.270  19.221  19.891  1.00  0.00    -0.267 OA
ENDROOT
BRANCH   3   5
HETATM    5  C16 UNL     1      12.391  20.978  18.859  1.00  0.00     0.035 A 
HETATM    6  C17 UNL     1      12.750  20.367  17.666  1.00  0.00     0.026 A 
HETATM    7  C18 UNL     1      13.833  20.877  16.943  1.00  0.00    -0.028 A 
HETATM    8  C19 UNL     1      14.502  21.947  17.417  1.00  0.00     0.070 A 
HETATM    9  C33 UNL     1      14.265  20.248  15.681  1.00  0.00     0.043 C 
HETATM   10  C20 UNL     1      14.144  22.549  18.599  1.00  0.00     0.062 A 
HETATM   11  N8  UNL     1      15.538  22.559  16.839  1.00  0.00    -0.324 N 
HETATM   12  C21 UNL     1      13.071  22.071  19.351  1.00  0.00     0.049 A 
HETATM   13  N6  UNL     1      15.010  23.568  18.735  1.00  0.00    -0.339 N 
HETATM   14  C22 UNL     1      15.852  23.562  17.658  1.00  0.00     0.136 A 
ATOM     15  H6  UNL     1      15.035  24.232  19.509  1.00  0.00     0.167 HD
HETATM   16  C23 UNL     1      16.896  24.540  17.471  1.00  0.00     0.076 A 
HETATM   17  C24 UNL     1      17.075  25.578  18.406  1.00  0.00     0.034 A 
HETATM   18  N7  UNL     1      17.696  24.496  16.413  1.00  0.00    -0.362 N 
HETATM   19  C25 UNL     1      18.047  26.506  18.209  1.00  0.00     0.019 A 
HETATM   20  C26 UNL     1      18.871  26.451  17.103  1.00  0.00     0.025 A 
HETATM   21  C29 UNL     1      18.646  25.414  16.231  1.00  0.00     0.103 A 
ATOM     22  H7  UNL     1      17.581  23.750  15.728  1.00  0.00     0.165 HD
HETATM   23  C30 UNL     1      16.007  22.052  15.563  1.00  0.00     0.088 C 
HETATM   24  C31 UNL     1      15.382  22.843  14.417  1.00  0.00     0.033 C 
HETATM   25  C32 UNL     1      15.703  20.588  15.379  1.00  0.00     0.030 C 
BRANCH  20  26
HETATM   26  C27 UNL     1      19.907  27.427  16.863  1.00  0.00     0.157 C 
HETATM   27  C28 UNL     1      19.979  28.615  17.738  1.00  0.00     0.097 C 
HETATM   28  O4  UNL     1      20.722  27.225  15.902  1.00  0.00    -0.293 OA
ENDBRANCH  20  26
ENDBRANCH   3   5
BRANCH   1  29
HETATM   29  C14 UNL     1       8.881  20.939  20.511  1.00  0.00     0.066 C 
BRANCH  29  30
HETATM   30  C13 UNL     1       7.805  20.154  19.895  1.00  0.00     0.074 C 
BRANCH  30  31
HETATM   31  C12 UNL     1       7.746  18.717  20.242  1.00  0.00     0.277 C 
BRANCH  31  32
HETATM   32  N4  UNL     1       6.333  18.267  20.199  1.00  0.00     0.084 N 
HETATM   33  C11 UNL     1       5.764  18.563  21.487  1.00  0.00     0.309 C 
BRANCH  32  34
HETATM   34  C10 UNL     1       6.284  16.922  19.780  1.00  0.00     0.273 C 
BRANCH  34  35
HETATM   35  C9  UNL     1       6.546  16.814  18.261  1.00  0.00     0.052 C 
BRANCH  35  36
HETATM   36  C8  UNL     1       7.528  15.719  18.010  1.00  0.00     0.154 C 
BRANCH  36  37
HETATM   37  N3  UNL     1       8.185  15.867  16.746  1.00  0.00    -0.253 N 
HETATM   38  N1  UNL     1       7.825  15.155  15.602  1.00  0.00    -0.238 N 
HETATM   39  C3  UNL     1       8.518  15.399  14.359  1.00  0.00     0.338 C 
HETATM   40  O1  UNL     1       8.167  14.740  13.360  1.00  0.00    -0.245 OA
HETATM   41  N2  UNL     1       9.572  16.377  14.329  1.00  0.00    -0.324 N 
HETATM   42  C4  UNL     1       9.471  17.486  15.277  1.00  0.00     0.110 C 
ATOM     43  H2  UNL     1      10.353  16.300  13.677  1.00  0.00     0.165 HD
HETATM   44  C5  UNL     1       8.204  18.243  14.928  1.00  0.00     0.049 C 
HETATM   45  C6  UNL     1      10.677  18.362  15.300  1.00  0.00     0.049 C 
HETATM   46  C7  UNL     1       9.258  16.828  16.616  1.00  0.00     0.266 C 
HETATM   47  O2  UNL     1       9.993  17.107  17.594  1.00  0.00    -0.269 OA
BRANCH  38  48
HETATM   48  C2  UNL     1       6.749  14.193  15.679  1.00  0.00     0.150 C 
HETATM   49  C1  UNL     1       5.409  14.721  15.295  1.00  0.00     0.028 C 
ENDBRANCH  38  48
ENDBRANCH  36  37
ENDBRANCH  35  36
ENDBRANCH  34  35
ENDBRANCH  32  34
ENDBRANCH  31  32
ENDBRANCH  30  31
ENDBRANCH  29  30
ENDBRANCH   1  29
TORSDOF 11
ENDMDL
MODEL 4
REMARK VINA RESULT: -9.845706101      1.999      4.476
REMARK  11 active torsions:
REMARK  status: ('A' for Active; 'I' for Inactive)
REMARK    1  A    between atoms: C2_2  and  N1_3 
REMARK    2  A    between atoms: N3_13  and  C8_14 
REMARK    3  A    between atoms: C8_14  and  C9_15 
REMARK    4  A    between atoms: C9_15  and  C10_16 
REMARK    5  A    between atoms: C10_16  and  N4_17 
REMARK    6  A    between atoms: N4_17  and  C12_19 
REMARK    7  A    between atoms: C12_19  and  C13_20 
REMARK    8  A    between atoms: C13_20  and  C14_21 
REMARK    9  A    between atoms: C14_21  and  N5_22 
REMARK       I    between atoms: N5_22  and  C15_24 
REMARK   10  A    between atoms: C15_24  and  C16_26 
REMARK   11  A    between atoms: C26_38  and  C27_39 
ROOT
HETATM    1  N5  UNL     1      12.838  18.913  16.399  1.00  0.00    -0.337 N 
ATOM      2  H5  UNL     1      13.092  19.559  15.653  1.00  0.00     0.168 HD
HETATM    3  C15 UNL     1      13.285  19.311  17.671  1.00  0.00     0.255 C 
HETATM    4  O3  UNL     1      13.073  18.632  18.681  1.00  0.00    -0.267 OA
ENDROOT
BRANCH   3   5
HETATM    5  C16 UNL     1      14.040  20.577  17.847  1.00  0.00     0.035 A 
HETATM    6  C17 UNL     1      13.858  21.248  19.048  1.00  0.00     0.026 A 
HETATM    7  C18 UNL     1      14.565  22.433  19.276  1.00  0.00    -0.028 A 
HETATM    8  C19 UNL     1      15.405  22.896  18.330  1.00  0.00     0.070 A 
HETATM    9  C33 UNL     1      14.389  23.191  20.529  1.00  0.00     0.043 C 
HETATM   10  C20 UNL     1      15.582  22.230  17.141  1.00  0.00     0.062 A 
HETATM   11  N8  UNL     1      16.160  23.995  18.403  1.00  0.00    -0.324 N 
HETATM   12  C21 UNL     1      14.895  21.046  16.873  1.00  0.00     0.049 A 
HETATM   13  N6  UNL     1      16.484  22.968  16.471  1.00  0.00    -0.339 N 
HETATM   14  C22 UNL     1      16.827  24.038  17.250  1.00  0.00     0.136 A 
ATOM     15  H6  UNL     1      16.850  22.765  15.540  1.00  0.00     0.167 HD
HETATM   16  C23 UNL     1      17.795  25.027  16.845  1.00  0.00     0.076 A 
HETATM   17  C24 UNL     1      18.458  24.909  15.607  1.00  0.00     0.034 A 
HETATM   18  N7  UNL     1      18.097  26.054  17.630  1.00  0.00    -0.362 N 
HETATM   19  C25 UNL     1      19.385  25.835  15.245  1.00  0.00     0.019 A 
HETATM   20  C26 UNL     1      19.691  26.897  16.071  1.00  0.00     0.025 A 
HETATM   21  C29 UNL     1      19.009  26.955  17.262  1.00  0.00     0.103 A 
ATOM     22  H7  UNL     1      17.624  26.155  18.528  1.00  0.00     0.165 HD
HETATM   23  C30 UNL     1      16.103  24.783  19.619  1.00  0.00     0.088 C 
HETATM   24  C31 UNL     1      17.241  24.393  20.559  1.00  0.00     0.033 C 
HETATM   25  C32 UNL     1      14.789  24.633  20.341  1.00  0.00     0.030 C 
BRANCH  20  26
HETATM   26  C27 UNL     1      20.676  27.891  15.718  1.00  0.00     0.157 C 
HETATM   27  C28 UNL     1      20.241  29.080  14.956  1.00  0.00     0.097 C 
HETATM   28  O4  UNL     1      21.885  27.705  16.078  1.00  0.00    -0.293 OA
ENDBRANCH  20  26
ENDBRANCH   3   5
BRANCH   1  29
HETATM   29  C14 UNL     1      12.109  17.792  15.959  1.00  0.00     0.066 C 
BRANCH  29  30
HETATM   30  C13 UNL     1      11.076  17.877  14.921  1.00  0.00     0.074 C 
BRANCH  30  31
HETATM   31  C12 UNL     1      10.627  16.602  14.319  1.00  0.00     0.277 C 
BRANCH  31  32
HETATM   32  N4  UNL     1       9.408  16.136  15.024  1.00  0.00     0.084 N 
HETATM   33  C11 UNL     1       8.894  15.022  14.271  1.00  0.00     0.309 C 
BRANCH  32  34
HETATM   34  C10 UNL     1       8.536  17.226  15.218  1.00  0.00     0.273 C 
BRANCH  34  35
HETATM   35  C9  UNL     1       7.730  17.053  16.525  1.00  0.00     0.052 C 
BRANCH  35  36
HETATM   36  C8  UNL     1       8.671  17.042  17.682  1.00  0.00     0.154 C 
BRANCH  36  37
HETATM   37  N3  UNL     1       8.413  18.116  18.594  1.00  0.00    -0.253 N 
HETATM   38  N1  UNL     1       7.400  18.087  19.552  1.00  0.00    -0.238 N 
HETATM   39  C3  UNL     1       7.238  19.200  20.457  1.00  0.00     0.338 C 
HETATM   40  O1  UNL     1       6.319  19.136  21.298  1.00  0.00    -0.245 OA
HETATM   41  N2  UNL     1       8.131  20.323  20.348  1.00  0.00    -0.324 N 
HETATM   42  C4  UNL     1       9.477  20.050  19.844  1.00  0.00     0.110 C 
ATOM     43  H2  UNL     1       7.839  21.264  20.610  1.00  0.00     0.165 HD
HETATM   44  C5  UNL     1      10.129  19.106  20.835  1.00  0.00     0.049 C 
HETATM   45  C6  UNL     1      10.284  21.279  19.603  1.00  0.00     0.049 C 
HETATM   46  C7  UNL     1       9.259  19.289  18.561  1.00  0.00     0.266 C 
HETATM   47  O2  UNL     1       9.798  19.664  17.492  1.00  0.00    -0.269 OA
BRANCH  38  48
HETATM   48  C2  UNL     1       6.537  16.931  19.632  1.00  0.00     0.150 C 
HETATM   49  C1  UNL     1       7.009  15.860  20.555  1.00  0.00     0.028 C 
ENDBRANCH  38  48
ENDBRANCH  36  37
ENDBRANCH  35  36
ENDBRANCH  34  35
ENDBRANCH  32  34
ENDBRANCH  31  32
ENDBRANCH  30  31
ENDBRANCH  29  30
ENDBRANCH   1  29
TORSDOF 11
ENDMDL
MODEL 5
REMARK VINA RESULT: -9.792407399      2.640     12.030
REMARK  11 active torsions:
REMARK  status: ('A' for Active; 'I' for Inactive)
REMARK    1  A    between atoms: C2_2  and  N1_3 
REMARK    2  A    between atoms: N3_13  and  C8_14 
REMARK    3  A    between atoms: C8_14  and  C9_15 
REMARK    4  A    between atoms: C9_15  and  C10_16 
REMARK    5  A    between atoms: C10_16  and  N4_17 
REMARK    6  A    between atoms: N4_17  and  C12_19 
REMARK    7  A    between atoms: C12_19  and  C13_20 
REMARK    8  A    between atoms: C13_20  and  C14_21 
REMARK    9  A    between atoms: C14_21  and  N5_22 
REMARK       I    between atoms: N5_22  and  C15_24 
REMARK   10  A    between atoms: C15_24  and  C16_26 
REMARK   11  A    between atoms: C26_38  and  C27_39 
ROOT
HETATM    1  N5  UNL     1      14.087  19.445  15.990  1.00  0.00    -0.337 N 
ATOM      2  H5  UNL     1      13.990  18.530  16.429  1.00  0.00     0.168 HD
HETATM    3  C15 UNL     1      12.866  20.107  15.781  1.00  0.00     0.255 C 
HETATM    4  O3  UNL     1      12.807  21.218  15.247  1.00  0.00    -0.267 OA
ENDROOT
BRANCH   3   5
HETATM    5  C16 UNL     1      11.584  19.483  16.198  1.00  0.00     0.035 A 
HETATM    6  C17 UNL     1      10.951  18.679  15.262  1.00  0.00     0.026 A 
HETATM    7  C18 UNL     1       9.754  18.046  15.611  1.00  0.00    -0.028 A 
HETATM    8  C19 UNL     1       9.243  18.229  16.844  1.00  0.00     0.070 A 
HETATM    9  C33 UNL     1       9.034  17.198  14.642  1.00  0.00     0.043 C 
HETATM   10  C20 UNL     1       9.872  19.027  17.768  1.00  0.00     0.062 A 
HETATM   11  N8  UNL     1       8.126  17.684  17.333  1.00  0.00    -0.324 N 
HETATM   12  C21 UNL     1      11.066  19.677  17.460  1.00  0.00     0.049 A 
HETATM   13  N6  UNL     1       9.092  18.957  18.862  1.00  0.00    -0.339 N 
HETATM   14  C22 UNL     1       8.034  18.137  18.583  1.00  0.00     0.136 A 
ATOM     15  H6  UNL     1       9.261  19.435  19.747  1.00  0.00     0.167 HD
HETATM   16  C23 UNL     1       7.009  17.822  19.547  1.00  0.00     0.076 A 
HETATM   17  C24 UNL     1       7.076  18.343  20.854  1.00  0.00     0.034 A 
HETATM   18  N7  UNL     1       5.996  17.024  19.234  1.00  0.00    -0.362 N 
HETATM   19  C25 UNL     1       6.116  18.022  21.760  1.00  0.00     0.019 A 
HETATM   20  C26 UNL     1       5.068  17.189  21.423  1.00  0.00     0.025 A 
HETATM   21  C29 UNL     1       5.060  16.716  20.134  1.00  0.00     0.103 A 
ATOM     22  H7  UNL     1       5.931  16.640  18.292  1.00  0.00     0.165 HD
HETATM   23  C30 UNL     1       7.372  16.787  16.478  1.00  0.00     0.088 C 
HETATM   24  C31 UNL     1       7.756  15.337  16.759  1.00  0.00     0.033 C 
HETATM   25  C32 UNL     1       7.578  17.080  15.014  1.00  0.00     0.030 C 
BRANCH  20  26
HETATM   26  C27 UNL     1       4.038  16.823  22.366  1.00  0.00     0.157 C 
HETATM   27  C28 UNL     1       4.127  17.338  23.748  1.00  0.00     0.097 C 
HETATM   28  O4  UNL     1       3.090  16.068  21.969  1.00  0.00    -0.293 OA
ENDBRANCH  20  26
ENDBRANCH   3   5
BRANCH   1  29
HETATM   29  C14 UNL     1      15.420  19.803  15.710  1.00  0.00     0.066 C 
BRANCH  29  30
HETATM   30  C13 UNL     1      15.826  20.417  14.441  1.00  0.00     0.074 C 
BRANCH  30  31
HETATM   31  C12 UNL     1      16.993  21.326  14.483  1.00  0.00     0.277 C 
BRANCH  31  32
HETATM   32  N4  UNL     1      16.521  22.709  14.731  1.00  0.00     0.084 N 
HETATM   33  C11 UNL     1      15.564  23.012  13.699  1.00  0.00     0.309 C 
BRANCH  32  34
HETATM   34  C10 UNL     1      17.631  23.570  14.837  1.00  0.00     0.273 C 
BRANCH  34  35
HETATM   35  C9  UNL     1      17.525  24.444  16.107  1.00  0.00     0.052 C 
BRANCH  35  36
HETATM   36  C8  UNL     1      17.962  23.645  17.288  1.00  0.00     0.154 C 
BRANCH  36  37
HETATM   37  N3  UNL     1      17.135  23.884  18.434  1.00  0.00    -0.253 N 
HETATM   38  N1  UNL     1      17.422  24.844  19.405  1.00  0.00    -0.238 N 
HETATM   39  C3  UNL     1      16.510  25.045  20.505  1.00  0.00     0.338 C 
HETATM   40  O1  UNL     1      16.804  25.911  21.353  1.00  0.00    -0.245 OA
HETATM   41  N2  UNL     1      15.317  24.244  20.576  1.00  0.00    -0.324 N 
HETATM   42  C4  UNL     1      14.756  23.779  19.307  1.00  0.00     0.110 C 
ATOM     43  H2  UNL     1      14.883  24.011  21.469  1.00  0.00     0.165 HD
HETATM   44  C5  UNL     1      14.368  25.018  18.524  1.00  0.00     0.049 C 
HETATM   45  C6  UNL     1      13.624  22.823  19.470  1.00  0.00     0.049 C 
HETATM   46  C7  UNL     1      15.912  23.129  18.592  1.00  0.00     0.266 C 
HETATM   47  O2  UNL     1      15.816  21.960  18.147  1.00  0.00    -0.269 OA
BRANCH  38  48
HETATM   48  C2  UNL     1      18.626  25.634  19.282  1.00  0.00     0.150 C 
HETATM   49  C1  UNL     1      18.448  26.942  18.590  1.00  0.00     0.028 C 
ENDBRANCH  38  48
ENDBRANCH  36  37
ENDBRANCH  35  36
ENDBRANCH  34  35
ENDBRANCH  32  34
ENDBRANCH  31  32
ENDBRANCH  30  31
ENDBRANCH  29  30
ENDBRANCH   1  29
TORSDOF 11
ENDMDL
