MODEL 1
REMARK VINA RESULT: -10.018960015      0.000      0.000
REMARK  12 active torsions:
REMARK  status: ('A' for Active; 'I' for Inactive)
REMARK    1  A    between atoms: C5_5  and  O1_6 
REMARK    2  A    between atoms: O1_6  and  C6_7 
REMARK    3  A    between atoms: C6_7  and  C7_8 
REMARK    4  A    between atoms: C7_8  and  N1_9 
REMARK    5  A    between atoms: C12_15  and  C13_16 
REMARK    6  A    between atoms: C14_19  and  C15_20 
REMARK    7  A    between atoms: C15_20  and  C16_21 
REMARK    8  A    between atoms: C16_21  and  N3_22 
REMARK    9  A    between atoms: C19_26  and  O3_27 
REMARK   10  A    between atoms: O3_27  and  C20_28 
REMARK   11  A    between atoms: C20_28  and  C21_29 
REMARK   12  A    between atoms: C21_29  and  N4_30 
ROOT
HETATM    1  C15 UNL     1      12.865  23.189  18.209  1.00  0.00     0.076 C 
ENDROOT
BRANCH   1   2
HETATM    2  C14 UNL     1      14.193  23.776  18.508  1.00  0.00     0.011 A 
HETATM    3  N2  UNL     1      15.053  24.409  17.690  1.00  0.00    -0.358 N 
HETATM    4  C13 UNL     1      16.163  24.816  18.328  1.00  0.00     0.051 A 
ATOM      5  H2  UNL     1      14.881  24.562  16.696  1.00  0.00     0.166 HD
HETATM    6  C33 UNL     1      15.995  24.413  19.635  1.00  0.00    -0.033 A 
HETATM    7  C32 UNL     1      14.757  23.760  19.757  1.00  0.00     0.034 A 
HETATM    8  C34 UNL     1      16.879  24.526  20.828  1.00  0.00     0.050 C 
BRANCH   4   9
HETATM    9  C12 UNL     1      17.374  25.456  17.814  1.00  0.00     0.025 A 
HETATM   10  C5  UNL     1      18.118  24.838  16.776  1.00  0.00     0.081 A 
HETATM   11  C4  UNL     1      19.221  25.517  16.237  1.00  0.00     0.038 A 
HETATM   12  C3  UNL     1      19.551  26.749  16.728  1.00  0.00     0.009 A 
HETATM   13  C2  UNL     1      18.870  27.386  17.725  1.00  0.00    -0.061 A 
HETATM   14  C1  UNL     1      19.249  28.726  18.240  1.00  0.00     0.048 C 
HETATM   15  C35 UNL     1      17.774  26.693  18.244  1.00  0.00     0.023 A 
BRANCH  10  16
HETATM   16  O1  UNL     1      17.726  23.649  16.373  1.00  0.00    -0.348 OA
BRANCH  16  17
HETATM   17  C6  UNL     1      17.319  22.814  15.414  1.00  0.00     0.206 C 
BRANCH  17  18
HETATM   18  C7  UNL     1      16.276  23.201  14.434  1.00  0.00     0.299 C 
BRANCH  18  19
HETATM   19  N1  UNL     1      15.047  22.501  14.424  1.00  0.00     0.094 N 
HETATM   20  C8  UNL     1      14.957  21.793  13.135  1.00  0.00     0.298 C 
HETATM   21  C9  UNL     1      13.505  21.399  12.970  1.00  0.00     0.198 C 
HETATM   22  O2  UNL     1      12.932  21.260  14.231  1.00  0.00    -0.388 OA
HETATM   23  C10 UNL     1      13.788  20.593  15.112  1.00  0.00     0.198 C 
HETATM   24  C11 UNL     1      15.027  21.411  15.408  1.00  0.00     0.298 C 
ENDBRANCH  18  19
ENDBRANCH  17  18
ENDBRANCH  16  17
ENDBRANCH  10  16
ENDBRANCH   4   9
ENDBRANCH   1   2
BRANCH   1  25
HETATM   25  C16 UNL     1      12.811  21.749  18.649  1.00  0.00     0.126 C 
BRANCH  25  26
HETATM   26  N3  UNL     1      11.529  21.322  19.115  1.00  0.00    -0.388 N 
HETATM   27  C17 UNL     1      10.912  20.280  18.658  1.00  0.00     0.061 A 
HETATM   28  C18 UNL     1      11.462  19.477  17.654  1.00  0.00     0.089 A 
HETATM   29  C31 UNL     1       9.685  19.941  19.171  1.00  0.00     0.089 A 
HETATM   30  C19 UNL     1      10.774  18.377  17.204  1.00  0.00     0.159 A 
HETATM   31  N5  UNL     1       9.555  18.110  17.774  1.00  0.00    -0.273 N 
HETATM   32  N6  UNL     1       9.021  18.854  18.719  1.00  0.00    -0.256 N 
ATOM     33  H5  UNL     1       9.037  17.294  17.449  1.00  0.00     0.189 HD
HETATM   34  C26 UNL     1       7.836  18.754  19.396  1.00  0.00     0.031 A 
HETATM   35  C27 UNL     1       6.843  17.661  19.146  1.00  0.00     0.070 C 
HETATM   36  C28 UNL     1       7.744  19.792  20.292  1.00  0.00     0.035 A 
HETATM   37  C29 UNL     1       8.899  20.530  20.148  1.00  0.00    -0.029 A 
HETATM   38  C30 UNL     1       9.255  21.740  20.896  1.00  0.00     0.050 C 
ATOM     39  H3  UNL     1      11.076  21.869  19.848  1.00  0.00     0.159 HD
BRANCH  30  40
HETATM   40  O3  UNL     1      11.219  17.534  16.230  1.00  0.00    -0.333 OA
BRANCH  40  41
HETATM   41  C20 UNL     1      10.598  17.295  15.018  1.00  0.00     0.207 C 
BRANCH  41  42
HETATM   42  C21 UNL     1       9.823  16.012  14.914  1.00  0.00     0.299 C 
BRANCH  42  43
HETATM   43  N4  UNL     1       8.673  16.219  14.067  1.00  0.00     0.094 N 
HETATM   44  C22 UNL     1       7.825  15.079  13.900  1.00  0.00     0.298 C 
HETATM   45  C23 UNL     1       7.364  14.595  15.267  1.00  0.00     0.198 C 
HETATM   46  O4  UNL     1       7.016  15.628  16.101  1.00  0.00    -0.388 OA
HETATM   47  C24 UNL     1       6.773  16.832  15.492  1.00  0.00     0.198 C 
HETATM   48  C25 UNL     1       7.870  17.320  14.587  1.00  0.00     0.298 C 
ENDBRANCH  42  43
ENDBRANCH  41  42
ENDBRANCH  40  41
ENDBRANCH  30  40
ENDBRANCH  25  26
ENDBRANCH   1  25
TORSDOF 12
ENDMDL
MODEL 2
REMARK VINA RESULT: -9.803486309      2.074     11.344
REMARK  12 active torsions:
REMARK  status: ('A' for Active; 'I' for Inactive)
REMARK    1  A    between atoms: C5_5  and  O1_6 
REMARK    2  A    between atoms: O1_6  and  C6_7 
REMARK    3  A    between atoms: C6_7  and  C7_8 
REMARK    4  A    between atoms: C7_8  and  N1_9 
REMARK    5  A    between atoms: C12_15  and  C13_16 
REMARK    6  A    between atoms: C14_19  and  C15_20 
REMARK    7  A    between atoms: C15_20  and  C16_21 
REMARK    8  A    between atoms: C16_21  and  N3_22 
REMARK    9  A    between atoms: C19_26  and  O3_27 
REMARK   10  A    between atoms: O3_27  and  C20_28 
REMARK   11  A    between atoms: C20_28  and  C21_29 
REMARK   12  A    between atoms: C21_29  and  N4_30 
ROOT
HETATM    1  C15 UNL     1      11.454  17.999  15.496  1.00  0.00     0.076 C 
ENDROOT
BRANCH   1   2
HETATM    2  C14 UNL     1      10.142  17.312  15.416  1.00  0.00     0.011 A 
HETATM    3  N2  UNL     1       9.055  17.450  16.195  1.00  0.00    -0.358 N 
HETATM    4  C13 UNL     1       8.041  16.660  15.806  1.00  0.00     0.051 A 
ATOM      5  H2  UNL     1       9.006  18.084  16.993  1.00  0.00     0.166 HD
HETATM    6  C33 UNL     1       8.518  15.977  14.709  1.00  0.00    -0.033 A 
HETATM    7  C32 UNL     1       9.839  16.382  14.456  1.00  0.00     0.034 A 
HETATM    8  C34 UNL     1       7.901  14.929  13.849  1.00  0.00     0.050 C 
BRANCH   4   9
HETATM    9  C12 UNL     1       6.727  16.433  16.410  1.00  0.00     0.025 A 
HETATM   10  C5  UNL     1       6.556  16.572  17.811  1.00  0.00     0.081 A 
HETATM   11  C4  UNL     1       5.267  16.440  18.351  1.00  0.00     0.038 A 
HETATM   12  C3  UNL     1       4.218  16.178  17.518  1.00  0.00     0.009 A 
HETATM   13  C2  UNL     1       4.329  16.034  16.164  1.00  0.00    -0.061 A 
HETATM   14  C1  UNL     1       3.171  15.750  15.280  1.00  0.00     0.048 C 
HETATM   15  C35 UNL     1       5.619  16.172  15.648  1.00  0.00     0.023 A 
BRANCH  10  16
HETATM   16  O1  UNL     1       7.627  16.819  18.532  1.00  0.00    -0.348 OA
BRANCH  16  17
HETATM   17  C6  UNL     1       8.208  17.194  19.675  1.00  0.00     0.206 C 
BRANCH  17  18
HETATM   18  C7  UNL     1       8.234  18.611  20.107  1.00  0.00     0.299 C 
BRANCH  18  19
HETATM   19  N1  UNL     1       9.469  19.299  20.139  1.00  0.00     0.094 N 
HETATM   20  C8  UNL     1      10.319  18.722  19.082  1.00  0.00     0.298 C 
HETATM   21  C9  UNL     1      11.733  19.166  19.387  1.00  0.00     0.198 C 
HETATM   22  O2  UNL     1      11.685  20.367  20.089  1.00  0.00    -0.388 OA
HETATM   23  C10 UNL     1      10.733  21.237  19.550  1.00  0.00     0.198 C 
HETATM   24  C11 UNL     1       9.328  20.703  19.728  1.00  0.00     0.298 C 
ENDBRANCH  18  19
ENDBRANCH  17  18
ENDBRANCH  16  17
ENDBRANCH  10  16
ENDBRANCH   4   9
ENDBRANCH   1   2
BRANCH   1  25
HETATM   25  C16 UNL     1      11.268  19.493  15.547  1.00  0.00     0.126 C 
BRANCH  25  26
HETATM   26  N3  UNL     1      12.288  20.238  14.880  1.00  0.00    -0.388 N 
HETATM   27  C17 UNL     1      13.243  20.858  15.497  1.00  0.00     0.061 A 
HETATM   28  C18 UNL     1      13.350  20.845  16.891  1.00  0.00     0.089 A 
HETATM   29  C31 UNL     1      14.185  21.543  14.772  1.00  0.00     0.089 A 
HETATM   30  C19 UNL     1      14.384  21.511  17.503  1.00  0.00     0.159 A 
HETATM   31  N5  UNL     1      15.282  22.168  16.701  1.00  0.00    -0.273 N 
HETATM   32  N6  UNL     1      15.198  22.191  15.388  1.00  0.00    -0.256 N 
ATOM     33  H5  UNL     1      16.056  22.664  17.145  1.00  0.00     0.189 HD
HETATM   34  C26 UNL     1      15.980  22.784  14.435  1.00  0.00     0.031 A 
HETATM   35  C27 UNL     1      17.197  23.593  14.765  1.00  0.00     0.070 C 
HETATM   36  C28 UNL     1      15.459  22.509  13.194  1.00  0.00     0.035 A 
HETATM   37  C29 UNL     1      14.339  21.735  13.408  1.00  0.00    -0.029 A 
HETATM   38  C30 UNL     1      13.447  21.194  12.377  1.00  0.00     0.050 C 
ATOM     39  H3  UNL     1      12.262  20.284  13.860  1.00  0.00     0.159 HD
BRANCH  30  40
HETATM   40  O3  UNL     1      14.577  21.564  18.851  1.00  0.00    -0.333 OA
BRANCH  40  41
HETATM   41  C20 UNL     1      14.313  22.649  19.666  1.00  0.00     0.207 C 
BRANCH  41  42
HETATM   42  C21 UNL     1      15.509  23.410  20.164  1.00  0.00     0.299 C 
BRANCH  42  43
HETATM   43  N4  UNL     1      15.722  24.563  19.323  1.00  0.00     0.094 N 
HETATM   44  C22 UNL     1      15.872  25.805  20.018  1.00  0.00     0.298 C 
HETATM   45  C23 UNL     1      17.020  25.685  21.010  1.00  0.00     0.198 C 
HETATM   46  O4  UNL     1      18.103  25.024  20.485  1.00  0.00    -0.388 OA
HETATM   47  C24 UNL     1      18.138  24.927  19.118  1.00  0.00     0.198 C 
HETATM   48  C25 UNL     1      16.899  24.355  18.488  1.00  0.00     0.298 C 
ENDBRANCH  42  43
ENDBRANCH  41  42
ENDBRANCH  40  41
ENDBRANCH  30  40
ENDBRANCH  25  26
ENDBRANCH   1  25
TORSDOF 12
ENDMDL
MODEL 3
REMARK VINA RESULT: -9.785215860      2.073      4.881
REMARK  12 active torsions:
REMARK  status: ('A' for Active; 'I' for Inactive)
REMARK    1  A    between atoms: C5_5  and  O1_6 
REMARK    2  A    between atoms: O1_6  and  C6_7 
REMARK    3  A    between atoms: C6_7  and  C7_8 
REMARK    4  A    between atoms: C7_8  and  N1_9 
REMARK    5  A    between atoms: C12_15  and  C13_16 
REMARK    6  A    between atoms: C14_19  and  C15_20 
REMARK    7  A    between atoms: C15_20  and  C16_21 
REMARK    8  A    between atoms: C16_21  and  N3_22 
REMARK    9  A    between atoms: C19_26  and  O3_27 
REMARK   10  A    between atoms: O3_27  and  C20_28 
REMARK   11  A    between atoms: C20_28  and  C21_29 
REMARK   12  A    between atoms: C21_29  and  N4_30 
ROOT
HETATM    1  C15 UNL     1      12.415  18.823  15.822  1.00  0.00     0.076 C 
ENDROOT
BRANCH   1   2
HETATM    2  C14 UNL     1      13.394  19.820  15.326  1.00  0.00     0.011 A 
HETATM    3  N2  UNL     1      14.631  20.100  15.773  1.00  0.00    -0.358 N 
HETATM    4  C13 UNL     1      15.228  21.068  15.057  1.00  0.00     0.051 A 
ATOM      5  H2  UNL     1      15.067  19.631  16.567  1.00  0.00     0.166 HD
HETATM    6  C33 UNL     1      14.307  21.423  14.095  1.00  0.00    -0.033 A 
HETATM    7  C32 UNL     1      13.151  20.642  14.256  1.00  0.00     0.034 A 
HETATM    8  C34 UNL     1      14.343  22.458  13.024  1.00  0.00     0.050 C 
BRANCH   4   9
HETATM    9  C12 UNL     1      16.518  21.731  15.246  1.00  0.00     0.025 A 
HETATM   10  C5  UNL     1      16.709  22.616  16.338  1.00  0.00     0.081 A 
HETATM   11  C4  UNL     1      17.983  23.166  16.549  1.00  0.00     0.038 A 
HETATM   12  C3  UNL     1      19.000  22.837  15.699  1.00  0.00     0.009 A 
HETATM   13  C2  UNL     1      18.870  21.993  14.633  1.00  0.00    -0.061 A 
HETATM   14  C1  UNL     1      19.992  21.652  13.724  1.00  0.00     0.048 C 
HETATM   15  C35 UNL     1      17.595  21.456  14.444  1.00  0.00     0.023 A 
BRANCH  10  16
HETATM   16  O1  UNL     1      15.669  22.875  17.098  1.00  0.00    -0.348 OA
BRANCH  16  17
HETATM   17  C6  UNL     1      14.658  23.665  17.470  1.00  0.00     0.206 C 
BRANCH  17  18
HETATM   18  C7  UNL     1      14.846  24.763  18.448  1.00  0.00     0.299 C 
BRANCH  18  19
HETATM   19  N1  UNL     1      16.028  24.799  19.223  1.00  0.00     0.094 N 
HETATM   20  C8  UNL     1      16.847  25.918  18.723  1.00  0.00     0.298 C 
HETATM   21  C9  UNL     1      18.242  25.696  19.264  1.00  0.00     0.198 C 
HETATM   22  O2  UNL     1      18.153  24.973  20.450  1.00  0.00    -0.388 OA
HETATM   23  C10 UNL     1      17.109  25.434  21.255  1.00  0.00     0.198 C 
HETATM   24  C11 UNL     1      15.761  25.176  20.618  1.00  0.00     0.298 C 
ENDBRANCH  18  19
ENDBRANCH  17  18
ENDBRANCH  16  17
ENDBRANCH  10  16
ENDBRANCH   4   9
ENDBRANCH   1   2
BRANCH   1  25
HETATM   25  C16 UNL     1      11.022  19.397  15.810  1.00  0.00     0.126 C 
BRANCH  25  26
HETATM   26  N3  UNL     1      10.381  19.418  17.087  1.00  0.00    -0.388 N 
HETATM   27  C17 UNL     1       9.658  18.444  17.542  1.00  0.00     0.061 A 
HETATM   28  C18 UNL     1       9.445  17.276  16.804  1.00  0.00     0.089 A 
HETATM   29  C31 UNL     1       9.087  18.550  18.785  1.00  0.00     0.089 A 
HETATM   30  C19 UNL     1       8.676  16.266  17.329  1.00  0.00     0.159 A 
HETATM   31  N5  UNL     1       8.145  16.454  18.580  1.00  0.00    -0.273 N 
HETATM   32  N6  UNL     1       8.335  17.546  19.289  1.00  0.00    -0.256 N 
ATOM     33  H5  UNL     1       7.575  15.709  18.980  1.00  0.00     0.189 HD
HETATM   34  C26 UNL     1       7.893  17.914  20.530  1.00  0.00     0.031 A 
HETATM   35  C27 UNL     1       7.026  17.037  21.381  1.00  0.00     0.070 C 
HETATM   36  C28 UNL     1       8.370  19.169  20.822  1.00  0.00     0.035 A 
HETATM   37  C29 UNL     1       9.115  19.561  19.731  1.00  0.00    -0.029 A 
HETATM   38  C30 UNL     1       9.825  20.836  19.577  1.00  0.00     0.050 C 
ATOM     39  H3  UNL     1      10.500  20.245  17.673  1.00  0.00     0.159 HD
BRANCH  30  40
HETATM   40  O3  UNL     1       8.405  15.093  16.692  1.00  0.00    -0.333 OA
BRANCH  40  41
HETATM   41  C20 UNL     1       7.705  14.955  15.508  1.00  0.00     0.207 C 
BRANCH  41  42
HETATM   42  C21 UNL     1       6.371  15.643  15.443  1.00  0.00     0.299 C 
BRANCH  42  43
HETATM   43  N4  UNL     1       5.402  14.869  16.181  1.00  0.00     0.094 N 
HETATM   44  C22 UNL     1       4.854  15.517  17.333  1.00  0.00     0.298 C 
HETATM   45  C23 UNL     1       4.229  16.838  16.912  1.00  0.00     0.198 C 
HETATM   46  O4  UNL     1       3.516  16.735  15.743  1.00  0.00    -0.388 OA
HETATM   47  C24 UNL     1       3.166  15.463  15.367  1.00  0.00     0.198 C 
HETATM   48  C25 UNL     1       4.305  14.484  15.301  1.00  0.00     0.298 C 
ENDBRANCH  42  43
ENDBRANCH  41  42
ENDBRANCH  40  41
ENDBRANCH  30  40
ENDBRANCH  25  26
ENDBRANCH   1  25
TORSDOF 12
ENDMDL
MODEL 4
REMARK VINA RESULT: -9.771624463      1.984     11.200
REMARK  12 active torsions:
REMARK  status: ('A' for Active; 'I' for Inactive)
REMARK    1  A    between atoms: C5_5  and  O1_6 
REMARK    2  A    between atoms: O1_6  and  C6_7 
REMARK    3  A    between atoms: C6_7  and  C7_8 
REMARK    4  A    between atoms: C7_8  and  N1_9 
REMARK    5  A    between atoms: C12_15  and  C13_16 
REMARK    6  A    between atoms: C14_19  and  C15_20 
REMARK    7  A    between atoms: C15_20  and  C16_21 
REMARK    8  A    between atoms: C16_21  and  N3_22 
REMARK    9  A    between atoms: C19_26  and  O3_27 
REMARK   10  A    between atoms: O3_27  and  C20_28 
REMARK   11  A    between atoms: C20_28  and  C21_29 
REMARK   12  A    between atoms: C21_29  and  N4_30 
ROOT
HETATM    1  C15 UNL     1      13.654  20.927  18.687  1.00  0.00     0.076 C 
ENDROOT
BRANCH   1   2
HETATM    2  C14 UNL     1      12.267  20.619  19.109  1.00  0.00     0.011 A 
HETATM    3  N2  UNL     1      11.609  19.446  19.096  1.00  0.00    -0.358 N 
HETATM    4  C13 UNL     1      10.356  19.555  19.569  1.00  0.00     0.051 A 
ATOM      5  H2  UNL     1      12.016  18.571  18.763  1.00  0.00     0.166 HD
HETATM    6  C33 UNL     1      10.213  20.884  19.902  1.00  0.00    -0.033 A 
HETATM    7  C32 UNL     1      11.410  21.560  19.617  1.00  0.00     0.034 A 
HETATM    8  C34 UNL     1       9.054  21.651  20.439  1.00  0.00     0.050 C 
BRANCH   4   9
HETATM    9  C12 UNL     1       9.283  18.564  19.653  1.00  0.00     0.025 A 
HETATM   10  C5  UNL     1       8.695  18.052  18.468  1.00  0.00     0.081 A 
HETATM   11  C4  UNL     1       7.733  17.036  18.575  1.00  0.00     0.038 A 
HETATM   12  C3  UNL     1       7.387  16.571  19.811  1.00  0.00     0.009 A 
HETATM   13  C2  UNL     1       7.921  17.031  20.981  1.00  0.00    -0.061 A 
HETATM   14  C1  UNL     1       7.528  16.508  22.314  1.00  0.00     0.048 C 
HETATM   15  C35 UNL     1       8.878  18.040  20.852  1.00  0.00     0.023 A 
BRANCH  10  16
HETATM   16  O1  UNL     1       9.089  18.566  17.324  1.00  0.00    -0.348 OA
BRANCH  16  17
HETATM   17  C6  UNL     1       9.414  18.440  16.034  1.00  0.00     0.206 C 
BRANCH  17  18
HETATM   18  C7  UNL     1       8.380  18.383  14.973  1.00  0.00     0.299 C 
BRANCH  18  19
HETATM   19  N1  UNL     1       7.910  17.123  14.537  1.00  0.00     0.094 N 
HETATM   20  C8  UNL     1       8.886  16.112  14.983  1.00  0.00     0.298 C 
HETATM   21  C9  UNL     1       8.597  14.862  14.181  1.00  0.00     0.198 C 
HETATM   22  O2  UNL     1       7.253  14.864  13.816  1.00  0.00    -0.388 OA
HETATM   23  C10 UNL     1       6.436  15.275  14.873  1.00  0.00     0.198 C 
HETATM   24  C11 UNL     1       6.676  16.726  15.229  1.00  0.00     0.298 C 
ENDBRANCH  18  19
ENDBRANCH  17  18
ENDBRANCH  16  17
ENDBRANCH  10  16
ENDBRANCH   4   9
ENDBRANCH   1   2
BRANCH   1  25
HETATM   25  C16 UNL     1      13.744  22.329  18.142  1.00  0.00     0.126 C 
BRANCH  25  26
HETATM   26  N3  UNL     1      14.384  22.427  16.869  1.00  0.00    -0.388 N 
HETATM   27  C17 UNL     1      15.585  22.884  16.704  1.00  0.00     0.061 A 
HETATM   28  C18 UNL     1      16.361  23.324  17.781  1.00  0.00     0.089 A 
HETATM   29  C31 UNL     1      16.123  22.935  15.443  1.00  0.00     0.089 A 
HETATM   30  C19 UNL     1      17.633  23.794  17.561  1.00  0.00     0.159 A 
HETATM   31  N5  UNL     1      18.092  23.808  16.268  1.00  0.00    -0.273 N 
HETATM   32  N6  UNL     1      17.376  23.398  15.242  1.00  0.00    -0.256 N 
ATOM     33  H5  UNL     1      19.036  24.152  16.093  1.00  0.00     0.189 HD
HETATM   34  C26 UNL     1      17.654  23.340  13.904  1.00  0.00     0.031 A 
HETATM   35  C27 UNL     1      18.962  23.779  13.321  1.00  0.00     0.070 C 
HETATM   36  C28 UNL     1      16.562  22.831  13.243  1.00  0.00     0.035 A 
HETATM   37  C29 UNL     1      15.609  22.580  14.206  1.00  0.00    -0.029 A 
HETATM   38  C30 UNL     1      14.269  22.030  13.979  1.00  0.00     0.050 C 
ATOM     39  H3  UNL     1      13.867  22.122  16.044  1.00  0.00     0.159 HD
BRANCH  30  40
HETATM   40  O3  UNL     1      18.467  24.248  18.537  1.00  0.00    -0.333 OA
BRANCH  40  41
HETATM   41  C20 UNL     1      18.373  25.468  19.182  1.00  0.00     0.207 C 
BRANCH  41  42
HETATM   42  C21 UNL     1      18.082  26.657  18.311  1.00  0.00     0.299 C 
BRANCH  42  43
HETATM   43  N4  UNL     1      19.325  27.202  17.821  1.00  0.00     0.094 N 
HETATM   44  C22 UNL     1      19.612  26.926  16.447  1.00  0.00     0.298 C 
HETATM   45  C23 UNL     1      18.464  27.433  15.586  1.00  0.00     0.198 C 
HETATM   46  O4  UNL     1      18.010  28.665  15.988  1.00  0.00    -0.388 OA
HETATM   47  C24 UNL     1      18.856  29.379  16.795  1.00  0.00     0.198 C 
HETATM   48  C25 UNL     1      19.341  28.647  18.015  1.00  0.00     0.298 C 
ENDBRANCH  42  43
ENDBRANCH  41  42
ENDBRANCH  40  41
ENDBRANCH  30  40
ENDBRANCH  25  26
ENDBRANCH   1  25
TORSDOF 12
ENDMDL
MODEL 5
REMARK VINA RESULT: -9.638736748      2.379      5.846
REMARK  12 active torsions:
REMARK  status: ('A' for Active; 'I' for Inactive)
REMARK    1  A    between atoms: C5_5  and  O1_6 
REMARK    2  A    between atoms: O1_6  and  C6_7 
REMARK    3  A    between atoms: C6_7  and  C7_8 
REMARK    4  A    between atoms: C7_8  and  N1_9 
REMARK    5  A    between atoms: C12_15  and  C13_16 
REMARK    6  A    between atoms: C14_19  and  C15_20 
REMARK    7  A    between atoms: C15_20  and  C16_21 
REMARK    8  A    between atoms: C16_21  and  N3_22 
REMARK    9  A    between atoms: C19_26  and  O3_27 
REMARK   10  A    between atoms: O3_27  and  C20_28 
REMARK   11  A    between atoms: C20_28  and  C21_29 
REMARK   12  A    between atoms: C21_29  and  N4_30 
ROOT
HETATM    1  C15 UNL     1      12.842  18.619  17.515  1.00  0.00     0.076 C 
ENDROOT
BRANCH   1   2
HETATM    2  C14 UNL     1      13.551  19.519  16.574  1.00  0.00     0.011 A 
HETATM    3  N2  UNL     1      14.770  20.076  16.677  1.00  0.00    -0.358 N 
HETATM    4  C13 UNL     1      15.080  20.833  15.611  1.00  0.00     0.051 A 
ATOM      5  H2  UNL     1      15.390  19.940  17.476  1.00  0.00     0.166 HD
HETATM    6  C33 UNL     1      13.985  20.749  14.780  1.00  0.00    -0.033 A 
HETATM    7  C32 UNL     1      13.018  19.924  15.377  1.00  0.00     0.034 A 
HETATM    8  C34 UNL     1      13.686  21.387  13.467  1.00  0.00     0.050 C 
BRANCH   4   9
HETATM    9  C12 UNL     1      16.249  21.674  15.350  1.00  0.00     0.025 A 
HETATM   10  C5  UNL     1      16.311  22.988  15.883  1.00  0.00     0.081 A 
HETATM   11  C4  UNL     1      17.482  23.739  15.696  1.00  0.00     0.038 A 
HETATM   12  C3  UNL     1      18.524  23.189  15.007  1.00  0.00     0.009 A 
HETATM   13  C2  UNL     1      18.515  21.932  14.473  1.00  0.00    -0.061 A 
HETATM   14  C1  UNL     1      19.663  21.357  13.728  1.00  0.00     0.048 C 
HETATM   15  C35 UNL     1      17.342  21.201  14.673  1.00  0.00     0.023 A 
BRANCH  10  16
HETATM   16  O1  UNL     1      15.255  23.432  16.528  1.00  0.00    -0.348 OA
BRANCH  16  17
HETATM   17  C6  UNL     1      14.485  23.482  17.618  1.00  0.00     0.206 C 
BRANCH  17  18
HETATM   18  C7  UNL     1      14.665  24.528  18.652  1.00  0.00     0.299 C 
BRANCH  18  19
HETATM   19  N1  UNL     1      15.912  24.640  19.309  1.00  0.00     0.094 N 
HETATM   20  C8  UNL     1      16.641  25.755  18.680  1.00  0.00     0.298 C 
HETATM   21  C9  UNL     1      18.087  25.604  19.096  1.00  0.00     0.198 C 
HETATM   22  O2  UNL     1      18.135  24.939  20.318  1.00  0.00    -0.388 OA
HETATM   23  C10 UNL     1      17.155  25.410  21.196  1.00  0.00     0.198 C 
HETATM   24  C11 UNL     1      15.763  25.079  20.703  1.00  0.00     0.298 C 
ENDBRANCH  18  19
ENDBRANCH  17  18
ENDBRANCH  16  17
ENDBRANCH  10  16
ENDBRANCH   4   9
ENDBRANCH   1   2
BRANCH   1  25
HETATM   25  C16 UNL     1      11.351  18.816  17.417  1.00  0.00     0.126 C 
BRANCH  25  26
HETATM   26  N3  UNL     1      10.685  17.871  16.578  1.00  0.00    -0.388 N 
HETATM   27  C17 UNL     1       9.586  17.271  16.907  1.00  0.00     0.061 A 
HETATM   28  C18 UNL     1       8.955  17.507  18.132  1.00  0.00     0.089 A 
HETATM   29  C31 UNL     1       9.013  16.382  16.033  1.00  0.00     0.089 A 
HETATM   30  C19 UNL     1       7.786  16.852  18.437  1.00  0.00     0.159 A 
HETATM   31  N5  UNL     1       7.281  15.983  17.504  1.00  0.00    -0.273 N 
HETATM   32  N6  UNL     1       7.861  15.748  16.346  1.00  0.00    -0.256 N 
ATOM     33  H5  UNL     1       6.412  15.493  17.719  1.00  0.00     0.189 HD
HETATM   34  C26 UNL     1       7.519  14.927  15.307  1.00  0.00     0.031 A 
HETATM   35  C27 UNL     1       6.293  14.067  15.315  1.00  0.00     0.070 C 
HETATM   36  C28 UNL     1       8.466  15.041  14.317  1.00  0.00     0.035 A 
HETATM   37  C29 UNL     1       9.395  15.949  14.774  1.00  0.00    -0.029 A 
HETATM   38  C30 UNL     1      10.597  16.395  14.061  1.00  0.00     0.050 C 
ATOM     39  H3  UNL     1      11.099  17.657  15.670  1.00  0.00     0.159 HD
BRANCH  30  40
HETATM   40  O3  UNL     1       7.096  17.008  19.601  1.00  0.00    -0.333 OA
BRANCH  40  41
HETATM   41  C20 UNL     1       5.809  16.564  19.847  1.00  0.00     0.207 C 
BRANCH  41  42
HETATM   42  C21 UNL     1       4.700  17.487  19.428  1.00  0.00     0.299 C 
BRANCH  42  43
HETATM   43  N4  UNL     1       3.517  16.710  19.147  1.00  0.00     0.094 N 
HETATM   44  C22 UNL     1       2.374  17.466  18.736  1.00  0.00     0.298 C 
HETATM   45  C23 UNL     1       2.737  18.293  17.512  1.00  0.00     0.198 C 
HETATM   46  O4  UNL     1       3.491  17.589  16.606  1.00  0.00    -0.388 OA
HETATM   47  C24 UNL     1       3.470  16.225  16.744  1.00  0.00     0.198 C 
HETATM   48  C25 UNL     1       3.810  15.719  18.118  1.00  0.00     0.298 C 
ENDBRANCH  42  43
ENDBRANCH  41  42
ENDBRANCH  40  41
ENDBRANCH  30  40
ENDBRANCH  25  26
ENDBRANCH   1  25
TORSDOF 12
ENDMDL
