MODEL 1
REMARK VINA RESULT: -7.565602813      0.000      0.000
REMARK  18 active torsions:
REMARK  status: ('A' for Active; 'I' for Inactive)
REMARK    1  A    between atoms: C2_2  and  C3_3 
REMARK    2  A    between atoms: C3_3  and  C4_4 
REMARK    3  A    between atoms: C4_4  and  N1_5 
REMARK    4  A    between atoms: C4_4  and  C12_17 
REMARK       I    between atoms: N1_5  and  C5_7 
REMARK    5  A    between atoms: C5_7  and  C6_9 
REMARK    6  A    between atoms: C6_9  and  C7_11 
REMARK    7  A    between atoms: C7_11  and  O3_12 
REMARK    8  A    between atoms: O3_12  and  C8_13 
REMARK    9  A    between atoms: C12_17  and  N2_18 
REMARK   10  A    between atoms: N2_18  and  C13_19 
REMARK   11  A    between atoms: N2_18  and  C18_29 
REMARK   12  A    between atoms: C13_19  and  O4_20 
REMARK   13  A    between atoms: C13_19  and  C14_22 
REMARK   14  A    between atoms: C18_29  and  C21_32 
REMARK   15  A    between atoms: C24_35  and  C25_36 
REMARK   16  A    between atoms: C25_36  and  O6_37 
REMARK   17  A    between atoms: C25_36  and  N4_39 
REMARK   18  A    between atoms: C29_43  and  C30_44 
ROOT
HETATM    1  N2  UNL     1      11.827  19.471  17.599  1.00  0.00    -0.332 N 
ENDROOT
BRANCH   1   2
HETATM    2  C12 UNL     1      12.976  20.327  17.604  1.00  0.00     0.078 A 
HETATM    3  C31 UNL     1      14.164  19.746  18.376  1.00  0.00     0.045 A 
HETATM    4  C32 UNL     1      13.580  21.119  18.658  1.00  0.00     0.018 A 
HETATM    5  C33 UNL     1      13.515  21.442  20.066  1.00  0.00     0.013 C 
BRANCH   2   6
HETATM    6  C4  UNL     1      13.451  20.919  16.231  1.00  0.00     0.019 C 
BRANCH   6   7
HETATM    7  C3  UNL     1      12.575  20.923  15.086  1.00  0.00     0.055 C 
BRANCH   7   8
HETATM    8  C2  UNL     1      13.184  20.457  13.758  1.00  0.00     0.001 C 
HETATM    9  C1  UNL     1      13.690  21.638  12.954  1.00  0.00     0.005 C 
ENDBRANCH   7   8
ENDBRANCH   6   7
BRANCH   6  10
HETATM   10  N1  UNL     1      14.516  21.836  16.428  1.00  0.00    -0.325 N 
HETATM   11  C5  UNL     1      15.812  21.929  15.957  1.00  0.00     0.293 C 
HETATM   12  O1  UNL     1      16.394  21.158  15.156  1.00  0.00    -0.264 OA
ATOM     13  H1  UNL     1      14.270  22.597  17.060  1.00  0.00     0.169 HD
BRANCH  11  14
HETATM   14  C6  UNL     1      16.640  23.063  16.432  1.00  0.00     0.240 C 
HETATM   15  O2  UNL     1      17.324  23.735  15.597  1.00  0.00    -0.285 OA
BRANCH  14  16
HETATM   16  C7  UNL     1      16.688  23.430  17.852  1.00  0.00     0.257 C 
BRANCH  16  17
HETATM   17  O3  UNL     1      15.481  23.902  18.280  1.00  0.00    -0.373 OA
BRANCH  17  18
HETATM   18  C8  UNL     1      15.505  25.053  19.021  1.00  0.00     0.050 C 
HETATM   19  C9  UNL     1      16.734  25.897  18.769  1.00  0.00     0.045 C 
HETATM   20  C10 UNL     1      15.382  24.748  20.503  1.00  0.00     0.045 C 
HETATM   21  C11 UNL     1      14.286  25.878  18.635  1.00  0.00     0.045 C 
ENDBRANCH  17  18
ENDBRANCH  16  17
ENDBRANCH  14  16
ENDBRANCH  11  14
ENDBRANCH   6  10
ENDBRANCH   2   6
ENDBRANCH   1   2
BRANCH   1  22
HETATM   22  C13 UNL     1      11.788  18.151  17.111  1.00  0.00     0.169 C 
BRANCH  22  23
HETATM   23  O4  UNL     1      12.550  17.270  17.755  1.00  0.00    -0.344 OA
ATOM     24  H4  UNL     1      12.968  16.609  17.216  1.00  0.00     0.219 HD
ENDBRANCH  22  23
BRANCH  22  25
HETATM   25  C14 UNL     1      11.129  17.438  16.052  1.00  0.00     0.107 A 
HETATM   26  C15 UNL     1      11.674  17.297  14.759  1.00  0.00     0.178 A 
HETATM   27  O5  UNL     1      10.848  16.600  14.023  1.00  0.00    -0.308 OA
HETATM   28  C16 UNL     1       9.805  16.263  14.703  1.00  0.00     0.119 A 
HETATM   29  C17 UNL     1       8.633  15.473  14.244  1.00  0.00     0.098 C 
HETATM   30  N3  UNL     1       9.986  16.765  15.898  1.00  0.00    -0.336 N 
ATOM     31  H3  UNL     1       9.308  16.651  16.651  1.00  0.00     0.168 HD
ENDBRANCH  22  25
ENDBRANCH   1  22
BRANCH   1  32
HETATM   32  C18 UNL     1      10.488  19.962  18.023  1.00  0.00     0.057 C 
HETATM   33  C19 UNL     1      10.434  21.315  18.593  1.00  0.00     0.044 C 
HETATM   34  C20 UNL     1       9.801  20.201  16.619  1.00  0.00     0.044 C 
BRANCH  32  35
HETATM   35  C21 UNL     1       9.550  19.095  18.706  1.00  0.00    -0.014 A 
HETATM   36  C22 UNL     1       8.323  18.754  18.116  1.00  0.00     0.012 A 
HETATM   37  C23 UNL     1       7.371  17.927  18.701  1.00  0.00     0.016 A 
HETATM   38  C24 UNL     1       7.562  17.377  19.913  1.00  0.00     0.016 A 
HETATM   39  C28 UNL     1       8.780  17.701  20.536  1.00  0.00     0.034 A 
HETATM   40  C29 UNL     1       9.713  18.522  19.945  1.00  0.00     0.050 A 
BRANCH  38  41
HETATM   41  C25 UNL     1       6.650  16.508  20.582  1.00  0.00     0.147 C 
BRANCH  41  42
HETATM   42  O6  UNL     1       6.452  15.355  19.976  1.00  0.00    -0.346 OA
ATOM     43  H6  UNL     1       6.623  14.593  20.517  1.00  0.00     0.219 HD
ENDBRANCH  41  42
BRANCH  41  44
HETATM   44  N4  UNL     1       5.922  16.641  21.757  1.00  0.00    -0.370 N 
HETATM   45  C26 UNL     1       6.422  16.515  23.097  1.00  0.00     0.151 C 
HETATM   46  C27 UNL     1       4.464  16.951  21.664  1.00  0.00     0.151 C 
ENDBRANCH  41  44
ENDBRANCH  38  41
BRANCH  40  47
HETATM   47  C30 UNL     1      10.877  18.827  20.751  1.00  0.00     0.210 C 
HETATM   48  O7  UNL     1      11.999  18.311  20.696  1.00  0.00    -0.644 OA
HETATM   49  O8  UNL     1      10.683  19.813  21.699  1.00  0.00    -0.644 OA
ENDBRANCH  40  47
ENDBRANCH  32  35
ENDBRANCH   1  32
TORSDOF 18
ENDMDL
MODEL 2
REMARK VINA RESULT: -7.515294487      2.431      8.849
REMARK  18 active torsions:
REMARK  status: ('A' for Active; 'I' for Inactive)
REMARK    1  A    between atoms: C2_2  and  C3_3 
REMARK    2  A    between atoms: C3_3  and  C4_4 
REMARK    3  A    between atoms: C4_4  and  N1_5 
REMARK    4  A    between atoms: C4_4  and  C12_17 
REMARK       I    between atoms: N1_5  and  C5_7 
REMARK    5  A    between atoms: C5_7  and  C6_9 
REMARK    6  A    between atoms: C6_9  and  C7_11 
REMARK    7  A    between atoms: C7_11  and  O3_12 
REMARK    8  A    between atoms: O3_12  and  C8_13 
REMARK    9  A    between atoms: C12_17  and  N2_18 
REMARK   10  A    between atoms: N2_18  and  C13_19 
REMARK   11  A    between atoms: N2_18  and  C18_29 
REMARK   12  A    between atoms: C13_19  and  O4_20 
REMARK   13  A    between atoms: C13_19  and  C14_22 
REMARK   14  A    between atoms: C18_29  and  C21_32 
REMARK   15  A    between atoms: C24_35  and  C25_36 
REMARK   16  A    between atoms: C25_36  and  O6_37 
REMARK   17  A    between atoms: C25_36  and  N4_39 
REMARK   18  A    between atoms: C29_43  and  C30_44 
ROOT
HETATM    1  N2  UNL     1      10.578  19.317  18.076  1.00  0.00    -0.332 N 
ENDROOT
BRANCH   1   2
HETATM    2  C12 UNL     1       9.543  19.379  19.066  1.00  0.00     0.078 A 
HETATM    3  C31 UNL     1       8.438  20.384  18.726  1.00  0.00     0.045 A 
HETATM    4  C32 UNL     1       9.203  20.400  20.038  1.00  0.00     0.018 A 
HETATM    5  C33 UNL     1       9.526  21.731  20.502  1.00  0.00     0.013 C 
BRANCH   2   6
HETATM    6  C4  UNL     1       8.922  18.026  19.558  1.00  0.00     0.019 C 
BRANCH   6   7
HETATM    7  C3  UNL     1       9.100  17.582  20.917  1.00  0.00     0.055 C 
BRANCH   7   8
HETATM    8  C2  UNL     1       7.828  17.206  21.686  1.00  0.00     0.001 C 
HETATM    9  C1  UNL     1       7.658  15.700  21.742  1.00  0.00     0.005 C 
ENDBRANCH   7   8
ENDBRANCH   6   7
BRANCH   6  10
HETATM   10  N1  UNL     1       7.832  17.651  18.730  1.00  0.00    -0.325 N 
HETATM   11  C5  UNL     1       7.474  16.492  18.067  1.00  0.00     0.293 C 
HETATM   12  O1  UNL     1       8.084  15.395  18.058  1.00  0.00    -0.264 OA
ATOM     13  H1  UNL     1       7.161  18.407  18.592  1.00  0.00     0.169 HD
BRANCH  11  14
HETATM   14  C6  UNL     1       6.230  16.512  17.262  1.00  0.00     0.240 C 
HETATM   15  O2  UNL     1       6.302  16.486  15.992  1.00  0.00    -0.285 OA
BRANCH  14  16
HETATM   16  C7  UNL     1       4.909  16.559  17.899  1.00  0.00     0.257 C 
BRANCH  16  17
HETATM   17  O3  UNL     1       5.004  16.952  19.202  1.00  0.00    -0.373 OA
BRANCH  17  18
HETATM   18  C8  UNL     1       4.180  17.974  19.591  1.00  0.00     0.050 C 
HETATM   19  C9  UNL     1       3.240  18.429  18.497  1.00  0.00     0.045 C 
HETATM   20  C10 UNL     1       4.984  19.155  20.106  1.00  0.00     0.045 C 
HETATM   21  C11 UNL     1       3.335  17.471  20.753  1.00  0.00     0.045 C 
ENDBRANCH  17  18
ENDBRANCH  16  17
ENDBRANCH  14  16
ENDBRANCH  11  14
ENDBRANCH   6  10
ENDBRANCH   2   6
ENDBRANCH   1   2
BRANCH   1  22
HETATM   22  C13 UNL     1      10.386  19.083  16.701  1.00  0.00     0.169 C 
BRANCH  22  23
HETATM   23  O4  UNL     1      10.303  20.167  15.933  1.00  0.00    -0.344 OA
ATOM     24  H4  UNL     1       9.947  20.033  15.062  1.00  0.00     0.219 HD
ENDBRANCH  22  23
BRANCH  22  25
HETATM   25  C14 UNL     1      10.241  17.945  15.836  1.00  0.00     0.107 A 
HETATM   26  C15 UNL     1      11.238  17.533  14.928  1.00  0.00     0.178 A 
HETATM   27  O5  UNL     1      10.818  16.473  14.288  1.00  0.00    -0.308 OA
HETATM   28  C16 UNL     1       9.636  16.141  14.681  1.00  0.00     0.119 A 
HETATM   29  C17 UNL     1       8.803  15.005  14.210  1.00  0.00     0.098 C 
HETATM   30  N3  UNL     1       9.309  17.019  15.595  1.00  0.00    -0.336 N 
ATOM     31  H3  UNL     1       8.415  16.998  16.084  1.00  0.00     0.168 HD
ENDBRANCH  22  25
ENDBRANCH   1  22
BRANCH   1  32
HETATM   32  C18 UNL     1      12.016  19.383  18.448  1.00  0.00     0.057 C 
HETATM   33  C19 UNL     1      12.318  19.691  19.853  1.00  0.00     0.044 C 
HETATM   34  C20 UNL     1      12.410  17.853  18.386  1.00  0.00     0.044 C 
BRANCH  32  35
HETATM   35  C21 UNL     1      12.991  20.011  17.580  1.00  0.00    -0.014 A 
HETATM   36  C22 UNL     1      13.952  19.245  16.902  1.00  0.00     0.012 A 
HETATM   37  C23 UNL     1      14.917  19.766  16.049  1.00  0.00     0.016 A 
HETATM   38  C24 UNL     1      15.004  21.086  15.804  1.00  0.00     0.016 A 
HETATM   39  C28 UNL     1      14.058  21.885  16.469  1.00  0.00     0.034 A 
HETATM   40  C29 UNL     1      13.108  21.354  17.312  1.00  0.00     0.050 A 
BRANCH  38  41
HETATM   41  C25 UNL     1      15.949  21.707  14.935  1.00  0.00     0.147 C 
BRANCH  41  42
HETATM   42  O6  UNL     1      17.203  21.591  15.321  1.00  0.00    -0.346 OA
ATOM     43  H6  UNL     1      17.775  22.285  15.015  1.00  0.00     0.219 HD
ENDBRANCH  41  42
BRANCH  41  44
HETATM   44  N4  UNL     1      15.805  22.419  13.751  1.00  0.00    -0.370 N 
HETATM   45  C26 UNL     1      16.721  23.381  13.209  1.00  0.00     0.151 C 
HETATM   46  C27 UNL     1      14.584  22.187  12.922  1.00  0.00     0.151 C 
ENDBRANCH  41  44
ENDBRANCH  38  41
BRANCH  40  47
HETATM   47  C30 UNL     1      12.263  22.317  17.987  1.00  0.00     0.210 C 
HETATM   48  O7  UNL     1      12.482  22.910  19.050  1.00  0.00    -0.644 OA
HETATM   49  O8  UNL     1      11.066  22.585  17.351  1.00  0.00    -0.644 OA
ENDBRANCH  40  47
ENDBRANCH  32  35
ENDBRANCH   1  32
TORSDOF 18
ENDMDL
MODEL 3
REMARK VINA RESULT: -7.445106045      2.799      5.969
REMARK  18 active torsions:
REMARK  status: ('A' for Active; 'I' for Inactive)
REMARK    1  A    between atoms: C2_2  and  C3_3 
REMARK    2  A    between atoms: C3_3  and  C4_4 
REMARK    3  A    between atoms: C4_4  and  N1_5 
REMARK    4  A    between atoms: C4_4  and  C12_17 
REMARK       I    between atoms: N1_5  and  C5_7 
REMARK    5  A    between atoms: C5_7  and  C6_9 
REMARK    6  A    between atoms: C6_9  and  C7_11 
REMARK    7  A    between atoms: C7_11  and  O3_12 
REMARK    8  A    between atoms: O3_12  and  C8_13 
REMARK    9  A    between atoms: C12_17  and  N2_18 
REMARK   10  A    between atoms: N2_18  and  C13_19 
REMARK   11  A    between atoms: N2_18  and  C18_29 
REMARK   12  A    between atoms: C13_19  and  O4_20 
REMARK   13  A    between atoms: C13_19  and  C14_22 
REMARK   14  A    between atoms: C18_29  and  C21_32 
REMARK   15  A    between atoms: C24_35  and  C25_36 
REMARK   16  A    between atoms: C25_36  and  O6_37 
REMARK   17  A    between atoms: C25_36  and  N4_39 
REMARK   18  A    between atoms: C29_43  and  C30_44 
ROOT
HETATM    1  N2  UNL     1      14.248  21.832  17.046  1.00  0.00    -0.332 N 
ENDROOT
BRANCH   1   2
HETATM    2  C12 UNL     1      14.959  22.006  15.814  1.00  0.00     0.078 A 
HETATM    3  C31 UNL     1      14.379  23.114  14.929  1.00  0.00     0.045 A 
HETATM    4  C32 UNL     1      14.600  21.692  14.444  1.00  0.00     0.018 A 
HETATM    5  C33 UNL     1      13.539  21.199  13.594  1.00  0.00     0.013 C 
BRANCH   2   6
HETATM    6  C4  UNL     1      16.522  22.121  15.883  1.00  0.00     0.019 C 
BRANCH   6   7
HETATM    7  C3  UNL     1      17.363  21.132  15.258  1.00  0.00     0.055 C 
BRANCH   7   8
HETATM    8  C2  UNL     1      18.368  21.647  14.220  1.00  0.00     0.001 C 
HETATM    9  C1  UNL     1      19.766  21.702  14.805  1.00  0.00     0.005 C 
ENDBRANCH   7   8
ENDBRANCH   6   7
BRANCH   6  10
HETATM   10  N1  UNL     1      16.909  23.465  16.126  1.00  0.00    -0.325 N 
HETATM   11  C5  UNL     1      17.762  24.078  17.024  1.00  0.00     0.293 C 
HETATM   12  O1  UNL     1      18.469  23.532  17.905  1.00  0.00    -0.264 OA
ATOM     13  H1  UNL     1      16.456  24.127  15.496  1.00  0.00     0.169 HD
BRANCH  11  14
HETATM   14  C6  UNL     1      17.879  25.555  16.967  1.00  0.00     0.240 C 
HETATM   15  O2  UNL     1      17.450  26.257  17.937  1.00  0.00    -0.285 OA
BRANCH  14  16
HETATM   16  C7  UNL     1      18.485  26.229  15.813  1.00  0.00     0.257 C 
BRANCH  16  17
HETATM   17  O3  UNL     1      18.707  25.353  14.791  1.00  0.00    -0.373 OA
BRANCH  17  18
HETATM   18  C8  UNL     1      18.391  25.791  13.533  1.00  0.00     0.050 C 
HETATM   19  C9  UNL     1      17.954  27.238  13.501  1.00  0.00     0.045 C 
HETATM   20  C10 UNL     1      17.323  24.914  12.905  1.00  0.00     0.045 C 
HETATM   21  C11 UNL     1      19.638  25.661  12.671  1.00  0.00     0.045 C 
ENDBRANCH  17  18
ENDBRANCH  16  17
ENDBRANCH  14  16
ENDBRANCH  11  14
ENDBRANCH   6  10
ENDBRANCH   2   6
ENDBRANCH   1   2
BRANCH   1  22
HETATM   22  C13 UNL     1      14.007  22.835  18.004  1.00  0.00     0.169 C 
BRANCH  22  23
HETATM   23  O4  UNL     1      12.863  23.503  17.873  1.00  0.00    -0.344 OA
ATOM     24  H4  UNL     1      12.758  24.262  18.435  1.00  0.00     0.219 HD
ENDBRANCH  22  23
BRANCH  22  25
HETATM   25  C14 UNL     1      14.682  23.383  19.149  1.00  0.00     0.107 A 
HETATM   26  C15 UNL     1      14.366  23.024  20.476  1.00  0.00     0.178 A 
HETATM   27  O5  UNL     1      15.148  23.683  21.291  1.00  0.00    -0.308 OA
HETATM   28  C16 UNL     1      15.953  24.446  20.633  1.00  0.00     0.119 A 
HETATM   29  C17 UNL     1      16.995  25.356  21.177  1.00  0.00     0.098 C 
HETATM   30  N3  UNL     1      15.666  24.257  19.371  1.00  0.00    -0.336 N 
ATOM     31  H3  UNL     1      16.154  24.740  18.617  1.00  0.00     0.168 HD
ENDBRANCH  22  25
ENDBRANCH   1  22
BRANCH   1  32
HETATM   32  C18 UNL     1      13.781  20.492  17.493  1.00  0.00     0.057 C 
HETATM   33  C19 UNL     1      13.989  19.378  16.558  1.00  0.00     0.044 C 
HETATM   34  C20 UNL     1      14.856  20.157  18.603  1.00  0.00     0.044 C 
BRANCH  32  35
HETATM   35  C21 UNL     1      12.523  20.328  18.192  1.00  0.00    -0.014 A 
HETATM   36  C22 UNL     1      12.489  19.866  19.517  1.00  0.00     0.012 A 
HETATM   37  C23 UNL     1      11.328  19.685  20.259  1.00  0.00     0.016 A 
HETATM   38  C24 UNL     1      10.113  19.947  19.745  1.00  0.00     0.016 A 
HETATM   39  C28 UNL     1      10.108  20.409  18.417  1.00  0.00     0.034 A 
HETATM   40  C29 UNL     1      11.267  20.582  17.694  1.00  0.00     0.050 A 
BRANCH  38  41
HETATM   41  C25 UNL     1       8.873  19.805  20.434  1.00  0.00     0.147 C 
BRANCH  41  42
HETATM   42  O6  UNL     1       8.438  20.910  21.006  1.00  0.00    -0.346 OA
ATOM     43  H6  UNL     1       9.066  21.326  21.585  1.00  0.00     0.219 HD
ENDBRANCH  41  42
BRANCH  41  44
HETATM   44  N4  UNL     1       8.026  18.721  20.624  1.00  0.00    -0.370 N 
HETATM   45  C26 UNL     1       8.411  17.375  20.942  1.00  0.00     0.151 C 
HETATM   46  C27 UNL     1       6.553  18.933  20.497  1.00  0.00     0.151 C 
ENDBRANCH  41  44
ENDBRANCH  38  41
BRANCH  40  47
HETATM   47  C30 UNL     1      11.088  20.982  16.313  1.00  0.00     0.210 C 
HETATM   48  O7  UNL     1      11.059  20.262  15.309  1.00  0.00    -0.644 OA
HETATM   49  O8  UNL     1      10.942  22.342  16.117  1.00  0.00    -0.644 OA
ENDBRANCH  40  47
ENDBRANCH  32  35
ENDBRANCH   1  32
TORSDOF 18
ENDMDL
MODEL 4
REMARK VINA RESULT: -7.387592263      2.657      5.060
REMARK  18 active torsions:
REMARK  status: ('A' for Active; 'I' for Inactive)
REMARK    1  A    between atoms: C2_2  and  C3_3 
REMARK    2  A    between atoms: C3_3  and  C4_4 
REMARK    3  A    between atoms: C4_4  and  N1_5 
REMARK    4  A    between atoms: C4_4  and  C12_17 
REMARK       I    between atoms: N1_5  and  C5_7 
REMARK    5  A    between atoms: C5_7  and  C6_9 
REMARK    6  A    between atoms: C6_9  and  C7_11 
REMARK    7  A    between atoms: C7_11  and  O3_12 
REMARK    8  A    between atoms: O3_12  and  C8_13 
REMARK    9  A    between atoms: C12_17  and  N2_18 
REMARK   10  A    between atoms: N2_18  and  C13_19 
REMARK   11  A    between atoms: N2_18  and  C18_29 
REMARK   12  A    between atoms: C13_19  and  O4_20 
REMARK   13  A    between atoms: C13_19  and  C14_22 
REMARK   14  A    between atoms: C18_29  and  C21_32 
REMARK   15  A    between atoms: C24_35  and  C25_36 
REMARK   16  A    between atoms: C25_36  and  O6_37 
REMARK   17  A    between atoms: C25_36  and  N4_39 
REMARK   18  A    between atoms: C29_43  and  C30_44 
ROOT
HETATM    1  N2  UNL     1      14.325  21.249  17.201  1.00  0.00    -0.332 N 
ENDROOT
BRANCH   1   2
HETATM    2  C12 UNL     1      15.087  22.449  17.381  1.00  0.00     0.078 A 
HETATM    3  C31 UNL     1      15.223  22.868  18.848  1.00  0.00     0.045 A 
HETATM    4  C32 UNL     1      14.692  23.790  17.765  1.00  0.00     0.018 A 
HETATM    5  C33 UNL     1      13.579  24.606  18.196  1.00  0.00     0.013 C 
BRANCH   2   6
HETATM    6  C4  UNL     1      16.472  22.550  16.651  1.00  0.00     0.019 C 
BRANCH   6   7
HETATM    7  C3  UNL     1      16.936  21.485  15.797  1.00  0.00     0.055 C 
BRANCH   7   8
HETATM    8  C2  UNL     1      17.553  21.903  14.457  1.00  0.00     0.001 C 
HETATM    9  C1  UNL     1      19.066  21.815  14.510  1.00  0.00     0.005 C 
ENDBRANCH   7   8
ENDBRANCH   6   7
BRANCH   6  10
HETATM   10  N1  UNL     1      16.868  23.907  16.526  1.00  0.00    -0.325 N 
HETATM   11  C5  UNL     1      17.866  24.679  17.091  1.00  0.00     0.293 C 
HETATM   12  O1  UNL     1      18.745  24.316  17.910  1.00  0.00    -0.264 OA
ATOM     13  H1  UNL     1      16.286  24.431  15.873  1.00  0.00     0.169 HD
BRANCH  11  14
HETATM   14  C6  UNL     1      17.936  26.108  16.704  1.00  0.00     0.240 C 
HETATM   15  O2  UNL     1      17.485  26.996  17.496  1.00  0.00    -0.285 OA
BRANCH  14  16
HETATM   16  C7  UNL     1      18.519  26.525  15.425  1.00  0.00     0.257 C 
BRANCH  16  17
HETATM   17  O3  UNL     1      18.443  25.526  14.499  1.00  0.00    -0.373 OA
BRANCH  17  18
HETATM   18  C8  UNL     1      18.080  25.895  13.232  1.00  0.00     0.050 C 
HETATM   19  C9  UNL     1      17.665  27.347  13.132  1.00  0.00     0.045 C 
HETATM   20  C10 UNL     1      16.972  25.004  12.701  1.00  0.00     0.045 C 
HETATM   21  C11 UNL     1      19.286  25.693  12.326  1.00  0.00     0.045 C 
ENDBRANCH  17  18
ENDBRANCH  16  17
ENDBRANCH  14  16
ENDBRANCH  11  14
ENDBRANCH   6  10
ENDBRANCH   2   6
ENDBRANCH   1   2
BRANCH   1  22
HETATM   22  C13 UNL     1      14.187  20.214  18.146  1.00  0.00     0.169 C 
BRANCH  22  23
HETATM   23  O4  UNL     1      15.315  19.617  18.523  1.00  0.00    -0.344 OA
ATOM     24  H4  UNL     1      15.219  18.891  19.129  1.00  0.00     0.219 HD
ENDBRANCH  22  23
BRANCH  22  25
HETATM   25  C14 UNL     1      13.116  19.575  18.860  1.00  0.00     0.107 A 
HETATM   26  C15 UNL     1      12.707  18.248  18.612  1.00  0.00     0.178 A 
HETATM   27  O5  UNL     1      11.719  17.951  19.416  1.00  0.00    -0.308 OA
HETATM   28  C16 UNL     1      11.431  18.954  20.174  1.00  0.00     0.119 A 
HETATM   29  C17 UNL     1      10.378  19.035  21.220  1.00  0.00     0.098 C 
HETATM   30  N3  UNL     1      12.264  19.904  19.834  1.00  0.00    -0.336 N 
ATOM     31  H3  UNL     1      12.263  20.823  20.277  1.00  0.00     0.168 HD
ENDBRANCH  22  25
ENDBRANCH   1  22
BRANCH   1  32
HETATM   32  C18 UNL     1      13.678  20.925  15.901  1.00  0.00     0.057 C 
HETATM   33  C19 UNL     1      13.759  21.951  14.852  1.00  0.00     0.044 C 
HETATM   34  C20 UNL     1      14.676  19.837  15.335  1.00  0.00     0.044 C 
BRANCH  32  35
HETATM   35  C21 UNL     1      12.395  20.255  15.845  1.00  0.00    -0.014 A 
HETATM   36  C22 UNL     1      12.240  19.049  15.145  1.00  0.00     0.012 A 
HETATM   37  C23 UNL     1      11.048  18.342  15.046  1.00  0.00     0.016 A 
HETATM   38  C24 UNL     1       9.918  18.777  15.632  1.00  0.00     0.016 A 
HETATM   39  C28 UNL     1      10.035  19.986  16.340  1.00  0.00     0.034 A 
HETATM   40  C29 UNL     1      11.223  20.676  16.429  1.00  0.00     0.050 A 
BRANCH  38  41
HETATM   41  C25 UNL     1       8.657  18.113  15.596  1.00  0.00     0.147 C 
BRANCH  41  42
HETATM   42  O6  UNL     1       7.812  18.596  14.709  1.00  0.00    -0.346 OA
ATOM     43  H6  UNL     1       6.911  18.318  14.831  1.00  0.00     0.219 HD
ENDBRANCH  41  42
BRANCH  41  44
HETATM   44  N4  UNL     1       8.140  17.048  16.322  1.00  0.00    -0.370 N 
HETATM   45  C26 UNL     1       8.683  16.480  17.522  1.00  0.00     0.151 C 
HETATM   46  C27 UNL     1       6.884  16.397  15.840  1.00  0.00     0.151 C 
ENDBRANCH  41  44
ENDBRANCH  38  41
BRANCH  40  47
HETATM   47  C30 UNL     1      11.157  21.946  17.120  1.00  0.00     0.210 C 
HETATM   48  O7  UNL     1      11.314  22.166  18.327  1.00  0.00    -0.644 OA
HETATM   49  O8  UNL     1      10.874  23.032  16.314  1.00  0.00    -0.644 OA
ENDBRANCH  40  47
ENDBRANCH  32  35
ENDBRANCH   1  32
TORSDOF 18
ENDMDL
MODEL 5
REMARK VINA RESULT: -7.354618099      3.153      6.378
REMARK  18 active torsions:
REMARK  status: ('A' for Active; 'I' for Inactive)
REMARK    1  A    between atoms: C2_2  and  C3_3 
REMARK    2  A    between atoms: C3_3  and  C4_4 
REMARK    3  A    between atoms: C4_4  and  N1_5 
REMARK    4  A    between atoms: C4_4  and  C12_17 
REMARK       I    between atoms: N1_5  and  C5_7 
REMARK    5  A    between atoms: C5_7  and  C6_9 
REMARK    6  A    between atoms: C6_9  and  C7_11 
REMARK    7  A    between atoms: C7_11  and  O3_12 
REMARK    8  A    between atoms: O3_12  and  C8_13 
REMARK    9  A    between atoms: C12_17  and  N2_18 
REMARK   10  A    between atoms: N2_18  and  C13_19 
REMARK   11  A    between atoms: N2_18  and  C18_29 
REMARK   12  A    between atoms: C13_19  and  O4_20 
REMARK   13  A    between atoms: C13_19  and  C14_22 
REMARK   14  A    between atoms: C18_29  and  C21_32 
REMARK   15  A    between atoms: C24_35  and  C25_36 
REMARK   16  A    between atoms: C25_36  and  O6_37 
REMARK   17  A    between atoms: C25_36  and  N4_39 
REMARK   18  A    between atoms: C29_43  and  C30_44 
ROOT
HETATM    1  N2  UNL     1      14.270  21.907  17.175  1.00  0.00    -0.332 N 
ENDROOT
BRANCH   1   2
HETATM    2  C12 UNL     1      14.922  22.006  15.902  1.00  0.00     0.078 A 
HETATM    3  C31 UNL     1      14.303  23.063  14.983  1.00  0.00     0.045 A 
HETATM    4  C32 UNL     1      14.497  21.614  14.572  1.00  0.00     0.018 A 
HETATM    5  C33 UNL     1      13.396  21.079  13.802  1.00  0.00     0.013 C 
BRANCH   2   6
HETATM    6  C4  UNL     1      16.487  22.116  15.890  1.00  0.00     0.019 C 
BRANCH   6   7
HETATM    7  C3  UNL     1      17.293  21.108  15.250  1.00  0.00     0.055 C 
BRANCH   7   8
HETATM    8  C2  UNL     1      18.303  21.602  14.207  1.00  0.00     0.001 C 
HETATM    9  C1  UNL     1      19.694  21.693  14.805  1.00  0.00     0.005 C 
ENDBRANCH   7   8
ENDBRANCH   6   7
BRANCH   6  10
HETATM   10  N1  UNL     1      16.889  23.464  16.078  1.00  0.00    -0.325 N 
HETATM   11  C5  UNL     1      17.732  24.107  16.965  1.00  0.00     0.293 C 
HETATM   12  O1  UNL     1      18.412  23.593  17.886  1.00  0.00    -0.264 OA
ATOM     13  H1  UNL     1      16.460  24.102  15.408  1.00  0.00     0.169 HD
BRANCH  11  14
HETATM   14  C6  UNL     1      17.873  25.578  16.842  1.00  0.00     0.240 C 
HETATM   15  O2  UNL     1      17.448  26.330  17.775  1.00  0.00    -0.285 OA
BRANCH  14  16
HETATM   16  C7  UNL     1      18.497  26.189  15.663  1.00  0.00     0.257 C 
BRANCH  16  17
HETATM   17  O3  UNL     1      18.700  25.266  14.678  1.00  0.00    -0.373 OA
BRANCH  17  18
HETATM   18  C8  UNL     1      18.370  25.649  13.407  1.00  0.00     0.050 C 
HETATM   19  C9  UNL     1      17.204  24.872  12.836  1.00  0.00     0.045 C 
HETATM   20  C10 UNL     1      19.566  25.543  12.478  1.00  0.00     0.045 C 
HETATM   21  C11 UNL     1      17.972  27.118  13.453  1.00  0.00     0.045 C 
ENDBRANCH  17  18
ENDBRANCH  16  17
ENDBRANCH  14  16
ENDBRANCH  11  14
ENDBRANCH   6  10
ENDBRANCH   2   6
ENDBRANCH   1   2
BRANCH   1  22
HETATM   22  C13 UNL     1      14.090  22.962  18.089  1.00  0.00     0.169 C 
BRANCH  22  23
HETATM   23  O4  UNL     1      12.980  23.681  17.936  1.00  0.00    -0.344 OA
ATOM     24  H4  UNL     1      12.762  24.267  18.651  1.00  0.00     0.219 HD
ENDBRANCH  22  23
BRANCH  22  25
HETATM   25  C14 UNL     1      14.801  23.524  19.203  1.00  0.00     0.107 A 
HETATM   26  C15 UNL     1      14.642  23.071  20.529  1.00  0.00     0.178 A 
HETATM   27  O5  UNL     1      15.419  23.770  21.314  1.00  0.00    -0.308 OA
HETATM   28  C16 UNL     1      16.080  24.647  20.637  1.00  0.00     0.119 A 
HETATM   29  C17 UNL     1      17.066  25.637  21.143  1.00  0.00     0.098 C 
HETATM   30  N3  UNL     1      15.705  24.489  19.394  1.00  0.00    -0.336 N 
ATOM     31  H3  UNL     1      16.072  25.057  18.630  1.00  0.00     0.168 HD
ENDBRANCH  22  25
ENDBRANCH   1  22
BRANCH   1  32
HETATM   32  C18 UNL     1      13.808  20.600  17.713  1.00  0.00     0.057 C 
HETATM   33  C19 UNL     1      14.843  19.710  18.257  1.00  0.00     0.044 C 
HETATM   34  C20 UNL     1      13.085  21.064  19.041  1.00  0.00     0.044 C 
BRANCH  32  35
HETATM   35  C21 UNL     1      12.789  19.825  17.037  1.00  0.00    -0.014 A 
HETATM   36  C22 UNL     1      13.095  18.588  16.447  1.00  0.00     0.012 A 
HETATM   37  C23 UNL     1      12.177  17.782  15.785  1.00  0.00     0.016 A 
HETATM   38  C24 UNL     1      10.887  18.140  15.656  1.00  0.00     0.016 A 
HETATM   39  C28 UNL     1      10.544  19.376  16.231  1.00  0.00     0.034 A 
HETATM   40  C29 UNL     1      11.465  20.164  16.884  1.00  0.00     0.050 A 
BRANCH  38  41
HETATM   41  C25 UNL     1       9.875  17.372  15.007  1.00  0.00     0.147 C 
BRANCH  41  42
HETATM   42  O6  UNL     1      10.323  16.555  14.076  1.00  0.00    -0.346 OA
ATOM     43  H6  UNL     1       9.666  16.274  13.450  1.00  0.00     0.219 HD
ENDBRANCH  41  42
BRANCH  41  44
HETATM   44  N4  UNL     1       8.496  17.318  15.166  1.00  0.00    -0.370 N 
HETATM   45  C26 UNL     1       7.519  18.103  14.468  1.00  0.00     0.151 C 
HETATM   46  C27 UNL     1       7.928  16.352  16.154  1.00  0.00     0.151 C 
ENDBRANCH  41  44
ENDBRANCH  38  41
BRANCH  40  47
HETATM   47  C30 UNL     1      10.974  21.446  17.345  1.00  0.00     0.210 C 
HETATM   48  O7  UNL     1      10.530  21.735  18.463  1.00  0.00    -0.644 OA
HETATM   49  O8  UNL     1      11.006  22.454  16.401  1.00  0.00    -0.644 OA
ENDBRANCH  40  47
ENDBRANCH  32  35
ENDBRANCH   1  32
TORSDOF 18
ENDMDL
