MODEL 1
REMARK VINA RESULT: -9.066364732      0.000      0.000
REMARK  12 active torsions:
REMARK  status: ('A' for Active; 'I' for Inactive)
REMARK    1  A    between atoms: C5_5  and  C6_6 
REMARK    2  A    between atoms: C7_8  and  C8_9 
REMARK    3  A    between atoms: C8_9  and  C9_10 
REMARK    4  A    between atoms: C9_10  and  C10_11 
REMARK    5  A    between atoms: N2_13  and  C11_15 
REMARK    6  A    between atoms: C14_20  and  N4_21 
REMARK    7  A    between atoms: N5_27  and  C20_28 
REMARK    8  A    between atoms: C20_28  and  C21_29 
REMARK    9  A    between atoms: C21_29  and  O1_30 
REMARK   10  A    between atoms: O1_30  and  C22_31 
REMARK   11  A    between atoms: C22_31  and  C23_32 
REMARK   12  A    between atoms: C23_32  and  N6_33 
ROOT
HETATM    1  N4  UNL     1       8.987  18.819  20.050  1.00  0.00    -0.366 N 
HETATM    2  C15 UNL     1       8.578  20.089  19.498  1.00  0.00     0.127 C 
HETATM    3  C16 UNL     1       9.824  20.991  19.523  1.00  0.00     0.059 C 
HETATM    4  C17 UNL     1      10.913  20.459  18.658  1.00  0.00     0.131 C 
HETATM    5  C18 UNL     1      12.236  21.052  19.092  1.00  0.00     0.059 C 
HETATM    6  C19 UNL     1      12.413  22.492  18.588  1.00  0.00     0.128 C 
HETATM    7  N5  UNL     1      13.100  22.342  17.296  1.00  0.00    -0.349 N 
HETATM    8  C28 UNL     1      12.660  21.474  16.255  1.00  0.00     0.245 C 
HETATM    9  O3  UNL     1      13.209  21.658  15.157  1.00  0.00    -0.272 OA
HETATM   10  C29 UNL     1      11.620  20.386  16.358  1.00  0.00     0.335 C 
HETATM   11  N7  UNL     1      10.580  20.784  17.284  1.00  0.00    -0.058 N 
ATOM     12  H71 UNL     1      10.356  21.775  17.183  1.00  0.00     0.278 HD
ATOM     13  H72 UNL     1       9.679  20.386  17.019  1.00  0.00     0.278 HD
HETATM   14  C30 UNL     1      11.022  18.964  18.859  1.00  0.00     0.059 C 
HETATM   15  C31 UNL     1      10.414  18.630  20.205  1.00  0.00     0.127 C 
ENDROOT
BRANCH   1  16
HETATM   16  C14 UNL     1       8.040  17.765  20.405  1.00  0.00     0.122 A 
HETATM   17  C6  UNL     1       7.687  16.734  19.583  1.00  0.00     0.060 A 
HETATM   18  S1  UNL     1       6.643  15.823  20.652  1.00  0.00    -0.072 SA
HETATM   19  C7  UNL     1       6.740  16.811  22.022  1.00  0.00     0.053 A 
HETATM   20  N3  UNL     1       7.547  17.769  21.614  1.00  0.00    -0.339 N 
ATOM     21  H3  UNL     1       7.789  18.527  22.252  1.00  0.00     0.168 HD
BRANCH  17  22
HETATM   22  C5  UNL     1       7.998  16.353  18.224  1.00  0.00    -0.015 A 
HETATM   23  C4  UNL     1       7.109  15.487  17.576  1.00  0.00     0.013 A 
HETATM   24  C3  UNL     1       7.304  15.106  16.268  1.00  0.00     0.007 A 
HETATM   25  C2  UNL     1       8.378  15.562  15.552  1.00  0.00    -0.062 A 
HETATM   26  C1  UNL     1       8.594  15.154  14.136  1.00  0.00     0.048 C 
HETATM   27  C33 UNL     1       9.256  16.407  16.162  1.00  0.00     0.007 A 
HETATM   28  C32 UNL     1       9.045  16.785  17.489  1.00  0.00     0.013 A 
ENDBRANCH  17  22
BRANCH  19  29
HETATM   29  C8  UNL     1       6.092  16.665  23.372  1.00  0.00     0.072 C 
BRANCH  29  30
HETATM   30  C9  UNL     1       4.927  17.604  23.458  1.00  0.00     0.079 C 
BRANCH  30  31
HETATM   31  C10 UNL     1       3.809  17.317  22.573  1.00  0.00     0.089 C 
HETATM   32  N1  UNL     1       3.093  16.076  22.764  1.00  0.00    -0.088 NA
HETATM   33  N2  UNL     1       3.404  18.032  21.601  1.00  0.00    -0.378 N 
ATOM     34  H2  UNL     1       2.600  17.656  21.099  1.00  0.00     0.160 HD
BRANCH  33  35
HETATM   35  C11 UNL     1       3.891  19.267  21.106  1.00  0.00     0.074 C 
HETATM   36  C12 UNL     1       2.744  20.222  20.791  1.00  0.00     0.031 C 
HETATM   37  C13 UNL     1       4.658  19.096  19.787  1.00  0.00     0.031 C 
ENDBRANCH  33  35
ENDBRANCH  30  31
ENDBRANCH  29  30
ENDBRANCH  19  29
ENDBRANCH   1  16
BRANCH   7  38
HETATM   38  C20 UNL     1      14.285  23.104  17.048  1.00  0.00     0.152 C 
BRANCH  38  39
HETATM   39  C21 UNL     1      15.545  22.399  17.452  1.00  0.00     0.187 C 
BRANCH  39  40
HETATM   40  O1  UNL     1      16.552  22.625  16.557  1.00  0.00    -0.388 OA
BRANCH  40  41
HETATM   41  C22 UNL     1      17.306  23.747  16.768  1.00  0.00     0.198 C 
BRANCH  41  42
HETATM   42  C23 UNL     1      17.674  23.893  18.224  1.00  0.00     0.298 C 
BRANCH  42  43
HETATM   43  N6  UNL     1      17.736  25.240  18.670  1.00  0.00     0.094 N 
HETATM   44  C24 UNL     1      16.607  26.052  18.359  1.00  0.00     0.298 C 
HETATM   45  C25 UNL     1      15.364  25.721  19.156  1.00  0.00     0.198 C 
HETATM   46  O2  UNL     1      15.654  25.071  20.352  1.00  0.00    -0.388 OA
HETATM   47  C26 UNL     1      16.791  25.712  20.877  1.00  0.00     0.198 C 
HETATM   48  C27 UNL     1      18.028  25.333  20.071  1.00  0.00     0.298 C 
ENDBRANCH  42  43
ENDBRANCH  41  42
ENDBRANCH  40  41
ENDBRANCH  39  40
ENDBRANCH  38  39
ENDBRANCH   7  38
TORSDOF 12
ENDMDL
MODEL 2
REMARK VINA RESULT: -9.023701625      1.227      1.478
REMARK  12 active torsions:
REMARK  status: ('A' for Active; 'I' for Inactive)
REMARK    1  A    between atoms: C5_5  and  C6_6 
REMARK    2  A    between atoms: C7_8  and  C8_9 
REMARK    3  A    between atoms: C8_9  and  C9_10 
REMARK    4  A    between atoms: C9_10  and  C10_11 
REMARK    5  A    between atoms: N2_13  and  C11_15 
REMARK    6  A    between atoms: C14_20  and  N4_21 
REMARK    7  A    between atoms: N5_27  and  C20_28 
REMARK    8  A    between atoms: C20_28  and  C21_29 
REMARK    9  A    between atoms: C21_29  and  O1_30 
REMARK   10  A    between atoms: O1_30  and  C22_31 
REMARK   11  A    between atoms: C22_31  and  C23_32 
REMARK   12  A    between atoms: C23_32  and  N6_33 
ROOT
HETATM    1  N4  UNL     1       9.513  18.624  19.280  1.00  0.00    -0.366 N 
HETATM    2  C15 UNL     1       9.097  19.868  18.677  1.00  0.00     0.127 C 
HETATM    3  C16 UNL     1      10.375  20.701  18.484  1.00  0.00     0.059 C 
HETATM    4  C17 UNL     1      11.328  20.048  17.544  1.00  0.00     0.131 C 
HETATM    5  C18 UNL     1      12.719  20.602  17.772  1.00  0.00     0.059 C 
HETATM    6  C19 UNL     1      12.897  21.987  17.135  1.00  0.00     0.128 C 
HETATM    7  N5  UNL     1      13.418  21.703  15.790  1.00  0.00    -0.349 N 
HETATM    8  C28 UNL     1      12.819  20.783  14.880  1.00  0.00     0.245 C 
HETATM    9  O3  UNL     1      13.240  20.853  13.715  1.00  0.00    -0.272 OA
HETATM   10  C29 UNL     1      11.752  19.762  15.192  1.00  0.00     0.335 C 
HETATM   11  N7  UNL     1      10.849  20.284  16.197  1.00  0.00    -0.058 N 
ATOM     12  H71 UNL     1      10.658  21.275  16.041  1.00  0.00     0.278 HD
ATOM     13  H72 UNL     1       9.906  19.915  16.071  1.00  0.00     0.278 HD
HETATM   14  C30 UNL     1      11.396  18.569  17.854  1.00  0.00     0.059 C 
HETATM   15  C31 UNL     1      10.939  18.371  19.284  1.00  0.00     0.127 C 
ENDROOT
BRANCH   1  16
HETATM   16  C14 UNL     1       8.571  17.651  19.828  1.00  0.00     0.122 A 
HETATM   17  C6  UNL     1       8.012  16.630  19.114  1.00  0.00     0.060 A 
HETATM   18  S1  UNL     1       7.105  15.825  20.376  1.00  0.00    -0.072 SA
HETATM   19  C7  UNL     1       7.504  16.834  21.674  1.00  0.00     0.053 A 
HETATM   20  N3  UNL     1       8.293  17.720  21.101  1.00  0.00    -0.339 N 
ATOM     21  H3  UNL     1       8.693  18.472  21.662  1.00  0.00     0.168 HD
BRANCH  17  22
HETATM   22  C5  UNL     1       8.058  16.195  17.736  1.00  0.00    -0.015 A 
HETATM   23  C4  UNL     1       7.004  15.399  17.274  1.00  0.00     0.013 A 
HETATM   24  C3  UNL     1       6.945  14.976  15.966  1.00  0.00     0.007 A 
HETATM   25  C2  UNL     1       7.918  15.320  15.068  1.00  0.00    -0.062 A 
HETATM   26  C1  UNL     1       7.860  14.865  13.651  1.00  0.00     0.048 C 
HETATM   27  C33 UNL     1       8.955  16.096  15.495  1.00  0.00     0.007 A 
HETATM   28  C32 UNL     1       9.000  16.518  16.825  1.00  0.00     0.013 A 
ENDBRANCH  17  22
BRANCH  19  29
HETATM   29  C8  UNL     1       7.088  16.768  23.119  1.00  0.00     0.072 C 
BRANCH  29  30
HETATM   30  C9  UNL     1       5.598  16.622  23.190  1.00  0.00     0.079 C 
BRANCH  30  31
HETATM   31  C10 UNL     1       4.840  17.858  23.309  1.00  0.00     0.089 C 
HETATM   32  N1  UNL     1       4.572  18.366  24.634  1.00  0.00    -0.088 NA
HETATM   33  N2  UNL     1       4.342  18.539  22.357  1.00  0.00    -0.378 N 
ATOM     34  H2  UNL     1       3.842  19.380  22.646  1.00  0.00     0.160 HD
BRANCH  33  35
HETATM   35  C11 UNL     1       4.369  18.316  20.957  1.00  0.00     0.074 C 
HETATM   36  C12 UNL     1       5.195  19.384  20.248  1.00  0.00     0.031 C 
HETATM   37  C13 UNL     1       2.968  18.399  20.334  1.00  0.00     0.031 C 
ENDBRANCH  33  35
ENDBRANCH  30  31
ENDBRANCH  29  30
ENDBRANCH  19  29
ENDBRANCH   1  16
BRANCH   7  38
HETATM   38  C20 UNL     1      14.597  22.380  15.344  1.00  0.00     0.152 C 
BRANCH  38  39
HETATM   39  C21 UNL     1      15.826  22.015  16.122  1.00  0.00     0.187 C 
BRANCH  39  40
HETATM   40  O1  UNL     1      16.773  22.997  16.046  1.00  0.00    -0.388 OA
BRANCH  40  41
HETATM   41  C22 UNL     1      17.317  23.404  17.233  1.00  0.00     0.198 C 
BRANCH  41  42
HETATM   42  C23 UNL     1      16.296  23.367  18.344  1.00  0.00     0.298 C 
BRANCH  42  43
HETATM   43  N6  UNL     1      15.917  24.649  18.821  1.00  0.00     0.094 N 
HETATM   44  C24 UNL     1      15.652  24.740  20.219  1.00  0.00     0.298 C 
HETATM   45  C25 UNL     1      16.883  24.646  21.094  1.00  0.00     0.198 C 
HETATM   46  O2  UNL     1      18.048  24.991  20.415  1.00  0.00    -0.388 OA
HETATM   47  C26 UNL     1      17.719  26.102  19.617  1.00  0.00     0.198 C 
HETATM   48  C27 UNL     1      16.854  25.666  18.440  1.00  0.00     0.298 C 
ENDBRANCH  42  43
ENDBRANCH  41  42
ENDBRANCH  40  41
ENDBRANCH  39  40
ENDBRANCH  38  39
ENDBRANCH   7  38
TORSDOF 12
ENDMDL
MODEL 3
REMARK VINA RESULT: -9.008656681      2.700      4.877
REMARK  12 active torsions:
REMARK  status: ('A' for Active; 'I' for Inactive)
REMARK    1  A    between atoms: C5_5  and  C6_6 
REMARK    2  A    between atoms: C7_8  and  C8_9 
REMARK    3  A    between atoms: C8_9  and  C9_10 
REMARK    4  A    between atoms: C9_10  and  C10_11 
REMARK    5  A    between atoms: N2_13  and  C11_15 
REMARK    6  A    between atoms: C14_20  and  N4_21 
REMARK    7  A    between atoms: N5_27  and  C20_28 
REMARK    8  A    between atoms: C20_28  and  C21_29 
REMARK    9  A    between atoms: C21_29  and  O1_30 
REMARK   10  A    between atoms: O1_30  and  C22_31 
REMARK   11  A    between atoms: C22_31  and  C23_32 
REMARK   12  A    between atoms: C23_32  and  N6_33 
ROOT
HETATM    1  N4  UNL     1       8.131  17.369  18.295  1.00  0.00    -0.366 N 
HETATM    2  C15 UNL     1       8.500  18.622  18.909  1.00  0.00     0.127 C 
HETATM    3  C16 UNL     1      10.036  18.688  18.862  1.00  0.00     0.059 C 
HETATM    4  C17 UNL     1      10.550  18.710  17.464  1.00  0.00     0.131 C 
HETATM    5  C18 UNL     1      11.997  18.267  17.453  1.00  0.00     0.059 C 
HETATM    6  C19 UNL     1      12.943  19.385  17.915  1.00  0.00     0.128 C 
HETATM    7  N5  UNL     1      13.323  20.074  16.672  1.00  0.00    -0.349 N 
HETATM    8  C28 UNL     1      12.390  20.546  15.704  1.00  0.00     0.245 C 
HETATM    9  O3  UNL     1      12.865  21.313  14.853  1.00  0.00    -0.272 OA
HETATM   10  C29 UNL     1      10.921  20.211  15.620  1.00  0.00     0.335 C 
HETATM   11  N7  UNL     1      10.374  20.055  16.952  1.00  0.00    -0.058 N 
ATOM     12  H71 UNL     1      10.762  20.747  17.593  1.00  0.00     0.278 HD
ATOM     13  H72 UNL     1       9.394  20.335  16.983  1.00  0.00     0.278 HD
HETATM   14  C30 UNL     1       9.782  17.701  16.639  1.00  0.00     0.059 C 
HETATM   15  C31 UNL     1       9.188  16.680  17.585  1.00  0.00     0.127 C 
ENDROOT
BRANCH   1  16
HETATM   16  C14 UNL     1       6.775  16.828  18.346  1.00  0.00     0.122 A 
HETATM   17  C6  UNL     1       6.150  16.413  19.486  1.00  0.00     0.060 A 
HETATM   18  S1  UNL     1       4.572  16.005  18.849  1.00  0.00    -0.072 SA
HETATM   19  C7  UNL     1       4.837  16.386  17.221  1.00  0.00     0.053 A 
HETATM   20  N3  UNL     1       6.088  16.798  17.236  1.00  0.00    -0.339 N 
ATOM     21  H3  UNL     1       6.528  17.099  16.366  1.00  0.00     0.168 HD
BRANCH  17  22
HETATM   22  C5  UNL     1       6.525  16.294  20.877  1.00  0.00    -0.015 A 
HETATM   23  C4  UNL     1       5.642  16.814  21.831  1.00  0.00     0.013 A 
HETATM   24  C3  UNL     1       5.898  16.706  23.179  1.00  0.00     0.007 A 
HETATM   25  C2  UNL     1       7.029  16.086  23.636  1.00  0.00    -0.062 A 
HETATM   26  C1  UNL     1       7.312  15.966  25.093  1.00  0.00     0.048 C 
HETATM   27  C33 UNL     1       7.904  15.572  22.724  1.00  0.00     0.007 A 
HETATM   28  C32 UNL     1       7.630  15.688  21.361  1.00  0.00     0.013 A 
ENDBRANCH  17  22
BRANCH  19  29
HETATM   29  C8  UNL     1       3.911  16.294  16.039  1.00  0.00     0.072 C 
BRANCH  29  30
HETATM   30  C9  UNL     1       4.488  15.336  15.041  1.00  0.00     0.079 C 
BRANCH  30  31
HETATM   31  C10 UNL     1       5.162  14.170  15.591  1.00  0.00     0.089 C 
HETATM   32  N1  UNL     1       6.606  14.188  15.657  1.00  0.00    -0.088 NA
HETATM   33  N2  UNL     1       4.616  13.095  15.995  1.00  0.00    -0.378 N 
ATOM     34  H2  UNL     1       5.263  12.391  16.348  1.00  0.00     0.160 HD
BRANCH  33  35
HETATM   35  C11 UNL     1       3.249  12.718  16.033  1.00  0.00     0.074 C 
HETATM   36  C12 UNL     1       2.626  13.055  17.383  1.00  0.00     0.031 C 
HETATM   37  C13 UNL     1       3.065  11.204  15.860  1.00  0.00     0.031 C 
ENDBRANCH  33  35
ENDBRANCH  30  31
ENDBRANCH  29  30
ENDBRANCH  19  29
ENDBRANCH   1  16
BRANCH   7  38
HETATM   38  C20 UNL     1      14.710  20.294  16.398  1.00  0.00     0.152 C 
BRANCH  38  39
HETATM   39  C21 UNL     1      15.306  21.417  17.193  1.00  0.00     0.187 C 
BRANCH  39  40
HETATM   40  O1  UNL     1      15.973  22.298  16.389  1.00  0.00    -0.388 OA
BRANCH  40  41
HETATM   41  C22 UNL     1      16.516  23.389  17.010  1.00  0.00     0.198 C 
BRANCH  41  42
HETATM   42  C23 UNL     1      15.803  23.693  18.305  1.00  0.00     0.298 C 
BRANCH  42  43
HETATM   43  N6  UNL     1      15.918  25.046  18.722  1.00  0.00     0.094 N 
HETATM   44  C24 UNL     1      15.774  25.281  20.120  1.00  0.00     0.298 C 
HETATM   45  C25 UNL     1      16.940  24.800  20.956  1.00  0.00     0.198 C 
HETATM   46  O2  UNL     1      18.116  24.688  20.218  1.00  0.00    -0.388 OA
HETATM   47  C26 UNL     1      18.151  25.810  19.370  1.00  0.00     0.198 C 
HETATM   48  C27 UNL     1      17.128  25.656  18.250  1.00  0.00     0.298 C 
ENDBRANCH  42  43
ENDBRANCH  41  42
ENDBRANCH  40  41
ENDBRANCH  39  40
ENDBRANCH  38  39
ENDBRANCH   7  38
TORSDOF 12
ENDMDL
MODEL 4
REMARK VINA RESULT: -8.935124272      2.235      4.802
REMARK  12 active torsions:
REMARK  status: ('A' for Active; 'I' for Inactive)
REMARK    1  A    between atoms: C5_5  and  C6_6 
REMARK    2  A    between atoms: C7_8  and  C8_9 
REMARK    3  A    between atoms: C8_9  and  C9_10 
REMARK    4  A    between atoms: C9_10  and  C10_11 
REMARK    5  A    between atoms: N2_13  and  C11_15 
REMARK    6  A    between atoms: C14_20  and  N4_21 
REMARK    7  A    between atoms: N5_27  and  C20_28 
REMARK    8  A    between atoms: C20_28  and  C21_29 
REMARK    9  A    between atoms: C21_29  and  O1_30 
REMARK   10  A    between atoms: O1_30  and  C22_31 
REMARK   11  A    between atoms: C22_31  and  C23_32 
REMARK   12  A    between atoms: C23_32  and  N6_33 
ROOT
HETATM    1  N4  UNL     1       7.272  18.361  19.843  1.00  0.00    -0.366 N 
HETATM    2  C15 UNL     1       7.564  19.757  20.068  1.00  0.00     0.127 C 
HETATM    3  C16 UNL     1       9.082  19.848  20.295  1.00  0.00     0.059 C 
HETATM    4  C17 UNL     1       9.852  19.422  19.094  1.00  0.00     0.131 C 
HETATM    5  C18 UNL     1      11.258  19.041  19.505  1.00  0.00     0.059 C 
HETATM    6  C19 UNL     1      12.140  20.276  19.744  1.00  0.00     0.128 C 
HETATM    7  N5  UNL     1      12.773  20.526  18.441  1.00  0.00    -0.349 N 
HETATM    8  C28 UNL     1      12.057  20.625  17.212  1.00  0.00     0.245 C 
HETATM    9  O3  UNL     1      12.714  21.082  16.262  1.00  0.00    -0.272 OA
HETATM   10  C29 UNL     1      10.620  20.239  16.964  1.00  0.00     0.335 C 
HETATM   11  N7  UNL     1       9.825  20.516  18.143  1.00  0.00    -0.058 N 
ATOM     12  H71 UNL     1      10.110  21.392  18.582  1.00  0.00     0.278 HD
ATOM     13  H72 UNL     1       8.868  20.763  17.892  1.00  0.00     0.278 HD
HETATM   14  C30 UNL     1       9.218  18.175  18.517  1.00  0.00     0.059 C 
HETATM   15  C31 UNL     1       8.419  17.507  19.615  1.00  0.00     0.127 C 
ENDROOT
BRANCH   1  16
HETATM   16  C14 UNL     1       5.913  17.828  19.809  1.00  0.00     0.122 A 
HETATM   17  C6  UNL     1       5.288  17.235  20.868  1.00  0.00     0.060 A 
HETATM   18  S1  UNL     1       3.705  16.949  20.179  1.00  0.00    -0.072 SA
HETATM   19  C7  UNL     1       3.968  17.592  18.636  1.00  0.00     0.053 A 
HETATM   20  N3  UNL     1       5.221  17.988  18.713  1.00  0.00    -0.339 N 
ATOM     21  H3  UNL     1       5.660  18.426  17.903  1.00  0.00     0.168 HD
BRANCH  17  22
HETATM   22  C5  UNL     1       5.667  16.886  22.219  1.00  0.00    -0.015 A 
HETATM   23  C4  UNL     1       4.727  17.108  23.232  1.00  0.00     0.013 A 
HETATM   24  C3  UNL     1       4.986  16.765  24.539  1.00  0.00     0.007 A 
HETATM   25  C2  UNL     1       6.177  16.192  24.896  1.00  0.00    -0.062 A 
HETATM   26  C1  UNL     1       6.464  15.819  26.308  1.00  0.00     0.048 C 
HETATM   27  C33 UNL     1       7.108  15.966  23.926  1.00  0.00     0.007 A 
HETATM   28  C32 UNL     1       6.830  16.319  22.605  1.00  0.00     0.013 A 
ENDBRANCH  17  22
BRANCH  19  29
HETATM   29  C8  UNL     1       3.037  17.703  17.459  1.00  0.00     0.072 C 
BRANCH  29  30
HETATM   30  C9  UNL     1       3.535  16.816  16.359  1.00  0.00     0.079 C 
BRANCH  30  31
HETATM   31  C10 UNL     1       3.774  15.426  16.718  1.00  0.00     0.089 C 
HETATM   32  N1  UNL     1       2.685  14.679  17.304  1.00  0.00    -0.088 NA
HETATM   33  N2  UNL     1       4.870  14.789  16.607  1.00  0.00    -0.378 N 
ATOM     34  H2  UNL     1       4.834  13.818  16.915  1.00  0.00     0.160 HD
BRANCH  33  35
HETATM   35  C11 UNL     1       6.133  15.214  16.124  1.00  0.00     0.074 C 
HETATM   36  C12 UNL     1       6.692  14.224  15.107  1.00  0.00     0.031 C 
HETATM   37  C13 UNL     1       7.181  15.290  17.243  1.00  0.00     0.031 C 
ENDBRANCH  33  35
ENDBRANCH  30  31
ENDBRANCH  29  30
ENDBRANCH  19  29
ENDBRANCH   1  16
BRANCH   7  38
HETATM   38  C20 UNL     1      14.194  20.683  18.379  1.00  0.00     0.152 C 
BRANCH  38  39
HETATM   39  C21 UNL     1      14.700  21.861  19.157  1.00  0.00     0.187 C 
BRANCH  39  40
HETATM   40  O1  UNL     1      13.818  22.903  19.114  1.00  0.00    -0.388 OA
BRANCH  40  41
HETATM   41  C22 UNL     1      14.098  23.894  18.213  1.00  0.00     0.198 C 
BRANCH  41  42
HETATM   42  C23 UNL     1      15.571  24.218  18.196  1.00  0.00     0.298 C 
BRANCH  42  43
HETATM   43  N6  UNL     1      15.895  25.457  18.810  1.00  0.00     0.094 N 
HETATM   44  C24 UNL     1      15.900  25.465  20.235  1.00  0.00     0.298 C 
HETATM   45  C25 UNL     1      17.059  24.717  20.858  1.00  0.00     0.198 C 
HETATM   46  O2  UNL     1      18.145  24.600  19.994  1.00  0.00    -0.388 OA
HETATM   47  C26 UNL     1      18.255  25.839  19.337  1.00  0.00     0.198 C 
HETATM   48  C27 UNL     1      17.131  25.996  18.319  1.00  0.00     0.298 C 
ENDBRANCH  42  43
ENDBRANCH  41  42
ENDBRANCH  40  41
ENDBRANCH  39  40
ENDBRANCH  38  39
ENDBRANCH   7  38
TORSDOF 12
ENDMDL
MODEL 5
REMARK VINA RESULT: -8.925977134      1.078      2.156
REMARK  12 active torsions:
REMARK  status: ('A' for Active; 'I' for Inactive)
REMARK    1  A    between atoms: C5_5  and  C6_6 
REMARK    2  A    between atoms: C7_8  and  C8_9 
REMARK    3  A    between atoms: C8_9  and  C9_10 
REMARK    4  A    between atoms: C9_10  and  C10_11 
REMARK    5  A    between atoms: N2_13  and  C11_15 
REMARK    6  A    between atoms: C14_20  and  N4_21 
REMARK    7  A    between atoms: N5_27  and  C20_28 
REMARK    8  A    between atoms: C20_28  and  C21_29 
REMARK    9  A    between atoms: C21_29  and  O1_30 
REMARK   10  A    between atoms: O1_30  and  C22_31 
REMARK   11  A    between atoms: C22_31  and  C23_32 
REMARK   12  A    between atoms: C23_32  and  N6_33 
ROOT
HETATM    1  N4  UNL     1       9.174  18.905  20.086  1.00  0.00    -0.366 N 
HETATM    2  C15 UNL     1       8.800  20.153  19.464  1.00  0.00     0.127 C 
HETATM    3  C16 UNL     1      10.031  21.069  19.566  1.00  0.00     0.059 C 
HETATM    4  C17 UNL     1      11.194  20.526  18.811  1.00  0.00     0.131 C 
HETATM    5  C18 UNL     1      12.470  21.148  19.336  1.00  0.00     0.059 C 
HETATM    6  C19 UNL     1      12.675  22.574  18.806  1.00  0.00     0.128 C 
HETATM    7  N5  UNL     1      13.469  22.395  17.581  1.00  0.00    -0.349 N 
HETATM    8  C28 UNL     1      13.127  21.491  16.533  1.00  0.00     0.245 C 
HETATM    9  O3  UNL     1      13.764  21.650  15.480  1.00  0.00    -0.272 OA
HETATM   10  C29 UNL     1      12.092  20.394  16.581  1.00  0.00     0.335 C 
HETATM   11  N7  UNL     1      10.974  20.807  17.405  1.00  0.00    -0.058 N 
ATOM     12  H71 UNL     1      10.750  21.791  17.256  1.00  0.00     0.278 HD
ATOM     13  H72 UNL     1      10.103  20.390  17.078  1.00  0.00     0.278 HD
HETATM   14  C30 UNL     1      11.300  19.039  19.066  1.00  0.00     0.059 C 
HETATM   15  C31 UNL     1      10.584  18.737  20.365  1.00  0.00     0.127 C 
ENDROOT
BRANCH   1  16
HETATM   16  C14 UNL     1       8.211  17.850  20.393  1.00  0.00     0.122 A 
HETATM   17  C6  UNL     1       7.860  16.850  19.532  1.00  0.00     0.060 A 
HETATM   18  S1  UNL     1       6.790  15.917  20.555  1.00  0.00    -0.072 SA
HETATM   19  C7  UNL     1       6.876  16.858  21.958  1.00  0.00     0.053 A 
HETATM   20  N3  UNL     1       7.698  17.820  21.593  1.00  0.00    -0.339 N 
ATOM     21  H3  UNL     1       7.939  18.554  22.259  1.00  0.00     0.168 HD
BRANCH  17  22
HETATM   22  C5  UNL     1       8.188  16.509  18.166  1.00  0.00    -0.015 A 
HETATM   23  C4  UNL     1       7.390  15.551  17.530  1.00  0.00     0.013 A 
HETATM   24  C3  UNL     1       7.604  15.198  16.217  1.00  0.00     0.007 A 
HETATM   25  C2  UNL     1       8.606  15.773  15.485  1.00  0.00    -0.062 A 
HETATM   26  C1  UNL     1       8.843  15.395  14.064  1.00  0.00     0.048 C 
HETATM   27  C33 UNL     1       9.396  16.710  16.084  1.00  0.00     0.007 A 
HETATM   28  C32 UNL     1       9.167  17.058  17.415  1.00  0.00     0.013 A 
ENDBRANCH  17  22
BRANCH  19  29
HETATM   29  C8  UNL     1       6.205  16.676  23.293  1.00  0.00     0.072 C 
BRANCH  29  30
HETATM   30  C9  UNL     1       5.054  17.629  23.394  1.00  0.00     0.079 C 
BRANCH  30  31
HETATM   31  C10 UNL     1       3.922  17.358  22.520  1.00  0.00     0.089 C 
HETATM   32  N1  UNL     1       3.229  16.100  22.678  1.00  0.00    -0.088 NA
HETATM   33  N2  UNL     1       3.486  18.103  21.586  1.00  0.00    -0.378 N 
ATOM     34  H2  UNL     1       2.678  17.735  21.085  1.00  0.00     0.160 HD
BRANCH  33  35
HETATM   35  C11 UNL     1       3.944  19.365  21.129  1.00  0.00     0.074 C 
HETATM   36  C12 UNL     1       2.775  20.265  20.744  1.00  0.00     0.031 C 
HETATM   37  C13 UNL     1       4.804  19.241  19.863  1.00  0.00     0.031 C 
ENDBRANCH  33  35
ENDBRANCH  30  31
ENDBRANCH  29  30
ENDBRANCH  19  29
ENDBRANCH   1  16
BRANCH   7  38
HETATM   38  C20 UNL     1      14.664  23.163  17.410  1.00  0.00     0.152 C 
BRANCH  38  39
HETATM   39  C21 UNL     1      15.831  22.636  18.189  1.00  0.00     0.187 C 
BRANCH  39  40
HETATM   40  O1  UNL     1      16.505  23.644  18.821  1.00  0.00    -0.388 OA
BRANCH  40  41
HETATM   41  C22 UNL     1      17.396  24.345  18.056  1.00  0.00     0.198 C 
BRANCH  41  42
HETATM   42  C23 UNL     1      18.479  23.445  17.514  1.00  0.00     0.298 C 
BRANCH  42  43
HETATM   43  N6  UNL     1      18.996  23.859  16.258  1.00  0.00     0.094 N 
HETATM   44  C24 UNL     1      19.594  22.837  15.463  1.00  0.00     0.298 C 
HETATM   45  C25 UNL     1      18.609  21.855  14.868  1.00  0.00     0.198 C 
HETATM   46  O2  UNL     1      17.324  22.381  14.769  1.00  0.00    -0.388 OA
HETATM   47  C26 UNL     1      17.480  23.713  14.342  1.00  0.00     0.198 C 
HETATM   48  C27 UNL     1      18.023  24.570  15.480  1.00  0.00     0.298 C 
ENDBRANCH  42  43
ENDBRANCH  41  42
ENDBRANCH  40  41
ENDBRANCH  39  40
ENDBRANCH  38  39
ENDBRANCH   7  38
TORSDOF 12
ENDMDL
