MODEL 1
REMARK VINA RESULT: -6.794839110      0.000      0.000
REMARK  7 active torsions:
REMARK  status: ('A' for Active; 'I' for Inactive)
REMARK    1  A    between atoms: O1_1  and  C1_3 
REMARK    2  A    between atoms: C1_3  and  C2_4 
REMARK    3  A    between atoms: C3_6  and  N1_7 
REMARK    4  A    between atoms: C7_11  and  O3_12 
REMARK    5  A    between atoms: C8_14  and  O4_15 
REMARK    6  A    between atoms: C9_17  and  O5_18 
REMARK    7  A    between atoms: C10_20  and  O6_21 
ROOT
HETATM    1  C2  UNL     1       4.023   3.192  35.699  1.00  0.00     0.179 C 
HETATM    2  O2  UNL     1       5.197   2.514  35.399  1.00  0.00    -0.353 OA
HETATM    3  C3  UNL     1       6.187   3.491  35.284  1.00  0.00     0.261 C 
HETATM    4  C8  UNL     1       6.599   3.813  36.706  1.00  0.00     0.198 C 
HETATM    5  C9  UNL     1       5.422   4.458  37.379  1.00  0.00     0.182 C 
HETATM    6  C10 UNL     1       4.098   4.080  36.874  1.00  0.00     0.180 C 
ENDROOT
BRANCH   3   7
HETATM    7  N1  UNL     1       7.296   3.057  34.470  1.00  0.00    -0.308 N 
HETATM    8  C4  UNL     1       8.610   3.204  34.736  1.00  0.00     0.096 A 
HETATM    9  C5  UNL     1       9.341   2.649  33.700  1.00  0.00     0.022 A 
HETATM   10  C6  UNL     1       8.454   2.149  32.776  1.00  0.00     0.057 A 
HETATM   11  C7  UNL     1       7.187   2.423  33.291  1.00  0.00     0.144 A 
BRANCH  11  12
HETATM   12  O3  UNL     1       5.977   2.095  32.690  1.00  0.00    -0.346 OA
ATOM     13  H3  UNL     1       5.898   1.581  31.895  1.00  0.00     0.219 HD
ENDBRANCH  11  12
ENDBRANCH   3   7
BRANCH   4  14
HETATM   14  O4  UNL     1       7.020   2.685  37.393  1.00  0.00    -0.388 OA
ATOM     15  H4  UNL     1       7.906   2.779  37.723  1.00  0.00     0.210 HD
ENDBRANCH   4  14
BRANCH   1  16
HETATM   16  C1  UNL     1       2.844   2.215  35.798  1.00  0.00     0.198 C 
BRANCH  16  17
HETATM   17  O1  UNL     1       3.307   0.954  35.423  1.00  0.00    -0.398 OA
ATOM     18  H1  UNL     1       2.551   0.425  35.198  1.00  0.00     0.209 HD
ENDBRANCH  16  17
ENDBRANCH   1  16
BRANCH   5  19
HETATM   19  O5  UNL     1       5.632   5.855  37.284  1.00  0.00    -0.390 OA
ATOM     20  H5  UNL     1       4.935   6.261  37.786  1.00  0.00     0.210 HD
ENDBRANCH   5  19
BRANCH   6  21
HETATM   21  O6  UNL     1       3.364   5.256  36.594  1.00  0.00    -0.390 OA
ATOM     22  H6  UNL     1       2.452   5.020  36.479  1.00  0.00     0.210 HD
ENDBRANCH   6  21
TORSDOF 7
ENDMDL
MODEL 2
REMARK VINA RESULT: -6.538414134      2.065      4.800
REMARK  7 active torsions:
REMARK  status: ('A' for Active; 'I' for Inactive)
REMARK    1  A    between atoms: O1_1  and  C1_3 
REMARK    2  A    between atoms: C1_3  and  C2_4 
REMARK    3  A    between atoms: C3_6  and  N1_7 
REMARK    4  A    between atoms: C7_11  and  O3_12 
REMARK    5  A    between atoms: C8_14  and  O4_15 
REMARK    6  A    between atoms: C9_17  and  O5_18 
REMARK    7  A    between atoms: C10_20  and  O6_21 
ROOT
HETATM    1  C2  UNL     1       8.325   2.029  33.520  1.00  0.00     0.179 C 
HETATM    2  O2  UNL     1       6.960   2.242  33.377  1.00  0.00    -0.353 OA
HETATM    3  C3  UNL     1       6.421   2.160  34.662  1.00  0.00     0.261 C 
HETATM    4  C8  UNL     1       6.685   3.511  35.294  1.00  0.00     0.198 C 
HETATM    5  C9  UNL     1       8.172   3.651  35.450  1.00  0.00     0.182 C 
HETATM    6  C10 UNL     1       8.998   2.916  34.487  1.00  0.00     0.180 C 
ENDROOT
BRANCH   3   7
HETATM    7  N1  UNL     1       5.020   1.818  34.650  1.00  0.00    -0.308 N 
HETATM    8  C4  UNL     1       4.144   1.928  35.669  1.00  0.00     0.096 A 
HETATM    9  C5  UNL     1       2.902   1.493  35.241  1.00  0.00     0.022 A 
HETATM   10  C6  UNL     1       3.019   1.106  33.926  1.00  0.00     0.057 A 
HETATM   11  C7  UNL     1       4.355   1.323  33.592  1.00  0.00     0.144 A 
BRANCH  11  12
HETATM   12  O3  UNL     1       4.935   1.072  32.354  1.00  0.00    -0.346 OA
ATOM     13  H3  UNL     1       4.645   1.467  31.540  1.00  0.00     0.219 HD
ENDBRANCH  11  12
ENDBRANCH   3   7
BRANCH   4  14
HETATM   14  O4  UNL     1       6.154   4.549  34.543  1.00  0.00    -0.388 OA
ATOM     15  H4  UNL     1       6.382   5.399  34.900  1.00  0.00     0.210 HD
ENDBRANCH   4  14
BRANCH   1  16
HETATM   16  C1  UNL     1       9.021   2.044  32.153  1.00  0.00     0.198 C 
BRANCH  16  17
HETATM   17  O1  UNL     1      10.396   2.100  32.378  1.00  0.00    -0.398 OA
ATOM     18  H1  UNL     1      10.693   2.970  32.137  1.00  0.00     0.209 HD
ENDBRANCH  16  17
ENDBRANCH   1  16
BRANCH   5  19
HETATM   19  O5  UNL     1       8.465   3.268  36.781  1.00  0.00    -0.390 OA
ATOM     20  H5  UNL     1       7.825   3.706  37.329  1.00  0.00     0.210 HD
ENDBRANCH   5  19
BRANCH   6  21
HETATM   21  O6  UNL     1       9.959   2.158  35.195  1.00  0.00    -0.390 OA
ATOM     22  H6  UNL     1      10.141   2.598  36.017  1.00  0.00     0.210 HD
ENDBRANCH   6  21
TORSDOF 7
ENDMDL
MODEL 3
REMARK VINA RESULT: -6.312010226      1.709      4.709
REMARK  7 active torsions:
REMARK  status: ('A' for Active; 'I' for Inactive)
REMARK    1  A    between atoms: O1_1  and  C1_3 
REMARK    2  A    between atoms: C1_3  and  C2_4 
REMARK    3  A    between atoms: C3_6  and  N1_7 
REMARK    4  A    between atoms: C7_11  and  O3_12 
REMARK    5  A    between atoms: C8_14  and  O4_15 
REMARK    6  A    between atoms: C9_17  and  O5_18 
REMARK    7  A    between atoms: C10_20  and  O6_21 
ROOT
HETATM    1  C2  UNL     1       6.508   2.380  33.654  1.00  0.00     0.179 C 
HETATM    2  O2  UNL     1       5.582   3.241  34.229  1.00  0.00    -0.353 OA
HETATM    3  C3  UNL     1       5.844   3.230  35.599  1.00  0.00     0.261 C 
HETATM    4  C8  UNL     1       7.014   4.173  35.791  1.00  0.00     0.198 C 
HETATM    5  C9  UNL     1       8.203   3.556  35.111  1.00  0.00     0.182 C 
HETATM    6  C10 UNL     1       7.917   2.674  33.976  1.00  0.00     0.180 C 
ENDROOT
BRANCH   3   7
HETATM    7  N1  UNL     1       4.694   3.607  36.383  1.00  0.00    -0.308 N 
HETATM    8  C4  UNL     1       4.661   4.465  37.423  1.00  0.00     0.096 A 
HETATM    9  C5  UNL     1       3.362   4.548  37.894  1.00  0.00     0.022 A 
HETATM   10  C6  UNL     1       2.578   3.721  37.123  1.00  0.00     0.057 A 
HETATM   11  C7  UNL     1       3.445   3.151  36.191  1.00  0.00     0.144 A 
BRANCH  11  12
HETATM   12  O3  UNL     1       3.090   2.243  35.200  1.00  0.00    -0.346 OA
ATOM     13  H3  UNL     1       2.366   2.367  34.597  1.00  0.00     0.219 HD
ENDBRANCH  11  12
ENDBRANCH   3   7
BRANCH   4  14
HETATM   14  O4  UNL     1       6.748   5.440  35.295  1.00  0.00    -0.388 OA
ATOM     15  H4  UNL     1       6.622   5.435  34.354  1.00  0.00     0.210 HD
ENDBRANCH   4  14
BRANCH   1  16
HETATM   16  C1  UNL     1       6.279   2.271  32.141  1.00  0.00     0.198 C 
BRANCH  16  17
HETATM   17  O1  UNL     1       7.422   1.702  31.580  1.00  0.00    -0.398 OA
ATOM     18  H1  UNL     1       7.190   1.381  30.716  1.00  0.00     0.209 HD
ENDBRANCH  16  17
ENDBRANCH   1  16
BRANCH   5  19
HETATM   19  O5  UNL     1       8.926   2.879  36.122  1.00  0.00    -0.390 OA
ATOM     20  H5  UNL     1       9.574   2.348  35.673  1.00  0.00     0.210 HD
ENDBRANCH   5  19
BRANCH   6  21
HETATM   21  O6  UNL     1       8.597   1.449  34.167  1.00  0.00    -0.390 OA
ATOM     22  H6  UNL     1       9.018   1.209  33.350  1.00  0.00     0.210 HD
ENDBRANCH   6  21
TORSDOF 7
ENDMDL
MODEL 4
REMARK VINA RESULT: -6.108682104      1.550      3.298
REMARK  7 active torsions:
REMARK  status: ('A' for Active; 'I' for Inactive)
REMARK    1  A    between atoms: O1_1  and  C1_3 
REMARK    2  A    between atoms: C1_3  and  C2_4 
REMARK    3  A    between atoms: C3_6  and  N1_7 
REMARK    4  A    between atoms: C7_11  and  O3_12 
REMARK    5  A    between atoms: C8_14  and  O4_15 
REMARK    6  A    between atoms: C9_17  and  O5_18 
REMARK    7  A    between atoms: C10_20  and  O6_21 
ROOT
HETATM    1  C2  UNL     1       5.591   4.657  35.680  1.00  0.00     0.179 C 
HETATM    2  O2  UNL     1       6.386   4.296  34.600  1.00  0.00    -0.353 OA
HETATM    3  C3  UNL     1       6.738   2.962  34.810  1.00  0.00     0.261 C 
HETATM    4  C8  UNL     1       5.542   2.154  34.350  1.00  0.00     0.198 C 
HETATM    5  C9  UNL     1       4.408   2.461  35.285  1.00  0.00     0.182 C 
HETATM    6  C10 UNL     1       4.429   3.782  35.920  1.00  0.00     0.180 C 
ENDROOT
BRANCH   3   7
HETATM    7  N1  UNL     1       7.951   2.599  34.119  1.00  0.00    -0.308 N 
HETATM    8  C4  UNL     1       8.087   2.302  32.810  1.00  0.00     0.096 A 
HETATM    9  C5  UNL     1       9.415   2.009  32.553  1.00  0.00     0.022 A 
HETATM   10  C6  UNL     1      10.111   2.130  33.733  1.00  0.00     0.057 A 
HETATM   11  C7  UNL     1       9.164   2.500  34.688  1.00  0.00     0.144 A 
BRANCH  11  12
HETATM   12  O3  UNL     1       9.416   2.736  36.034  1.00  0.00    -0.346 OA
ATOM     13  H3  UNL     1       9.415   3.598  36.434  1.00  0.00     0.219 HD
ENDBRANCH  11  12
ENDBRANCH   3   7
BRANCH   4  14
HETATM   14  O4  UNL     1       5.203   2.430  33.035  1.00  0.00    -0.388 OA
ATOM     15  H4  UNL     1       5.841   2.085  32.422  1.00  0.00     0.210 HD
ENDBRANCH   4  14
BRANCH   1  16
HETATM   16  C1  UNL     1       5.183   6.133  35.584  1.00  0.00     0.198 C 
BRANCH  16  17
HETATM   17  O1  UNL     1       6.346   6.899  35.656  1.00  0.00    -0.398 OA
ATOM     18  H1  UNL     1       6.394   7.269  36.530  1.00  0.00     0.209 HD
ENDBRANCH  16  17
ENDBRANCH   1  16
BRANCH   5  19
HETATM   19  O5  UNL     1       4.402   1.424  36.249  1.00  0.00    -0.390 OA
ATOM     20  H5  UNL     1       3.677   1.610  36.834  1.00  0.00     0.210 HD
ENDBRANCH   5  19
BRANCH   6  21
HETATM   21  O6  UNL     1       4.272   3.619  37.317  1.00  0.00    -0.390 OA
ATOM     22  H6  UNL     1       4.724   2.826  37.579  1.00  0.00     0.210 HD
ENDBRANCH   6  21
TORSDOF 7
ENDMDL
MODEL 5
REMARK VINA RESULT: -6.023842413      4.736      6.955
REMARK  7 active torsions:
REMARK  status: ('A' for Active; 'I' for Inactive)
REMARK    1  A    between atoms: O1_1  and  C1_3 
REMARK    2  A    between atoms: C1_3  and  C2_4 
REMARK    3  A    between atoms: C3_6  and  N1_7 
REMARK    4  A    between atoms: C7_11  and  O3_12 
REMARK    5  A    between atoms: C8_14  and  O4_15 
REMARK    6  A    between atoms: C9_17  and  O5_18 
REMARK    7  A    between atoms: C10_20  and  O6_21 
ROOT
HETATM    1  C2  UNL     1       2.637  -0.412  30.230  1.00  0.00     0.179 C 
HETATM    2  O2  UNL     1       3.312  -0.363  31.443  1.00  0.00    -0.353 OA
HETATM    3  C3  UNL     1       2.476   0.328  32.321  1.00  0.00     0.261 C 
HETATM    4  C8  UNL     1       1.460  -0.692  32.794  1.00  0.00     0.198 C 
HETATM    5  C9  UNL     1       0.626  -1.077  31.606  1.00  0.00     0.182 C 
HETATM    6  C10 UNL     1       1.275  -0.974  30.296  1.00  0.00     0.180 C 
ENDROOT
BRANCH   3   7
HETATM    7  N1  UNL     1       3.203   0.932  33.410  1.00  0.00    -0.308 N 
HETATM    8  C4  UNL     1       2.755   1.163  34.662  1.00  0.00     0.096 A 
HETATM    9  C5  UNL     1       3.766   1.758  35.396  1.00  0.00     0.022 A 
HETATM   10  C6  UNL     1       4.861   1.896  34.575  1.00  0.00     0.057 A 
HETATM   11  C7  UNL     1       4.472   1.370  33.344  1.00  0.00     0.144 A 
BRANCH  11  12
HETATM   12  O3  UNL     1       5.263   1.298  32.204  1.00  0.00    -0.346 OA
ATOM     13  H3  UNL     1       5.129   1.829  31.427  1.00  0.00     0.219 HD
ENDBRANCH  11  12
ENDBRANCH   3   7
BRANCH   4  14
HETATM   14  O4  UNL     1       2.064  -1.799  33.370  1.00  0.00    -0.388 OA
ATOM     15  H4  UNL     1       1.960  -2.578  32.838  1.00  0.00     0.210 HD
ENDBRANCH   4  14
BRANCH   1  16
HETATM   16  C1  UNL     1       3.491  -1.109  29.163  1.00  0.00     0.198 C 
BRANCH  16  17
HETATM   17  O1  UNL     1       2.707  -2.101  28.576  1.00  0.00    -0.398 OA
ATOM     18  H1  UNL     1       2.420  -1.779  27.729  1.00  0.00     0.209 HD
ENDBRANCH  16  17
ENDBRANCH   1  16
BRANCH   5  19
HETATM   19  O5  UNL     1      -0.541  -0.279  31.670  1.00  0.00    -0.390 OA
ATOM     20  H5  UNL     1      -0.296   0.574  31.331  1.00  0.00     0.210 HD
ENDBRANCH   5  19
BRANCH   6  21
HETATM   21  O6  UNL     1       0.441  -0.227  29.432  1.00  0.00    -0.390 OA
ATOM     22  H6  UNL     1       0.037   0.471  29.934  1.00  0.00     0.210 HD
ENDBRANCH   6  21
TORSDOF 7
ENDMDL
