MODEL 1
REMARK VINA RESULT: -5.128727925      0.000      0.000
REMARK  7 active torsions:
REMARK  status: ('A' for Active; 'I' for Inactive)
REMARK    1  A    between atoms: O1_1  and  C1_3 
REMARK    2  A    between atoms: C1_3  and  C2_4 
REMARK    3  A    between atoms: C2_4  and  O2_5 
REMARK    4  A    between atoms: C4_8  and  O3_9 
REMARK    5  A    between atoms: C5_11  and  C6_12 
REMARK    6  A    between atoms: C7_16  and  O4_17 
REMARK    7  A    between atoms: C8_19  and  O5_20 
ROOT
HETATM    1  C2  UNL     1       4.642   2.285  35.517  1.00  0.00     0.109 C 
HETATM    2  C3  UNL     1       5.072   1.640  34.245  1.00  0.00     0.075 C 
HETATM    3  C4  UNL     1       5.844   2.519  33.324  1.00  0.00     0.132 C 
HETATM    4  C5  UNL     1       6.885   3.360  33.981  1.00  0.00     0.085 C 
HETATM    5  C7  UNL     1       6.435   4.025  35.245  1.00  0.00     0.161 C 
HETATM    6  C8  UNL     1       5.669   3.137  36.174  1.00  0.00     0.184 C 
ENDROOT
BRANCH   1   7
HETATM    7  C1  UNL     1       3.338   3.024  35.256  1.00  0.00     0.204 C 
BRANCH   7   8
HETATM    8  O1  UNL     1       3.070   3.859  36.336  1.00  0.00    -0.398 OA
ATOM      9  H1  UNL     1       2.649   3.352  37.020  1.00  0.00     0.209 HD
ENDBRANCH   7   8
ENDBRANCH   1   7
BRANCH   1  10
HETATM   10  O2  UNL     1       4.309   1.246  36.418  1.00  0.00    -0.385 OA
ATOM     11  H2  UNL     1       4.528   1.581  37.279  1.00  0.00     0.210 HD
ENDBRANCH   1  10
BRANCH   6  12
HETATM   12  O5  UNL     1       6.563   2.368  36.945  1.00  0.00    -0.390 OA
ATOM     13  H5  UNL     1       7.319   2.877  37.215  1.00  0.00     0.210 HD
ENDBRANCH   6  12
BRANCH   3  14
HETATM   14  O3  UNL     1       6.507   1.675  32.403  1.00  0.00    -0.395 OA
ATOM     15  H3  UNL     1       6.619   2.171  31.600  1.00  0.00     0.210 HD
ENDBRANCH   3  14
BRANCH   5  16
HETATM   16  O4  UNL     1       5.698   5.179  34.970  1.00  0.00    -0.392 OA
ATOM     17  H4  UNL     1       5.839   5.841  35.636  1.00  0.00     0.210 HD
ENDBRANCH   5  16
BRANCH   4  18
HETATM   18  C6  UNL     1       8.123   2.573  34.186  1.00  0.00     0.079 C 
HETATM   19  N1  UNL     1       9.051   2.484  33.313  1.00  0.00    -0.334 N 
HETATM   20  S1  UNL     1      10.492   1.546  33.600  1.00  0.00     0.041 SA
ATOM     21  H1  UNL     1       8.946   2.974  32.425  1.00  0.00     0.173 HD
ENDBRANCH   4  18
TORSDOF 7
ENDMDL
MODEL 2
REMARK VINA RESULT: -5.106707285      7.491      9.580
REMARK  7 active torsions:
REMARK  status: ('A' for Active; 'I' for Inactive)
REMARK    1  A    between atoms: O1_1  and  C1_3 
REMARK    2  A    between atoms: C1_3  and  C2_4 
REMARK    3  A    between atoms: C2_4  and  O2_5 
REMARK    4  A    between atoms: C4_8  and  O3_9 
REMARK    5  A    between atoms: C5_11  and  C6_12 
REMARK    6  A    between atoms: C7_16  and  O4_17 
REMARK    7  A    between atoms: C8_19  and  O5_20 
ROOT
HETATM    1  C2  UNL     1       7.752  -2.328  27.508  1.00  0.00     0.109 C 
HETATM    2  C3  UNL     1       7.099  -2.117  28.830  1.00  0.00     0.075 C 
HETATM    3  C4  UNL     1       6.332  -0.847  28.956  1.00  0.00     0.132 C 
HETATM    4  C5  UNL     1       5.484  -0.504  27.780  1.00  0.00     0.085 C 
HETATM    5  C7  UNL     1       6.158  -0.695  26.456  1.00  0.00     0.161 C 
HETATM    6  C8  UNL     1       6.920  -1.976  26.327  1.00  0.00     0.184 C 
ENDROOT
BRANCH   1   7
HETATM    7  C1  UNL     1       9.093  -1.611  27.522  1.00  0.00     0.204 C 
BRANCH   7   8
HETATM    8  O1  UNL     1       9.366  -1.139  26.242  1.00  0.00    -0.398 OA
ATOM      9  H1  UNL     1       8.590  -0.709  25.902  1.00  0.00     0.209 HD
ENDBRANCH   7   8
ENDBRANCH   1   7
BRANCH   1  10
HETATM   10  O2  UNL     1       8.065  -3.705  27.414  1.00  0.00    -0.385 OA
ATOM     11  H2  UNL     1       7.713  -4.097  28.204  1.00  0.00     0.210 HD
ENDBRANCH   1  10
BRANCH   6  12
HETATM   12  O5  UNL     1       6.039  -3.022  25.983  1.00  0.00    -0.390 OA
ATOM     13  H5  UNL     1       6.283  -3.428  25.160  1.00  0.00     0.210 HD
ENDBRANCH   6  12
BRANCH   3  14
HETATM   14  O3  UNL     1       5.467  -0.994  30.067  1.00  0.00    -0.395 OA
ATOM     15  H3  UNL     1       5.385  -0.138  30.471  1.00  0.00     0.210 HD
ENDBRANCH   3  14
BRANCH   5  16
HETATM   16  O4  UNL     1       6.988   0.387  26.155  1.00  0.00    -0.392 OA
ATOM     17  H4  UNL     1       7.886   0.209  26.408  1.00  0.00     0.210 HD
ENDBRANCH   5  16
BRANCH   4  18
HETATM   18  C6  UNL     1       4.195  -1.231  27.848  1.00  0.00     0.079 C 
HETATM   19  N1  UNL     1       3.108  -0.695  28.250  1.00  0.00    -0.334 N 
HETATM   20  S1  UNL     1       1.613  -1.591  28.313  1.00  0.00     0.041 SA
ATOM     21  H1  UNL     1       3.114   0.282  28.543  1.00  0.00     0.173 HD
ENDBRANCH   4  18
TORSDOF 7
ENDMDL
MODEL 3
REMARK VINA RESULT: -5.053870962      5.846      7.018
REMARK  7 active torsions:
REMARK  status: ('A' for Active; 'I' for Inactive)
REMARK    1  A    between atoms: O1_1  and  C1_3 
REMARK    2  A    between atoms: C1_3  and  C2_4 
REMARK    3  A    between atoms: C2_4  and  O2_5 
REMARK    4  A    between atoms: C4_8  and  O3_9 
REMARK    5  A    between atoms: C5_11  and  C6_12 
REMARK    6  A    between atoms: C7_16  and  O4_17 
REMARK    7  A    between atoms: C8_19  and  O5_20 
ROOT
HETATM    1  C2  UNL     1       1.840  -1.792  30.520  1.00  0.00     0.109 C 
HETATM    2  C3  UNL     1       2.752  -0.713  30.047  1.00  0.00     0.075 C 
HETATM    3  C4  UNL     1       2.292   0.672  30.342  1.00  0.00     0.132 C 
HETATM    4  C5  UNL     1       1.743   0.875  31.713  1.00  0.00     0.085 C 
HETATM    5  C7  UNL     1       0.808  -0.202  32.170  1.00  0.00     0.161 C 
HETATM    6  C8  UNL     1       1.277  -1.593  31.881  1.00  0.00     0.184 C 
ENDROOT
BRANCH   1   7
HETATM    7  C1  UNL     1       0.769  -2.006  29.461  1.00  0.00     0.204 C 
BRANCH   7   8
HETATM    8  O1  UNL     1      -0.301  -2.685  30.034  1.00  0.00    -0.398 OA
ATOM      9  H1  UNL     1      -1.013  -2.723  29.406  1.00  0.00     0.209 HD
ENDBRANCH   7   8
ENDBRANCH   1   7
BRANCH   1  10
HETATM   10  O2  UNL     1       2.592  -2.992  30.540  1.00  0.00    -0.385 OA
ATOM     11  H2  UNL     1       3.002  -3.045  29.686  1.00  0.00     0.210 HD
ENDBRANCH   1  10
BRANCH   6  12
HETATM   12  O5  UNL     1       2.178  -2.009  32.882  1.00  0.00    -0.390 OA
ATOM     13  H5  UNL     1       1.824  -1.870  33.752  1.00  0.00     0.210 HD
ENDBRANCH   6  12
BRANCH   3  14
HETATM   14  O3  UNL     1       3.417   1.520  30.212  1.00  0.00    -0.395 OA
ATOM     15  H3  UNL     1       3.815   1.590  31.073  1.00  0.00     0.210 HD
ENDBRANCH   3  14
BRANCH   5  16
HETATM   16  O4  UNL     1      -0.472  -0.011  31.645  1.00  0.00    -0.392 OA
ATOM     17  H4  UNL     1      -0.687  -0.687  31.014  1.00  0.00     0.210 HD
ENDBRANCH   5  16
BRANCH   4  18
HETATM   18  C6  UNL     1       2.846   1.089  32.680  1.00  0.00     0.079 C 
HETATM   19  N1  UNL     1       2.733   0.867  33.932  1.00  0.00    -0.334 N 
HETATM   20  S1  UNL     1       4.060   1.134  35.032  1.00  0.00     0.041 SA
ATOM     21  H1  UNL     1       1.845   0.525  34.299  1.00  0.00     0.173 HD
ENDBRANCH   4  18
TORSDOF 7
ENDMDL
MODEL 4
REMARK VINA RESULT: -4.895225346      6.886      8.022
REMARK  7 active torsions:
REMARK  status: ('A' for Active; 'I' for Inactive)
REMARK    1  A    between atoms: O1_1  and  C1_3 
REMARK    2  A    between atoms: C1_3  and  C2_4 
REMARK    3  A    between atoms: C2_4  and  O2_5 
REMARK    4  A    between atoms: C4_8  and  O3_9 
REMARK    5  A    between atoms: C5_11  and  C6_12 
REMARK    6  A    between atoms: C7_16  and  O4_17 
REMARK    7  A    between atoms: C8_19  and  O5_20 
ROOT
HETATM    1  C2  UNL     1       2.092   0.521  31.377  1.00  0.00     0.109 C 
HETATM    2  C3  UNL     1       2.566  -0.092  30.104  1.00  0.00     0.075 C 
HETATM    3  C4  UNL     1       2.744  -1.570  30.147  1.00  0.00     0.132 C 
HETATM    4  C5  UNL     1       1.650  -2.317  30.830  1.00  0.00     0.085 C 
HETATM    5  C7  UNL     1       1.199  -1.707  32.121  1.00  0.00     0.161 C 
HETATM    6  C8  UNL     1       1.010  -0.223  32.073  1.00  0.00     0.184 C 
ENDROOT
BRANCH   1   7
HETATM    7  C1  UNL     1       3.304   0.771  32.262  1.00  0.00     0.204 C 
BRANCH   7   8
HETATM    8  O1  UNL     1       2.921   0.648  33.594  1.00  0.00    -0.398 OA
ATOM      9  H1  UNL     1       3.637   0.937  34.147  1.00  0.00     0.209 HD
ENDBRANCH   7   8
ENDBRANCH   1   7
BRANCH   1  10
HETATM   10  O2  UNL     1       1.590   1.805  31.057  1.00  0.00    -0.385 OA
ATOM     11  H2  UNL     1       0.677   1.789  31.319  1.00  0.00     0.210 HD
ENDBRANCH   1  10
BRANCH   6  12
HETATM   12  O5  UNL     1      -0.257   0.079  31.535  1.00  0.00    -0.390 OA
ATOM     13  H5  UNL     1      -0.489   0.989  31.676  1.00  0.00     0.210 HD
ENDBRANCH   6  12
BRANCH   3  14
HETATM   14  O3  UNL     1       2.786  -2.022  28.806  1.00  0.00    -0.395 OA
ATOM     15  H3  UNL     1       3.690  -1.963  28.520  1.00  0.00     0.210 HD
ENDBRANCH   3  14
BRANCH   5  16
HETATM   16  O4  UNL     1       2.062  -2.046  33.165  1.00  0.00    -0.392 OA
ATOM     17  H4  UNL     1       2.069  -2.984  33.311  1.00  0.00     0.210 HD
ENDBRANCH   5  16
BRANCH   4  18
HETATM   18  C6  UNL     1       0.517  -2.531  29.899  1.00  0.00     0.079 C 
HETATM   19  N1  UNL     1      -0.699  -2.606  30.281  1.00  0.00    -0.334 N 
HETATM   20  S1  UNL     1      -2.000  -2.859  29.148  1.00  0.00     0.041 SA
ATOM     21  H1  UNL     1      -0.915  -2.515  31.274  1.00  0.00     0.173 HD
ENDBRANCH   4  18
TORSDOF 7
ENDMDL
MODEL 5
REMARK VINA RESULT: -4.861234107      7.388      8.359
REMARK  7 active torsions:
REMARK  status: ('A' for Active; 'I' for Inactive)
REMARK    1  A    between atoms: O1_1  and  C1_3 
REMARK    2  A    between atoms: C1_3  and  C2_4 
REMARK    3  A    between atoms: C2_4  and  O2_5 
REMARK    4  A    between atoms: C4_8  and  O3_9 
REMARK    5  A    between atoms: C5_11  and  C6_12 
REMARK    6  A    between atoms: C7_16  and  O4_17 
REMARK    7  A    between atoms: C8_19  and  O5_20 
ROOT
HETATM    1  C2  UNL     1       0.629  -1.328  31.640  1.00  0.00     0.109 C 
HETATM    2  C3  UNL     1       0.472   0.029  31.047  1.00  0.00     0.075 C 
HETATM    3  C4  UNL     1       1.618   0.487  30.213  1.00  0.00     0.132 C 
HETATM    4  C5  UNL     1       2.172  -0.539  29.285  1.00  0.00     0.085 C 
HETATM    5  C7  UNL     1       2.350  -1.894  29.897  1.00  0.00     0.161 C 
HETATM    6  C8  UNL     1       1.193  -2.356  30.726  1.00  0.00     0.184 C 
ENDROOT
BRANCH   1   7
HETATM    7  C1  UNL     1       1.415  -1.191  32.935  1.00  0.00     0.204 C 
BRANCH   7   8
HETATM    8  O1  UNL     1       1.930  -2.436  33.282  1.00  0.00    -0.398 OA
ATOM      9  H1  UNL     1       1.988  -2.973  32.501  1.00  0.00     0.209 HD
ENDBRANCH   7   8
ENDBRANCH   1   7
BRANCH   1  10
HETATM   10  O2  UNL     1      -0.660  -1.763  32.028  1.00  0.00    -0.385 OA
ATOM     11  H2  UNL     1      -1.265  -1.161  31.611  1.00  0.00     0.210 HD
ENDBRANCH   1  10
BRANCH   6  12
HETATM   12  O5  UNL     1       0.200  -2.909  29.892  1.00  0.00    -0.390 OA
ATOM     13  H5  UNL     1      -0.321  -3.557  30.350  1.00  0.00     0.210 HD
ENDBRANCH   6  12
BRANCH   3  14
HETATM   14  O3  UNL     1       1.151   1.562  29.419  1.00  0.00    -0.395 OA
ATOM     15  H3  UNL     1       1.898   1.898  28.938  1.00  0.00     0.210 HD
ENDBRANCH   3  14
BRANCH   5  16
HETATM   16  O4  UNL     1       3.528  -1.956  30.644  1.00  0.00    -0.392 OA
ATOM     17  H4  UNL     1       3.490  -1.369  31.390  1.00  0.00     0.210 HD
ENDBRANCH   5  16
BRANCH   4  18
HETATM   18  C6  UNL     1       1.361  -0.599  28.047  1.00  0.00     0.079 C 
HETATM   19  N1  UNL     1       1.600   0.116  27.016  1.00  0.00    -0.334 N 
HETATM   20  S1  UNL     1       0.617   0.009  25.580  1.00  0.00     0.041 SA
ATOM     21  H1  UNL     1       2.385   0.766  27.033  1.00  0.00     0.173 HD
ENDBRANCH   4  18
TORSDOF 7
ENDMDL
