MODEL 1
REMARK VINA RESULT: -7.250898868      0.000      0.000
REMARK  6 active torsions:
REMARK  status: ('A' for Active; 'I' for Inactive)
REMARK    1  A    between atoms: O1_1  and  C1_3 
REMARK    2  A    between atoms: C2_5  and  N1_6 
REMARK    3  A    between atoms: N1_6  and  C3_8 
REMARK    4  A    between atoms: C9_14  and  O3_15 
REMARK    5  A    between atoms: C10_17  and  O4_18 
REMARK    6  A    between atoms: C11_20  and  O5_21 
ROOT
HETATM    1  C1  UNL     1       3.622   3.396  36.596  1.00  0.00     0.290 C 
HETATM    2  O2  UNL     1       4.284   3.310  35.395  1.00  0.00    -0.332 OA
HETATM    3  C2  UNL     1       5.661   3.216  35.618  1.00  0.00     0.256 C 
HETATM    4  C9  UNL     1       6.096   4.158  36.716  1.00  0.00     0.198 C 
HETATM    5  C10 UNL     1       5.127   5.284  36.939  1.00  0.00     0.184 C 
HETATM    6  C11 UNL     1       3.699   4.834  37.058  1.00  0.00     0.204 C 
ENDROOT
BRANCH   3   7
HETATM    7  N1  UNL     1       6.312   3.478  34.353  1.00  0.00    -0.361 N 
ATOM      8  H1  UNL     1       5.821   4.080  33.692  1.00  0.00     0.162 HD
BRANCH   7   9
HETATM    9  C3  UNL     1       7.556   2.978  33.956  1.00  0.00     0.029 A 
HETATM   10  C4  UNL     1       8.671   3.022  34.765  1.00  0.00     0.029 A 
HETATM   11  C5  UNL     1       9.909   2.525  34.360  1.00  0.00     0.002 A 
HETATM   12  C6  UNL     1      10.030   1.963  33.098  1.00  0.00     0.000 A 
HETATM   13  C7  UNL     1       8.911   1.930  32.312  1.00  0.00     0.002 A 
HETATM   14  C8  UNL     1       7.690   2.419  32.707  1.00  0.00     0.029 A 
ENDBRANCH   7   9
ENDBRANCH   3   7
BRANCH   4  15
HETATM   15  O3  UNL     1       6.304   3.514  37.928  1.00  0.00    -0.389 OA
ATOM     16  H3  UNL     1       6.270   4.106  38.670  1.00  0.00     0.210 HD
ENDBRANCH   4  15
BRANCH   1  17
HETATM   17  O1  UNL     1       2.303   2.983  36.395  1.00  0.00    -0.368 OA
ATOM     18  H1  UNL     1       1.730   3.712  36.602  1.00  0.00     0.212 HD
ENDBRANCH   1  17
BRANCH   5  19
HETATM   19  O4  UNL     1       5.242   6.216  35.918  1.00  0.00    -0.390 OA
ATOM     20  H4  UNL     1       4.389   6.386  35.537  1.00  0.00     0.210 HD
ENDBRANCH   5  19
BRANCH   6  21
HETATM   21  O5  UNL     1       3.178   5.005  38.318  1.00  0.00    -0.388 OA
ATOM     22  H5  UNL     1       2.257   5.234  38.298  1.00  0.00     0.210 HD
ENDBRANCH   6  21
TORSDOF 6
ENDMDL
MODEL 2
REMARK VINA RESULT: -7.221859241      0.055      1.144
REMARK  6 active torsions:
REMARK  status: ('A' for Active; 'I' for Inactive)
REMARK    1  A    between atoms: O1_1  and  C1_3 
REMARK    2  A    between atoms: C2_5  and  N1_6 
REMARK    3  A    between atoms: N1_6  and  C3_8 
REMARK    4  A    between atoms: C9_14  and  O3_15 
REMARK    5  A    between atoms: C10_17  and  O4_18 
REMARK    6  A    between atoms: C11_20  and  O5_21 
ROOT
HETATM    1  C1  UNL     1       3.636   3.371  36.574  1.00  0.00     0.290 C 
HETATM    2  O2  UNL     1       4.309   3.294  35.379  1.00  0.00    -0.332 OA
HETATM    3  C2  UNL     1       5.684   3.216  35.613  1.00  0.00     0.256 C 
HETATM    4  C9  UNL     1       6.099   4.163  36.715  1.00  0.00     0.198 C 
HETATM    5  C10 UNL     1       5.115   5.276  36.932  1.00  0.00     0.184 C 
HETATM    6  C11 UNL     1       3.692   4.810  37.038  1.00  0.00     0.204 C 
ENDROOT
BRANCH   3   7
HETATM    7  N1  UNL     1       6.343   3.487  34.353  1.00  0.00    -0.361 N 
ATOM      8  H1  UNL     1       5.867   4.115  33.705  1.00  0.00     0.162 HD
BRANCH   7   9
HETATM    9  C3  UNL     1       7.574   2.966  33.948  1.00  0.00     0.029 A 
HETATM   10  C4  UNL     1       7.769   2.382  32.714  1.00  0.00     0.029 A 
HETATM   11  C5  UNL     1       9.000   1.861  32.319  1.00  0.00     0.002 A 
HETATM   12  C6  UNL     1      10.073   1.928  33.194  1.00  0.00     0.000 A 
HETATM   13  C7  UNL     1       9.859   2.511  34.413  1.00  0.00     0.002 A 
HETATM   14  C8  UNL     1       8.648   3.026  34.807  1.00  0.00     0.029 A 
ENDBRANCH   7   9
ENDBRANCH   3   7
BRANCH   4  15
HETATM   15  O3  UNL     1       6.305   3.520  37.928  1.00  0.00    -0.389 OA
ATOM     16  H3  UNL     1       6.915   3.982  38.492  1.00  0.00     0.210 HD
ENDBRANCH   4  15
BRANCH   1  17
HETATM   17  O1  UNL     1       2.324   2.942  36.362  1.00  0.00    -0.368 OA
ATOM     18  H1  UNL     1       2.132   3.028  35.435  1.00  0.00     0.212 HD
ENDBRANCH   1  17
BRANCH   5  19
HETATM   19  O4  UNL     1       5.227   6.211  35.913  1.00  0.00    -0.390 OA
ATOM     20  H4  UNL     1       4.415   6.695  35.826  1.00  0.00     0.210 HD
ENDBRANCH   5  19
BRANCH   6  21
HETATM   21  O5  UNL     1       3.159   4.973  38.294  1.00  0.00    -0.388 OA
ATOM     22  H5  UNL     1       3.810   5.249  38.928  1.00  0.00     0.210 HD
ENDBRANCH   6  21
TORSDOF 6
ENDMDL
MODEL 3
REMARK VINA RESULT: -7.020856306      5.051      7.728
REMARK  6 active torsions:
REMARK  status: ('A' for Active; 'I' for Inactive)
REMARK    1  A    between atoms: O1_1  and  C1_3 
REMARK    2  A    between atoms: C2_5  and  N1_6 
REMARK    3  A    between atoms: N1_6  and  C3_8 
REMARK    4  A    between atoms: C9_14  and  O3_15 
REMARK    5  A    between atoms: C10_17  and  O4_18 
REMARK    6  A    between atoms: C11_20  and  O5_21 
ROOT
HETATM    1  C1  UNL     1      12.604   1.109  32.154  1.00  0.00     0.290 C 
HETATM    2  O2  UNL     1      11.469   1.868  32.006  1.00  0.00    -0.332 OA
HETATM    3  C2  UNL     1      10.669   1.754  33.146  1.00  0.00     0.256 C 
HETATM    4  C9  UNL     1      10.629   0.325  33.637  1.00  0.00     0.198 C 
HETATM    5  C10 UNL     1      10.990  -0.670  32.571  1.00  0.00     0.184 C 
HETATM    6  C11 UNL     1      12.244  -0.322  31.823  1.00  0.00     0.204 C 
ENDROOT
BRANCH   3   7
HETATM    7  N1  UNL     1       9.363   2.272  32.800  1.00  0.00    -0.361 N 
ATOM      8  H1  UNL     1       9.155   2.383  31.808  1.00  0.00     0.162 HD
BRANCH   7   9
HETATM    9  C3  UNL     1       8.363   2.635  33.707  1.00  0.00     0.029 A 
HETATM   10  C4  UNL     1       7.020   2.565  33.405  1.00  0.00     0.029 A 
HETATM   11  C5  UNL     1       6.029   2.933  34.314  1.00  0.00     0.002 A 
HETATM   12  C6  UNL     1       6.401   3.386  35.570  1.00  0.00     0.000 A 
HETATM   13  C7  UNL     1       7.739   3.447  35.849  1.00  0.00     0.002 A 
HETATM   14  C8  UNL     1       8.719   3.086  34.957  1.00  0.00     0.029 A 
ENDBRANCH   7   9
ENDBRANCH   3   7
BRANCH   4  15
HETATM   15  O3  UNL     1      11.453   0.109  34.733  1.00  0.00    -0.389 OA
ATOM     16  H3  UNL     1      12.282  -0.290  34.498  1.00  0.00     0.210 HD
ENDBRANCH   4  15
BRANCH   1  17
HETATM   17  O1  UNL     1      13.580   1.615  31.292  1.00  0.00    -0.368 OA
ATOM     18  H1  UNL     1      14.418   1.577  31.739  1.00  0.00     0.212 HD
ENDBRANCH   1  17
BRANCH   5  19
HETATM   19  O4  UNL     1       9.936  -0.812  31.681  1.00  0.00    -0.390 OA
ATOM     20  H4  UNL     1       9.685  -1.726  31.620  1.00  0.00     0.210 HD
ENDBRANCH   5  19
BRANCH   6  21
HETATM   21  O5  UNL     1      13.281  -1.190  32.067  1.00  0.00    -0.388 OA
ATOM     22  H5  UNL     1      13.218  -1.982  31.546  1.00  0.00     0.210 HD
ENDBRANCH   6  21
TORSDOF 6
ENDMDL
MODEL 4
REMARK VINA RESULT: -6.830545756      4.923      6.825
REMARK  6 active torsions:
REMARK  status: ('A' for Active; 'I' for Inactive)
REMARK    1  A    between atoms: O1_1  and  C1_3 
REMARK    2  A    between atoms: C2_5  and  N1_6 
REMARK    3  A    between atoms: N1_6  and  C3_8 
REMARK    4  A    between atoms: C9_14  and  O3_15 
REMARK    5  A    between atoms: C10_17  and  O4_18 
REMARK    6  A    between atoms: C11_20  and  O5_21 
ROOT
HETATM    1  C1  UNL     1       1.093  -1.389  33.104  1.00  0.00     0.290 C 
HETATM    2  O2  UNL     1       2.210  -0.822  33.670  1.00  0.00    -0.332 OA
HETATM    3  C2  UNL     1       2.348   0.497  33.230  1.00  0.00     0.256 C 
HETATM    4  C9  UNL     1       2.043   0.609  31.754  1.00  0.00     0.198 C 
HETATM    5  C10 UNL     1       2.172  -0.700  31.029  1.00  0.00     0.184 C 
HETATM    6  C11 UNL     1       1.465  -1.837  31.708  1.00  0.00     0.204 C 
ENDROOT
BRANCH   3   7
HETATM    7  N1  UNL     1       3.691   0.916  33.566  1.00  0.00    -0.361 N 
ATOM      8  H1  UNL     1       4.458   0.472  33.060  1.00  0.00     0.162 HD
BRANCH   7   9
HETATM    9  C3  UNL     1       4.031   1.876  34.524  1.00  0.00     0.029 A 
HETATM   10  C4  UNL     1       3.153   2.305  35.496  1.00  0.00     0.029 A 
HETATM   11  C5  UNL     1       3.500   3.266  36.445  1.00  0.00     0.002 A 
HETATM   12  C6  UNL     1       4.772   3.814  36.416  1.00  0.00     0.000 A 
HETATM   13  C7  UNL     1       5.628   3.374  35.443  1.00  0.00     0.002 A 
HETATM   14  C8  UNL     1       5.291   2.428  34.506  1.00  0.00     0.029 A 
ENDBRANCH   7   9
ENDBRANCH   3   7
BRANCH   4  15
HETATM   15  O3  UNL     1       0.779   1.125  31.503  1.00  0.00    -0.389 OA
ATOM     16  H3  UNL     1       0.531   1.062  30.588  1.00  0.00     0.210 HD
ENDBRANCH   4  15
BRANCH   1  17
HETATM   17  O1  UNL     1       0.695  -2.460  33.907  1.00  0.00    -0.368 OA
ATOM     18  H1  UNL     1       0.157  -3.040  33.381  1.00  0.00     0.212 HD
ENDBRANCH   1  17
BRANCH   5  19
HETATM   19  O4  UNL     1       3.512  -1.015  30.858  1.00  0.00    -0.390 OA
ATOM     20  H4  UNL     1       3.823  -1.521  31.600  1.00  0.00     0.210 HD
ENDBRANCH   5  19
BRANCH   6  21
HETATM   21  O5  UNL     1       0.380  -2.301  31.004  1.00  0.00    -0.388 OA
ATOM     22  H5  UNL     1      -0.397  -2.370  31.545  1.00  0.00     0.210 HD
ENDBRANCH   6  21
TORSDOF 6
ENDMDL
MODEL 5
REMARK VINA RESULT: -6.795396752      1.152      2.357
REMARK  6 active torsions:
REMARK  status: ('A' for Active; 'I' for Inactive)
REMARK    1  A    between atoms: O1_1  and  C1_3 
REMARK    2  A    between atoms: C2_5  and  N1_6 
REMARK    3  A    between atoms: N1_6  and  C3_8 
REMARK    4  A    between atoms: C9_14  and  O3_15 
REMARK    5  A    between atoms: C10_17  and  O4_18 
REMARK    6  A    between atoms: C11_20  and  O5_21 
ROOT
HETATM    1  C1  UNL     1       5.648   5.603  35.964  1.00  0.00     0.290 C 
HETATM    2  O2  UNL     1       6.092   4.738  34.993  1.00  0.00    -0.332 OA
HETATM    3  C2  UNL     1       5.142   3.735  34.780  1.00  0.00     0.256 C 
HETATM    4  C9  UNL     1       4.563   3.253  36.090  1.00  0.00     0.198 C 
HETATM    5  C10 UNL     1       5.447   3.552  37.267  1.00  0.00     0.184 C 
HETATM    6  C11 UNL     1       5.937   4.970  37.307  1.00  0.00     0.204 C 
ENDROOT
BRANCH   3   7
HETATM    7  N1  UNL     1       5.797   2.686  34.028  1.00  0.00    -0.361 N 
ATOM      8  H1  UNL     1       5.202   1.959  33.631  1.00  0.00     0.162 HD
BRANCH   7   9
HETATM    9  C3  UNL     1       7.171   2.583  33.800  1.00  0.00     0.029 A 
HETATM   10  C4  UNL     1       8.114   2.895  34.756  1.00  0.00     0.029 A 
HETATM   11  C5  UNL     1       9.484   2.792  34.517  1.00  0.00     0.002 A 
HETATM   12  C6  UNL     1       9.922   2.362  33.275  1.00  0.00     0.000 A 
HETATM   13  C7  UNL     1       8.970   2.057  32.340  1.00  0.00     0.002 A 
HETATM   14  C8  UNL     1       7.619   2.157  32.570  1.00  0.00     0.029 A 
ENDBRANCH   7   9
ENDBRANCH   3   7
BRANCH   4  15
HETATM   15  O3  UNL     1       3.303   3.777  36.347  1.00  0.00    -0.389 OA
ATOM     16  H3  UNL     1       3.335   4.588  36.841  1.00  0.00     0.210 HD
ENDBRANCH   4  15
BRANCH   1  17
HETATM   17  O1  UNL     1       6.320   6.817  35.804  1.00  0.00    -0.368 OA
ATOM     18  H1  UNL     1       5.684   7.519  35.887  1.00  0.00     0.212 HD
ENDBRANCH   1  17
BRANCH   5  19
HETATM   19  O4  UNL     1       6.528   2.682  37.278  1.00  0.00    -0.390 OA
ATOM     20  H4  UNL     1       7.292   3.110  36.911  1.00  0.00     0.210 HD
ENDBRANCH   5  19
BRANCH   6  21
HETATM   21  O5  UNL     1       5.412   5.697  38.348  1.00  0.00    -0.388 OA
ATOM     22  H5  UNL     1       4.643   5.285  38.723  1.00  0.00     0.210 HD
ENDBRANCH   6  21
TORSDOF 6
ENDMDL
