MODEL 1
REMARK VINA RESULT: -5.796356519      0.000      0.000
REMARK  7 active torsions:
REMARK  status: ('A' for Active; 'I' for Inactive)
REMARK    1  A    between atoms: C2_2  and  O1_3 
REMARK    2  A    between atoms: N1_5  and  N2_7 
REMARK    3  A    between atoms: N2_7  and  C3_9 
REMARK    4  A    between atoms: C4_11  and  O2_12 
REMARK    5  A    between atoms: C5_14  and  O3_15 
REMARK    6  A    between atoms: C6_17  and  O4_18 
REMARK    7  A    between atoms: C7_20  and  O5_21 
ROOT
HETATM    1  C3  UNL     1       5.054   3.378  34.751  1.00  0.00     0.194 C 
HETATM    2  S1  UNL     1       3.827   3.122  36.031  1.00  0.00    -0.105 SA
HETATM    3  C4  UNL     1       4.083   4.191  37.450  1.00  0.00     0.212 C 
HETATM    4  C5  UNL     1       5.495   4.599  37.662  1.00  0.00     0.188 C 
HETATM    5  C6  UNL     1       6.479   3.974  36.722  1.00  0.00     0.181 C 
HETATM    6  C7  UNL     1       6.203   4.216  35.277  1.00  0.00     0.183 C 
ENDROOT
BRANCH   1   7
HETATM    7  N2  UNL     1       5.563   2.069  34.330  1.00  0.00    -0.318 N 
ATOM      8  H2  UNL     1       5.023   1.214  34.473  1.00  0.00     0.181 HD
BRANCH   7   9
HETATM    9  N1  UNL     1       6.820   2.048  33.725  1.00  0.00    -0.287 N 
HETATM   10  C2  UNL     1       7.032   2.028  32.474  1.00  0.00     0.125 C 
HETATM   11  C1  UNL     1       5.946   2.023  31.472  1.00  0.00     0.098 C 
ATOM     12  H1  UNL     1       7.635   2.048  34.339  1.00  0.00     0.188 HD
BRANCH  10  13
HETATM   13  O1  UNL     1       8.334   2.009  32.021  1.00  0.00    -0.349 OA
ATOM     14  H1  UNL     1       8.921   2.696  32.315  1.00  0.00     0.219 HD
ENDBRANCH  10  13
ENDBRANCH   7   9
ENDBRANCH   1   7
BRANCH   6  15
HETATM   15  O5  UNL     1       5.999   5.555  34.962  1.00  0.00    -0.390 OA
ATOM     16  H5  UNL     1       6.050   6.086  35.748  1.00  0.00     0.210 HD
ENDBRANCH   6  15
BRANCH   3  17
HETATM   17  O2  UNL     1       3.286   5.329  37.290  1.00  0.00    -0.382 OA
ATOM     18  H2  UNL     1       3.688   6.044  37.770  1.00  0.00     0.211 HD
ENDBRANCH   3  17
BRANCH   5  19
HETATM   19  O4  UNL     1       6.573   2.612  36.935  1.00  0.00    -0.390 OA
ATOM     20  H4  UNL     1       7.465   2.309  36.818  1.00  0.00     0.210 HD
ENDBRANCH   5  19
BRANCH   4  21
HETATM   21  O3  UNL     1       5.618   6.004  37.608  1.00  0.00    -0.389 OA
ATOM     22  H3  UNL     1       5.694   6.297  36.707  1.00  0.00     0.210 HD
ENDBRANCH   4  21
TORSDOF 7
ENDMDL
MODEL 2
REMARK VINA RESULT: -5.779609458      1.338      1.751
REMARK  7 active torsions:
REMARK  status: ('A' for Active; 'I' for Inactive)
REMARK    1  A    between atoms: C2_2  and  O1_3 
REMARK    2  A    between atoms: N1_5  and  N2_7 
REMARK    3  A    between atoms: N2_7  and  C3_9 
REMARK    4  A    between atoms: C4_11  and  O2_12 
REMARK    5  A    between atoms: C5_14  and  O3_15 
REMARK    6  A    between atoms: C6_17  and  O4_18 
REMARK    7  A    between atoms: C7_20  and  O5_21 
ROOT
HETATM    1  C3  UNL     1       5.676   4.254  35.014  1.00  0.00     0.194 C 
HETATM    2  S1  UNL     1       4.521   2.951  35.437  1.00  0.00    -0.105 SA
HETATM    3  C4  UNL     1       3.587   3.320  36.924  1.00  0.00     0.212 C 
HETATM    4  C5  UNL     1       4.289   4.211  37.883  1.00  0.00     0.188 C 
HETATM    5  C6  UNL     1       5.690   4.572  37.498  1.00  0.00     0.181 C 
HETATM    6  C7  UNL     1       5.823   5.229  36.166  1.00  0.00     0.183 C 
ENDROOT
BRANCH   1   7
HETATM    7  N2  UNL     1       6.978   3.644  34.728  1.00  0.00    -0.318 N 
ATOM      8  H2  UNL     1       7.769   3.749  35.364  1.00  0.00     0.181 HD
BRANCH   7   9
HETATM    9  N1  UNL     1       7.083   2.912  33.545  1.00  0.00    -0.287 N 
HETATM   10  C2  UNL     1       8.152   2.399  33.092  1.00  0.00     0.125 C 
HETATM   11  C1  UNL     1       9.456   2.516  33.778  1.00  0.00     0.098 C 
ATOM     12  H1  UNL     1       6.231   2.779  32.999  1.00  0.00     0.188 HD
BRANCH  10  13
HETATM   13  O1  UNL     1       8.103   1.699  31.905  1.00  0.00    -0.349 OA
ATOM     14  H1  UNL     1       7.489   1.987  31.240  1.00  0.00     0.219 HD
ENDBRANCH  10  13
ENDBRANCH   7   9
ENDBRANCH   1   7
BRANCH   6  15
HETATM   15  O5  UNL     1       4.966   6.311  35.987  1.00  0.00    -0.390 OA
ATOM     16  H5  UNL     1       4.554   6.539  36.812  1.00  0.00     0.210 HD
ENDBRANCH   6  15
BRANCH   3  17
HETATM   17  O2  UNL     1       2.373   3.902  36.547  1.00  0.00    -0.382 OA
ATOM     18  H2  UNL     1       2.181   4.610  37.151  1.00  0.00     0.211 HD
ENDBRANCH   3  17
BRANCH   5  19
HETATM   19  O4  UNL     1       6.515   3.463  37.530  1.00  0.00    -0.390 OA
ATOM     20  H4  UNL     1       7.141   3.483  36.816  1.00  0.00     0.210 HD
ENDBRANCH   5  19
BRANCH   4  21
HETATM   21  O3  UNL     1       3.542   5.389  38.102  1.00  0.00    -0.389 OA
ATOM     22  H3  UNL     1       4.000   5.967  38.701  1.00  0.00     0.210 HD
ENDBRANCH   4  21
TORSDOF 7
ENDMDL
MODEL 3
REMARK VINA RESULT: -5.719862383      1.952      2.768
REMARK  7 active torsions:
REMARK  status: ('A' for Active; 'I' for Inactive)
REMARK    1  A    between atoms: C2_2  and  O1_3 
REMARK    2  A    between atoms: N1_5  and  N2_7 
REMARK    3  A    between atoms: N2_7  and  C3_9 
REMARK    4  A    between atoms: C4_11  and  O2_12 
REMARK    5  A    between atoms: C5_14  and  O3_15 
REMARK    6  A    between atoms: C6_17  and  O4_18 
REMARK    7  A    between atoms: C7_20  and  O5_21 
ROOT
HETATM    1  C3  UNL     1       6.828   3.038  36.442  1.00  0.00     0.194 C 
HETATM    2  S1  UNL     1       6.550   4.377  37.600  1.00  0.00    -0.105 SA
HETATM    3  C4  UNL     1       4.824   4.859  37.688  1.00  0.00     0.212 C 
HETATM    4  C5  UNL     1       4.052   4.605  36.445  1.00  0.00     0.188 C 
HETATM    5  C6  UNL     1       4.861   4.083  35.297  1.00  0.00     0.181 C 
HETATM    6  C7  UNL     1       5.601   2.820  35.577  1.00  0.00     0.183 C 
ENDROOT
BRANCH   1   7
HETATM    7  N2  UNL     1       7.964   3.394  35.587  1.00  0.00    -0.318 N 
ATOM      8  H2  UNL     1       8.778   3.886  35.957  1.00  0.00     0.181 HD
BRANCH   7   9
HETATM    9  N1  UNL     1       7.880   3.028  34.243  1.00  0.00    -0.287 N 
HETATM   10  C2  UNL     1       8.798   2.457  33.579  1.00  0.00     0.125 C 
HETATM   11  C1  UNL     1      10.109   2.099  34.159  1.00  0.00     0.098 C 
ATOM     12  H1  UNL     1       7.008   3.236  33.755  1.00  0.00     0.188 HD
BRANCH  10  13
HETATM   13  O1  UNL     1       8.569   2.153  32.253  1.00  0.00    -0.349 OA
ATOM     14  H1  UNL     1       7.674   2.179  31.936  1.00  0.00     0.219 HD
ENDBRANCH  10  13
ENDBRANCH   7   9
ENDBRANCH   1   7
BRANCH   6  15
HETATM   15  O5  UNL     1       4.807   1.815  36.122  1.00  0.00    -0.390 OA
ATOM     16  H5  UNL     1       4.828   1.046  35.563  1.00  0.00     0.210 HD
ENDBRANCH   6  15
BRANCH   3  17
HETATM   17  O2  UNL     1       4.232   4.175  38.755  1.00  0.00    -0.382 OA
ATOM     18  H2  UNL     1       4.919   3.752  39.256  1.00  0.00     0.211 HD
ENDBRANCH   3  17
BRANCH   5  19
HETATM   19  O4  UNL     1       5.758   5.034  34.850  1.00  0.00    -0.390 OA
ATOM     20  H4  UNL     1       6.585   4.635  34.607  1.00  0.00     0.210 HD
ENDBRANCH   5  19
BRANCH   4  21
HETATM   21  O3  UNL     1       2.976   3.728  36.701  1.00  0.00    -0.389 OA
ATOM     22  H3  UNL     1       2.211   4.214  36.984  1.00  0.00     0.210 HD
ENDBRANCH   4  21
TORSDOF 7
ENDMDL
MODEL 4
REMARK VINA RESULT: -5.598907130      1.318      1.472
REMARK  7 active torsions:
REMARK  status: ('A' for Active; 'I' for Inactive)
REMARK    1  A    between atoms: C2_2  and  O1_3 
REMARK    2  A    between atoms: N1_5  and  N2_7 
REMARK    3  A    between atoms: N2_7  and  C3_9 
REMARK    4  A    between atoms: C4_11  and  O2_12 
REMARK    5  A    between atoms: C5_14  and  O3_15 
REMARK    6  A    between atoms: C6_17  and  O4_18 
REMARK    7  A    between atoms: C7_20  and  O5_21 
ROOT
HETATM    1  C3  UNL     1       4.924   3.387  34.826  1.00  0.00     0.194 C 
HETATM    2  S1  UNL     1       3.728   3.233  36.151  1.00  0.00    -0.105 SA
HETATM    3  C4  UNL     1       4.089   4.324  37.530  1.00  0.00     0.212 C 
HETATM    4  C5  UNL     1       5.527   4.658  37.685  1.00  0.00     0.188 C 
HETATM    5  C6  UNL     1       6.445   3.955  36.733  1.00  0.00     0.181 C 
HETATM    6  C7  UNL     1       6.135   4.173  35.291  1.00  0.00     0.183 C 
ENDROOT
BRANCH   1   7
HETATM    7  N2  UNL     1       5.347   2.041  34.426  1.00  0.00    -0.318 N 
ATOM      8  H2  UNL     1       6.169   1.595  34.834  1.00  0.00     0.181 HD
BRANCH   7   9
HETATM    9  N1  UNL     1       4.571   1.399  33.461  1.00  0.00    -0.287 N 
HETATM   10  C2  UNL     1       4.815   1.381  32.215  1.00  0.00     0.125 C 
HETATM   11  C1  UNL     1       5.982   2.059  31.613  1.00  0.00     0.098 C 
ATOM     12  H1  UNL     1       3.739   0.902  33.783  1.00  0.00     0.188 HD
BRANCH  10  13
HETATM   13  O1  UNL     1       3.955   0.701  31.379  1.00  0.00    -0.349 OA
ATOM     14  H1  UNL     1       3.043   0.631  31.634  1.00  0.00     0.219 HD
ENDBRANCH  10  13
ENDBRANCH   7   9
ENDBRANCH   1   7
BRANCH   6  15
HETATM   15  O5  UNL     1       5.993   5.513  34.945  1.00  0.00    -0.390 OA
ATOM     16  H5  UNL     1       5.551   5.587  34.107  1.00  0.00     0.210 HD
ENDBRANCH   6  15
BRANCH   3  17
HETATM   17  O2  UNL     1       3.350   5.500  37.364  1.00  0.00    -0.382 OA
ATOM     18  H2  UNL     1       3.420   6.011  38.162  1.00  0.00     0.211 HD
ENDBRANCH   3  17
BRANCH   5  19
HETATM   19  O4  UNL     1       6.470   2.596  36.981  1.00  0.00    -0.390 OA
ATOM     20  H4  UNL     1       7.363   2.274  37.024  1.00  0.00     0.210 HD
ENDBRANCH   5  19
BRANCH   4  21
HETATM   21  O3  UNL     1       5.725   6.052  37.588  1.00  0.00    -0.389 OA
ATOM     22  H3  UNL     1       6.651   6.254  37.522  1.00  0.00     0.210 HD
ENDBRANCH   4  21
TORSDOF 7
ENDMDL
MODEL 5
REMARK VINA RESULT: -5.307787605      8.357     10.491
REMARK  7 active torsions:
REMARK  status: ('A' for Active; 'I' for Inactive)
REMARK    1  A    between atoms: C2_2  and  O1_3 
REMARK    2  A    between atoms: N1_5  and  N2_7 
REMARK    3  A    between atoms: N2_7  and  C3_9 
REMARK    4  A    between atoms: C4_11  and  O2_12 
REMARK    5  A    between atoms: C5_14  and  O3_15 
REMARK    6  A    between atoms: C6_17  and  O4_18 
REMARK    7  A    between atoms: C7_20  and  O5_21 
ROOT
HETATM    1  C3  UNL     1       6.085  -0.504  27.472  1.00  0.00     0.194 C 
HETATM    2  S1  UNL     1       7.045  -1.657  28.450  1.00  0.00    -0.105 SA
HETATM    3  C4  UNL     1       8.374  -2.413  27.510  1.00  0.00     0.212 C 
HETATM    4  C5  UNL     1       8.113  -2.510  26.051  1.00  0.00     0.188 C 
HETATM    5  C6  UNL     1       6.752  -2.054  25.622  1.00  0.00     0.181 C 
HETATM    6  C7  UNL     1       6.415  -0.652  25.999  1.00  0.00     0.183 C 
ENDROOT
BRANCH   1   7
HETATM    7  N2  UNL     1       4.662  -0.793  27.679  1.00  0.00    -0.318 N 
ATOM      8  H2  UNL     1       3.940  -0.372  27.094  1.00  0.00     0.181 HD
BRANCH   7   9
HETATM    9  N1  UNL     1       4.344  -1.671  28.715  1.00  0.00    -0.287 N 
HETATM   10  C2  UNL     1       3.433  -1.487  29.580  1.00  0.00     0.125 C 
HETATM   11  C1  UNL     1       2.573  -0.286  29.600  1.00  0.00     0.098 C 
ATOM     12  H1  UNL     1       4.887  -2.532  28.783  1.00  0.00     0.188 HD
BRANCH  10  13
HETATM   13  O1  UNL     1       3.231  -2.448  30.548  1.00  0.00    -0.349 OA
ATOM     14  H1  UNL     1       3.648  -2.327  31.393  1.00  0.00     0.219 HD
ENDBRANCH  10  13
ENDBRANCH   7   9
ENDBRANCH   1   7
BRANCH   6  15
HETATM   15  O5  UNL     1       7.386   0.275  25.633  1.00  0.00    -0.390 OA
ATOM     16  H5  UNL     1       6.973   1.073  25.324  1.00  0.00     0.210 HD
ENDBRANCH   6  15
BRANCH   3  17
HETATM   17  O2  UNL     1       9.541  -1.674  27.729  1.00  0.00    -0.382 OA
ATOM     18  H2  UNL     1       9.352  -1.003  28.374  1.00  0.00     0.211 HD
ENDBRANCH   3  17
BRANCH   5  19
HETATM   19  O4  UNL     1       5.771  -2.894  26.113  1.00  0.00    -0.390 OA
ATOM     20  H4  UNL     1       5.984  -3.193  26.988  1.00  0.00     0.210 HD
ENDBRANCH   5  19
BRANCH   4  21
HETATM   21  O3  UNL     1       9.097  -1.804  25.325  1.00  0.00    -0.389 OA
ATOM     22  H3  UNL     1       8.929  -0.870  25.358  1.00  0.00     0.210 HD
ENDBRANCH   4  21
TORSDOF 7
ENDMDL
