MODEL 1
REMARK VINA RESULT: -7.181137874      0.000      0.000
REMARK  8 active torsions:
REMARK  status: ('A' for Active; 'I' for Inactive)
REMARK       I    between atoms: C2_2  and  N1_4 
REMARK    1  A    between atoms: N1_4  and  C3_6 
REMARK    2  A    between atoms: C3_6  and  C4_7 
REMARK    3  A    between atoms: C4_7  and  C5_8 
REMARK    4  A    between atoms: C4_7  and  C7_13 
REMARK    5  A    between atoms: C5_8  and  C6_10 
REMARK    6  A    between atoms: C7_13  and  O5_14 
REMARK    7  A    between atoms: C7_13  and  C8_16 
REMARK    8  A    between atoms: C9_17  and  C10_18 
ROOT
HETATM    1  C8  UNL     1      31.683 -25.031   7.107  1.00  0.00     0.002 C 
HETATM    2  C9  UNL     1      32.704 -24.567   7.837  1.00  0.00    -0.022 C 
ENDROOT
BRANCH   1   3
HETATM    3  C7  UNL     1      30.838 -26.086   7.616  1.00  0.00     0.154 C 
BRANCH   3   4
HETATM    4  C4  UNL     1      29.581 -26.428   6.844  1.00  0.00     0.117 C 
BRANCH   4   5
HETATM    5  C3  UNL     1      30.113 -26.970   5.484  1.00  0.00     0.138 C 
BRANCH   5   6
HETATM    6  N1  UNL     1      29.460 -26.256   4.425  1.00  0.00    -0.361 N 
HETATM    7  C2  UNL     1      30.229 -25.532   3.494  1.00  0.00     0.213 C 
HETATM    8  C1  UNL     1      29.529 -24.797   2.397  1.00  0.00     0.117 C 
HETATM    9  O1  UNL     1      31.485 -25.514   3.599  1.00  0.00    -0.274 OA
ATOM     10  H1  UNL     1      28.444 -26.274   4.347  1.00  0.00     0.162 HD
ENDBRANCH   5   6
ENDBRANCH   4   5
BRANCH   4  11
HETATM   11  C5  UNL     1      28.793 -27.524   7.407  1.00  0.00     0.233 C 
HETATM   12  O2  UNL     1      29.066 -28.069   8.522  1.00  0.00    -0.285 OA
BRANCH  11  13
HETATM   13  C6  UNL     1      27.640 -28.048   6.711  1.00  0.00     0.247 C 
HETATM   14  O3  UNL     1      27.229 -29.200   6.909  1.00  0.00    -0.642 OA
HETATM   15  O4  UNL     1      26.925 -27.290   5.777  1.00  0.00    -0.642 OA
ENDBRANCH  11  13
ENDBRANCH   4  11
ENDBRANCH   3   4
BRANCH   3  16
HETATM   16  O5  UNL     1      31.593 -27.272   7.740  1.00  0.00    -0.391 OA
ATOM     17  H5  UNL     1      31.866 -27.343   8.647  1.00  0.00     0.210 HD
ENDBRANCH   3  16
ENDBRANCH   1   3
BRANCH   2  18
HETATM   18  C10 UNL     1      33.601 -23.481   7.349  1.00  0.00     0.021 C 
HETATM   19  C11 UNL     1      32.815 -22.399   6.802  1.00  0.00     0.010 C 
HETATM   20  C12 UNL     1      31.970 -21.565   7.694  1.00  0.00     0.014 C 
HETATM   21  C15 UNL     1      33.542 -21.368   5.986  1.00  0.00     0.021 C 
HETATM   22  C13 UNL     1      31.301 -20.652   6.648  1.00  0.00     0.079 C 
HETATM   23  C14 UNL     1      32.510 -20.301   5.831  1.00  0.00     0.135 C 
HETATM   24  O6  UNL     1      32.690 -19.318   5.130  1.00  0.00    -0.297 OA
HETATM   25  C16 UNL     1      33.835 -21.916   4.631  1.00  0.00     0.024 C 
HETATM   26  C17 UNL     1      34.715 -20.769   6.694  1.00  0.00     0.017 C 
HETATM   27  C18 UNL     1      35.871 -21.666   6.865  1.00  0.00     0.002 C 
HETATM   28  C19 UNL     1      35.865 -22.558   8.046  1.00  0.00     0.009 C 
HETATM   29  C20 UNL     1      34.614 -23.249   8.397  1.00  0.00    -0.040 C 
HETATM   30  C21 UNL     1      35.033 -24.682   8.813  1.00  0.00     0.015 C 
HETATM   31  C22 UNL     1      34.020 -22.686   9.693  1.00  0.00     0.015 C 
ENDBRANCH   2  18
TORSDOF 8
ENDMDL
MODEL 2
REMARK VINA RESULT: -7.154355950      1.711      3.035
REMARK  8 active torsions:
REMARK  status: ('A' for Active; 'I' for Inactive)
REMARK       I    between atoms: C2_2  and  N1_4 
REMARK    1  A    between atoms: N1_4  and  C3_6 
REMARK    2  A    between atoms: C3_6  and  C4_7 
REMARK    3  A    between atoms: C4_7  and  C5_8 
REMARK    4  A    between atoms: C4_7  and  C7_13 
REMARK    5  A    between atoms: C5_8  and  C6_10 
REMARK    6  A    between atoms: C7_13  and  O5_14 
REMARK    7  A    between atoms: C7_13  and  C8_16 
REMARK    8  A    between atoms: C9_17  and  C10_18 
ROOT
HETATM    1  C8  UNL     1      31.364 -25.532   7.819  1.00  0.00     0.002 C 
HETATM    2  C9  UNL     1      32.036 -24.851   6.884  1.00  0.00    -0.022 C 
ENDROOT
BRANCH   1   3
HETATM    3  C7  UNL     1      30.872 -26.863   7.546  1.00  0.00     0.154 C 
BRANCH   3   4
HETATM    4  C4  UNL     1      29.385 -27.040   7.322  1.00  0.00     0.117 C 
BRANCH   4   5
HETATM    5  C3  UNL     1      29.284 -27.534   5.849  1.00  0.00     0.138 C 
BRANCH   5   6
HETATM    6  N1  UNL     1      28.875 -26.431   5.028  1.00  0.00    -0.361 N 
HETATM    7  C2  UNL     1      29.639 -26.082   3.898  1.00  0.00     0.213 C 
HETATM    8  C1  UNL     1      29.195 -24.930   3.054  1.00  0.00     0.117 C 
HETATM    9  O1  UNL     1      30.677 -26.740   3.616  1.00  0.00    -0.274 OA
ATOM     10  H1  UNL     1      28.036 -25.902   5.262  1.00  0.00     0.162 HD
ENDBRANCH   5   6
ENDBRANCH   4   5
BRANCH   4  11
HETATM   11  C5  UNL     1      28.767 -28.098   8.121  1.00  0.00     0.233 C 
HETATM   12  O2  UNL     1      29.323 -28.609   9.143  1.00  0.00    -0.285 OA
BRANCH  11  13
HETATM   13  C6  UNL     1      27.463 -28.624   7.781  1.00  0.00     0.247 C 
HETATM   14  O3  UNL     1      26.683 -28.003   7.046  1.00  0.00    -0.642 OA
HETATM   15  O4  UNL     1      27.008 -29.856   8.262  1.00  0.00    -0.642 OA
ENDBRANCH  11  13
ENDBRANCH   4  11
ENDBRANCH   3   4
BRANCH   3  16
HETATM   16  O5  UNL     1      31.535 -27.384   6.414  1.00  0.00    -0.391 OA
ATOM     17  H5  UNL     1      31.822 -28.263   6.632  1.00  0.00     0.210 HD
ENDBRANCH   3  16
ENDBRANCH   1   3
BRANCH   2  18
HETATM   18  C10 UNL     1      32.560 -23.476   7.123  1.00  0.00     0.021 C 
HETATM   19  C11 UNL     1      33.406 -23.467   8.295  1.00  0.00     0.010 C 
HETATM   20  C12 UNL     1      34.713 -24.170   8.277  1.00  0.00     0.014 C 
HETATM   21  C15 UNL     1      33.766 -22.125   8.870  1.00  0.00     0.021 C 
HETATM   22  C13 UNL     1      35.158 -23.938   9.734  1.00  0.00     0.079 C 
HETATM   23  C14 UNL     1      34.831 -22.478   9.853  1.00  0.00     0.135 C 
HETATM   24  O6  UNL     1      35.317 -21.652  10.609  1.00  0.00    -0.297 OA
HETATM   25  C16 UNL     1      32.607 -21.579   9.632  1.00  0.00     0.024 C 
HETATM   26  C17 UNL     1      34.362 -21.191   7.866  1.00  0.00     0.017 C 
HETATM   27  C18 UNL     1      33.424 -20.672   6.855  1.00  0.00     0.002 C 
HETATM   28  C19 UNL     1      33.201 -21.505   5.652  1.00  0.00     0.009 C 
HETATM   29  C20 UNL     1      33.030 -22.957   5.824  1.00  0.00    -0.040 C 
HETATM   30  C21 UNL     1      31.898 -23.361   4.847  1.00  0.00     0.015 C 
HETATM   31  C22 UNL     1      34.237 -23.722   5.273  1.00  0.00     0.015 C 
ENDBRANCH   2  18
TORSDOF 8
ENDMDL
MODEL 3
REMARK VINA RESULT: -7.122046751      1.437      2.389
REMARK  8 active torsions:
REMARK  status: ('A' for Active; 'I' for Inactive)
REMARK       I    between atoms: C2_2  and  N1_4 
REMARK    1  A    between atoms: N1_4  and  C3_6 
REMARK    2  A    between atoms: C3_6  and  C4_7 
REMARK    3  A    between atoms: C4_7  and  C5_8 
REMARK    4  A    between atoms: C4_7  and  C7_13 
REMARK    5  A    between atoms: C5_8  and  C6_10 
REMARK    6  A    between atoms: C7_13  and  O5_14 
REMARK    7  A    between atoms: C7_13  and  C8_16 
REMARK    8  A    between atoms: C9_17  and  C10_18 
ROOT
HETATM    1  C8  UNL     1      31.066 -25.018   7.306  1.00  0.00     0.002 C 
HETATM    2  C9  UNL     1      32.217 -24.679   6.713  1.00  0.00    -0.022 C 
ENDROOT
BRANCH   1   3
HETATM    3  C7  UNL     1      30.729 -26.407   7.511  1.00  0.00     0.154 C 
BRANCH   3   4
HETATM    4  C4  UNL     1      29.294 -26.832   7.284  1.00  0.00     0.117 C 
BRANCH   4   5
HETATM    5  C3  UNL     1      29.277 -27.316   5.804  1.00  0.00     0.138 C 
BRANCH   5   6
HETATM    6  N1  UNL     1      29.001 -26.188   4.961  1.00  0.00    -0.361 N 
HETATM    7  C2  UNL     1      29.847 -25.908   3.871  1.00  0.00     0.213 C 
HETATM    8  C1  UNL     1      29.541 -24.729   3.004  1.00  0.00     0.117 C 
HETATM    9  O1  UNL     1      30.841 -26.650   3.644  1.00  0.00    -0.274 OA
ATOM     10  H1  UNL     1      28.196 -25.593   5.151  1.00  0.00     0.162 HD
ENDBRANCH   5   6
ENDBRANCH   4   5
BRANCH   4  11
HETATM   11  C5  UNL     1      28.866 -27.991   8.067  1.00  0.00     0.233 C 
HETATM   12  O2  UNL     1      29.585 -28.519   8.972  1.00  0.00    -0.285 OA
BRANCH  11  13
HETATM   13  C6  UNL     1      27.574 -28.604   7.848  1.00  0.00     0.247 C 
HETATM   14  O3  UNL     1      26.671 -28.017   7.237  1.00  0.00    -0.642 OA
HETATM   15  O4  UNL     1      27.271 -29.889   8.311  1.00  0.00    -0.642 OA
ENDBRANCH  11  13
ENDBRANCH   4  11
ENDBRANCH   3   4
BRANCH   3  16
HETATM   16  O5  UNL     1      31.544 -27.214   6.689  1.00  0.00    -0.391 OA
ATOM     17  H5  UNL     1      32.263 -27.531   7.224  1.00  0.00     0.210 HD
ENDBRANCH   3  16
ENDBRANCH   1   3
BRANCH   2  18
HETATM   18  C10 UNL     1      32.603 -23.258   6.479  1.00  0.00     0.021 C 
HETATM   19  C11 UNL     1      32.620 -22.539   7.733  1.00  0.00     0.010 C 
HETATM   20  C12 UNL     1      33.646 -22.852   8.759  1.00  0.00     0.014 C 
HETATM   21  C15 UNL     1      32.678 -21.038   7.661  1.00  0.00     0.021 C 
HETATM   22  C13 UNL     1      33.188 -21.908   9.888  1.00  0.00     0.079 C 
HETATM   23  C14 UNL     1      32.956 -20.665   9.079  1.00  0.00     0.135 C 
HETATM   24  O6  UNL     1      32.976 -19.503   9.453  1.00  0.00    -0.297 OA
HETATM   25  C16 UNL     1      31.334 -20.501   7.305  1.00  0.00     0.024 C 
HETATM   26  C17 UNL     1      33.807 -20.528   6.824  1.00  0.00     0.017 C 
HETATM   27  C18 UNL     1      33.661 -20.740   5.374  1.00  0.00     0.002 C 
HETATM   28  C19 UNL     1      34.111 -22.042   4.834  1.00  0.00     0.009 C 
HETATM   29  C20 UNL     1      33.770 -23.267   5.576  1.00  0.00    -0.040 C 
HETATM   30  C21 UNL     1      33.380 -24.311   4.499  1.00  0.00     0.015 C 
HETATM   31  C22 UNL     1      35.017 -23.891   6.211  1.00  0.00     0.015 C 
ENDBRANCH   2  18
TORSDOF 8
ENDMDL
MODEL 4
REMARK VINA RESULT: -7.108547454      2.990      7.303
REMARK  8 active torsions:
REMARK  status: ('A' for Active; 'I' for Inactive)
REMARK       I    between atoms: C2_2  and  N1_4 
REMARK    1  A    between atoms: N1_4  and  C3_6 
REMARK    2  A    between atoms: C3_6  and  C4_7 
REMARK    3  A    between atoms: C4_7  and  C5_8 
REMARK    4  A    between atoms: C4_7  and  C7_13 
REMARK    5  A    between atoms: C5_8  and  C6_10 
REMARK    6  A    between atoms: C7_13  and  O5_14 
REMARK    7  A    between atoms: C7_13  and  C8_16 
REMARK    8  A    between atoms: C9_17  and  C10_18 
ROOT
HETATM    1  C8  UNL     1      32.119 -24.689   6.951  1.00  0.00     0.002 C 
HETATM    2  C9  UNL     1      31.339 -25.776   6.966  1.00  0.00    -0.022 C 
ENDROOT
BRANCH   1   3
HETATM    3  C7  UNL     1      33.339 -24.650   7.725  1.00  0.00     0.154 C 
BRANCH   3   4
HETATM    4  C4  UNL     1      33.527 -23.506   8.699  1.00  0.00     0.117 C 
BRANCH   4   5
HETATM    5  C3  UNL     1      35.020 -23.620   9.127  1.00  0.00     0.138 C 
BRANCH   5   6
HETATM    6  N1  UNL     1      35.071 -24.201  10.438  1.00  0.00    -0.361 N 
HETATM    7  C2  UNL     1      35.794 -25.392  10.646  1.00  0.00     0.213 C 
HETATM    8  C1  UNL     1      35.837 -25.980  12.019  1.00  0.00     0.117 C 
HETATM    9  O1  UNL     1      36.390 -25.939   9.678  1.00  0.00    -0.274 OA
ATOM     10  H1  UNL     1      34.587 -23.754  11.215  1.00  0.00     0.162 HD
ENDBRANCH   5   6
ENDBRANCH   4   5
BRANCH   4  11
HETATM   11  C5  UNL     1      33.403 -22.173   8.109  1.00  0.00     0.233 C 
HETATM   12  O2  UNL     1      34.116 -21.778   7.134  1.00  0.00    -0.285 OA
BRANCH  11  13
HETATM   13  C6  UNL     1      32.441 -21.219   8.616  1.00  0.00     0.247 C 
HETATM   14  O3  UNL     1      31.678 -20.601   7.861  1.00  0.00    -0.642 OA
HETATM   15  O4  UNL     1      32.317 -20.940   9.981  1.00  0.00    -0.642 OA
ENDBRANCH  11  13
ENDBRANCH   4  11
ENDBRANCH   3   4
BRANCH   3  16
HETATM   16  O5  UNL     1      33.469 -25.851   8.454  1.00  0.00    -0.391 OA
ATOM     17  H5  UNL     1      32.662 -25.979   8.940  1.00  0.00     0.210 HD
ENDBRANCH   3  16
ENDBRANCH   1   3
BRANCH   2  18
HETATM   18  C10 UNL     1      30.073 -25.857   6.184  1.00  0.00     0.021 C 
HETATM   19  C11 UNL     1      30.365 -25.847   4.769  1.00  0.00     0.010 C 
HETATM   20  C12 UNL     1      31.055 -27.002   4.140  1.00  0.00     0.014 C 
HETATM   21  C15 UNL     1      29.214 -25.607   3.833  1.00  0.00     0.021 C 
HETATM   22  C13 UNL     1      31.199 -26.473   2.700  1.00  0.00     0.079 C 
HETATM   23  C14 UNL     1      29.812 -25.933   2.505  1.00  0.00     0.135 C 
HETATM   24  O6  UNL     1      29.206 -25.761   1.460  1.00  0.00    -0.297 OA
HETATM   25  C16 UNL     1      28.863 -24.158   3.830  1.00  0.00     0.024 C 
HETATM   26  C17 UNL     1      28.064 -26.536   4.057  1.00  0.00     0.017 C 
HETATM   27  C18 UNL     1      27.300 -26.304   5.295  1.00  0.00     0.002 C 
HETATM   28  C19 UNL     1      27.803 -26.948   6.529  1.00  0.00     0.009 C 
HETATM   29  C20 UNL     1      29.250 -26.918   6.797  1.00  0.00    -0.040 C 
HETATM   30  C21 UNL     1      29.386 -26.643   8.316  1.00  0.00     0.015 C 
HETATM   31  C22 UNL     1      29.865 -28.314   6.654  1.00  0.00     0.015 C 
ENDBRANCH   2  18
TORSDOF 8
ENDMDL
MODEL 5
REMARK VINA RESULT: -7.085088969      2.096      3.930
REMARK  8 active torsions:
REMARK  status: ('A' for Active; 'I' for Inactive)
REMARK       I    between atoms: C2_2  and  N1_4 
REMARK    1  A    between atoms: N1_4  and  C3_6 
REMARK    2  A    between atoms: C3_6  and  C4_7 
REMARK    3  A    between atoms: C4_7  and  C5_8 
REMARK    4  A    between atoms: C4_7  and  C7_13 
REMARK    5  A    between atoms: C5_8  and  C6_10 
REMARK    6  A    between atoms: C7_13  and  O5_14 
REMARK    7  A    between atoms: C7_13  and  C8_16 
REMARK    8  A    between atoms: C9_17  and  C10_18 
ROOT
HETATM    1  C8  UNL     1      30.197 -24.512   3.755  1.00  0.00     0.002 C 
HETATM    2  C9  UNL     1      31.141 -24.014   4.561  1.00  0.00    -0.022 C 
ENDROOT
BRANCH   1   3
HETATM    3  C7  UNL     1      29.568 -25.778   4.056  1.00  0.00     0.154 C 
BRANCH   3   4
HETATM    4  C4  UNL     1      29.145 -26.040   5.485  1.00  0.00     0.117 C 
BRANCH   4   5
HETATM    5  C3  UNL     1      27.732 -26.679   5.347  1.00  0.00     0.138 C 
BRANCH   5   6
HETATM    6  N1  UNL     1      27.458 -27.436   6.534  1.00  0.00    -0.361 N 
HETATM    7  C2  UNL     1      26.539 -28.501   6.486  1.00  0.00     0.213 C 
HETATM    8  C1  UNL     1      26.269 -29.279   7.734  1.00  0.00     0.117 C 
HETATM    9  O1  UNL     1      25.962 -28.782   5.400  1.00  0.00    -0.274 OA
ATOM     10  H1  UNL     1      27.927 -27.203   7.409  1.00  0.00     0.162 HD
ENDBRANCH   5   6
ENDBRANCH   4   5
BRANCH   4  11
HETATM   11  C5  UNL     1      29.946 -27.043   6.187  1.00  0.00     0.233 C 
HETATM   12  O2  UNL     1      30.387 -28.094   5.625  1.00  0.00    -0.285 OA
BRANCH  11  13
HETATM   13  C6  UNL     1      30.287 -26.881   7.584  1.00  0.00     0.247 C 
HETATM   14  O3  UNL     1      29.812 -27.619   8.458  1.00  0.00    -0.642 OA
HETATM   15  O4  UNL     1      31.167 -25.887   8.026  1.00  0.00    -0.642 OA
ENDBRANCH  11  13
ENDBRANCH   4  11
ENDBRANCH   3   4
BRANCH   3  16
HETATM   16  O5  UNL     1      28.427 -25.939   3.240  1.00  0.00    -0.391 OA
ATOM     17  H5  UNL     1      28.707 -26.367   2.440  1.00  0.00     0.210 HD
ENDBRANCH   3  16
ENDBRANCH   1   3
BRANCH   2  18
HETATM   18  C10 UNL     1      31.817 -22.714   4.287  1.00  0.00     0.021 C 
HETATM   19  C11 UNL     1      30.863 -21.632   4.386  1.00  0.00     0.010 C 
HETATM   20  C12 UNL     1      30.277 -21.271   5.701  1.00  0.00     0.014 C 
HETATM   21  C15 UNL     1      31.284 -20.296   3.839  1.00  0.00     0.021 C 
HETATM   22  C13 UNL     1      29.300 -20.164   5.261  1.00  0.00     0.079 C 
HETATM   23  C14 UNL     1      30.208 -19.394   4.347  1.00  0.00     0.135 C 
HETATM   24  O6  UNL     1      30.141 -18.219   4.026  1.00  0.00    -0.297 OA
HETATM   25  C16 UNL     1      31.197 -20.313   2.351  1.00  0.00     0.024 C 
HETATM   26  C17 UNL     1      32.586 -19.812   4.393  1.00  0.00     0.017 C 
HETATM   27  C18 UNL     1      33.777 -20.544   3.929  1.00  0.00     0.002 C 
HETATM   28  C19 UNL     1      34.146 -21.771   4.670  1.00  0.00     0.009 C 
HETATM   29  C20 UNL     1      33.077 -22.707   5.054  1.00  0.00    -0.040 C 
HETATM   30  C21 UNL     1      33.655 -24.123   4.804  1.00  0.00     0.015 C 
HETATM   31  C22 UNL     1      32.858 -22.699   6.570  1.00  0.00     0.015 C 
ENDBRANCH   2  18
TORSDOF 8
ENDMDL
