MODEL 1
REMARK VINA RESULT: -8.108982245      0.000      0.000
REMARK  8 active torsions:
REMARK  status: ('A' for Active; 'I' for Inactive)
REMARK    1  A    between atoms: C2_2  and  C3_3 
REMARK       I    between atoms: C3_3  and  N1_5 
REMARK    2  A    between atoms: N1_5  and  N2_7 
REMARK    3  A    between atoms: C4_9  and  C5_10 
REMARK    4  A    between atoms: C8_13  and  C9_14 
REMARK    5  A    between atoms: C10_15  and  C11_16 
REMARK       I    between atoms: C11_16  and  N3_18 
REMARK    6  A    between atoms: N3_18  and  C12_20 
REMARK    7  A    between atoms: C15_23  and  S1_24 
REMARK    8  A    between atoms: S1_24  and  N4_25 
ROOT
HETATM    1  C9  UNL     1      30.467 -26.002   6.813  1.00  0.00     0.017 C 
HETATM    2  C10 UNL     1      31.526 -26.062   7.556  1.00  0.00     0.075 C 
ENDROOT
BRANCH   2   3
HETATM    3  C11 UNL     1      32.664 -25.144   7.373  1.00  0.00     0.245 C 
HETATM    4  O2  UNL     1      33.654 -25.356   8.158  1.00  0.00    -0.268 OA
HETATM    5  N3  UNL     1      32.695 -24.115   6.432  1.00  0.00    -0.324 N 
ATOM      6  H3  UNL     1      31.866 -24.004   5.849  1.00  0.00     0.169 HD
BRANCH   5   7
HETATM    7  C12 UNL     1      33.753 -23.210   6.202  1.00  0.00     0.035 A 
HETATM    8  C13 UNL     1      34.005 -22.079   6.927  1.00  0.00     0.031 A 
HETATM    9  C14 UNL     1      35.045 -21.195   6.662  1.00  0.00     0.027 A 
HETATM   10  C15 UNL     1      35.886 -21.463   5.605  1.00  0.00     0.079 A 
HETATM   11  C16 UNL     1      35.660 -22.589   4.858  1.00  0.00     0.027 A 
HETATM   12  C17 UNL     1      34.635 -23.450   5.128  1.00  0.00     0.031 A 
BRANCH  10  13
HETATM   13  S1  UNL     1      37.201 -20.376   5.242  1.00  0.00     0.256 S 
HETATM   14  O3  UNL     1      38.027 -20.948   4.117  1.00  0.00    -0.201 OA
HETATM   15  O4  UNL     1      38.089 -20.201   6.454  1.00  0.00    -0.201 OA
BRANCH  13  16
HETATM   16  N4  UNL     1      36.614 -18.815   4.766  1.00  0.00    -0.324 N 
ATOM     17  H42 UNL     1      35.656 -18.641   4.465  1.00  0.00     0.169 HD
ATOM     18  H41 UNL     1      37.348 -18.109   4.829  1.00  0.00     0.169 HD
ENDBRANCH  13  16
ENDBRANCH  10  13
ENDBRANCH   5   7
ENDBRANCH   2   3
BRANCH   1  19
HETATM   19  C8  UNL     1      29.319 -26.886   6.957  1.00  0.00    -0.036 A 
HETATM   20  C7  UNL     1      28.242 -26.804   6.106  1.00  0.00     0.012 A 
HETATM   21  C6  UNL     1      27.149 -27.621   6.217  1.00  0.00     0.013 A 
HETATM   22  C5  UNL     1      27.067 -28.604   7.219  1.00  0.00    -0.019 A 
HETATM   23  C19 UNL     1      28.147 -28.674   8.056  1.00  0.00     0.013 A 
HETATM   24  C18 UNL     1      29.255 -27.836   7.935  1.00  0.00     0.012 A 
BRANCH  22  25
HETATM   25  C4  UNL     1      25.893 -29.451   7.301  1.00  0.00     0.118 C 
HETATM   26  N2  UNL     1      25.445 -30.327   6.549  1.00  0.00    -0.308 N 
ATOM     27  H2  UNL     1      24.582 -30.758   6.880  1.00  0.00     0.186 HD
BRANCH  26  28
HETATM   28  N1  UNL     1      25.888 -30.815   5.374  1.00  0.00    -0.267 N 
HETATM   29  C3  UNL     1      26.201 -32.186   5.207  1.00  0.00     0.258 C 
HETATM   30  O1  UNL     1      26.055 -32.949   6.198  1.00  0.00    -0.267 OA
ATOM     31  H1  UNL     1      26.000 -30.180   4.583  1.00  0.00     0.190 HD
BRANCH  29  32
HETATM   32  C2  UNL     1      26.686 -32.756   3.940  1.00  0.00     0.065 C 
HETATM   33  C1  UNL     1      25.910 -33.006   2.919  1.00  0.00     0.017 C 
ENDBRANCH  29  32
ENDBRANCH  26  28
ENDBRANCH  22  25
ENDBRANCH   1  19
TORSDOF 8
ENDMDL
MODEL 2
REMARK VINA RESULT: -7.805998910      1.681      2.135
REMARK  8 active torsions:
REMARK  status: ('A' for Active; 'I' for Inactive)
REMARK    1  A    between atoms: C2_2  and  C3_3 
REMARK       I    between atoms: C3_3  and  N1_5 
REMARK    2  A    between atoms: N1_5  and  N2_7 
REMARK    3  A    between atoms: C4_9  and  C5_10 
REMARK    4  A    between atoms: C8_13  and  C9_14 
REMARK    5  A    between atoms: C10_15  and  C11_16 
REMARK       I    between atoms: C11_16  and  N3_18 
REMARK    6  A    between atoms: N3_18  and  C12_20 
REMARK    7  A    between atoms: C15_23  and  S1_24 
REMARK    8  A    between atoms: S1_24  and  N4_25 
ROOT
HETATM    1  C9  UNL     1      30.480 -26.160   7.130  1.00  0.00     0.017 C 
HETATM    2  C10 UNL     1      30.713 -25.250   6.237  1.00  0.00     0.075 C 
ENDROOT
BRANCH   2   3
HETATM    3  C11 UNL     1      31.929 -24.419   6.264  1.00  0.00     0.245 C 
HETATM    4  O2  UNL     1      32.518 -24.297   5.133  1.00  0.00    -0.268 OA
HETATM    5  N3  UNL     1      32.429 -23.800   7.410  1.00  0.00    -0.324 N 
ATOM      6  H3  UNL     1      31.907 -23.951   8.274  1.00  0.00     0.169 HD
BRANCH   5   7
HETATM    7  C12 UNL     1      33.579 -22.989   7.500  1.00  0.00     0.035 A 
HETATM    8  C13 UNL     1      34.851 -23.434   7.726  1.00  0.00     0.031 A 
HETATM    9  C14 UNL     1      35.963 -22.605   7.831  1.00  0.00     0.027 A 
HETATM   10  C15 UNL     1      35.789 -21.247   7.699  1.00  0.00     0.079 A 
HETATM   11  C16 UNL     1      34.525 -20.767   7.472  1.00  0.00     0.027 A 
HETATM   12  C17 UNL     1      33.440 -21.591   7.371  1.00  0.00     0.031 A 
BRANCH  10  13
HETATM   13  S1  UNL     1      37.160 -20.176   7.825  1.00  0.00     0.256 S 
HETATM   14  O3  UNL     1      36.681 -18.746   7.829  1.00  0.00    -0.201 OA
HETATM   15  O4  UNL     1      38.090 -20.371   6.648  1.00  0.00    -0.201 OA
BRANCH  13  16
HETATM   16  N4  UNL     1      38.056 -20.469   9.281  1.00  0.00    -0.324 N 
ATOM     17  H42 UNL     1      38.171 -21.394   9.695  1.00  0.00     0.169 HD
ATOM     18  H41 UNL     1      38.442 -19.604   9.658  1.00  0.00     0.169 HD
ENDBRANCH  13  16
ENDBRANCH  10  13
ENDBRANCH   5   7
ENDBRANCH   2   3
BRANCH   1  19
HETATM   19  C8  UNL     1      29.295 -27.004   7.143  1.00  0.00    -0.036 A 
HETATM   20  C7  UNL     1      29.148 -28.016   8.064  1.00  0.00     0.012 A 
HETATM   21  C6  UNL     1      28.044 -28.825   8.102  1.00  0.00     0.013 A 
HETATM   22  C5  UNL     1      26.986 -28.665   7.191  1.00  0.00    -0.019 A 
HETATM   23  C19 UNL     1      27.146 -27.654   6.282  1.00  0.00     0.013 A 
HETATM   24  C18 UNL     1      28.274 -26.836   6.253  1.00  0.00     0.012 A 
BRANCH  22  25
HETATM   25  C4  UNL     1      25.834 -29.543   7.265  1.00  0.00     0.118 C 
HETATM   26  N2  UNL     1      25.411 -30.426   6.507  1.00  0.00    -0.308 N 
ATOM     27  H2  UNL     1      24.559 -30.882   6.834  1.00  0.00     0.186 HD
BRANCH  26  28
HETATM   28  N1  UNL     1      25.868 -30.895   5.330  1.00  0.00    -0.267 N 
HETATM   29  C3  UNL     1      26.226 -32.254   5.157  1.00  0.00     0.258 C 
HETATM   30  O1  UNL     1      26.105 -33.025   6.145  1.00  0.00    -0.267 OA
ATOM     31  H1  UNL     1      25.959 -30.253   4.542  1.00  0.00     0.190 HD
BRANCH  29  32
HETATM   32  C2  UNL     1      26.728 -32.802   3.887  1.00  0.00     0.065 C 
HETATM   33  C1  UNL     1      25.957 -33.096   2.874  1.00  0.00     0.017 C 
ENDBRANCH  29  32
ENDBRANCH  26  28
ENDBRANCH  22  25
ENDBRANCH   1  19
TORSDOF 8
ENDMDL
MODEL 3
REMARK VINA RESULT: -7.599265101      5.823      9.948
REMARK  8 active torsions:
REMARK  status: ('A' for Active; 'I' for Inactive)
REMARK    1  A    between atoms: C2_2  and  C3_3 
REMARK       I    between atoms: C3_3  and  N1_5 
REMARK    2  A    between atoms: N1_5  and  N2_7 
REMARK    3  A    between atoms: C4_9  and  C5_10 
REMARK    4  A    between atoms: C8_13  and  C9_14 
REMARK    5  A    between atoms: C10_15  and  C11_16 
REMARK       I    between atoms: C11_16  and  N3_18 
REMARK    6  A    between atoms: N3_18  and  C12_20 
REMARK    7  A    between atoms: C15_23  and  S1_24 
REMARK    8  A    between atoms: S1_24  and  N4_25 
ROOT
HETATM    1  C9  UNL     1      32.112 -24.112   6.502  1.00  0.00     0.017 C 
HETATM    2  C10 UNL     1      31.224 -25.054   6.457  1.00  0.00     0.075 C 
ENDROOT
BRANCH   2   3
HETATM    3  C11 UNL     1      30.415 -25.312   5.254  1.00  0.00     0.245 C 
HETATM    4  O2  UNL     1      29.281 -25.862   5.478  1.00  0.00    -0.268 OA
HETATM    5  N3  UNL     1      30.820 -24.996   3.956  1.00  0.00    -0.324 N 
ATOM      6  H3  UNL     1      31.741 -24.566   3.858  1.00  0.00     0.169 HD
BRANCH   5   7
HETATM    7  C12 UNL     1      30.093 -25.209   2.767  1.00  0.00     0.035 A 
HETATM    8  C13 UNL     1      29.811 -26.426   2.213  1.00  0.00     0.031 A 
HETATM    9  C14 UNL     1      29.108 -26.602   1.026  1.00  0.00     0.027 A 
HETATM   10  C15 UNL     1      28.658 -25.488   0.354  1.00  0.00     0.079 A 
HETATM   11  C16 UNL     1      28.924 -24.252   0.883  1.00  0.00     0.027 A 
HETATM   12  C17 UNL     1      29.616 -24.092   2.050  1.00  0.00     0.031 A 
BRANCH  10  13
HETATM   13  S1  UNL     1      27.773 -25.670  -1.138  1.00  0.00     0.256 S 
HETATM   14  O3  UNL     1      28.075 -27.020  -1.738  1.00  0.00    -0.201 OA
HETATM   15  O4  UNL     1      28.181 -24.600  -2.126  1.00  0.00    -0.201 OA
BRANCH  13  16
HETATM   16  N4  UNL     1      26.063 -25.545  -0.874  1.00  0.00    -0.324 N 
ATOM     17  H42 UNL     1      25.649 -25.292   0.022  1.00  0.00     0.169 HD
ATOM     18  H41 UNL     1      25.542 -25.755  -1.725  1.00  0.00     0.169 HD
ENDBRANCH  13  16
ENDBRANCH  10  13
ENDBRANCH   5   7
ENDBRANCH   2   3
BRANCH   1  19
HETATM   19  C8  UNL     1      32.935 -23.822   7.667  1.00  0.00    -0.036 A 
HETATM   20  C7  UNL     1      33.984 -24.637   8.024  1.00  0.00     0.012 A 
HETATM   21  C6  UNL     1      34.775 -24.390   9.114  1.00  0.00     0.013 A 
HETATM   22  C5  UNL     1      34.556 -23.273   9.939  1.00  0.00    -0.019 A 
HETATM   23  C19 UNL     1      33.510 -22.471   9.571  1.00  0.00     0.013 A 
HETATM   24  C18 UNL     1      32.711 -22.733   8.459  1.00  0.00     0.012 A 
BRANCH  22  25
HETATM   25  C4  UNL     1      35.417 -23.046  11.084  1.00  0.00     0.118 C 
HETATM   26  N2  UNL     1      35.770 -23.779  12.017  1.00  0.00    -0.308 N 
ATOM     27  H2  UNL     1      36.395 -23.329  12.686  1.00  0.00     0.186 HD
BRANCH  26  28
HETATM   28  N1  UNL     1      35.481 -25.062  12.312  1.00  0.00    -0.267 N 
HETATM   29  C3  UNL     1      36.293 -26.131  11.863  1.00  0.00     0.258 C 
HETATM   30  O1  UNL     1      37.307 -25.850  11.170  1.00  0.00    -0.267 OA
ATOM     31  H1  UNL     1      34.655 -25.267  12.874  1.00  0.00     0.190 HD
BRANCH  29  32
HETATM   32  C2  UNL     1      36.010 -27.543  12.165  1.00  0.00     0.065 C 
HETATM   33  C1  UNL     1      36.877 -28.505  11.989  1.00  0.00     0.017 C 
ENDBRANCH  29  32
ENDBRANCH  26  28
ENDBRANCH  22  25
ENDBRANCH   1  19
TORSDOF 8
ENDMDL
MODEL 4
REMARK VINA RESULT: -7.466884462      2.358      2.602
REMARK  8 active torsions:
REMARK  status: ('A' for Active; 'I' for Inactive)
REMARK    1  A    between atoms: C2_2  and  C3_3 
REMARK       I    between atoms: C3_3  and  N1_5 
REMARK    2  A    between atoms: N1_5  and  N2_7 
REMARK    3  A    between atoms: C4_9  and  C5_10 
REMARK    4  A    between atoms: C8_13  and  C9_14 
REMARK    5  A    between atoms: C10_15  and  C11_16 
REMARK       I    between atoms: C11_16  and  N3_18 
REMARK    6  A    between atoms: N3_18  and  C12_20 
REMARK    7  A    between atoms: C15_23  and  S1_24 
REMARK    8  A    between atoms: S1_24  and  N4_25 
ROOT
HETATM    1  C9  UNL     1      30.234 -26.484   7.445  1.00  0.00     0.017 C 
HETATM    2  C10 UNL     1      30.735 -25.634   6.605  1.00  0.00     0.075 C 
ENDROOT
BRANCH   2   3
HETATM    3  C11 UNL     1      31.978 -24.896   6.886  1.00  0.00     0.245 C 
HETATM    4  O2  UNL     1      32.655 -24.575   5.847  1.00  0.00    -0.268 OA
HETATM    5  N3  UNL     1      32.415 -24.557   8.167  1.00  0.00    -0.324 N 
ATOM      6  H3  UNL     1      31.825 -24.855   8.944  1.00  0.00     0.169 HD
BRANCH   5   7
HETATM    7  C12 UNL     1      33.588 -23.848   8.500  1.00  0.00     0.035 A 
HETATM    8  C13 UNL     1      34.847 -24.376   8.563  1.00  0.00     0.031 A 
HETATM    9  C14 UNL     1      35.982 -23.653   8.916  1.00  0.00     0.027 A 
HETATM   10  C15 UNL     1      35.845 -22.318   9.225  1.00  0.00     0.079 A 
HETATM   11  C16 UNL     1      34.595 -21.758   9.172  1.00  0.00     0.027 A 
HETATM   12  C17 UNL     1      33.488 -22.478   8.823  1.00  0.00     0.031 A 
BRANCH  10  13
HETATM   13  S1  UNL     1      37.246 -21.380   9.673  1.00  0.00     0.256 S 
HETATM   14  O3  UNL     1      38.090 -21.126   8.450  1.00  0.00    -0.201 OA
HETATM   15  O4  UNL     1      38.079 -22.130  10.688  1.00  0.00    -0.201 OA
BRANCH  13  16
HETATM   16  N4  UNL     1      36.788 -19.856  10.363  1.00  0.00    -0.324 N 
ATOM     17  H42 UNL     1      36.440 -19.071   9.813  1.00  0.00     0.169 HD
ATOM     18  H41 UNL     1      36.911 -19.857  11.375  1.00  0.00     0.169 HD
ENDBRANCH  13  16
ENDBRANCH  10  13
ENDBRANCH   5   7
ENDBRANCH   2   3
BRANCH   1  19
HETATM   19  C8  UNL     1      29.010 -27.236   7.212  1.00  0.00    -0.036 A 
HETATM   20  C7  UNL     1      28.076 -26.816   6.292  1.00  0.00     0.012 A 
HETATM   21  C6  UNL     1      26.917 -27.502   6.051  1.00  0.00     0.013 A 
HETATM   22  C5  UNL     1      26.612 -28.691   6.736  1.00  0.00    -0.019 A 
HETATM   23  C19 UNL     1      27.551 -29.097   7.646  1.00  0.00     0.013 A 
HETATM   24  C18 UNL     1      28.728 -28.390   7.884  1.00  0.00     0.012 A 
BRANCH  22  25
HETATM   25  C4  UNL     1      25.373 -29.388   6.450  1.00  0.00     0.118 C 
HETATM   26  N2  UNL     1      25.075 -30.239   5.600  1.00  0.00    -0.308 N 
ATOM     27  H2  UNL     1      24.105 -30.550   5.646  1.00  0.00     0.186 HD
BRANCH  26  28
HETATM   28  N1  UNL     1      25.796 -30.829   4.627  1.00  0.00    -0.267 N 
HETATM   29  C3  UNL     1      26.299 -32.146   4.765  1.00  0.00     0.258 C 
HETATM   30  O1  UNL     1      26.052 -32.760   5.837  1.00  0.00    -0.267 OA
ATOM     31  H1  UNL     1      25.985 -30.313   3.768  1.00  0.00     0.190 HD
BRANCH  29  32
HETATM   32  C2  UNL     1      27.089 -32.823   3.725  1.00  0.00     0.065 C 
HETATM   33  C1  UNL     1      26.559 -33.548   2.776  1.00  0.00     0.017 C 
ENDBRANCH  29  32
ENDBRANCH  26  28
ENDBRANCH  22  25
ENDBRANCH   1  19
TORSDOF 8
ENDMDL
MODEL 5
REMARK VINA RESULT: -7.433401220      5.522      6.435
REMARK  8 active torsions:
REMARK  status: ('A' for Active; 'I' for Inactive)
REMARK    1  A    between atoms: C2_2  and  C3_3 
REMARK       I    between atoms: C3_3  and  N1_5 
REMARK    2  A    between atoms: N1_5  and  N2_7 
REMARK    3  A    between atoms: C4_9  and  C5_10 
REMARK    4  A    between atoms: C8_13  and  C9_14 
REMARK    5  A    between atoms: C10_15  and  C11_16 
REMARK       I    between atoms: C11_16  and  N3_18 
REMARK    6  A    between atoms: N3_18  and  C12_20 
REMARK    7  A    between atoms: C15_23  and  S1_24 
REMARK    8  A    between atoms: S1_24  and  N4_25 
ROOT
HETATM    1  C9  UNL     1      31.331 -23.612   4.309  1.00  0.00     0.017 C 
HETATM    2  C10 UNL     1      32.082 -23.994   5.293  1.00  0.00     0.075 C 
ENDROOT
BRANCH   2   3
HETATM    3  C11 UNL     1      32.758 -23.034   6.181  1.00  0.00     0.245 C 
HETATM    4  O2  UNL     1      34.036 -23.120   6.190  1.00  0.00    -0.268 OA
HETATM    5  N3  UNL     1      32.092 -22.092   6.966  1.00  0.00    -0.324 N 
ATOM      6  H3  UNL     1      31.073 -22.090   6.911  1.00  0.00     0.169 HD
BRANCH   5   7
HETATM    7  C12 UNL     1      32.679 -21.143   7.829  1.00  0.00     0.035 A 
HETATM    8  C13 UNL     1      33.148 -19.913   7.459  1.00  0.00     0.031 A 
HETATM    9  C14 UNL     1      33.741 -19.006   8.331  1.00  0.00     0.027 A 
HETATM   10  C15 UNL     1      33.871 -19.354   9.656  1.00  0.00     0.079 A 
HETATM   11  C16 UNL     1      33.412 -20.581  10.060  1.00  0.00     0.027 A 
HETATM   12  C17 UNL     1      32.831 -21.463   9.194  1.00  0.00     0.031 A 
BRANCH  10  13
HETATM   13  S1  UNL     1      34.611 -18.243  10.780  1.00  0.00     0.256 S 
HETATM   14  O3  UNL     1      35.804 -18.903  11.425  1.00  0.00    -0.201 OA
HETATM   15  O4  UNL     1      33.628 -17.856  11.862  1.00  0.00    -0.201 OA
BRANCH  13  16
HETATM   16  N4  UNL     1      35.137 -16.797   9.979  1.00  0.00    -0.324 N 
ATOM     17  H42 UNL     1      34.607 -16.338   9.239  1.00  0.00     0.169 HD
ATOM     18  H41 UNL     1      36.034 -16.477  10.346  1.00  0.00     0.169 HD
ENDBRANCH  13  16
ENDBRANCH  10  13
ENDBRANCH   5   7
ENDBRANCH   2   3
BRANCH   1  19
HETATM   19  C8  UNL     1      30.644 -24.524   3.406  1.00  0.00    -0.036 A 
HETATM   20  C7  UNL     1      30.897 -25.876   3.425  1.00  0.00     0.012 A 
HETATM   21  C6  UNL     1      30.267 -26.758   2.589  1.00  0.00     0.013 A 
HETATM   22  C5  UNL     1      29.311 -26.325   1.654  1.00  0.00    -0.019 A 
HETATM   23  C19 UNL     1      29.069 -24.978   1.648  1.00  0.00     0.013 A 
HETATM   24  C18 UNL     1      29.717 -24.089   2.503  1.00  0.00     0.012 A 
BRANCH  22  25
HETATM   25  C4  UNL     1      28.664 -27.291   0.787  1.00  0.00     0.118 C 
HETATM   26  N2  UNL     1      27.762 -27.182  -0.054  1.00  0.00    -0.308 N 
ATOM     27  H2  UNL     1      27.513 -28.057  -0.514  1.00  0.00     0.186 HD
BRANCH  26  28
HETATM   28  N1  UNL     1      27.047 -26.118  -0.472  1.00  0.00    -0.267 N 
HETATM   29  C3  UNL     1      27.337 -25.459  -1.691  1.00  0.00     0.258 C 
HETATM   30  O1  UNL     1      28.293 -25.895  -2.384  1.00  0.00    -0.267 OA
ATOM     31  H1  UNL     1      26.277 -25.780   0.105  1.00  0.00     0.190 HD
BRANCH  29  32
HETATM   32  C2  UNL     1      26.579 -24.296  -2.181  1.00  0.00     0.065 C 
HETATM   33  C1  UNL     1      25.934 -24.284  -3.316  1.00  0.00     0.017 C 
ENDBRANCH  29  32
ENDBRANCH  26  28
ENDBRANCH  22  25
ENDBRANCH   1  19
TORSDOF 8
ENDMDL
