MODEL 1
REMARK VINA RESULT: -6.837800992      0.000      0.000
REMARK  8 active torsions:
REMARK  status: ('A' for Active; 'I' for Inactive)
REMARK    1  A    between atoms: N1_2  and  S1_4 
REMARK    2  A    between atoms: S1_4  and  C2_7 
REMARK    3  A    between atoms: C4_9  and  C5_10 
REMARK       I    between atoms: C5_10  and  N2_12 
REMARK    4  A    between atoms: N2_12  and  C6_14 
REMARK    5  A    between atoms: C6_14  and  C7_15 
REMARK    6  A    between atoms: C6_14  and  C12_23 
REMARK       I    between atoms: C7_15  and  N3_17 
REMARK    7  A    between atoms: N3_17  and  C8_19 
REMARK    8  A    between atoms: C8_19  and  C9_20 
ROOT
HETATM    1  C5  UNL     1      29.935 -26.316   2.183  1.00  0.00     0.252 C 
HETATM    2  O3  UNL     1      30.829 -27.163   2.031  1.00  0.00    -0.268 OA
HETATM    3  N2  UNL     1      29.739 -25.644   3.442  1.00  0.00    -0.343 N 
ATOM      4  H2  UNL     1      29.004 -24.949   3.573  1.00  0.00     0.163 HD
ENDROOT
BRANCH   3   5
HETATM    5  C6  UNL     1      30.652 -26.015   4.523  1.00  0.00     0.184 C 
BRANCH   5   6
HETATM    6  C7  UNL     1      29.767 -26.716   5.534  1.00  0.00     0.244 C 
HETATM    7  O4  UNL     1      30.279 -27.628   6.239  1.00  0.00    -0.271 OA
HETATM    8  N3  UNL     1      28.416 -26.392   5.716  1.00  0.00    -0.339 N 
ATOM      9  H3  UNL     1      28.061 -25.649   5.114  1.00  0.00     0.167 HD
BRANCH   8  10
HETATM   10  C8  UNL     1      27.482 -26.942   6.606  1.00  0.00     0.068 C 
BRANCH  10  11
HETATM   11  C9  UNL     1      26.999 -28.318   6.498  1.00  0.00     0.016 C 
HETATM   12  C10 UNL     1      26.386 -29.017   7.641  1.00  0.00     0.015 C 
HETATM   13  C11 UNL     1      26.022 -28.443   5.317  1.00  0.00     0.015 C 
ENDBRANCH  10  11
ENDBRANCH   8  10
ENDBRANCH   5   6
BRANCH   5  14
HETATM   14  C12 UNL     1      31.217 -24.746   5.136  1.00  0.00    -0.022 C 
HETATM   15  C13 UNL     1      30.376 -23.541   4.747  1.00  0.00     0.017 C 
HETATM   16  C14 UNL     1      31.258 -24.811   6.643  1.00  0.00     0.017 C 
HETATM   17  C15 UNL     1      32.592 -24.486   4.584  1.00  0.00     0.017 C 
ENDBRANCH   5  14
ENDBRANCH   3   5
BRANCH   1  18
HETATM   18  C4  UNL     1      29.063 -26.012   1.019  1.00  0.00     0.040 A 
HETATM   19  C3  UNL     1      28.872 -24.761   0.568  1.00  0.00     0.050 A 
HETATM   20  C2  UNL     1      28.048 -24.581  -0.503  1.00  0.00     0.120 A 
HETATM   21  S2  UNL     1      27.549 -26.180  -0.866  1.00  0.00    -0.087 SA
HETATM   22  C16 UNL     1      28.402 -27.010   0.351  1.00  0.00     0.068 A 
BRANCH  20  23
HETATM   23  S1  UNL     1      27.609 -23.080  -1.331  1.00  0.00     0.265 S 
HETATM   24  O1  UNL     1      27.445 -21.959  -0.360  1.00  0.00    -0.200 OA
HETATM   25  O2  UNL     1      28.764 -22.761  -2.270  1.00  0.00    -0.200 OA
BRANCH  23  26
HETATM   26  N1  UNL     1      26.192 -23.329  -2.233  1.00  0.00    -0.319 N 
HETATM   27  C1  UNL     1      25.868 -22.121  -2.970  1.00  0.00     0.159 C 
ATOM     28  H1  UNL     1      25.651 -24.193  -2.253  1.00  0.00     0.171 HD
ENDBRANCH  23  26
ENDBRANCH  20  23
ENDBRANCH   1  18
TORSDOF 8
ENDMDL
MODEL 2
REMARK VINA RESULT: -6.757148718      1.105      1.107
REMARK  8 active torsions:
REMARK  status: ('A' for Active; 'I' for Inactive)
REMARK    1  A    between atoms: N1_2  and  S1_4 
REMARK    2  A    between atoms: S1_4  and  C2_7 
REMARK    3  A    between atoms: C4_9  and  C5_10 
REMARK       I    between atoms: C5_10  and  N2_12 
REMARK    4  A    between atoms: N2_12  and  C6_14 
REMARK    5  A    between atoms: C6_14  and  C7_15 
REMARK    6  A    between atoms: C6_14  and  C12_23 
REMARK       I    between atoms: C7_15  and  N3_17 
REMARK    7  A    between atoms: N3_17  and  C8_19 
REMARK    8  A    between atoms: C8_19  and  C9_20 
ROOT
HETATM    1  C5  UNL     1      29.360 -26.265   1.620  1.00  0.00     0.252 C 
HETATM    2  O3  UNL     1      30.178 -27.197   1.571  1.00  0.00    -0.268 OA
HETATM    3  N2  UNL     1      29.014 -25.629   2.865  1.00  0.00    -0.343 N 
ATOM      4  H2  UNL     1      28.341 -24.864   2.910  1.00  0.00     0.163 HD
ENDROOT
BRANCH   3   5
HETATM    5  C6  UNL     1      29.681 -26.142   4.062  1.00  0.00     0.184 C 
BRANCH   5   6
HETATM    6  C7  UNL     1      28.548 -26.419   5.029  1.00  0.00     0.244 C 
HETATM    7  O4  UNL     1      27.505 -25.714   4.938  1.00  0.00    -0.271 OA
HETATM    8  N3  UNL     1      28.610 -27.419   6.008  1.00  0.00    -0.339 N 
ATOM      9  H3  UNL     1      29.480 -27.952   6.033  1.00  0.00     0.167 HD
BRANCH   8  10
HETATM   10  C8  UNL     1      27.649 -27.793   6.960  1.00  0.00     0.068 C 
BRANCH  10  11
HETATM   11  C9  UNL     1      26.807 -28.980   6.813  1.00  0.00     0.016 C 
HETATM   12  C10 UNL     1      25.958 -29.468   7.913  1.00  0.00     0.015 C 
HETATM   13  C11 UNL     1      25.906 -28.838   5.575  1.00  0.00     0.015 C 
ENDBRANCH  10  11
ENDBRANCH   8  10
ENDBRANCH   5   6
BRANCH   5  14
HETATM   14  C12 UNL     1      30.574 -25.051   4.624  1.00  0.00    -0.022 C 
HETATM   15  C13 UNL     1      30.006 -23.677   4.309  1.00  0.00     0.017 C 
HETATM   16  C14 UNL     1      30.723 -25.154   6.122  1.00  0.00     0.017 C 
HETATM   17  C15 UNL     1      31.921 -25.105   3.957  1.00  0.00     0.017 C 
ENDBRANCH   5  14
ENDBRANCH   3   5
BRANCH   1  18
HETATM   18  C4  UNL     1      28.742 -25.819   0.344  1.00  0.00     0.040 A 
HETATM   19  C3  UNL     1      28.434 -24.534   0.103  1.00  0.00     0.050 A 
HETATM   20  C2  UNL     1      27.862 -24.223  -1.095  1.00  0.00     0.120 A 
HETATM   21  S2  UNL     1      27.764 -25.747  -1.872  1.00  0.00    -0.087 SA
HETATM   22  C16 UNL     1      28.450 -26.715  -0.651  1.00  0.00     0.068 A 
BRANCH  20  23
HETATM   23  S1  UNL     1      27.358 -22.642  -1.711  1.00  0.00     0.265 S 
HETATM   24  O1  UNL     1      27.284 -21.636  -0.613  1.00  0.00    -0.200 OA
HETATM   25  O2  UNL     1      28.428 -22.216  -2.707  1.00  0.00    -0.200 OA
BRANCH  23  26
HETATM   26  N1  UNL     1      25.867 -22.799  -2.509  1.00  0.00    -0.319 N 
HETATM   27  C1  UNL     1      25.464 -21.509  -3.040  1.00  0.00     0.159 C 
ATOM     28  H1  UNL     1      25.336 -23.665  -2.600  1.00  0.00     0.171 HD
ENDBRANCH  23  26
ENDBRANCH  20  23
ENDBRANCH   1  18
TORSDOF 8
ENDMDL
MODEL 3
REMARK VINA RESULT: -6.695126042      2.604      3.161
REMARK  8 active torsions:
REMARK  status: ('A' for Active; 'I' for Inactive)
REMARK    1  A    between atoms: N1_2  and  S1_4 
REMARK    2  A    between atoms: S1_4  and  C2_7 
REMARK    3  A    between atoms: C4_9  and  C5_10 
REMARK       I    between atoms: C5_10  and  N2_12 
REMARK    4  A    between atoms: N2_12  and  C6_14 
REMARK    5  A    between atoms: C6_14  and  C7_15 
REMARK    6  A    between atoms: C6_14  and  C12_23 
REMARK       I    between atoms: C7_15  and  N3_17 
REMARK    7  A    between atoms: N3_17  and  C8_19 
REMARK    8  A    between atoms: C8_19  and  C9_20 
ROOT
HETATM    1  C5  UNL     1      29.565 -26.528   1.561  1.00  0.00     0.252 C 
HETATM    2  O3  UNL     1      30.462 -27.382   1.638  1.00  0.00    -0.268 OA
HETATM    3  N2  UNL     1      29.088 -25.827   2.725  1.00  0.00    -0.343 N 
ATOM      4  H2  UNL     1      28.350 -25.125   2.667  1.00  0.00     0.163 HD
ENDROOT
BRANCH   3   5
HETATM    5  C6  UNL     1      29.721 -26.178   3.997  1.00  0.00     0.184 C 
BRANCH   5   6
HETATM    6  C7  UNL     1      28.557 -26.422   4.936  1.00  0.00     0.244 C 
HETATM    7  O4  UNL     1      27.511 -25.734   4.775  1.00  0.00    -0.271 OA
HETATM    8  N3  UNL     1      28.595 -27.373   5.964  1.00  0.00    -0.339 N 
ATOM      9  H3  UNL     1      29.469 -27.894   6.044  1.00  0.00     0.167 HD
BRANCH   8  10
HETATM   10  C8  UNL     1      27.605 -27.712   6.898  1.00  0.00     0.068 C 
BRANCH  10  11
HETATM   11  C9  UNL     1      26.790 -28.922   6.787  1.00  0.00     0.016 C 
HETATM   12  C10 UNL     1      25.963 -29.405   7.906  1.00  0.00     0.015 C 
HETATM   13  C11 UNL     1      25.873 -28.829   5.555  1.00  0.00     0.015 C 
ENDBRANCH  10  11
ENDBRANCH   8  10
ENDBRANCH   5   6
BRANCH   5  14
HETATM   14  C12 UNL     1      30.525 -24.985   4.483  1.00  0.00    -0.022 C 
HETATM   15  C13 UNL     1      29.877 -23.684   4.039  1.00  0.00     0.017 C 
HETATM   16  C14 UNL     1      30.640 -24.952   5.987  1.00  0.00     0.017 C 
HETATM   17  C15 UNL     1      31.890 -25.005   3.851  1.00  0.00     0.017 C 
ENDBRANCH   5  14
ENDBRANCH   3   5
BRANCH   1  18
HETATM   18  C4  UNL     1      28.992 -26.245   0.219  1.00  0.00     0.040 A 
HETATM   19  C3  UNL     1      29.293 -26.982  -0.864  1.00  0.00     0.050 A 
HETATM   20  C2  UNL     1      28.722 -26.640  -2.054  1.00  0.00     0.120 A 
HETATM   21  S2  UNL     1      27.764 -25.283  -1.635  1.00  0.00    -0.087 SA
HETATM   22  C16 UNL     1      28.125 -25.201   0.026  1.00  0.00     0.068 A 
BRANCH  20  23
HETATM   23  S1  UNL     1      28.903 -27.410  -3.637  1.00  0.00     0.265 S 
HETATM   24  O1  UNL     1      27.923 -26.859  -4.617  1.00  0.00    -0.200 OA
HETATM   25  O2  UNL     1      30.315 -27.085  -4.106  1.00  0.00    -0.200 OA
BRANCH  23  26
HETATM   26  N1  UNL     1      28.731 -29.091  -3.468  1.00  0.00    -0.319 N 
HETATM   27  C1  UNL     1      29.032 -29.739  -4.732  1.00  0.00     0.159 C 
ATOM     28  H1  UNL     1      28.457 -29.572  -2.611  1.00  0.00     0.171 HD
ENDBRANCH  23  26
ENDBRANCH  20  23
ENDBRANCH   1  18
TORSDOF 8
ENDMDL
MODEL 4
REMARK VINA RESULT: -6.691384704      1.445      1.484
REMARK  8 active torsions:
REMARK  status: ('A' for Active; 'I' for Inactive)
REMARK    1  A    between atoms: N1_2  and  S1_4 
REMARK    2  A    between atoms: S1_4  and  C2_7 
REMARK    3  A    between atoms: C4_9  and  C5_10 
REMARK       I    between atoms: C5_10  and  N2_12 
REMARK    4  A    between atoms: N2_12  and  C6_14 
REMARK    5  A    between atoms: C6_14  and  C7_15 
REMARK    6  A    between atoms: C6_14  and  C12_23 
REMARK       I    between atoms: C7_15  and  N3_17 
REMARK    7  A    between atoms: N3_17  and  C8_19 
REMARK    8  A    between atoms: C8_19  and  C9_20 
ROOT
HETATM    1  C5  UNL     1      29.360 -26.270   1.636  1.00  0.00     0.252 C 
HETATM    2  O3  UNL     1      30.191 -27.189   1.588  1.00  0.00    -0.268 OA
HETATM    3  N2  UNL     1      29.003 -25.639   2.881  1.00  0.00    -0.343 N 
ATOM      4  H2  UNL     1      28.318 -24.884   2.925  1.00  0.00     0.163 HD
ENDROOT
BRANCH   3   5
HETATM    5  C6  UNL     1      29.678 -26.140   4.078  1.00  0.00     0.184 C 
BRANCH   5   6
HETATM    6  C7  UNL     1      28.550 -26.420   5.051  1.00  0.00     0.244 C 
HETATM    7  O4  UNL     1      27.509 -25.710   4.971  1.00  0.00    -0.271 OA
HETATM    8  N3  UNL     1      28.615 -27.426   6.023  1.00  0.00    -0.339 N 
ATOM      9  H3  UNL     1      29.483 -27.962   6.038  1.00  0.00     0.167 HD
BRANCH   8  10
HETATM   10  C8  UNL     1      27.659 -27.803   6.978  1.00  0.00     0.068 C 
BRANCH  10  11
HETATM   11  C9  UNL     1      26.812 -28.985   6.829  1.00  0.00     0.016 C 
HETATM   12  C10 UNL     1      25.939 -29.456   7.918  1.00  0.00     0.015 C 
HETATM   13  C11 UNL     1      25.933 -28.849   5.573  1.00  0.00     0.015 C 
ENDBRANCH  10  11
ENDBRANCH   8  10
ENDBRANCH   5   6
BRANCH   5  14
HETATM   14  C12 UNL     1      30.565 -25.039   4.631  1.00  0.00    -0.022 C 
HETATM   15  C13 UNL     1      29.978 -23.671   4.324  1.00  0.00     0.017 C 
HETATM   16  C14 UNL     1      30.733 -25.142   6.127  1.00  0.00     0.017 C 
HETATM   17  C15 UNL     1      31.904 -25.078   3.948  1.00  0.00     0.017 C 
ENDBRANCH   5  14
ENDBRANCH   3   5
BRANCH   1  18
HETATM   18  C4  UNL     1      28.735 -25.835   0.360  1.00  0.00     0.040 A 
HETATM   19  C3  UNL     1      28.688 -24.546  -0.018  1.00  0.00     0.050 A 
HETATM   20  C2  UNL     1      28.087 -24.244  -1.203  1.00  0.00     0.120 A 
HETATM   21  S2  UNL     1      27.591 -25.781  -1.776  1.00  0.00    -0.087 SA
HETATM   22  C16 UNL     1      28.164 -26.743  -0.494  1.00  0.00     0.068 A 
BRANCH  20  23
HETATM   23  S1  UNL     1      27.879 -22.666  -1.976  1.00  0.00     0.265 S 
HETATM   24  O1  UNL     1      29.189 -21.973  -2.145  1.00  0.00    -0.200 OA
HETATM   25  O2  UNL     1      27.279 -22.941  -3.348  1.00  0.00    -0.200 OA
BRANCH  23  26
HETATM   26  N1  UNL     1      26.798 -21.729  -1.059  1.00  0.00    -0.319 N 
HETATM   27  C1  UNL     1      27.536 -20.982  -0.055  1.00  0.00     0.159 C 
ATOM     28  H1  UNL     1      25.788 -21.696  -1.192  1.00  0.00     0.171 HD
ENDBRANCH  23  26
ENDBRANCH  20  23
ENDBRANCH   1  18
TORSDOF 8
ENDMDL
MODEL 5
REMARK VINA RESULT: -6.583941878      1.059      1.147
REMARK  8 active torsions:
REMARK  status: ('A' for Active; 'I' for Inactive)
REMARK    1  A    between atoms: N1_2  and  S1_4 
REMARK    2  A    between atoms: S1_4  and  C2_7 
REMARK    3  A    between atoms: C4_9  and  C5_10 
REMARK       I    between atoms: C5_10  and  N2_12 
REMARK    4  A    between atoms: N2_12  and  C6_14 
REMARK    5  A    between atoms: C6_14  and  C7_15 
REMARK    6  A    between atoms: C6_14  and  C12_23 
REMARK       I    between atoms: C7_15  and  N3_17 
REMARK    7  A    between atoms: N3_17  and  C8_19 
REMARK    8  A    between atoms: C8_19  and  C9_20 
ROOT
HETATM    1  C5  UNL     1      29.923 -26.333   2.157  1.00  0.00     0.252 C 
HETATM    2  O3  UNL     1      30.880 -27.103   1.980  1.00  0.00    -0.268 OA
HETATM    3  N2  UNL     1      29.663 -25.734   3.441  1.00  0.00    -0.343 N 
ATOM      4  H2  UNL     1      28.877 -25.102   3.591  1.00  0.00     0.163 HD
ENDROOT
BRANCH   3   5
HETATM    5  C6  UNL     1      30.590 -26.083   4.518  1.00  0.00     0.184 C 
BRANCH   5   6
HETATM    6  C7  UNL     1      29.719 -26.774   5.548  1.00  0.00     0.244 C 
HETATM    7  O4  UNL     1      30.254 -27.645   6.289  1.00  0.00    -0.271 OA
HETATM    8  N3  UNL     1      28.358 -26.486   5.710  1.00  0.00    -0.339 N 
ATOM      9  H3  UNL     1      27.984 -25.776   5.079  1.00  0.00     0.167 HD
BRANCH   8  10
HETATM   10  C8  UNL     1      27.435 -27.033   6.614  1.00  0.00     0.068 C 
BRANCH  10  11
HETATM   11  C9  UNL     1      26.954 -28.411   6.521  1.00  0.00     0.016 C 
HETATM   12  C10 UNL     1      26.387 -29.114   7.684  1.00  0.00     0.015 C 
HETATM   13  C11 UNL     1      25.936 -28.538   5.375  1.00  0.00     0.015 C 
ENDBRANCH  10  11
ENDBRANCH   8  10
ENDBRANCH   5   6
BRANCH   5  14
HETATM   14  C12 UNL     1      31.154 -24.802   5.106  1.00  0.00    -0.022 C 
HETATM   15  C13 UNL     1      30.282 -23.613   4.735  1.00  0.00     0.017 C 
HETATM   16  C14 UNL     1      31.240 -24.858   6.611  1.00  0.00     0.017 C 
HETATM   17  C15 UNL     1      32.507 -24.525   4.511  1.00  0.00     0.017 C 
ENDBRANCH   5  14
ENDBRANCH   3   5
BRANCH   1  18
HETATM   18  C4  UNL     1      29.044 -26.043   0.994  1.00  0.00     0.040 A 
HETATM   19  C3  UNL     1      28.953 -24.820   0.446  1.00  0.00     0.050 A 
HETATM   20  C2  UNL     1      28.113 -24.651  -0.614  1.00  0.00     0.120 A 
HETATM   21  S2  UNL     1      27.458 -26.219  -0.830  1.00  0.00    -0.087 SA
HETATM   22  C16 UNL     1      28.273 -27.026   0.429  1.00  0.00     0.068 A 
BRANCH  20  23
HETATM   23  S1  UNL     1      27.785 -23.186  -1.552  1.00  0.00     0.265 S 
HETATM   24  O1  UNL     1      29.007 -22.724  -2.272  1.00  0.00    -0.200 OA
HETATM   25  O2  UNL     1      26.719 -23.566  -2.571  1.00  0.00    -0.200 OA
BRANCH  23  26
HETATM   26  N1  UNL     1      27.183 -21.980  -0.519  1.00  0.00    -0.319 N 
HETATM   27  C1  UNL     1      28.278 -21.143  -0.062  1.00  0.00     0.159 C 
ATOM     28  H1  UNL     1      26.204 -21.863  -0.259  1.00  0.00     0.171 HD
ENDBRANCH  23  26
ENDBRANCH  20  23
ENDBRANCH   1  18
TORSDOF 8
ENDMDL
