MODEL 1
REMARK VINA RESULT: -6.094549894      0.000      0.000
REMARK  9 active torsions:
REMARK  status: ('A' for Active; 'I' for Inactive)
REMARK    1  A    between atoms: C2_2  and  C3_3 
REMARK    2  A    between atoms: C3_3  and  C5_5 
REMARK    3  A    between atoms: C5_5  and  C6_6 
REMARK    4  A    between atoms: C5_5  and  C18_29 
REMARK       I    between atoms: C6_6  and  N1_8 
REMARK    5  A    between atoms: N1_8  and  C7_10 
REMARK    6  A    between atoms: C7_10  and  C9_12 
REMARK       I    between atoms: C9_12  and  N2_14 
REMARK    7  A    between atoms: C11_16  and  C12_17 
REMARK    8  A    between atoms: C14_21  and  C15_22 
REMARK    9  A    between atoms: N3_23  and  O5_25 
ROOT
HETATM    1  C9  UNL     1      30.020 -22.575   3.822  1.00  0.00     0.242 C 
HETATM    2  O2  UNL     1      29.506 -22.168   2.728  1.00  0.00    -0.271 OA
HETATM    3  N2  UNL     1      29.933 -23.938   4.212  1.00  0.00    -0.344 N 
HETATM    4  C10 UNL     1      30.558 -24.562   5.358  1.00  0.00     0.147 C 
HETATM    5  C11 UNL     1      30.190 -26.035   5.228  1.00  0.00     0.067 C 
HETATM    6  C13 UNL     1      30.875 -26.587   4.018  1.00  0.00     0.034 C 
HETATM    7  C14 UNL     1      30.154 -25.897   2.872  1.00  0.00     0.050 C 
HETATM    8  C16 UNL     1      29.166 -24.957   3.532  1.00  0.00     0.097 C 
HETATM    9  C17 UNL     1      28.758 -25.851   4.710  1.00  0.00     0.048 C 
ENDROOT
BRANCH   1  10
HETATM   10  C7  UNL     1      30.707 -21.608   4.690  1.00  0.00     0.172 C 
HETATM   11  C8  UNL     1      30.114 -20.203   4.307  1.00  0.00     0.042 C 
BRANCH  10  12
HETATM   12  N1  UNL     1      32.133 -21.520   4.368  1.00  0.00    -0.348 N 
HETATM   13  C6  UNL     1      33.086 -21.553   5.392  1.00  0.00     0.223 C 
HETATM   14  O1  UNL     1      32.667 -21.630   6.572  1.00  0.00    -0.273 OA
ATOM     15  H1  UNL     1      32.432 -21.435   3.396  1.00  0.00     0.163 HD
BRANCH  13  16
HETATM   16  C5  UNL     1      34.523 -21.507   5.049  1.00  0.00     0.085 C 
BRANCH  16  17
HETATM   17  C3  UNL     1      35.097 -22.863   5.097  1.00  0.00    -0.006 C 
HETATM   18  C4  UNL     1      34.204 -24.005   4.681  1.00  0.00     0.011 C 
BRANCH  17  19
HETATM   19  C2  UNL     1      35.863 -23.220   6.355  1.00  0.00     0.000 C 
HETATM   20  C1  UNL     1      36.586 -21.910   6.732  1.00  0.00     0.005 C 
ENDBRANCH  17  19
ENDBRANCH  16  17
BRANCH  16  21
HETATM   21  C18 UNL     1      34.673 -20.793   3.729  1.00  0.00    -0.009 C 
HETATM   22  C19 UNL     1      34.824 -19.309   4.018  1.00  0.00     0.010 C 
HETATM   23  C20 UNL     1      35.941 -21.202   2.981  1.00  0.00     0.010 C 
ENDBRANCH  16  21
ENDBRANCH  13  16
ENDBRANCH  10  12
ENDBRANCH   1  10
BRANCH   5  24
HETATM   24  C12 UNL     1      30.315 -26.808   6.431  1.00  0.00     0.183 C 
HETATM   25  O3  UNL     1      30.381 -28.082   6.453  1.00  0.00    -0.647 OA
HETATM   26  O4  UNL     1      30.370 -26.163   7.648  1.00  0.00    -0.647 OA
ENDBRANCH   5  24
BRANCH   7  27
HETATM   27  C15 UNL     1      29.493 -26.836   1.941  1.00  0.00     0.093 C 
HETATM   28  N3  UNL     1      28.494 -26.496   1.239  1.00  0.00    -0.284 N 
ATOM     29  H3  UNL     1      28.132 -25.546   1.320  1.00  0.00     0.192 HD
BRANCH  28  30
HETATM   30  O5  UNL     1      27.881 -27.373   0.369  1.00  0.00    -0.291 OA
ATOM     31  H5  UNL     1      28.199 -27.508  -0.517  1.00  0.00     0.244 HD
ENDBRANCH  28  30
ENDBRANCH   7  27
TORSDOF 9
ENDMDL
MODEL 2
REMARK VINA RESULT: -6.083892252      2.676      7.042
REMARK  9 active torsions:
REMARK  status: ('A' for Active; 'I' for Inactive)
REMARK    1  A    between atoms: C2_2  and  C3_3 
REMARK    2  A    between atoms: C3_3  and  C5_5 
REMARK    3  A    between atoms: C5_5  and  C6_6 
REMARK    4  A    between atoms: C5_5  and  C18_29 
REMARK       I    between atoms: C6_6  and  N1_8 
REMARK    5  A    between atoms: N1_8  and  C7_10 
REMARK    6  A    between atoms: C7_10  and  C9_12 
REMARK       I    between atoms: C9_12  and  N2_14 
REMARK    7  A    between atoms: C11_16  and  C12_17 
REMARK    8  A    between atoms: C14_21  and  C15_22 
REMARK    9  A    between atoms: N3_23  and  O5_25 
ROOT
HETATM    1  C9  UNL     1      30.016 -22.977   3.067  1.00  0.00     0.242 C 
HETATM    2  O2  UNL     1      29.528 -22.563   1.963  1.00  0.00    -0.271 OA
HETATM    3  N2  UNL     1      30.487 -22.066   4.049  1.00  0.00    -0.344 N 
HETATM    4  C10 UNL     1      30.958 -22.380   5.380  1.00  0.00     0.147 C 
HETATM    5  C11 UNL     1      31.251 -21.021   6.003  1.00  0.00     0.067 C 
HETATM    6  C13 UNL     1      29.957 -20.290   6.172  1.00  0.00     0.034 C 
HETATM    7  C14 UNL     1      29.546 -19.988   4.740  1.00  0.00     0.050 C 
HETATM    8  C16 UNL     1      30.608 -20.637   3.876  1.00  0.00     0.097 C 
HETATM    9  C17 UNL     1      31.828 -20.338   4.757  1.00  0.00     0.048 C 
ENDROOT
BRANCH   1  10
HETATM   10  C7  UNL     1      30.090 -24.424   3.315  1.00  0.00     0.172 C 
HETATM   11  C8  UNL     1      29.222 -25.091   2.186  1.00  0.00     0.042 C 
BRANCH  10  12
HETATM   12  N1  UNL     1      29.427 -24.786   4.570  1.00  0.00    -0.348 N 
HETATM   13  C6  UNL     1      29.656 -26.040   5.147  1.00  0.00     0.223 C 
HETATM   14  O1  UNL     1      30.417 -26.829   4.537  1.00  0.00    -0.273 OA
ATOM     15  H1  UNL     1      28.797 -24.124   5.023  1.00  0.00     0.163 HD
BRANCH  13  16
HETATM   16  C5  UNL     1      29.013 -26.375   6.436  1.00  0.00     0.085 C 
BRANCH  16  17
HETATM   17  C3  UNL     1      27.984 -27.410   6.231  1.00  0.00    -0.006 C 
HETATM   18  C4  UNL     1      26.943 -27.148   5.172  1.00  0.00     0.011 C 
BRANCH  17  19
HETATM   19  C2  UNL     1      27.339 -27.968   7.483  1.00  0.00     0.000 C 
HETATM   20  C1  UNL     1      26.367 -29.043   6.950  1.00  0.00     0.005 C 
ENDBRANCH  17  19
ENDBRANCH  16  17
BRANCH  16  21
HETATM   21  C18 UNL     1      30.091 -26.729   7.426  1.00  0.00    -0.009 C 
HETATM   22  C19 UNL     1      30.750 -28.015   6.955  1.00  0.00     0.010 C 
HETATM   23  C20 UNL     1      31.206 -25.686   7.480  1.00  0.00     0.010 C 
ENDBRANCH  16  21
ENDBRANCH  13  16
ENDBRANCH  10  12
ENDBRANCH   1  10
BRANCH   5  24
HETATM   24  C12 UNL     1      32.117 -21.045   7.148  1.00  0.00     0.183 C 
HETATM   25  O3  UNL     1      31.789 -20.591   8.295  1.00  0.00    -0.647 OA
HETATM   26  O4  UNL     1      33.380 -21.583   7.032  1.00  0.00    -0.647 OA
ENDBRANCH   5  24
BRANCH   7  27
HETATM   27  C15 UNL     1      29.404 -18.543   4.460  1.00  0.00     0.093 C 
HETATM   28  N3  UNL     1      28.449 -18.084   3.764  1.00  0.00    -0.284 N 
ATOM     29  H3  UNL     1      27.758 -18.730   3.384  1.00  0.00     0.192 HD
BRANCH  28  30
HETATM   30  O5  UNL     1      28.317 -16.736   3.506  1.00  0.00    -0.291 OA
ATOM     31  H5  UNL     1      28.741 -16.077   4.043  1.00  0.00     0.244 HD
ENDBRANCH  28  30
ENDBRANCH   7  27
TORSDOF 9
ENDMDL
MODEL 3
REMARK VINA RESULT: -6.036951880      3.050      7.618
REMARK  9 active torsions:
REMARK  status: ('A' for Active; 'I' for Inactive)
REMARK    1  A    between atoms: C2_2  and  C3_3 
REMARK    2  A    between atoms: C3_3  and  C5_5 
REMARK    3  A    between atoms: C5_5  and  C6_6 
REMARK    4  A    between atoms: C5_5  and  C18_29 
REMARK       I    between atoms: C6_6  and  N1_8 
REMARK    5  A    between atoms: N1_8  and  C7_10 
REMARK    6  A    between atoms: C7_10  and  C9_12 
REMARK       I    between atoms: C9_12  and  N2_14 
REMARK    7  A    between atoms: C11_16  and  C12_17 
REMARK    8  A    between atoms: C14_21  and  C15_22 
REMARK    9  A    between atoms: N3_23  and  O5_25 
ROOT
HETATM    1  C9  UNL     1      32.011 -21.691   5.811  1.00  0.00     0.242 C 
HETATM    2  O2  UNL     1      31.512 -20.520   5.733  1.00  0.00    -0.271 OA
HETATM    3  N2  UNL     1      32.989 -22.008   6.790  1.00  0.00    -0.344 N 
HETATM    4  C10 UNL     1      33.560 -23.308   7.069  1.00  0.00     0.147 C 
HETATM    5  C11 UNL     1      34.480 -23.064   8.258  1.00  0.00     0.067 C 
HETATM    6  C13 UNL     1      33.638 -22.707   9.442  1.00  0.00     0.034 C 
HETATM    7  C14 UNL     1      33.097 -21.336   9.074  1.00  0.00     0.050 C 
HETATM    8  C16 UNL     1      33.622 -21.061   7.680  1.00  0.00     0.097 C 
HETATM    9  C17 UNL     1      35.013 -21.689   7.835  1.00  0.00     0.048 C 
ENDROOT
BRANCH   1  10
HETATM   10  C7  UNL     1      31.564 -22.721   4.863  1.00  0.00     0.172 C 
HETATM   11  C8  UNL     1      30.734 -21.955   3.768  1.00  0.00     0.042 C 
BRANCH  10  12
HETATM   12  N1  UNL     1      30.611 -23.643   5.487  1.00  0.00    -0.348 N 
HETATM   13  C6  UNL     1      30.715 -25.019   5.257  1.00  0.00     0.223 C 
HETATM   14  O1  UNL     1      31.624 -25.412   4.488  1.00  0.00    -0.273 OA
ATOM     15  H1  UNL     1      29.871 -23.281   6.088  1.00  0.00     0.163 HD
BRANCH  13  16
HETATM   16  C5  UNL     1      29.773 -25.941   5.927  1.00  0.00     0.085 C 
BRANCH  16  17
HETATM   17  C3  UNL     1      28.765 -26.418   4.964  1.00  0.00    -0.006 C 
HETATM   18  C4  UNL     1      29.015 -26.133   3.505  1.00  0.00     0.011 C 
BRANCH  17  19
HETATM   19  C2  UNL     1      27.318 -26.141   5.318  1.00  0.00     0.000 C 
HETATM   20  C1  UNL     1      26.606 -27.482   5.038  1.00  0.00     0.005 C 
ENDBRANCH  17  19
ENDBRANCH  16  17
BRANCH  16  21
HETATM   21  C18 UNL     1      30.571 -27.021   6.610  1.00  0.00    -0.009 C 
HETATM   22  C19 UNL     1      31.414 -26.364   7.690  1.00  0.00     0.010 C 
HETATM   23  C20 UNL     1      29.687 -28.036   7.334  1.00  0.00     0.010 C 
ENDBRANCH  16  21
ENDBRANCH  13  16
ENDBRANCH  10  12
ENDBRANCH   1  10
BRANCH   5  24
HETATM   24  C12 UNL     1      35.481 -24.071   8.476  1.00  0.00     0.183 C 
HETATM   25  O3  UNL     1      36.699 -23.951   8.115  1.00  0.00    -0.647 OA
HETATM   26  O4  UNL     1      35.135 -25.244   9.111  1.00  0.00    -0.647 OA
ENDBRANCH   5  24
BRANCH   7  27
HETATM   27  C15 UNL     1      33.477 -20.276  10.032  1.00  0.00     0.093 C 
HETATM   28  N3  UNL     1      34.317 -20.478  10.961  1.00  0.00    -0.284 N 
ATOM     29  H3  UNL     1      34.743 -21.400  11.050  1.00  0.00     0.192 HD
BRANCH  28  30
HETATM   30  O5  UNL     1      34.673 -19.488  11.852  1.00  0.00    -0.291 OA
ATOM     31  H5  UNL     1      35.099 -19.684  12.678  1.00  0.00     0.244 HD
ENDBRANCH  28  30
ENDBRANCH   7  27
TORSDOF 9
ENDMDL
MODEL 4
REMARK VINA RESULT: -5.961325281      2.729      4.628
REMARK  9 active torsions:
REMARK  status: ('A' for Active; 'I' for Inactive)
REMARK    1  A    between atoms: C2_2  and  C3_3 
REMARK    2  A    between atoms: C3_3  and  C5_5 
REMARK    3  A    between atoms: C5_5  and  C6_6 
REMARK    4  A    between atoms: C5_5  and  C18_29 
REMARK       I    between atoms: C6_6  and  N1_8 
REMARK    5  A    between atoms: N1_8  and  C7_10 
REMARK    6  A    between atoms: C7_10  and  C9_12 
REMARK       I    between atoms: C9_12  and  N2_14 
REMARK    7  A    between atoms: C11_16  and  C12_17 
REMARK    8  A    between atoms: C14_21  and  C15_22 
REMARK    9  A    between atoms: N3_23  and  O5_25 
ROOT
HETATM    1  C9  UNL     1      31.809 -25.674   7.197  1.00  0.00     0.242 C 
HETATM    2  O2  UNL     1      31.766 -26.324   8.294  1.00  0.00    -0.271 OA
HETATM    3  N2  UNL     1      30.918 -25.970   6.133  1.00  0.00    -0.344 N 
HETATM    4  C10 UNL     1      30.775 -25.251   4.884  1.00  0.00     0.147 C 
HETATM    5  C11 UNL     1      29.627 -25.958   4.175  1.00  0.00     0.067 C 
HETATM    6  C13 UNL     1      28.371 -25.713   4.951  1.00  0.00     0.034 C 
HETATM    7  C14 UNL     1      28.598 -26.509   6.226  1.00  0.00     0.050 C 
HETATM    8  C16 UNL     1      29.994 -27.081   6.096  1.00  0.00     0.097 C 
HETATM    9  C17 UNL     1      29.971 -27.393   4.594  1.00  0.00     0.048 C 
ENDROOT
BRANCH   1  10
HETATM   10  C7  UNL     1      32.807 -24.606   7.041  1.00  0.00     0.172 C 
HETATM   11  C8  UNL     1      34.008 -25.012   7.972  1.00  0.00     0.042 C 
BRANCH  10  12
HETATM   12  N1  UNL     1      32.320 -23.336   7.581  1.00  0.00    -0.348 N 
HETATM   13  C6  UNL     1      32.355 -22.180   6.793  1.00  0.00     0.223 C 
HETATM   14  O1  UNL     1      32.839 -22.278   5.641  1.00  0.00    -0.273 OA
ATOM     15  H1  UNL     1      31.954 -23.293   8.532  1.00  0.00     0.163 HD
BRANCH  13  16
HETATM   16  C5  UNL     1      31.819 -20.913   7.337  1.00  0.00     0.085 C 
BRANCH  16  17
HETATM   17  C3  UNL     1      32.836 -20.256   8.177  1.00  0.00    -0.006 C 
HETATM   18  C4  UNL     1      34.265 -20.310   7.699  1.00  0.00     0.011 C 
BRANCH  17  19
HETATM   19  C2  UNL     1      32.762 -20.542   9.663  1.00  0.00     0.000 C 
HETATM   20  C1  UNL     1      34.114 -21.217   9.977  1.00  0.00     0.005 C 
ENDBRANCH  17  19
ENDBRANCH  16  17
BRANCH  16  21
HETATM   21  C18 UNL     1      31.301 -20.085   6.189  1.00  0.00    -0.009 C 
HETATM   22  C19 UNL     1      29.783 -20.134   6.228  1.00  0.00     0.010 C 
HETATM   23  C20 UNL     1      31.673 -18.609   6.315  1.00  0.00     0.010 C 
ENDBRANCH  16  21
ENDBRANCH  13  16
ENDBRANCH  10  12
ENDBRANCH   1  10
BRANCH   5  24
HETATM   24  C12 UNL     1      29.548 -25.733   2.760  1.00  0.00     0.183 C 
HETATM   25  O3  UNL     1      29.117 -24.651   2.236  1.00  0.00    -0.647 OA
HETATM   26  O4  UNL     1      29.956 -26.722   1.892  1.00  0.00    -0.647 OA
ENDBRANCH   5  24
BRANCH   7  27
HETATM   27  C15 UNL     1      27.583 -27.559   6.453  1.00  0.00     0.093 C 
HETATM   28  N3  UNL     1      27.839 -28.611   7.113  1.00  0.00    -0.284 N 
ATOM     29  H3  UNL     1      28.775 -28.737   7.500  1.00  0.00     0.192 HD
BRANCH  28  30
HETATM   30  O5  UNL     1      26.891 -29.589   7.326  1.00  0.00    -0.291 OA
ATOM     31  H5  UNL     1      27.041 -30.496   7.087  1.00  0.00     0.244 HD
ENDBRANCH  28  30
ENDBRANCH   7  27
TORSDOF 9
ENDMDL
MODEL 5
REMARK VINA RESULT: -5.954764078      3.150      7.533
REMARK  9 active torsions:
REMARK  status: ('A' for Active; 'I' for Inactive)
REMARK    1  A    between atoms: C2_2  and  C3_3 
REMARK    2  A    between atoms: C3_3  and  C5_5 
REMARK    3  A    between atoms: C5_5  and  C6_6 
REMARK    4  A    between atoms: C5_5  and  C18_29 
REMARK       I    between atoms: C6_6  and  N1_8 
REMARK    5  A    between atoms: N1_8  and  C7_10 
REMARK    6  A    between atoms: C7_10  and  C9_12 
REMARK       I    between atoms: C9_12  and  N2_14 
REMARK    7  A    between atoms: C11_16  and  C12_17 
REMARK    8  A    between atoms: C14_21  and  C15_22 
REMARK    9  A    between atoms: N3_23  and  O5_25 
ROOT
HETATM    1  C9  UNL     1      32.357 -21.883   6.947  1.00  0.00     0.242 C 
HETATM    2  O2  UNL     1      31.603 -21.284   7.784  1.00  0.00    -0.271 OA
HETATM    3  N2  UNL     1      33.692 -22.233   7.282  1.00  0.00    -0.344 N 
HETATM    4  C10 UNL     1      34.621 -23.005   6.486  1.00  0.00     0.147 C 
HETATM    5  C11 UNL     1      35.854 -23.133   7.370  1.00  0.00     0.067 C 
HETATM    6  C13 UNL     1      35.502 -23.981   8.552  1.00  0.00     0.034 C 
HETATM    7  C14 UNL     1      34.546 -23.096   9.333  1.00  0.00     0.050 C 
HETATM    8  C16 UNL     1      34.381 -21.847   8.492  1.00  0.00     0.097 C 
HETATM    9  C17 UNL     1      35.823 -21.727   7.982  1.00  0.00     0.048 C 
ENDROOT
BRANCH   1  10
HETATM   10  C7  UNL     1      31.828 -22.207   5.615  1.00  0.00     0.172 C 
HETATM   11  C8  UNL     1      30.857 -21.025   5.248  1.00  0.00     0.042 C 
BRANCH  10  12
HETATM   12  N1  UNL     1      30.978 -23.399   5.653  1.00  0.00    -0.348 N 
HETATM   13  C6  UNL     1      31.389 -24.573   5.012  1.00  0.00     0.223 C 
HETATM   14  O1  UNL     1      32.481 -24.546   4.395  1.00  0.00    -0.273 OA
ATOM     15  H1  UNL     1      30.086 -23.374   6.147  1.00  0.00     0.163 HD
BRANCH  13  16
HETATM   16  C5  UNL     1      30.541 -25.782   5.096  1.00  0.00     0.085 C 
BRANCH  16  17
HETATM   17  C3  UNL     1      30.475 -26.255   6.490  1.00  0.00    -0.006 C 
HETATM   18  C4  UNL     1      31.394 -25.596   7.486  1.00  0.00     0.011 C 
BRANCH  17  19
HETATM   19  C2  UNL     1      30.470 -27.758   6.685  1.00  0.00     0.000 C 
HETATM   20  C1  UNL     1      29.550 -27.969   7.907  1.00  0.00     0.005 C 
ENDBRANCH  17  19
ENDBRANCH  16  17
BRANCH  16  21
HETATM   21  C18 UNL     1      29.210 -25.472   4.459  1.00  0.00    -0.009 C 
HETATM   22  C19 UNL     1      29.237 -26.015   3.040  1.00  0.00     0.010 C 
HETATM   23  C20 UNL     1      28.048 -26.180   5.154  1.00  0.00     0.010 C 
ENDBRANCH  16  21
ENDBRANCH  13  16
ENDBRANCH  10  12
ENDBRANCH   1  10
BRANCH   5  24
HETATM   24  C12 UNL     1      37.068 -23.479   6.685  1.00  0.00     0.183 C 
HETATM   25  O3  UNL     1      37.310 -23.172   5.470  1.00  0.00    -0.647 OA
HETATM   26  O4  UNL     1      38.046 -24.183   7.353  1.00  0.00    -0.647 OA
ENDBRANCH   5  24
BRANCH   7  27
HETATM   27  C15 UNL     1      35.013 -22.789  10.702  1.00  0.00     0.093 C 
HETATM   28  N3  UNL     1      35.500 -23.680  11.462  1.00  0.00    -0.284 N 
ATOM     29  H3  UNL     1      35.570 -24.638  11.120  1.00  0.00     0.192 HD
BRANCH  28  30
HETATM   30  O5  UNL     1      35.937 -23.392  12.737  1.00  0.00    -0.291 OA
ATOM     31  H5  UNL     1      36.356 -22.566  12.951  1.00  0.00     0.244 HD
ENDBRANCH  28  30
ENDBRANCH   7  27
TORSDOF 9
ENDMDL
