MODEL 1
REMARK VINA RESULT: -5.664052959      0.000      0.000
REMARK  0 active torsions:
REMARK  status: ('A' for Active; 'I' for Inactive)
ROOT
HETATM    1  N1  UNL     1      -2.694   4.386 -10.919  1.00  0.00    -0.073 NA
HETATM    2  C1  UNL     1      -1.326   4.418 -11.296  1.00  0.00     0.168 C 
HETATM    3  N2  UNL     1      -0.671   5.495 -11.521  1.00  0.00    -0.284 N 
ATOM      4  H2  UNL     1      -1.164   6.382 -11.424  1.00  0.00     0.188 HD
HETATM    5  N3  UNL     1       0.679   5.531 -11.891  1.00  0.00    -0.321 N 
HETATM    6  C2  UNL     1       1.039   6.597 -12.789  1.00  0.00     0.143 C 
HETATM    7  C3  UNL     1       2.439   7.066 -12.709  1.00  0.00     0.021 C 
HETATM    8  C4  UNL     1       3.421   6.110 -12.137  1.00  0.00     0.004 C 
HETATM    9  C5  UNL     1       2.875   4.709 -12.359  1.00  0.00     0.028 C 
HETATM   10  C6  UNL     1       1.653   4.603 -11.432  1.00  0.00     0.112 C 
HETATM   11  C7  UNL     1       1.268   3.172 -11.429  1.00  0.00     0.108 C 
HETATM   12  S1  UNL     1      -0.491   2.869 -11.466  1.00  0.00    -0.094 SA
ENDROOT
TORSDOF 0
ENDMDL
MODEL 2
REMARK VINA RESULT: -5.662039141      2.275      4.517
REMARK  0 active torsions:
REMARK  status: ('A' for Active; 'I' for Inactive)
ROOT
HETATM    1  N1  UNL     1       4.619   5.781 -12.361  1.00  0.00    -0.073 NA
HETATM    2  C1  UNL     1       3.210   5.628 -12.273  1.00  0.00     0.168 C 
HETATM    3  N2  UNL     1       2.632   4.573 -11.835  1.00  0.00    -0.284 N 
ATOM      4  H2  UNL     1       3.220   3.796 -11.532  1.00  0.00     0.188 HD
HETATM    5  N3  UNL     1       1.244   4.418 -11.745  1.00  0.00    -0.321 N 
HETATM    6  C2  UNL     1       0.760   3.082 -11.979  1.00  0.00     0.143 C 
HETATM    7  C3  UNL     1      -0.508   2.726 -11.308  1.00  0.00     0.021 C 
HETATM    8  C4  UNL     1      -1.387   3.858 -10.919  1.00  0.00     0.004 C 
HETATM    9  C5  UNL     1      -1.068   5.021 -11.844  1.00  0.00     0.028 C 
HETATM   10  C6  UNL     1       0.344   5.477 -11.443  1.00  0.00     0.112 C 
HETATM   11  C7  UNL     1       0.568   6.766 -12.140  1.00  0.00     0.108 C 
HETATM   12  S1  UNL     1       2.208   6.981 -12.810  1.00  0.00    -0.094 SA
ENDROOT
TORSDOF 0
ENDMDL
MODEL 3
REMARK VINA RESULT: -4.966737910      2.128      4.214
REMARK  0 active torsions:
REMARK  status: ('A' for Active; 'I' for Inactive)
ROOT
HETATM    1  N1  UNL     1       2.895   2.743 -11.940  1.00  0.00    -0.073 NA
HETATM    2  C1  UNL     1       1.855   3.708 -11.939  1.00  0.00     0.168 C 
HETATM    3  N2  UNL     1       0.677   3.489 -11.488  1.00  0.00    -0.284 N 
ATOM      4  H2  UNL     1       0.475   2.564 -11.107  1.00  0.00     0.188 HD
HETATM    5  N3  UNL     1      -0.352   4.438 -11.483  1.00  0.00    -0.321 N 
HETATM    6  C2  UNL     1      -1.676   3.907 -11.681  1.00  0.00     0.143 C 
HETATM    7  C3  UNL     1      -2.781   4.683 -11.079  1.00  0.00     0.021 C 
HETATM    8  C4  UNL     1      -2.506   6.117 -10.807  1.00  0.00     0.004 C 
HETATM    9  C5  UNL     1      -1.414   6.562 -11.767  1.00  0.00     0.028 C 
HETATM   10  C6  UNL     1      -0.145   5.832 -11.296  1.00  0.00     0.112 C 
HETATM   11  C7  UNL     1       0.978   6.450 -12.040  1.00  0.00     0.108 C 
HETATM   12  S1  UNL     1       2.220   5.302 -12.610  1.00  0.00    -0.094 SA
ENDROOT
TORSDOF 0
ENDMDL
MODEL 4
REMARK VINA RESULT: -4.915096355      1.749      3.903
REMARK  0 active torsions:
REMARK  status: ('A' for Active; 'I' for Inactive)
ROOT
HETATM    1  N1  UNL     1       3.666   5.020 -12.443  1.00  0.00    -0.073 NA
HETATM    2  C1  UNL     1       2.332   4.740 -12.047  1.00  0.00     0.168 C 
HETATM    3  N2  UNL     1       1.363   5.568 -12.162  1.00  0.00    -0.284 N 
ATOM      4  H2  UNL     1       1.562   6.485 -12.563  1.00  0.00     0.188 HD
HETATM    5  N3  UNL     1       0.046   5.295 -11.774  1.00  0.00    -0.321 N 
HETATM    6  C2  UNL     1      -0.688   6.422 -11.262  1.00  0.00     0.143 C 
HETATM    7  C3  UNL     1      -2.155   6.375 -11.438  1.00  0.00     0.021 C 
HETATM    8  C4  UNL     1      -2.751   5.028 -11.628  1.00  0.00     0.004 C 
HETATM    9  C5  UNL     1      -1.816   4.020 -10.980  1.00  0.00     0.028 C 
HETATM   10  C6  UNL     1      -0.560   4.012 -11.867  1.00  0.00     0.112 C 
HETATM   11  C7  UNL     1       0.248   2.854 -11.416  1.00  0.00     0.108 C 
HETATM   12  S1  UNL     1       2.007   3.149 -11.348  1.00  0.00    -0.094 SA
ENDROOT
TORSDOF 0
ENDMDL
MODEL 5
REMARK VINA RESULT: -4.635669308      1.621      2.355
REMARK  0 active torsions:
REMARK  status: ('A' for Active; 'I' for Inactive)
ROOT
HETATM    1  N1  UNL     1      -0.888   1.660 -10.818  1.00  0.00    -0.073 NA
HETATM    2  C1  UNL     1      -0.459   2.986 -11.090  1.00  0.00     0.168 C 
HETATM    3  N2  UNL     1       0.730   3.292 -11.453  1.00  0.00    -0.284 N 
ATOM      4  H2  UNL     1       1.409   2.537 -11.551  1.00  0.00     0.188 HD
HETATM    5  N3  UNL     1       1.157   4.597 -11.724  1.00  0.00    -0.321 N 
HETATM    6  C2  UNL     1       2.525   4.878 -11.374  1.00  0.00     0.143 C 
HETATM    7  C3  UNL     1       3.192   5.933 -12.167  1.00  0.00     0.021 C 
HETATM    8  C4  UNL     1       2.301   6.912 -12.840  1.00  0.00     0.004 C 
HETATM    9  C5  UNL     1       1.001   6.960 -12.054  1.00  0.00     0.028 C 
HETATM   10  C6  UNL     1       0.331   5.599 -12.303  1.00  0.00     0.112 C 
HETATM   11  C7  UNL     1      -1.047   5.721 -11.774  1.00  0.00     0.108 C 
HETATM   12  S1  UNL     1      -1.647   4.281 -10.906  1.00  0.00    -0.094 SA
ENDROOT
TORSDOF 0
ENDMDL
