MODEL 1
REMARK VINA RESULT: -8.034617642      0.000      0.000
REMARK  0 active torsions:
REMARK  status: ('A' for Active; 'I' for Inactive)
ROOT
HETATM    1  C1  UNL     1      26.577  35.328  47.478  1.00  0.00     0.002 C 
HETATM    2  C2  UNL     1      26.303  36.372  46.471  1.00  0.00     0.003 C 
HETATM    3  C3  UNL     1      25.568  35.962  45.266  1.00  0.00     0.037 C 
HETATM    4  C4  UNL     1      24.578  34.875  45.410  1.00  0.00     0.191 C 
HETATM    5  O1  UNL     1      23.282  35.360  45.713  1.00  0.00    -0.231 OA
HETATM    6  O2  UNL     1      22.486  34.307  45.579  1.00  0.00    -0.198 OA
HETATM    7  C5  UNL     1      22.610  33.411  46.621  1.00  0.00     0.275 C 
HETATM    8  C6  UNL     1      21.365  33.431  47.448  1.00  0.00     0.101 C 
HETATM    9  C7  UNL     1      21.164  32.177  48.260  1.00  0.00     0.200 C 
HETATM   10  O3  UNL     1      21.240  31.019  47.518  1.00  0.00    -0.286 OA
HETATM   11  N1  UNL     1      21.601  31.203  46.242  1.00  0.00    -0.096 NA
HETATM   12  C8  UNL     1      22.825  31.987  46.142  1.00  0.00     0.214 C 
HETATM   13  N2  UNL     1      23.801  33.776  47.375  1.00  0.00    -0.032 N 
ATOM     14  H21 UNL     1      23.986  33.165  48.171  1.00  0.00     0.281 HD
ATOM     15  H22 UNL     1      23.699  34.640  47.909  1.00  0.00     0.281 HD
HETATM   16  C9  UNL     1      24.895  33.813  46.389  1.00  0.00     0.221 C 
HETATM   17  C10 UNL     1      26.202  33.939  47.082  1.00  0.00     0.036 C 
ENDROOT
TORSDOF 0
ENDMDL
MODEL 2
REMARK VINA RESULT: -7.326672350      2.495      3.162
REMARK  0 active torsions:
REMARK  status: ('A' for Active; 'I' for Inactive)
ROOT
HETATM    1  C1  UNL     1      26.688  36.951  44.747  1.00  0.00     0.002 C 
HETATM    2  C2  UNL     1      27.374  36.025  43.822  1.00  0.00     0.003 C 
HETATM    3  C3  UNL     1      27.946  34.803  44.402  1.00  0.00     0.037 C 
HETATM    4  C4  UNL     1      27.257  34.215  45.568  1.00  0.00     0.191 C 
HETATM    5  O1  UNL     1      26.278  33.262  45.195  1.00  0.00    -0.231 OA
HETATM    6  O2  UNL     1      25.927  32.673  46.331  1.00  0.00    -0.198 OA
HETATM    7  C5  UNL     1      25.129  33.475  47.121  1.00  0.00     0.275 C 
HETATM    8  C6  UNL     1      23.743  32.916  47.161  1.00  0.00     0.101 C 
HETATM    9  C7  UNL     1      22.948  33.370  48.357  1.00  0.00     0.200 C 
HETATM   10  O3  UNL     1      23.591  33.168  49.558  1.00  0.00    -0.286 OA
HETATM   11  N1  UNL     1      24.849  32.725  49.443  1.00  0.00    -0.096 NA
HETATM   12  C8  UNL     1      25.632  33.568  48.550  1.00  0.00     0.214 C 
HETATM   13  N2  UNL     1      25.186  34.823  46.576  1.00  0.00    -0.032 N 
ATOM     14  H21 UNL     1      24.628  35.500  47.098  1.00  0.00     0.281 HD
ATOM     15  H22 UNL     1      24.697  34.927  45.686  1.00  0.00     0.281 HD
HETATM   16  C9  UNL     1      26.618  35.161  46.509  1.00  0.00     0.221 C 
HETATM   17  C10 UNL     1      26.788  36.602  46.194  1.00  0.00     0.036 C 
ENDROOT
TORSDOF 0
ENDMDL
MODEL 3
REMARK VINA RESULT: -7.176312767      2.051      2.742
REMARK  0 active torsions:
REMARK  status: ('A' for Active; 'I' for Inactive)
ROOT
HETATM    1  C1  UNL     1      26.998  37.257  44.774  1.00  0.00     0.002 C 
HETATM    2  C2  UNL     1      27.693  36.384  43.806  1.00  0.00     0.003 C 
HETATM    3  C3  UNL     1      27.927  34.991  44.212  1.00  0.00     0.037 C 
HETATM    4  C4  UNL     1      26.930  34.364  45.103  1.00  0.00     0.191 C 
HETATM    5  O1  UNL     1      25.903  33.704  44.385  1.00  0.00    -0.231 OA
HETATM    6  O2  UNL     1      25.238  33.013  45.303  1.00  0.00    -0.198 OA
HETATM    7  C5  UNL     1      24.442  33.813  46.098  1.00  0.00     0.275 C 
HETATM    8  C6  UNL     1      23.003  33.545  45.792  1.00  0.00     0.101 C 
HETATM    9  C7  UNL     1      22.070  33.940  46.907  1.00  0.00     0.200 C 
HETATM   10  O3  UNL     1      22.417  33.412  48.131  1.00  0.00    -0.286 OA
HETATM   11  N1  UNL     1      23.581  32.751  48.138  1.00  0.00    -0.096 NA
HETATM   12  C8  UNL     1      24.656  33.559  47.578  1.00  0.00     0.214 C 
HETATM   13  N2  UNL     1      24.829  35.195  45.856  1.00  0.00    -0.032 N 
ATOM     14  H21 UNL     1      24.297  35.872  46.405  1.00  0.00     0.281 HD
ATOM     15  H22 UNL     1      24.552  35.544  44.938  1.00  0.00     0.281 HD
HETATM   16  C9  UNL     1      26.281  35.246  46.097  1.00  0.00     0.221 C 
HETATM   17  C10 UNL     1      26.747  36.655  46.116  1.00  0.00     0.036 C 
ENDROOT
TORSDOF 0
ENDMDL
MODEL 4
REMARK VINA RESULT: -7.123352864      1.525      1.782
REMARK  0 active torsions:
REMARK  status: ('A' for Active; 'I' for Inactive)
ROOT
HETATM    1  C1  UNL     1      27.002  32.908  45.046  1.00  0.00     0.002 C 
HETATM    2  C2  UNL     1      27.303  34.351  45.139  1.00  0.00     0.003 C 
HETATM    3  C3  UNL     1      26.220  35.284  44.796  1.00  0.00     0.037 C 
HETATM    4  C4  UNL     1      24.836  34.855  45.085  1.00  0.00     0.191 C 
HETATM    5  O1  UNL     1      24.407  35.247  46.376  1.00  0.00    -0.231 OA
HETATM    6  O2  UNL     1      23.102  35.000  46.389  1.00  0.00    -0.198 OA
HETATM    7  C5  UNL     1      22.817  33.654  46.486  1.00  0.00     0.275 C 
HETATM    8  C6  UNL     1      22.225  33.365  47.828  1.00  0.00     0.101 C 
HETATM    9  C7  UNL     1      21.413  32.095  47.864  1.00  0.00     0.200 C 
HETATM   10  O3  UNL     1      20.452  32.025  46.880  1.00  0.00    -0.286 OA
HETATM   11  N1  UNL     1      20.492  33.029  45.996  1.00  0.00    -0.096 NA
HETATM   12  C8  UNL     1      21.826  33.192  45.433  1.00  0.00     0.214 C 
HETATM   13  N2  UNL     1      24.052  32.924  46.238  1.00  0.00    -0.032 N 
ATOM     14  H21 UNL     1      23.945  31.910  46.282  1.00  0.00     0.281 HD
ATOM     15  H22 UNL     1      24.734  33.005  46.992  1.00  0.00     0.281 HD
HETATM   16  C9  UNL     1      24.543  33.412  44.938  1.00  0.00     0.221 C 
HETATM   17  C10 UNL     1      25.669  32.567  44.468  1.00  0.00     0.036 C 
ENDROOT
TORSDOF 0
ENDMDL
MODEL 5
REMARK VINA RESULT: -6.945306357      2.294      2.905
REMARK  0 active torsions:
REMARK  status: ('A' for Active; 'I' for Inactive)
ROOT
HETATM    1  C1  UNL     1      27.015  37.443  45.070  1.00  0.00     0.002 C 
HETATM    2  C2  UNL     1      27.881  36.931  43.989  1.00  0.00     0.003 C 
HETATM    3  C3  UNL     1      28.190  35.493  44.005  1.00  0.00     0.037 C 
HETATM    4  C4  UNL     1      27.161  34.582  44.546  1.00  0.00     0.191 C 
HETATM    5  O1  UNL     1      26.277  34.111  43.546  1.00  0.00    -0.231 OA
HETATM    6  O2  UNL     1      25.580  33.147  44.136  1.00  0.00    -0.198 OA
HETATM    7  C5  UNL     1      24.638  33.636  45.018  1.00  0.00     0.275 C 
HETATM    8  C6  UNL     1      23.269  33.397  44.469  1.00  0.00     0.101 C 
HETATM    9  C7  UNL     1      22.192  33.397  45.523  1.00  0.00     0.200 C 
HETATM   10  O3  UNL     1      22.451  32.551  46.578  1.00  0.00    -0.286 OA
HETATM   11  N1  UNL     1      23.660  31.978  46.543  1.00  0.00    -0.096 NA
HETATM   12  C8  UNL     1      24.715  32.969  46.379  1.00  0.00     0.214 C 
HETATM   13  N2  UNL     1      24.928  35.046  45.233  1.00  0.00    -0.032 N 
ATOM     14  H21 UNL     1      24.286  35.503  45.881  1.00  0.00     0.281 HD
ATOM     15  H22 UNL     1      24.722  35.635  44.426  1.00  0.00     0.281 HD
HETATM   16  C9  UNL     1      26.337  35.098  45.661  1.00  0.00     0.221 C 
HETATM   17  C10 UNL     1      26.675  36.461  46.141  1.00  0.00     0.036 C 
ENDROOT
TORSDOF 0
ENDMDL
