MODEL 1
REMARK VINA RESULT: -7.141244060      0.000      0.000
REMARK  1 active torsions:
REMARK  status: ('A' for Active; 'I' for Inactive)
REMARK    1  A    between atoms: C5_6  and  O2_7 
ROOT
HETATM    1  C1  UNL     1      24.516  33.062  44.783  1.00  0.00     0.078 C 
HETATM    2  C2  UNL     1      25.680  32.624  45.631  1.00  0.00     0.159 C 
HETATM    3  C3  UNL     1      25.864  31.123  45.350  1.00  0.00     0.078 C 
HETATM    4  O1  UNL     1      25.289  32.712  46.960  1.00  0.00    -0.352 OA
HETATM    5  C4  UNL     1      26.116  33.510  47.720  1.00  0.00     0.224 C 
HETATM    6  C5  UNL     1      25.914  34.949  47.279  1.00  0.00     0.241 C 
HETATM    7  N1  UNL     1      26.863  35.313  46.285  1.00  0.00    -0.360 N 
HETATM    8  C6  UNL     1      27.139  36.693  46.169  1.00  0.00     0.122 C 
HETATM    9  C7  UNL     1      26.632  37.359  44.940  1.00  0.00     0.020 C 
HETATM   10  C8  UNL     1      27.784  37.393  43.928  1.00  0.00     0.002 C 
HETATM   11  C9  UNL     1      27.812  36.023  43.284  1.00  0.00     0.004 C 
HETATM   12  C10 UNL     1      28.074  34.922  44.274  1.00  0.00     0.054 C 
HETATM   13  C11 UNL     1      26.807  34.572  45.073  1.00  0.00     0.224 C 
HETATM   14  O3  UNL     1      26.862  33.235  45.340  1.00  0.00    -0.332 OA
ENDROOT
BRANCH   6  15
HETATM   15  O2  UNL     1      26.164  35.747  48.415  1.00  0.00    -0.375 OA
ATOM     16  H2  UNL     1      26.692  36.477  48.114  1.00  0.00     0.212 HD
ENDBRANCH   6  15
TORSDOF 1
ENDMDL
MODEL 2
REMARK VINA RESULT: -6.807713557      1.440      3.059
REMARK  1 active torsions:
REMARK  status: ('A' for Active; 'I' for Inactive)
REMARK    1  A    between atoms: C5_6  and  O2_7 
ROOT
HETATM    1  C1  UNL     1      26.533  32.997  47.848  1.00  0.00     0.078 C 
HETATM    2  C2  UNL     1      25.147  33.401  47.424  1.00  0.00     0.159 C 
HETATM    3  C3  UNL     1      24.310  33.448  48.713  1.00  0.00     0.078 C 
HETATM    4  O1  UNL     1      24.618  32.361  46.672  1.00  0.00    -0.352 OA
HETATM    5  C4  UNL     1      24.208  32.750  45.415  1.00  0.00     0.224 C 
HETATM    6  C5  UNL     1      25.446  33.077  44.598  1.00  0.00     0.241 C 
HETATM    7  N1  UNL     1      25.752  34.463  44.674  1.00  0.00    -0.360 N 
HETATM    8  C6  UNL     1      26.507  34.989  43.603  1.00  0.00     0.122 C 
HETATM    9  C7  UNL     1      27.910  35.371  43.919  1.00  0.00     0.020 C 
HETATM   10  C8  UNL     1      27.919  36.876  44.214  1.00  0.00     0.002 C 
HETATM   11  C9  UNL     1      27.461  37.020  45.649  1.00  0.00     0.004 C 
HETATM   12  C10 UNL     1      26.068  36.497  45.868  1.00  0.00     0.054 C 
HETATM   13  C11 UNL     1      26.056  34.962  45.970  1.00  0.00     0.224 C 
HETATM   14  O3  UNL     1      25.061  34.629  46.843  1.00  0.00    -0.332 OA
ENDROOT
BRANCH   6  15
HETATM   15  O2  UNL     1      25.120  32.788  43.257  1.00  0.00    -0.375 OA
ATOM     16  H2  UNL     1      25.481  31.929  43.075  1.00  0.00     0.212 HD
ENDBRANCH   6  15
TORSDOF 1
ENDMDL
MODEL 3
REMARK VINA RESULT: -6.423953305      2.765      4.952
REMARK  1 active torsions:
REMARK  status: ('A' for Active; 'I' for Inactive)
REMARK    1  A    between atoms: C5_6  and  O2_7 
ROOT
HETATM    1  C1  UNL     1      25.641  31.515  45.312  1.00  0.00     0.078 C 
HETATM    2  C2  UNL     1      25.595  33.018  45.358  1.00  0.00     0.159 C 
HETATM    3  C3  UNL     1      26.265  33.499  44.060  1.00  0.00     0.078 C 
HETATM    4  O1  UNL     1      26.430  33.433  46.387  1.00  0.00    -0.352 OA
HETATM    5  C4  UNL     1      25.794  34.221  47.322  1.00  0.00     0.224 C 
HETATM    6  C5  UNL     1      24.824  33.344  48.093  1.00  0.00     0.241 C 
HETATM    7  N1  UNL     1      23.527  33.391  47.512  1.00  0.00    -0.360 N 
HETATM    8  C6  UNL     1      22.452  33.078  48.374  1.00  0.00     0.122 C 
HETATM    9  C7  UNL     1      21.763  31.785  48.115  1.00  0.00     0.020 C 
HETATM   10  C8  UNL     1      20.534  32.086  47.250  1.00  0.00     0.002 C 
HETATM   11  C9  UNL     1      21.044  32.203  45.829  1.00  0.00     0.004 C 
HETATM   12  C10 UNL     1      22.036  33.320  45.659  1.00  0.00     0.054 C 
HETATM   13  C11 UNL     1      23.427  32.918  46.176  1.00  0.00     0.224 C 
HETATM   14  O3  UNL     1      24.343  33.552  45.386  1.00  0.00    -0.332 OA
ENDROOT
BRANCH   6  15
HETATM   15  O2  UNL     1      24.730  33.903  49.384  1.00  0.00    -0.375 OA
ATOM     16  H2  UNL     1      24.376  33.221  49.943  1.00  0.00     0.212 HD
ENDBRANCH   6  15
TORSDOF 1
ENDMDL
MODEL 4
REMARK VINA RESULT: -6.339273995      2.269      4.633
REMARK  1 active torsions:
REMARK  status: ('A' for Active; 'I' for Inactive)
REMARK    1  A    between atoms: C5_6  and  O2_7 
ROOT
HETATM    1  C1  UNL     1      26.814  33.964  45.426  1.00  0.00     0.078 C 
HETATM    2  C2  UNL     1      26.314  35.013  46.381  1.00  0.00     0.159 C 
HETATM    3  C3  UNL     1      26.961  36.334  45.932  1.00  0.00     0.078 C 
HETATM    4  O1  UNL     1      26.854  34.737  47.630  1.00  0.00    -0.352 OA
HETATM    5  C4  UNL     1      25.901  34.584  48.615  1.00  0.00     0.224 C 
HETATM    6  C5  UNL     1      25.153  33.291  48.347  1.00  0.00     0.241 C 
HETATM    7  N1  UNL     1      23.983  33.532  47.577  1.00  0.00    -0.360 N 
HETATM    8  C6  UNL     1      22.955  32.571  47.696  1.00  0.00     0.122 C 
HETATM    9  C7  UNL     1      22.723  31.713  46.503  1.00  0.00     0.020 C 
HETATM   10  C8  UNL     1      21.575  32.340  45.704  1.00  0.00     0.002 C 
HETATM   11  C9  UNL     1      22.195  33.457  44.892  1.00  0.00     0.004 C 
HETATM   12  C10 UNL     1      22.819  34.522  45.752  1.00  0.00     0.054 C 
HETATM   13  C11 UNL     1      24.194  34.080  46.282  1.00  0.00     0.224 C 
HETATM   14  O3  UNL     1      24.966  35.202  46.370  1.00  0.00    -0.332 OA
ENDROOT
BRANCH   6  15
HETATM   15  O2  UNL     1      24.739  32.809  49.606  1.00  0.00    -0.375 OA
ATOM     16  H2  UNL     1      25.363  32.136  49.851  1.00  0.00     0.212 HD
ENDBRANCH   6  15
TORSDOF 1
ENDMDL
MODEL 5
REMARK VINA RESULT: -6.332591855      1.923      4.290
REMARK  1 active torsions:
REMARK  status: ('A' for Active; 'I' for Inactive)
REMARK    1  A    between atoms: C5_6  and  O2_7 
ROOT
HETATM    1  C1  UNL     1      26.657  35.898  47.133  1.00  0.00     0.078 C 
HETATM    2  C2  UNL     1      26.194  35.946  45.701  1.00  0.00     0.159 C 
HETATM    3  C3  UNL     1      26.596  37.334  45.176  1.00  0.00     0.078 C 
HETATM    4  O1  UNL     1      24.806  35.935  45.707  1.00  0.00    -0.352 OA
HETATM    5  C4  UNL     1      24.266  34.904  44.969  1.00  0.00     0.224 C 
HETATM    6  C5  UNL     1      24.553  33.604  45.698  1.00  0.00     0.241 C 
HETATM    7  N1  UNL     1      25.752  33.008  45.218  1.00  0.00    -0.360 N 
HETATM    8  C6  UNL     1      25.865  31.613  45.401  1.00  0.00     0.122 C 
HETATM    9  C7  UNL     1      26.865  31.165  46.407  1.00  0.00     0.020 C 
HETATM   10  C8  UNL     1      28.155  30.825  45.651  1.00  0.00     0.002 C 
HETATM   11  C9  UNL     1      28.855  32.146  45.409  1.00  0.00     0.004 C 
HETATM   12  C10 UNL     1      28.039  33.089  44.568  1.00  0.00     0.054 C 
HETATM   13  C11 UNL     1      26.938  33.771  45.398  1.00  0.00     0.224 C 
HETATM   14  O3  UNL     1      26.771  35.024  44.882  1.00  0.00    -0.332 OA
ENDROOT
BRANCH   6  15
HETATM   15  O2  UNL     1      23.491  32.732  45.379  1.00  0.00    -0.375 OA
ATOM     16  H2  UNL     1      23.394  32.150  46.124  1.00  0.00     0.212 HD
ENDBRANCH   6  15
TORSDOF 1
ENDMDL
