MODEL 1
REMARK VINA RESULT: -5.134619470      0.000      0.000
REMARK  4 active torsions:
REMARK  status: ('A' for Active; 'I' for Inactive)
REMARK    1  A    between atoms: C5_5  and  O1_6 
REMARK    2  A    between atoms: O1_6  and  C6_7 
REMARK    3  A    between atoms: C6_7  and  C7_8 
REMARK    4  A    between atoms: C7_8  and  N1_9 
ROOT
HETATM    1  C1  UNL     1      13.459  99.562 157.202  1.00  0.00     0.011 C 
HETATM    2  C2  UNL     1      13.956  99.750 158.599  1.00  0.00    -0.008 C 
HETATM    3  C3  UNL     1      14.206 101.197 158.996  1.00  0.00    -0.007 C 
HETATM    4  C4  UNL     1      12.943 101.864 158.572  1.00  0.00     0.037 C 
HETATM    5  C5  UNL     1      11.915 100.895 159.191  1.00  0.00     0.126 C 
HETATM    6  C8  UNL     1      12.869  99.838 159.661  1.00  0.00     0.019 C 
HETATM    7  C9  UNL     1      13.882 100.712 160.416  1.00  0.00     0.012 C 
ENDROOT
BRANCH   5   8
HETATM    8  O1  UNL     1      11.316 101.460 160.305  1.00  0.00    -0.384 OA
BRANCH   8   9
HETATM    9  C6  UNL     1       9.943 101.619 160.142  1.00  0.00     0.195 C 
BRANCH   9  10
HETATM   10  C7  UNL     1       9.557 103.080 160.049  1.00  0.00     0.255 C 
BRANCH  10  11
HETATM   11  N1  UNL     1      10.535 103.883 160.737  1.00  0.00    -0.077 N 
ATOM     12  H13 UNL     1      10.417 103.849 161.749  1.00  0.00     0.274 HD
ATOM     13  H12 UNL     1      11.470 103.479 160.685  1.00  0.00     0.274 HD
ATOM     14  H11 UNL     1      10.508 104.837 160.378  1.00  0.00     0.274 HD
ENDBRANCH  10  11
ENDBRANCH   9  10
ENDBRANCH   8   9
ENDBRANCH   5   8
TORSDOF 4
ENDMDL
MODEL 2
REMARK VINA RESULT: -5.085322312      1.694      1.782
REMARK  4 active torsions:
REMARK  status: ('A' for Active; 'I' for Inactive)
REMARK    1  A    between atoms: C5_5  and  O1_6 
REMARK    2  A    between atoms: O1_6  and  C6_7 
REMARK    3  A    between atoms: C6_7  and  C7_8 
REMARK    4  A    between atoms: C7_8  and  N1_9 
ROOT
HETATM    1  C1  UNL     1      14.430  99.322 157.320  1.00  0.00     0.011 C 
HETATM    2  C2  UNL     1      13.833  99.309 158.690  1.00  0.00    -0.008 C 
HETATM    3  C3  UNL     1      14.353 100.394 159.621  1.00  0.00    -0.007 C 
HETATM    4  C4  UNL     1      14.230 101.617 158.780  1.00  0.00     0.037 C 
HETATM    5  C5  UNL     1      12.783 101.442 158.274  1.00  0.00     0.126 C 
HETATM    6  C8  UNL     1      12.524 100.073 158.829  1.00  0.00     0.019 C 
HETATM    7  C9  UNL     1      12.972 100.286 160.282  1.00  0.00     0.012 C 
ENDROOT
BRANCH   5   8
HETATM    8  O1  UNL     1      11.930 102.331 158.908  1.00  0.00    -0.384 OA
BRANCH   8   9
HETATM    9  C6  UNL     1      10.651 102.316 158.359  1.00  0.00     0.195 C 
BRANCH   9  10
HETATM   10  C7  UNL     1      10.096 103.715 158.197  1.00  0.00     0.255 C 
BRANCH  10  11
HETATM   11  N1  UNL     1       9.412 103.820 156.934  1.00  0.00    -0.077 N 
ATOM     12  H13 UNL     1       8.828 104.654 156.880  1.00  0.00     0.274 HD
ATOM     13  H12 UNL     1      10.049 104.039 156.168  1.00  0.00     0.274 HD
ATOM     14  H11 UNL     1       8.881 102.967 156.760  1.00  0.00     0.274 HD
ENDBRANCH  10  11
ENDBRANCH   9  10
ENDBRANCH   8   9
ENDBRANCH   5   8
TORSDOF 4
ENDMDL
MODEL 3
REMARK VINA RESULT: -4.917072347      1.273      1.451
REMARK  4 active torsions:
REMARK  status: ('A' for Active; 'I' for Inactive)
REMARK    1  A    between atoms: C5_5  and  O1_6 
REMARK    2  A    between atoms: O1_6  and  C6_7 
REMARK    3  A    between atoms: C6_7  and  C7_8 
REMARK    4  A    between atoms: C7_8  and  N1_9 
ROOT
HETATM    1  C1  UNL     1      14.295  99.309 157.223  1.00  0.00     0.011 C 
HETATM    2  C2  UNL     1      13.693  99.270 158.590  1.00  0.00    -0.008 C 
HETATM    3  C3  UNL     1      14.340 100.210 159.597  1.00  0.00    -0.007 C 
HETATM    4  C4  UNL     1      14.376 101.498 158.848  1.00  0.00     0.037 C 
HETATM    5  C5  UNL     1      12.922 101.543 158.336  1.00  0.00     0.126 C 
HETATM    6  C8  UNL     1      12.490 100.181 158.789  1.00  0.00     0.019 C 
HETATM    7  C9  UNL     1      12.952 100.228 160.253  1.00  0.00     0.012 C 
ENDROOT
BRANCH   5   8
HETATM    8  O1  UNL     1      12.183 102.483 159.036  1.00  0.00    -0.384 OA
BRANCH   8   9
HETATM    9  C6  UNL     1      10.916 102.670 158.492  1.00  0.00     0.195 C 
BRANCH   9  10
HETATM   10  C7  UNL     1       9.885 102.958 159.562  1.00  0.00     0.255 C 
BRANCH  10  11
HETATM   11  N1  UNL     1       9.601 101.751 160.295  1.00  0.00    -0.077 N 
ATOM     12  H13 UNL     1       9.852 101.831 161.280  1.00  0.00     0.274 HD
ATOM     13  H12 UNL     1       8.599 101.598 160.412  1.00  0.00     0.274 HD
ATOM     14  H11 UNL     1      10.060 100.960 159.844  1.00  0.00     0.274 HD
ENDBRANCH  10  11
ENDBRANCH   9  10
ENDBRANCH   8   9
ENDBRANCH   5   8
TORSDOF 4
ENDMDL
MODEL 4
REMARK VINA RESULT: -4.617756514      1.766      2.217
REMARK  4 active torsions:
REMARK  status: ('A' for Active; 'I' for Inactive)
REMARK    1  A    between atoms: C5_5  and  O1_6 
REMARK    2  A    between atoms: O1_6  and  C6_7 
REMARK    3  A    between atoms: C6_7  and  C7_8 
REMARK    4  A    between atoms: C7_8  and  N1_9 
ROOT
HETATM    1  C1  UNL     1      14.394  99.996 158.242  1.00  0.00     0.011 C 
HETATM    2  C2  UNL     1      13.069  99.704 158.868  1.00  0.00    -0.008 C 
HETATM    3  C3  UNL     1      12.935 100.155 160.315  1.00  0.00    -0.007 C 
HETATM    4  C4  UNL     1      13.423 101.562 160.253  1.00  0.00     0.037 C 
HETATM    5  C5  UNL     1      12.610 102.067 159.044  1.00  0.00     0.126 C 
HETATM    6  C8  UNL     1      11.999 100.761 158.632  1.00  0.00     0.019 C 
HETATM    7  C9  UNL     1      11.442 100.290 159.983  1.00  0.00     0.012 C 
ENDROOT
BRANCH   5   8
HETATM    8  O1  UNL     1      11.589 102.909 159.455  1.00  0.00    -0.384 OA
BRANCH   8   9
HETATM    9  C6  UNL     1      11.195 103.789 158.452  1.00  0.00     0.195 C 
BRANCH   9  10
HETATM   10  C7  UNL     1       9.704 103.722 158.203  1.00  0.00     0.255 C 
BRANCH  10  11
HETATM   11  N1  UNL     1       9.442 103.859 156.793  1.00  0.00    -0.077 N 
ATOM     12  H13 UNL     1       8.778 104.607 156.596  1.00  0.00     0.274 HD
ATOM     13  H12 UNL     1      10.243 104.238 156.289  1.00  0.00     0.274 HD
ATOM     14  H11 UNL     1       9.137 102.963 156.413  1.00  0.00     0.274 HD
ENDBRANCH  10  11
ENDBRANCH   9  10
ENDBRANCH   8   9
ENDBRANCH   5   8
TORSDOF 4
ENDMDL
MODEL 5
REMARK VINA RESULT: -4.615004063      1.832      2.632
REMARK  4 active torsions:
REMARK  status: ('A' for Active; 'I' for Inactive)
REMARK    1  A    between atoms: C5_5  and  O1_6 
REMARK    2  A    between atoms: O1_6  and  C6_7 
REMARK    3  A    between atoms: C6_7  and  C7_8 
REMARK    4  A    between atoms: C7_8  and  N1_9 
ROOT
HETATM    1  C1  UNL     1      14.098 100.851 160.788  1.00  0.00     0.011 C 
HETATM    2  C2  UNL     1      13.931 100.632 159.319  1.00  0.00    -0.008 C 
HETATM    3  C3  UNL     1      12.722  99.794 158.934  1.00  0.00    -0.007 C 
HETATM    4  C4  UNL     1      11.627 100.444 159.707  1.00  0.00     0.037 C 
HETATM    5  C5  UNL     1      11.890 101.919 159.340  1.00  0.00     0.126 C 
HETATM    6  C8  UNL     1      13.173 101.731 158.588  1.00  0.00     0.019 C 
HETATM    7  C9  UNL     1      12.757 100.604 157.631  1.00  0.00     0.012 C 
ENDROOT
BRANCH   5   8
HETATM    8  O1  UNL     1      10.933 102.382 158.451  1.00  0.00    -0.384 OA
BRANCH   8   9
HETATM    9  C6  UNL     1      10.696 103.746 158.594  1.00  0.00     0.195 C 
BRANCH   9  10
HETATM   10  C7  UNL     1       9.357 104.144 158.013  1.00  0.00     0.255 C 
BRANCH  10  11
HETATM   11  N1  UNL     1       9.380 103.974 156.583  1.00  0.00    -0.077 N 
ATOM     12  H13 UNL     1       8.701 103.282 156.267  1.00  0.00     0.274 HD
ATOM     13  H12 UNL     1       9.002 104.784 156.092  1.00  0.00     0.274 HD
ATOM     14  H11 UNL     1      10.328 103.750 156.281  1.00  0.00     0.274 HD
ENDBRANCH  10  11
ENDBRANCH   9  10
ENDBRANCH   8   9
ENDBRANCH   5   8
TORSDOF 4
ENDMDL
