MODEL 1
REMARK VINA RESULT: -4.379743159      0.000      0.000
REMARK  4 active torsions:
REMARK  status: ('A' for Active; 'I' for Inactive)
REMARK    1  A    between atoms: C2_2  and  N1_3 
REMARK    2  A    between atoms: C5_6  and  N2_7 
REMARK    3  A    between atoms: N2_7  and  C6_9 
REMARK    4  A    between atoms: C6_9  and  S1_10 
ROOT
HETATM    1  N1  UNL     1      13.113  99.764 158.649  1.00  0.00     0.090 N 
HETATM    2  C3  UNL     1      12.716 100.214 159.993  1.00  0.00     0.274 C 
HETATM    3  C4  UNL     1      12.043 101.529 159.873  1.00  0.00     0.057 C 
HETATM    4  C5  UNL     1      12.662 102.028 158.556  1.00  0.00     0.111 C 
HETATM    5  C8  UNL     1      12.532 100.773 157.750  1.00  0.00     0.297 C 
ENDROOT
BRANCH   4   6
HETATM    6  N2  UNL     1      11.807 103.072 158.017  1.00  0.00    -0.387 N 
ATOM      7  H2  UNL     1      12.176 103.736 157.336  1.00  0.00     0.159 HD
BRANCH   6   8
HETATM    8  C6  UNL     1      10.460 103.163 158.441  1.00  0.00     0.128 C 
BRANCH   8   9
HETATM    9  S1  UNL     1       9.338 104.068 157.691  1.00  0.00    -0.129 SA
HETATM   10  C7  UNL     1       7.742 104.310 158.589  1.00  0.00     0.096 C 
ENDBRANCH   8   9
ENDBRANCH   6   8
ENDBRANCH   4   6
BRANCH   1  11
HETATM   11  C2  UNL     1      14.552  99.804 158.518  1.00  0.00     0.268 C 
HETATM   12  C1  UNL     1      14.955  98.935 157.341  1.00  0.00     0.037 C 
ENDBRANCH   1  11
TORSDOF 4
ENDMDL
MODEL 2
REMARK VINA RESULT: -4.368622591      1.334      1.744
REMARK  4 active torsions:
REMARK  status: ('A' for Active; 'I' for Inactive)
REMARK    1  A    between atoms: C2_2  and  N1_3 
REMARK    2  A    between atoms: C5_6  and  N2_7 
REMARK    3  A    between atoms: N2_7  and  C6_9 
REMARK    4  A    between atoms: C6_9  and  S1_10 
ROOT
HETATM    1  N1  UNL     1      13.072  99.862 158.747  1.00  0.00     0.090 N 
HETATM    2  C3  UNL     1      12.360 100.136 160.005  1.00  0.00     0.274 C 
HETATM    3  C4  UNL     1      11.327 101.168 159.750  1.00  0.00     0.057 C 
HETATM    4  C5  UNL     1      11.940 101.864 158.522  1.00  0.00     0.111 C 
HETATM    5  C8  UNL     1      12.337 100.649 157.744  1.00  0.00     0.297 C 
ENDROOT
BRANCH   4   6
HETATM    6  N2  UNL     1      10.885 102.589 157.835  1.00  0.00    -0.387 N 
ATOM      7  H2  UNL     1      10.585 102.296 156.904  1.00  0.00     0.159 HD
BRANCH   6   8
HETATM    8  C6  UNL     1      10.275 103.701 158.462  1.00  0.00     0.128 C 
BRANCH   8   9
HETATM    9  S1  UNL     1      11.039 105.108 158.743  1.00  0.00    -0.129 SA
HETATM   10  C7  UNL     1      12.379 105.567 157.557  1.00  0.00     0.096 C 
ENDBRANCH   8   9
ENDBRANCH   6   8
ENDBRANCH   4   6
BRANCH   1  11
HETATM   11  C2  UNL     1      14.426 100.363 158.824  1.00  0.00     0.268 C 
HETATM   12  C1  UNL     1      15.345  99.387 158.114  1.00  0.00     0.037 C 
ENDBRANCH   1  11
TORSDOF 4
ENDMDL
MODEL 3
REMARK VINA RESULT: -4.274541474      1.562      2.017
REMARK  4 active torsions:
REMARK  status: ('A' for Active; 'I' for Inactive)
REMARK    1  A    between atoms: C2_2  and  N1_3 
REMARK    2  A    between atoms: C5_6  and  N2_7 
REMARK    3  A    between atoms: N2_7  and  C6_9 
REMARK    4  A    between atoms: C6_9  and  S1_10 
ROOT
HETATM    1  N1  UNL     1      13.790 101.260 158.955  1.00  0.00     0.090 N 
HETATM    2  C3  UNL     1      13.085 100.806 157.746  1.00  0.00     0.274 C 
HETATM    3  C4  UNL     1      11.625 100.883 157.991  1.00  0.00     0.057 C 
HETATM    4  C5  UNL     1      11.604 100.773 159.526  1.00  0.00     0.111 C 
HETATM    5  C8  UNL     1      12.713 101.730 159.840  1.00  0.00     0.297 C 
ENDROOT
BRANCH   4   6
HETATM    6  N2  UNL     1      10.333 101.291 160.003  1.00  0.00    -0.387 N 
ATOM      7  H2  UNL     1       9.537 100.664 160.122  1.00  0.00     0.159 HD
BRANCH   6   8
HETATM    8  C6  UNL     1      10.205 102.668 160.301  1.00  0.00     0.128 C 
BRANCH   8   9
HETATM    9  S1  UNL     1       9.178 103.665 159.530  1.00  0.00    -0.129 SA
HETATM   10  C7  UNL     1       9.433 103.861 157.711  1.00  0.00     0.096 C 
ENDBRANCH   8   9
ENDBRANCH   6   8
ENDBRANCH   4   6
BRANCH   1  11
HETATM   11  C2  UNL     1      14.454 100.144 159.590  1.00  0.00     0.268 C 
HETATM   12  C1  UNL     1      15.150  99.323 158.522  1.00  0.00     0.037 C 
ENDBRANCH   1  11
TORSDOF 4
ENDMDL
MODEL 4
REMARK VINA RESULT: -4.222992028      2.694      5.098
REMARK  4 active torsions:
REMARK  status: ('A' for Active; 'I' for Inactive)
REMARK    1  A    between atoms: C2_2  and  N1_3 
REMARK    2  A    between atoms: C5_6  and  N2_7 
REMARK    3  A    between atoms: N2_7  and  C6_9 
REMARK    4  A    between atoms: C6_9  and  S1_10 
ROOT
HETATM    1  N1  UNL     1      10.336 101.274 159.242  1.00  0.00     0.090 N 
HETATM    2  C3  UNL     1      11.026 102.165 158.295  1.00  0.00     0.274 C 
HETATM    3  C4  UNL     1      12.488 102.015 158.484  1.00  0.00     0.057 C 
HETATM    4  C5  UNL     1      12.523 101.529 159.943  1.00  0.00     0.111 C 
HETATM    5  C8  UNL     1      11.426 100.513 159.873  1.00  0.00     0.297 C 
ENDROOT
BRANCH   4   6
HETATM    6  N2  UNL     1      13.803 100.883 160.178  1.00  0.00    -0.387 N 
ATOM      7  H2  UNL     1      14.024 100.503 161.099  1.00  0.00     0.159 HD
BRANCH   6   8
HETATM    8  C6  UNL     1      14.742 100.783 159.124  1.00  0.00     0.128 C 
BRANCH   8   9
HETATM    9  S1  UNL     1      15.089  99.394 158.355  1.00  0.00    -0.129 SA
HETATM   10  C7  UNL     1      14.223  99.105 156.749  1.00  0.00     0.096 C 
ENDBRANCH   8   9
ENDBRANCH   6   8
ENDBRANCH   4   6
BRANCH   1  11
HETATM   11  C2  UNL     1       9.669 102.054 160.260  1.00  0.00     0.268 C 
HETATM   12  C1  UNL     1       9.197 103.356 159.641  1.00  0.00     0.037 C 
ENDBRANCH   1  11
TORSDOF 4
ENDMDL
MODEL 5
REMARK VINA RESULT: -4.222513918      1.478      1.761
REMARK  4 active torsions:
REMARK  status: ('A' for Active; 'I' for Inactive)
REMARK    1  A    between atoms: C2_2  and  N1_3 
REMARK    2  A    between atoms: C5_6  and  N2_7 
REMARK    3  A    between atoms: N2_7  and  C6_9 
REMARK    4  A    between atoms: C6_9  and  S1_10 
ROOT
HETATM    1  N1  UNL     1      13.668 100.144 159.226  1.00  0.00     0.090 N 
HETATM    2  C3  UNL     1      13.718 101.484 158.618  1.00  0.00     0.274 C 
HETATM    3  C4  UNL     1      12.423 102.162 158.858  1.00  0.00     0.057 C 
HETATM    4  C5  UNL     1      11.506 100.938 159.032  1.00  0.00     0.111 C 
HETATM    5  C8  UNL     1      12.380 100.124 159.936  1.00  0.00     0.297 C 
ENDROOT
BRANCH   4   6
HETATM    6  N2  UNL     1      10.305 101.363 159.730  1.00  0.00    -0.387 N 
ATOM      7  H2  UNL     1       9.564 100.691 159.930  1.00  0.00     0.159 HD
BRANCH   6   8
HETATM    8  C6  UNL     1      10.168 102.714 160.131  1.00  0.00     0.128 C 
BRANCH   8   9
HETATM    9  S1  UNL     1       9.109 103.749 159.463  1.00  0.00    -0.129 SA
HETATM   10  C7  UNL     1       9.267 104.027 157.643  1.00  0.00     0.096 C 
ENDBRANCH   8   9
ENDBRANCH   6   8
ENDBRANCH   4   6
BRANCH   1  11
HETATM   11  C2  UNL     1      13.641  99.132 158.194  1.00  0.00     0.268 C 
HETATM   12  C1  UNL     1      15.003  99.084 157.527  1.00  0.00     0.037 C 
ENDBRANCH   1  11
TORSDOF 4
ENDMDL
