MODEL 1
REMARK VINA RESULT: -4.763176675      0.000      0.000
REMARK  6 active torsions:
REMARK  status: ('A' for Active; 'I' for Inactive)
REMARK    1  A    between atoms: N1_1  and  N2_4 
REMARK    2  A    between atoms: N2_4  and  C1_5 
REMARK    3  A    between atoms: C1_5  and  C2_6 
REMARK    4  A    between atoms: C6_10  and  C7_11 
REMARK    5  A    between atoms: C7_11  and  C8_12 
REMARK    6  A    between atoms: C8_12  and  N3_13 
ROOT
HETATM    1  C2  UNL     1      12.393 101.486 158.752  1.00  0.00     0.176 C 
HETATM    2  C3  UNL     1      12.381 101.526 160.269  1.00  0.00     0.039 C 
HETATM    3  C4  UNL     1      13.158 100.314 160.740  1.00  0.00     0.005 C 
HETATM    4  C5  UNL     1      14.561 100.386 160.141  1.00  0.00     0.032 C 
HETATM    5  C6  UNL     1      14.486 100.618 158.636  1.00  0.00     0.124 C 
HETATM    6  O1  UNL     1      13.179 100.483 158.241  1.00  0.00    -0.374 OA
ENDROOT
BRANCH   5   7
HETATM    7  C7  UNL     1      15.374  99.577 157.996  1.00  0.00     0.059 C 
BRANCH   7   8
HETATM    8  C8  UNL     1      14.593  98.615 157.130  1.00  0.00     0.232 C 
BRANCH   8   9
HETATM    9  N3  UNL     1      14.113  99.228 155.914  1.00  0.00    -0.079 N 
ATOM     10  H33 UNL     1      14.865  99.718 155.429  1.00  0.00     0.274 HD
ATOM     11  H32 UNL     1      13.895  98.523 155.209  1.00  0.00     0.274 HD
ATOM     12  H31 UNL     1      13.317  99.845 156.074  1.00  0.00     0.274 HD
ENDBRANCH   8   9
ENDBRANCH   7   8
ENDBRANCH   5   7
BRANCH   1  13
HETATM   13  C1  UNL     1      10.987 101.358 158.311  1.00  0.00     0.212 C 
BRANCH  13  14
HETATM   14  N2  UNL     1      10.372 102.402 158.028  1.00  0.00    -0.347 NA
BRANCH  14  15
HETATM   15  N1  UNL     1       9.824 103.470 157.678  1.00  0.00    -0.281 N 
ATOM     16  H12 UNL     1       9.508 102.827 156.953  1.00  0.00     0.191 HD
ATOM     17  H11 UNL     1       9.412 104.377 157.457  1.00  0.00     0.191 HD
ENDBRANCH  14  15
ENDBRANCH  13  14
ENDBRANCH   1  13
TORSDOF 6
ENDMDL
MODEL 2
REMARK VINA RESULT: -4.667695267      1.755      2.208
REMARK  6 active torsions:
REMARK  status: ('A' for Active; 'I' for Inactive)
REMARK    1  A    between atoms: N1_1  and  N2_4 
REMARK    2  A    between atoms: N2_4  and  C1_5 
REMARK    3  A    between atoms: C1_5  and  C2_6 
REMARK    4  A    between atoms: C6_10  and  C7_11 
REMARK    5  A    between atoms: C7_11  and  C8_12 
REMARK    6  A    between atoms: C8_12  and  N3_13 
ROOT
HETATM    1  C2  UNL     1      11.404 103.200 159.578  1.00  0.00     0.176 C 
HETATM    2  C3  UNL     1      10.353 102.357 160.279  1.00  0.00     0.039 C 
HETATM    3  C4  UNL     1      10.460 100.962 159.698  1.00  0.00     0.005 C 
HETATM    4  C5  UNL     1      11.886 100.463 159.919  1.00  0.00     0.032 C 
HETATM    5  C6  UNL     1      12.894 101.495 159.427  1.00  0.00     0.124 C 
HETATM    6  O1  UNL     1      12.215 102.472 158.743  1.00  0.00    -0.374 OA
ENDROOT
BRANCH   5   7
HETATM    7  C7  UNL     1      13.863 100.758 158.533  1.00  0.00     0.059 C 
BRANCH   7   8
HETATM    8  C8  UNL     1      13.179  99.701 157.697  1.00  0.00     0.232 C 
BRANCH   8   9
HETATM    9  N3  UNL     1      12.467 100.259 156.572  1.00  0.00    -0.079 N 
ATOM     10  H33 UNL     1      12.230  99.536 155.893  1.00  0.00     0.274 HD
ATOM     11  H32 UNL     1      11.526 100.547 156.840  1.00  0.00     0.274 HD
ATOM     12  H31 UNL     1      12.973 101.026 156.129  1.00  0.00     0.274 HD
ENDBRANCH   8   9
ENDBRANCH   7   8
ENDBRANCH   5   7
BRANCH   1  13
HETATM   13  C1  UNL     1      10.688 104.269 158.850  1.00  0.00     0.212 C 
BRANCH  13  14
HETATM   14  N2  UNL     1      10.000 103.940 157.866  1.00  0.00    -0.347 NA
BRANCH  14  15
HETATM   15  N1  UNL     1       9.304 103.706 156.855  1.00  0.00    -0.281 N 
ATOM     16  H12 UNL     1      10.026 102.989 156.782  1.00  0.00     0.191 HD
ATOM     17  H11 UNL     1       8.690 103.577 156.051  1.00  0.00     0.191 HD
ENDBRANCH  14  15
ENDBRANCH  13  14
ENDBRANCH   1  13
TORSDOF 6
ENDMDL
MODEL 3
REMARK VINA RESULT: -4.425287437      1.858      2.335
REMARK  6 active torsions:
REMARK  status: ('A' for Active; 'I' for Inactive)
REMARK    1  A    between atoms: N1_1  and  N2_4 
REMARK    2  A    between atoms: N2_4  and  C1_5 
REMARK    3  A    between atoms: C1_5  and  C2_6 
REMARK    4  A    between atoms: C6_10  and  C7_11 
REMARK    5  A    between atoms: C7_11  and  C8_12 
REMARK    6  A    between atoms: C8_12  and  N3_13 
ROOT
HETATM    1  C2  UNL     1      11.465 103.266 159.113  1.00  0.00     0.176 C 
HETATM    2  C3  UNL     1      10.778 102.694 160.340  1.00  0.00     0.039 C 
HETATM    3  C4  UNL     1      10.423 101.259 160.007  1.00  0.00     0.005 C 
HETATM    4  C5  UNL     1      11.709 100.526 159.632  1.00  0.00     0.032 C 
HETATM    5  C6  UNL     1      12.481 101.309 158.577  1.00  0.00     0.124 C 
HETATM    6  O1  UNL     1      11.685 102.334 158.130  1.00  0.00    -0.374 OA
ENDROOT
BRANCH   5   7
HETATM    7  C7  UNL     1      12.809 100.334 157.471  1.00  0.00     0.059 C 
BRANCH   7   8
HETATM    8  C8  UNL     1      13.726  99.227 157.939  1.00  0.00     0.232 C 
BRANCH   8   9
HETATM    9  N3  UNL     1      15.085  99.677 158.131  1.00  0.00    -0.079 N 
ATOM     10  H33 UNL     1      15.144 100.694 158.084  1.00  0.00     0.274 HD
ATOM     11  H32 UNL     1      15.383  99.540 159.096  1.00  0.00     0.274 HD
ATOM     12  H31 UNL     1      15.738  99.241 157.480  1.00  0.00     0.274 HD
ENDBRANCH   8   9
ENDBRANCH   7   8
ENDBRANCH   5   7
BRANCH   1  13
HETATM   13  C1  UNL     1      10.627 104.385 158.630  1.00  0.00     0.212 C 
BRANCH  13  14
HETATM   14  N2  UNL     1       9.890 104.175 157.650  1.00  0.00    -0.347 NA
BRANCH  14  15
HETATM   15  N1  UNL     1       9.219 103.905 156.631  1.00  0.00    -0.281 N 
ATOM     16  H12 UNL     1       8.745 103.352 157.345  1.00  0.00     0.191 HD
ATOM     17  H11 UNL     1       8.720 103.732 155.758  1.00  0.00     0.191 HD
ENDBRANCH  14  15
ENDBRANCH  13  14
ENDBRANCH   1  13
TORSDOF 6
ENDMDL
MODEL 4
REMARK VINA RESULT: -4.210018511      2.038      4.922
REMARK  6 active torsions:
REMARK  status: ('A' for Active; 'I' for Inactive)
REMARK    1  A    between atoms: N1_1  and  N2_4 
REMARK    2  A    between atoms: N2_4  and  C1_5 
REMARK    3  A    between atoms: C1_5  and  C2_6 
REMARK    4  A    between atoms: C6_10  and  C7_11 
REMARK    5  A    between atoms: C7_11  and  C8_12 
REMARK    6  A    between atoms: C8_12  and  N3_13 
ROOT
HETATM    1  C2  UNL     1      12.871 101.366 158.474  1.00  0.00     0.176 C 
HETATM    2  C3  UNL     1      12.234 100.145 159.112  1.00  0.00     0.039 C 
HETATM    3  C4  UNL     1      11.217 100.659 160.110  1.00  0.00     0.005 C 
HETATM    4  C5  UNL     1      10.222 101.543 159.361  1.00  0.00     0.032 C 
HETATM    5  C6  UNL     1      10.956 102.584 158.525  1.00  0.00     0.124 C 
HETATM    6  O1  UNL     1      12.287 102.547 158.859  1.00  0.00    -0.374 OA
ENDROOT
BRANCH   5   7
HETATM    7  C7  UNL     1      10.334 103.919 158.855  1.00  0.00     0.059 C 
BRANCH   7   8
HETATM    8  C8  UNL     1       9.117 104.209 158.007  1.00  0.00     0.232 C 
BRANCH   8   9
HETATM    9  N3  UNL     1       9.362 104.004 156.599  1.00  0.00    -0.079 N 
ATOM     10  H33 UNL     1       9.978 103.206 156.446  1.00  0.00     0.274 HD
ATOM     11  H32 UNL     1       8.526 103.658 156.128  1.00  0.00     0.274 HD
ATOM     12  H31 UNL     1       9.723 104.839 156.138  1.00  0.00     0.274 HD
ENDBRANCH   8   9
ENDBRANCH   7   8
ENDBRANCH   5   7
BRANCH   1  13
HETATM   13  C1  UNL     1      14.310 101.331 158.811  1.00  0.00     0.212 C 
BRANCH  13  14
HETATM   14  N2  UNL     1      14.952 100.309 158.507  1.00  0.00    -0.347 NA
BRANCH  14  15
HETATM   15  N1  UNL     1      15.557  99.290 158.111  1.00  0.00    -0.281 N 
ATOM     16  H12 UNL     1      14.999  99.532 157.292  1.00  0.00     0.191 HD
ATOM     17  H11 UNL     1      16.087  98.454 157.860  1.00  0.00     0.191 HD
ENDBRANCH  14  15
ENDBRANCH  13  14
ENDBRANCH   1  13
TORSDOF 6
ENDMDL
MODEL 5
REMARK VINA RESULT: -4.192677126      3.156      4.185
REMARK  6 active torsions:
REMARK  status: ('A' for Active; 'I' for Inactive)
REMARK    1  A    between atoms: N1_1  and  N2_4 
REMARK    2  A    between atoms: N2_4  and  C1_5 
REMARK    3  A    between atoms: C1_5  and  C2_6 
REMARK    4  A    between atoms: C6_10  and  C7_11 
REMARK    5  A    between atoms: C7_11  and  C8_12 
REMARK    6  A    between atoms: C8_12  and  N3_13 
ROOT
HETATM    1  C2  UNL     1       9.214 104.409 158.350  1.00  0.00     0.176 C 
HETATM    2  C3  UNL     1       9.616 105.032 159.675  1.00  0.00     0.039 C 
HETATM    3  C4  UNL     1       9.961 103.887 160.604  1.00  0.00     0.005 C 
HETATM    4  C5  UNL     1      11.075 103.068 159.955  1.00  0.00     0.032 C 
HETATM    5  C6  UNL     1      10.705 102.707 158.521  1.00  0.00     0.124 C 
HETATM    6  O1  UNL     1       9.392 103.049 158.314  1.00  0.00    -0.374 OA
ENDROOT
BRANCH   5   7
HETATM    7  C7  UNL     1      10.924 101.219 158.381  1.00  0.00     0.059 C 
BRANCH   7   8
HETATM    8  C8  UNL     1      12.332 100.887 157.946  1.00  0.00     0.232 C 
BRANCH   8   9
HETATM    9  N3  UNL     1      12.376 100.240 156.657  1.00  0.00    -0.079 N 
ATOM     10  H33 UNL     1      12.981  99.419 156.679  1.00  0.00     0.274 HD
ATOM     11  H32 UNL     1      11.489  99.784 156.445  1.00  0.00     0.274 HD
ATOM     12  H31 UNL     1      12.649 100.876 155.908  1.00  0.00     0.274 HD
ENDBRANCH   8   9
ENDBRANCH   7   8
ENDBRANCH   5   7
BRANCH   1  13
HETATM   13  C1  UNL     1       7.805 104.784 158.104  1.00  0.00     0.212 C 
BRANCH  13  14
HETATM   14  N2  UNL     1       6.947 103.886 158.169  1.00  0.00    -0.347 NA
BRANCH  14  15
HETATM   15  N1  UNL     1       6.022 103.051 158.271  1.00  0.00    -0.281 N 
ATOM     16  H12 UNL     1       6.799 102.557 158.709  1.00  0.00     0.191 HD
ATOM     17  H11 UNL     1       5.220 102.423 158.317  1.00  0.00     0.191 HD
ENDBRANCH  14  15
ENDBRANCH  13  14
ENDBRANCH   1  13
TORSDOF 6
ENDMDL
