MODEL 1
REMARK VINA RESULT: -5.167527024      0.000      0.000
REMARK  3 active torsions:
REMARK  status: ('A' for Active; 'I' for Inactive)
REMARK    1  A    between atoms: C4_5  and  N2_6 
REMARK    2  A    between atoms: N2_6  and  C5_9 
REMARK    3  A    between atoms: C5_9  and  C6_10 
ROOT
HETATM    1  N2  UNL     1      12.545 101.386 157.912  1.00  0.00    -0.069 N 
ATOM      2  H21 UNL     1      13.094 101.322 158.769  1.00  0.00     0.277 HD
ATOM      3  H22 UNL     1      12.984 102.210 157.500  1.00  0.00     0.277 HD
ENDROOT
BRANCH   1   4
HETATM    4  C4  UNL     1      11.152 101.627 158.201  1.00  0.00     0.215 C 
HETATM    5  C3  UNL     1      10.805 100.865 159.466  1.00  0.00     0.065 C 
HETATM    6  C2  UNL     1      10.029 101.882 160.267  1.00  0.00     0.274 C 
HETATM    7  N1  UNL     1       9.854 103.054 159.437  1.00  0.00     0.086 N 
HETATM    8  C1  UNL     1       9.837 104.219 160.328  1.00  0.00     0.310 C 
HETATM    9  C9  UNL     1      11.044 103.083 158.641  1.00  0.00     0.304 C 
ENDBRANCH   1   4
BRANCH   1  10
HETATM   10  C5  UNL     1      12.735 100.223 157.082  1.00  0.00     0.237 C 
BRANCH  10  11
HETATM   11  C6  UNL     1      13.605  99.253 157.866  1.00  0.00     0.011 A 
HETATM   12  C7  UNL     1      14.814  99.826 158.510  1.00  0.00     0.007 A 
HETATM   13  C8  UNL     1      14.937  98.958 157.286  1.00  0.00     0.007 A 
ENDBRANCH  10  11
ENDBRANCH   1  10
TORSDOF 3
ENDMDL
MODEL 2
REMARK VINA RESULT: -4.799483788      1.043      1.559
REMARK  3 active torsions:
REMARK  status: ('A' for Active; 'I' for Inactive)
REMARK    1  A    between atoms: C4_5  and  N2_6 
REMARK    2  A    between atoms: N2_6  and  C5_9 
REMARK    3  A    between atoms: C5_9  and  C6_10 
ROOT
HETATM    1  N2  UNL     1      12.259 100.294 159.321  1.00  0.00    -0.069 N 
ATOM      2  H21 UNL     1      11.378  99.783 159.380  1.00  0.00     0.277 HD
ATOM      3  H22 UNL     1      12.802  99.759 159.999  1.00  0.00     0.277 HD
ENDROOT
BRANCH   1   4
HETATM    4  C4  UNL     1      12.097 101.664 159.746  1.00  0.00     0.215 C 
HETATM    5  C3  UNL     1      12.348 102.552 158.542  1.00  0.00     0.065 C 
HETATM    6  C2  UNL     1      11.202 103.534 158.607  1.00  0.00     0.274 C 
HETATM    7  N1  UNL     1      10.472 103.278 159.829  1.00  0.00     0.086 N 
HETATM    8  C1  UNL     1       9.065 103.601 159.572  1.00  0.00     0.310 C 
HETATM    9  C9  UNL     1      10.608 101.863 160.012  1.00  0.00     0.304 C 
ENDBRANCH   1   4
BRANCH   1  10
HETATM   10  C5  UNL     1      12.831 100.198 158.001  1.00  0.00     0.237 C 
BRANCH  10  11
HETATM   11  C6  UNL     1      13.780  99.010 158.011  1.00  0.00     0.011 A 
HETATM   12  C7  UNL     1      15.197  99.303 158.345  1.00  0.00     0.007 A 
HETATM   13  C8  UNL     1      14.794  98.978 156.932  1.00  0.00     0.007 A 
ENDBRANCH  10  11
ENDBRANCH   1  10
TORSDOF 3
ENDMDL
MODEL 3
REMARK VINA RESULT: -4.757793588      0.945      1.378
REMARK  3 active torsions:
REMARK  status: ('A' for Active; 'I' for Inactive)
REMARK    1  A    between atoms: C4_5  and  N2_6 
REMARK    2  A    between atoms: N2_6  and  C5_9 
REMARK    3  A    between atoms: C5_9  and  C6_10 
ROOT
HETATM    1  N2  UNL     1      12.314 101.292 157.785  1.00  0.00    -0.069 N 
ATOM      2  H21 UNL     1      12.448 101.427 156.783  1.00  0.00     0.277 HD
ATOM      3  H22 UNL     1      12.525 100.296 157.844  1.00  0.00     0.277 HD
ENDROOT
BRANCH   1   4
HETATM    4  C4  UNL     1      10.950 101.561 158.170  1.00  0.00     0.215 C 
HETATM    5  C3  UNL     1      10.691 100.845 159.482  1.00  0.00     0.065 C 
HETATM    6  C2  UNL     1       9.990 101.899 160.305  1.00  0.00     0.274 C 
HETATM    7  N1  UNL     1       9.766 103.046 159.452  1.00  0.00     0.086 N 
HETATM    8  C1  UNL     1       9.830 104.240 160.302  1.00  0.00     0.310 C 
HETATM    9  C9  UNL     1      10.892 103.033 158.568  1.00  0.00     0.304 C 
ENDBRANCH   1   4
BRANCH   1  10
HETATM   10  C5  UNL     1      13.258 102.072 158.547  1.00  0.00     0.237 C 
BRANCH  10  11
HETATM   11  C6  UNL     1      14.455 101.177 158.826  1.00  0.00     0.011 A 
HETATM   12  C7  UNL     1      14.272  99.729 158.549  1.00  0.00     0.007 A 
HETATM   13  C8  UNL     1      14.314 100.239 159.965  1.00  0.00     0.007 A 
ENDBRANCH  10  11
ENDBRANCH   1  10
TORSDOF 3
ENDMDL
MODEL 4
REMARK VINA RESULT: -4.695610628      1.260      1.768
REMARK  3 active torsions:
REMARK  status: ('A' for Active; 'I' for Inactive)
REMARK    1  A    between atoms: C4_5  and  N2_6 
REMARK    2  A    between atoms: N2_6  and  C5_9 
REMARK    3  A    between atoms: C5_9  and  C6_10 
ROOT
HETATM    1  N2  UNL     1      13.399 100.409 159.284  1.00  0.00    -0.069 N 
ATOM      2  H21 UNL     1      12.915  99.583 158.932  1.00  0.00     0.277 HD
ATOM      3  H22 UNL     1      13.243 100.275 160.283  1.00  0.00     0.277 HD
ENDROOT
BRANCH   1   4
HETATM    4  C4  UNL     1      12.770 101.621 158.816  1.00  0.00     0.215 C 
HETATM    5  C3  UNL     1      11.558 101.224 157.994  1.00  0.00     0.065 C 
HETATM    6  C2  UNL     1      10.485 102.153 158.511  1.00  0.00     0.274 C 
HETATM    7  N1  UNL     1      11.108 103.070 159.440  1.00  0.00     0.086 N 
HETATM    8  C1  UNL     1      10.107 103.406 160.458  1.00  0.00     0.310 C 
HETATM    9  C9  UNL     1      12.148 102.288 160.039  1.00  0.00     0.304 C 
ENDBRANCH   1   4
BRANCH   1  10
HETATM   10  C5  UNL     1      14.804 100.367 158.964  1.00  0.00     0.237 C 
BRANCH  10  11
HETATM   11  C6  UNL     1      15.048  99.079 158.194  1.00  0.00     0.011 A 
HETATM   12  C7  UNL     1      14.702  99.100 156.750  1.00  0.00     0.007 A 
HETATM   13  C8  UNL     1      13.839  98.357 157.734  1.00  0.00     0.007 A 
ENDBRANCH  10  11
ENDBRANCH   1  10
TORSDOF 3
ENDMDL
MODEL 5
REMARK VINA RESULT: -4.688851944      1.282      1.540
REMARK  3 active torsions:
REMARK  status: ('A' for Active; 'I' for Inactive)
REMARK    1  A    between atoms: C4_5  and  N2_6 
REMARK    2  A    between atoms: N2_6  and  C5_9 
REMARK    3  A    between atoms: C5_9  and  C6_10 
ROOT
HETATM    1  N2  UNL     1      12.220 100.558 158.667  1.00  0.00    -0.069 N 
ATOM      2  H21 UNL     1      12.985 101.010 158.166  1.00  0.00     0.277 HD
ATOM      3  H22 UNL     1      12.140  99.708 158.107  1.00  0.00     0.277 HD
ENDROOT
BRANCH   1   4
HETATM    4  C4  UNL     1      11.013 101.345 158.596  1.00  0.00     0.215 C 
HETATM    5  C3  UNL     1      10.328 101.262 159.947  1.00  0.00     0.065 C 
HETATM    6  C2  UNL     1       9.960 102.700 160.225  1.00  0.00     0.274 C 
HETATM    7  N1  UNL     1      10.297 103.474 159.050  1.00  0.00     0.086 N 
HETATM    8  C1  UNL     1      10.679 104.814 159.508  1.00  0.00     0.310 C 
HETATM    9  C9  UNL     1      11.450 102.805 158.525  1.00  0.00     0.304 C 
ENDBRANCH   1   4
BRANCH   1  10
HETATM   10  C5  UNL     1      12.594 100.255 160.026  1.00  0.00     0.237 C 
BRANCH  10  11
HETATM   11  C6  UNL     1      14.112 100.287 160.090  1.00  0.00     0.011 A 
HETATM   12  C7  UNL     1      14.789 101.236 159.171  1.00  0.00     0.007 A 
HETATM   13  C8  UNL     1      14.824  99.755 158.904  1.00  0.00     0.007 A 
ENDBRANCH  10  11
ENDBRANCH   1  10
TORSDOF 3
ENDMDL
