MODEL 1
REMARK VINA RESULT: -6.016825749      0.000      0.000
REMARK  5 active torsions:
REMARK  status: ('A' for Active; 'I' for Inactive)
REMARK    1  A    between atoms: C2_2  and  C4_5 
REMARK    2  A    between atoms: C4_5  and  C5_6 
REMARK    3  A    between atoms: C6_7  and  C7_8 
REMARK    4  A    between atoms: C9_10  and  C10_11 
REMARK    5  A    between atoms: C10_11  and  O1_12 
ROOT
HETATM    1  C7  UNL     1      11.389  20.193 -11.693  1.00  0.00     0.075 C 
HETATM    2  C8  UNL     1       9.986  20.114 -11.115  1.00  0.00     0.031 C 
HETATM    3  C9  UNL     1       9.759  21.473 -10.490  1.00  0.00    -0.002 C 
HETATM    4  C11 UNL     1       9.115  22.351 -11.537  1.00  0.00     0.125 C 
HETATM    5  N1  UNL     1       9.901  22.486 -12.720  1.00  0.00    -0.420 N 
ATOM      6  H1  UNL     1       9.480  22.526 -13.649  1.00  0.00     0.153 HD
HETATM    7  C12 UNL     1      11.304  22.561 -12.526  1.00  0.00     0.124 C 
HETATM    8  C13 UNL     1      11.849  21.612 -11.506  1.00  0.00    -0.013 C 
HETATM    9  C14 UNL     1      13.329  21.683 -11.420  1.00  0.00     0.018 C 
HETATM   10  C15 UNL     1      11.162  21.954 -10.175  1.00  0.00     0.025 C 
ENDROOT
BRANCH   1  11
HETATM   11  C6  UNL     1      11.453  19.734 -13.062  1.00  0.00    -0.101 C 
HETATM   12  C5  UNL     1      11.488  19.343 -14.201  1.00  0.00    -0.103 C 
BRANCH  12  13
HETATM   13  C4  UNL     1      11.506  18.857 -15.583  1.00  0.00     0.136 C 
BRANCH  13  14
HETATM   14  C2  UNL     1      10.872  19.925 -16.444  1.00  0.00     0.106 C 
HETATM   15  C1  UNL     1      11.175  19.616 -17.894  1.00  0.00     0.052 C 
HETATM   16  C3  UNL     1       9.358  19.852 -16.285  1.00  0.00     0.052 C 
HETATM   17  F1  UNL     1      11.323  21.177 -16.117  1.00  0.00    -0.243 F 
ENDBRANCH  13  14
ENDBRANCH  12  13
ENDBRANCH   1  11
BRANCH   3  18
HETATM   18  C10 UNL     1       8.887  21.371  -9.283  1.00  0.00     0.175 C 
BRANCH  18  19
HETATM   19  O1  UNL     1       9.012  20.120  -8.695  1.00  0.00    -0.400 OA
ATOM     20  H1  UNL     1       8.390  20.021  -7.983  1.00  0.00     0.209 HD
ENDBRANCH  18  19
ENDBRANCH   3  18
TORSDOF 5
ENDMDL
MODEL 2
REMARK VINA RESULT: -5.995291611      3.245      4.348
REMARK  5 active torsions:
REMARK  status: ('A' for Active; 'I' for Inactive)
REMARK    1  A    between atoms: C2_2  and  C4_5 
REMARK    2  A    between atoms: C4_5  and  C5_6 
REMARK    3  A    between atoms: C6_7  and  C7_8 
REMARK    4  A    between atoms: C9_10  and  C10_11 
REMARK    5  A    between atoms: C10_11  and  O1_12 
ROOT
HETATM    1  C7  UNL     1      13.761  23.358 -11.580  1.00  0.00     0.075 C 
HETATM    2  C8  UNL     1      13.396  24.050 -10.277  1.00  0.00     0.031 C 
HETATM    3  C9  UNL     1      12.788  25.367 -10.706  1.00  0.00    -0.002 C 
HETATM    4  C11 UNL     1      11.298  25.157 -10.837  1.00  0.00     0.125 C 
HETATM    5  N1  UNL     1      10.953  24.135 -11.771  1.00  0.00    -0.420 N 
ATOM      6  H1  UNL     1      10.171  23.499 -11.614  1.00  0.00     0.153 HD
HETATM    7  C12 UNL     1      11.763  24.058 -12.932  1.00  0.00     0.124 C 
HETATM    8  C13 UNL     1      13.230  24.226 -12.687  1.00  0.00    -0.013 C 
HETATM    9  C14 UNL     1      14.023  24.046 -13.928  1.00  0.00     0.018 C 
HETATM   10  C15 UNL     1      13.416  25.618 -12.063  1.00  0.00     0.025 C 
ENDROOT
BRANCH   1  11
HETATM   11  C6  UNL     1      13.295  21.992 -11.634  1.00  0.00    -0.101 C 
HETATM   12  C5  UNL     1      12.913  20.851 -11.698  1.00  0.00    -0.103 C 
BRANCH  12  13
HETATM   13  C4  UNL     1      12.457  19.462 -11.802  1.00  0.00     0.136 C 
BRANCH  13  14
HETATM   14  C2  UNL     1      11.588  19.365 -13.035  1.00  0.00     0.106 C 
HETATM   15  C1  UNL     1      11.827  18.019 -13.685  1.00  0.00     0.052 C 
HETATM   16  C3  UNL     1      10.124  19.396 -12.610  1.00  0.00     0.052 C 
HETATM   17  F1  UNL     1      11.847  20.377 -13.920  1.00  0.00    -0.243 F 
ENDBRANCH  13  14
ENDBRANCH  12  13
ENDBRANCH   1  11
BRANCH   3  18
HETATM   18  C10 UNL     1      13.081  26.443  -9.714  1.00  0.00     0.175 C 
BRANCH  18  19
HETATM   19  O1  UNL     1      14.440  26.723  -9.684  1.00  0.00    -0.400 OA
ATOM     20  H1  UNL     1      14.748  26.789  -8.787  1.00  0.00     0.209 HD
ENDBRANCH  18  19
ENDBRANCH   3  18
TORSDOF 5
ENDMDL
MODEL 3
REMARK VINA RESULT: -5.858402901      3.213      4.519
REMARK  5 active torsions:
REMARK  status: ('A' for Active; 'I' for Inactive)
REMARK    1  A    between atoms: C2_2  and  C4_5 
REMARK    2  A    between atoms: C4_5  and  C5_6 
REMARK    3  A    between atoms: C6_7  and  C7_8 
REMARK    4  A    between atoms: C9_10  and  C10_11 
REMARK    5  A    between atoms: C10_11  and  O1_12 
ROOT
HETATM    1  C7  UNL     1      13.086  23.399 -12.041  1.00  0.00     0.075 C 
HETATM    2  C8  UNL     1      14.009  23.109 -10.869  1.00  0.00     0.031 C 
HETATM    3  C9  UNL     1      13.981  24.376 -10.042  1.00  0.00    -0.002 C 
HETATM    4  C11 UNL     1      12.880  24.225  -9.019  1.00  0.00     0.125 C 
HETATM    5  N1  UNL     1      11.597  23.995  -9.600  1.00  0.00    -0.420 N 
ATOM      6  H1  UNL     1      10.916  23.364  -9.177  1.00  0.00     0.153 HD
HETATM    7  C12 UNL     1      11.328  24.697 -10.802  1.00  0.00     0.124 C 
HETATM    8  C13 UNL     1      12.466  24.742 -11.773  1.00  0.00    -0.013 C 
HETATM    9  C14 UNL     1      12.086  25.413 -13.041  1.00  0.00     0.018 C 
HETATM   10  C15 UNL     1      13.628  25.447 -11.056  1.00  0.00     0.025 C 
ENDROOT
BRANCH   1  11
HETATM   11  C6  UNL     1      12.123  22.345 -12.265  1.00  0.00    -0.101 C 
HETATM   12  C5  UNL     1      11.336  21.453 -12.452  1.00  0.00    -0.103 C 
BRANCH  12  13
HETATM   13  C4  UNL     1      10.398  20.350 -12.679  1.00  0.00     0.136 C 
BRANCH  13  14
HETATM   14  C2  UNL     1      11.118  19.310 -13.505  1.00  0.00     0.106 C 
HETATM   15  C1  UNL     1      12.179  18.662 -12.642  1.00  0.00     0.052 C 
HETATM   16  C3  UNL     1      10.131  18.214 -13.888  1.00  0.00     0.052 C 
HETATM   17  F1  UNL     1      11.681  19.854 -14.629  1.00  0.00    -0.243 F 
ENDBRANCH  13  14
ENDBRANCH  12  13
ENDBRANCH   1  11
BRANCH   3  18
HETATM   18  C10 UNL     1      15.293  24.609  -9.372  1.00  0.00     0.175 C 
BRANCH  18  19
HETATM   19  O1  UNL     1      15.624  25.956  -9.402  1.00  0.00    -0.400 OA
ATOM     20  H1  UNL     1      16.110  26.164 -10.192  1.00  0.00     0.209 HD
ENDBRANCH  18  19
ENDBRANCH   3  18
TORSDOF 5
ENDMDL
MODEL 4
REMARK VINA RESULT: -5.815964695      4.156      6.157
REMARK  5 active torsions:
REMARK  status: ('A' for Active; 'I' for Inactive)
REMARK    1  A    between atoms: C2_2  and  C4_5 
REMARK    2  A    between atoms: C4_5  and  C5_6 
REMARK    3  A    between atoms: C6_7  and  C7_8 
REMARK    4  A    between atoms: C9_10  and  C10_11 
REMARK    5  A    between atoms: C10_11  and  O1_12 
ROOT
HETATM    1  C7  UNL     1       9.120  20.165 -15.135  1.00  0.00     0.075 C 
HETATM    2  C8  UNL     1       8.774  20.322 -16.606  1.00  0.00     0.031 C 
HETATM    3  C9  UNL     1      10.060  20.794 -17.248  1.00  0.00    -0.002 C 
HETATM    4  C11 UNL     1      10.812  19.569 -17.711  1.00  0.00     0.125 C 
HETATM    5  N1  UNL     1      11.103  18.653 -16.656  1.00  0.00    -0.420 N 
ATOM      6  H1  UNL     1      11.072  17.643 -16.791  1.00  0.00     0.153 HD
HETATM    7  C12 UNL     1      11.438  19.236 -15.407  1.00  0.00     0.124 C 
HETATM    8  C13 UNL     1      10.598  20.411 -15.015  1.00  0.00    -0.013 C 
HETATM    9  C14 UNL     1      10.945  20.912 -13.662  1.00  0.00     0.018 C 
HETATM   10  C15 UNL     1      10.792  21.475 -16.107  1.00  0.00     0.025 C 
ENDROOT
BRANCH   1  11
HETATM   11  C6  UNL     1       8.695  18.893 -14.596  1.00  0.00    -0.101 C 
HETATM   12  C5  UNL     1       8.348  17.838 -14.129  1.00  0.00    -0.103 C 
BRANCH  12  13
HETATM   13  C4  UNL     1       7.935  16.563 -13.537  1.00  0.00     0.136 C 
BRANCH  13  14
HETATM   14  C2  UNL     1       7.068  16.882 -12.341  1.00  0.00     0.106 C 
HETATM   15  C1  UNL     1       5.660  17.153 -12.827  1.00  0.00     0.052 C 
HETATM   16  C3  UNL     1       6.994  15.652 -11.443  1.00  0.00     0.052 C 
HETATM   17  F1  UNL     1       7.547  17.955 -11.637  1.00  0.00    -0.243 F 
ENDBRANCH  13  14
ENDBRANCH  12  13
ENDBRANCH   1  11
BRANCH   3  18
HETATM   18  C10 UNL     1       9.783  21.706 -18.397  1.00  0.00     0.175 C 
BRANCH  18  19
HETATM   19  O1  UNL     1      10.570  22.846 -18.316  1.00  0.00    -0.400 OA
ATOM     20  H1  UNL     1      10.877  23.103 -19.178  1.00  0.00     0.209 HD
ENDBRANCH  18  19
ENDBRANCH   3  18
TORSDOF 5
ENDMDL
MODEL 5
REMARK VINA RESULT: -5.798661821      3.252      4.488
REMARK  5 active torsions:
REMARK  status: ('A' for Active; 'I' for Inactive)
REMARK    1  A    between atoms: C2_2  and  C4_5 
REMARK    2  A    between atoms: C4_5  and  C5_6 
REMARK    3  A    between atoms: C6_7  and  C7_8 
REMARK    4  A    between atoms: C9_10  and  C10_11 
REMARK    5  A    between atoms: C10_11  and  O1_12 
ROOT
HETATM    1  C7  UNL     1      13.234  23.806 -12.450  1.00  0.00     0.075 C 
HETATM    2  C8  UNL     1      14.048  23.271 -11.284  1.00  0.00     0.031 C 
HETATM    3  C9  UNL     1      13.890  24.315 -10.202  1.00  0.00    -0.002 C 
HETATM    4  C11 UNL     1      12.701  23.918  -9.359  1.00  0.00     0.125 C 
HETATM    5  N1  UNL     1      11.491  23.806 -10.108  1.00  0.00    -0.420 N 
ATOM      6  H1  UNL     1      10.797  23.085  -9.910  1.00  0.00     0.153 HD
HETATM    7  C12 UNL     1      11.313  24.759 -11.142  1.00  0.00     0.124 C 
HETATM    8  C13 UNL     1      12.539  25.042 -11.954  1.00  0.00    -0.013 C 
HETATM    9  C14 UNL     1      12.259  25.978 -13.071  1.00  0.00     0.018 C 
HETATM   10  C15 UNL     1      13.597  25.584 -10.979  1.00  0.00     0.025 C 
ENDROOT
BRANCH   1  11
HETATM   11  C6  UNL     1      12.340  22.816 -13.005  1.00  0.00    -0.101 C 
HETATM   12  C5  UNL     1      11.603  21.993 -13.486  1.00  0.00    -0.103 C 
BRANCH  12  13
HETATM   13  C4  UNL     1      10.718  20.996 -14.095  1.00  0.00     0.136 C 
BRANCH  13  14
HETATM   14  C2  UNL     1      11.291  19.633 -13.778  1.00  0.00     0.106 C 
HETATM   15  C1  UNL     1      10.234  18.824 -13.057  1.00  0.00     0.052 C 
HETATM   16  C3  UNL     1      11.588  18.907 -15.084  1.00  0.00     0.052 C 
HETATM   17  F1  UNL     1      12.426  19.724 -13.017  1.00  0.00    -0.243 F 
ENDBRANCH  13  14
ENDBRANCH  12  13
ENDBRANCH   1  11
BRANCH   3  18
HETATM   18  C10 UNL     1      15.120  24.411  -9.362  1.00  0.00     0.175 C 
BRANCH  18  19
HETATM   19  O1  UNL     1      15.647  25.693  -9.412  1.00  0.00    -0.400 OA
ATOM     20  H1  UNL     1      16.582  25.678  -9.241  1.00  0.00     0.209 HD
ENDBRANCH  18  19
ENDBRANCH   3  18
TORSDOF 5
ENDMDL
