MODEL 1
REMARK VINA RESULT: -6.942369299      0.000      0.000
REMARK  2 active torsions:
REMARK  status: ('A' for Active; 'I' for Inactive)
REMARK    1  A    between atoms: C4_9  and  N3_10 
REMARK    2  A    between atoms: N3_10  and  C5_12 
ROOT
HETATM    1  N3  UNL     1       7.679  17.183 -12.190  1.00  0.00    -0.373 N 
ATOM      2  H3  UNL     1       7.425  17.530 -11.265  1.00  0.00     0.161 HD
ENDROOT
BRANCH   1   3
HETATM    3  C4  UNL     1       7.398  15.807 -12.524  1.00  0.00     0.104 A 
HETATM    4  C2  UNL     1       7.698  14.612 -11.749  1.00  0.00     0.149 A 
HETATM    5  C1  UNL     1       6.979  14.642 -10.390  1.00  0.00     0.040 C 
HETATM    6  N1  UNL     1       7.207  13.518 -12.541  1.00  0.00    -0.332 N 
HETATM    7  C3  UNL     1       6.644  14.058 -13.726  1.00  0.00     0.322 A 
ATOM      8  H1  UNL     1       7.254  12.529 -12.295  1.00  0.00     0.165 HD
HETATM    9  O1  UNL     1       6.117  13.400 -14.659  1.00  0.00    -0.247 OA
HETATM   10  N2  UNL     1       6.816  15.458 -13.611  1.00  0.00    -0.297 N 
ATOM     11  H2  UNL     1       6.507  16.122 -14.322  1.00  0.00     0.172 HD
ENDBRANCH   1   3
BRANCH   1  12
HETATM   12  C5  UNL     1       8.308  18.081 -13.124  1.00  0.00     0.082 C 
HETATM   13  C6  UNL     1       9.253  17.285 -14.018  1.00  0.00     0.025 C 
HETATM   14  C7  UNL     1      10.497  18.070 -14.340  1.00  0.00     0.002 C 
HETATM   15  C8  UNL     1      10.551  18.459 -15.792  1.00  0.00     0.000 C 
HETATM   16  C9  UNL     1      10.410  19.962 -15.876  1.00  0.00     0.000 C 
HETATM   17  C10 UNL     1       9.166  20.362 -16.613  1.00  0.00     0.000 C 
HETATM   18  C11 UNL     1       7.902  19.854 -16.009  1.00  0.00     0.000 C 
HETATM   19  C12 UNL     1       7.769  20.083 -14.543  1.00  0.00     0.002 C 
HETATM   20  C13 UNL     1       7.267  18.817 -13.909  1.00  0.00     0.025 C 
ENDBRANCH   1  12
TORSDOF 2
ENDMDL
MODEL 2
REMARK VINA RESULT: -6.921530020      4.631      5.399
REMARK  2 active torsions:
REMARK  status: ('A' for Active; 'I' for Inactive)
REMARK    1  A    between atoms: C4_9  and  N3_10 
REMARK    2  A    between atoms: N3_10  and  C5_12 
ROOT
HETATM    1  N3  UNL     1      10.992  18.308 -14.438  1.00  0.00    -0.373 N 
ATOM      2  H3  UNL     1      10.562  17.389 -14.540  1.00  0.00     0.161 HD
ENDROOT
BRANCH   1   3
HETATM    3  C4  UNL     1      11.846  18.560 -13.301  1.00  0.00     0.104 A 
HETATM    4  C2  UNL     1      12.132  19.832 -12.653  1.00  0.00     0.149 A 
HETATM    5  C1  UNL     1      10.849  20.463 -12.087  1.00  0.00     0.040 C 
HETATM    6  N1  UNL     1      13.035  19.513 -11.582  1.00  0.00    -0.332 N 
HETATM    7  C3  UNL     1      13.262  18.112 -11.609  1.00  0.00     0.322 A 
ATOM      8  H1  UNL     1      13.441  20.175 -10.920  1.00  0.00     0.165 HD
HETATM    9  O1  UNL     1      14.001  17.469 -10.819  1.00  0.00    -0.247 OA
HETATM   10  N2  UNL     1      12.490  17.634 -12.694  1.00  0.00    -0.297 N 
ATOM     11  H2  UNL     1      12.451  16.651 -12.965  1.00  0.00     0.172 HD
ENDBRANCH   1   3
BRANCH   1  12
HETATM   12  C5  UNL     1      10.731  19.316 -15.432  1.00  0.00     0.082 C 
HETATM   13  C6  UNL     1      11.092  18.762 -16.807  1.00  0.00     0.025 C 
HETATM   14  C7  UNL     1      11.697  19.825 -17.686  1.00  0.00     0.002 C 
HETATM   15  C8  UNL     1      10.787  20.189 -18.828  1.00  0.00     0.000 C 
HETATM   16  C9  UNL     1      10.313  21.608 -18.611  1.00  0.00     0.000 C 
HETATM   17  C10 UNL     1       8.826  21.674 -18.420  1.00  0.00     0.000 C 
HETATM   18  C11 UNL     1       8.318  20.879 -17.267  1.00  0.00     0.000 C 
HETATM   19  C12 UNL     1       9.045  21.095 -15.985  1.00  0.00     0.002 C 
HETATM   20  C13 UNL     1       9.302  19.756 -15.354  1.00  0.00     0.025 C 
ENDBRANCH   1  12
TORSDOF 2
ENDMDL
MODEL 3
REMARK VINA RESULT: -6.920941064      4.911      6.083
REMARK  2 active torsions:
REMARK  status: ('A' for Active; 'I' for Inactive)
REMARK    1  A    between atoms: C4_9  and  N3_10 
REMARK    2  A    between atoms: N3_10  and  C5_12 
ROOT
HETATM    1  N3  UNL     1      11.726  20.263 -12.303  1.00  0.00    -0.373 N 
ATOM      2  H3  UNL     1      12.687  19.952 -12.157  1.00  0.00     0.161 HD
ENDROOT
BRANCH   1   3
HETATM    3  C4  UNL     1      10.965  20.743 -11.174  1.00  0.00     0.104 A 
HETATM    4  C2  UNL     1      11.183  21.949 -10.388  1.00  0.00     0.149 A 
HETATM    5  C1  UNL     1      11.062  23.207 -11.264  1.00  0.00     0.040 C 
HETATM    6  N1  UNL     1      10.145  21.941  -9.394  1.00  0.00    -0.332 N 
HETATM    7  C3  UNL     1       9.358  20.778  -9.598  1.00  0.00     0.322 A 
ATOM      8  H1  UNL     1       9.999  22.646  -8.671  1.00  0.00     0.165 HD
HETATM    9  O1  UNL     1       8.357  20.435  -8.916  1.00  0.00    -0.247 OA
HETATM   10  N2  UNL     1       9.947  20.123 -10.705  1.00  0.00    -0.297 N 
ATOM     11  H2  UNL     1       9.596  19.246 -11.091  1.00  0.00     0.172 HD
ENDBRANCH   1   3
BRANCH   1  12
HETATM   12  C5  UNL     1      11.170  20.210 -13.630  1.00  0.00     0.082 C 
HETATM   13  C6  UNL     1      11.471  21.523 -14.347  1.00  0.00     0.025 C 
HETATM   14  C7  UNL     1      10.325  21.942 -15.230  1.00  0.00     0.002 C 
HETATM   15  C8  UNL     1      10.685  21.855 -16.688  1.00  0.00     0.000 C 
HETATM   16  C9  UNL     1       9.857  20.752 -17.306  1.00  0.00     0.000 C 
HETATM   17  C10 UNL     1      10.716  19.635 -17.822  1.00  0.00     0.000 C 
HETATM   18  C11 UNL     1      11.574  18.990 -16.789  1.00  0.00     0.000 C 
HETATM   19  C12 UNL     1      10.866  18.602 -15.537  1.00  0.00     0.002 C 
HETATM   20  C13 UNL     1      11.709  19.023 -14.366  1.00  0.00     0.025 C 
ENDBRANCH   1  12
TORSDOF 2
ENDMDL
MODEL 4
REMARK VINA RESULT: -6.900544176      2.896      4.172
REMARK  2 active torsions:
REMARK  status: ('A' for Active; 'I' for Inactive)
REMARK    1  A    between atoms: C4_9  and  N3_10 
REMARK    2  A    between atoms: N3_10  and  C5_12 
ROOT
HETATM    1  N3  UNL     1       7.659  17.094 -11.963  1.00  0.00    -0.373 N 
ATOM      2  H3  UNL     1       8.560  17.307 -11.536  1.00  0.00     0.161 HD
ENDROOT
BRANCH   1   3
HETATM    3  C4  UNL     1       7.389  15.742 -12.392  1.00  0.00     0.104 A 
HETATM    4  C2  UNL     1       7.638  14.501 -11.671  1.00  0.00     0.149 A 
HETATM    5  C1  UNL     1       6.841  14.459 -10.356  1.00  0.00     0.040 C 
HETATM    6  N1  UNL     1       7.186  13.459 -12.552  1.00  0.00    -0.332 N 
HETATM    7  C3  UNL     1       6.696  14.072 -13.734  1.00  0.00     0.322 A 
ATOM      8  H1  UNL     1       7.213  12.457 -12.361  1.00  0.00     0.165 HD
HETATM    9  O1  UNL     1       6.218  13.473 -14.732  1.00  0.00    -0.247 OA
HETATM   10  N2  UNL     1       6.868  15.462 -13.528  1.00  0.00    -0.297 N 
ATOM     11  H2  UNL     1       6.604  16.168 -14.216  1.00  0.00     0.172 HD
ENDBRANCH   1   3
BRANCH   1  12
HETATM   12  C5  UNL     1       6.692  18.149 -12.119  1.00  0.00     0.082 C 
HETATM   13  C6  UNL     1       5.417  17.770 -11.372  1.00  0.00     0.025 C 
HETATM   14  C7  UNL     1       4.189  18.228 -12.113  1.00  0.00     0.002 C 
HETATM   15  C8  UNL     1       3.475  19.331 -11.380  1.00  0.00     0.000 C 
HETATM   16  C9  UNL     1       3.602  20.593 -12.202  1.00  0.00     0.000 C 
HETATM   17  C10 UNL     1       4.370  21.657 -11.472  1.00  0.00     0.000 C 
HETATM   18  C11 UNL     1       5.754  21.263 -11.089  1.00  0.00     0.000 C 
HETATM   19  C12 UNL     1       6.562  20.658 -12.185  1.00  0.00     0.002 C 
HETATM   20  C13 UNL     1       7.267  19.447 -11.642  1.00  0.00     0.025 C 
ENDBRANCH   1  12
TORSDOF 2
ENDMDL
MODEL 5
REMARK VINA RESULT: -6.893882484      4.763      5.812
REMARK  2 active torsions:
REMARK  status: ('A' for Active; 'I' for Inactive)
REMARK    1  A    between atoms: C4_9  and  N3_10 
REMARK    2  A    between atoms: N3_10  and  C5_12 
ROOT
HETATM    1  N3  UNL     1      11.100  19.956 -12.602  1.00  0.00    -0.373 N 
ATOM      2  H3  UNL     1      11.928  19.434 -12.317  1.00  0.00     0.161 HD
ENDROOT
BRANCH   1   3
HETATM    3  C4  UNL     1      10.278  20.574 -11.589  1.00  0.00     0.104 A 
HETATM    4  C2  UNL     1       8.843  20.820 -11.618  1.00  0.00     0.149 A 
HETATM    5  C1  UNL     1       8.061  19.501 -11.738  1.00  0.00     0.040 C 
HETATM    6  N1  UNL     1       8.546  21.455 -10.363  1.00  0.00    -0.332 N 
HETATM    7  C3  UNL     1       9.760  21.571  -9.637  1.00  0.00     0.322 A 
ATOM      8  H1  UNL     1       7.626  21.766 -10.050  1.00  0.00     0.165 HD
HETATM    9  O1  UNL     1       9.889  22.078  -8.493  1.00  0.00    -0.247 OA
HETATM   10  N2  UNL     1      10.748  21.004 -10.476  1.00  0.00    -0.297 N 
ATOM     11  H2  UNL     1      11.734  20.944 -10.222  1.00  0.00     0.172 HD
ENDBRANCH   1   3
BRANCH   1  12
HETATM   12  C5  UNL     1      10.785  20.056 -14.003  1.00  0.00     0.082 C 
HETATM   13  C6  UNL     1      11.307  21.388 -14.535  1.00  0.00     0.025 C 
HETATM   14  C7  UNL     1      10.371  21.976 -15.558  1.00  0.00     0.002 C 
HETATM   15  C8  UNL     1      10.976  21.970 -16.935  1.00  0.00     0.000 C 
HETATM   16  C9  UNL     1      10.189  20.996 -17.784  1.00  0.00     0.000 C 
HETATM   17  C10 UNL     1      11.040  19.850 -18.247  1.00  0.00     0.000 C 
HETATM   18  C11 UNL     1      11.650  19.052 -17.146  1.00  0.00     0.000 C 
HETATM   19  C12 UNL     1      10.704  18.635 -16.073  1.00  0.00     0.002 C 
HETATM   20  C13 UNL     1      11.355  18.886 -14.743  1.00  0.00     0.025 C 
ENDBRANCH   1  12
TORSDOF 2
ENDMDL
