MODEL 1
REMARK VINA RESULT: -6.673865031      0.000      0.000
REMARK  1 active torsions:
REMARK  status: ('A' for Active; 'I' for Inactive)
REMARK    1  A    between atoms: N3_8  and  N4_10 
ROOT
HETATM    1  C1  UNL     1       6.582  14.450  -9.909  1.00  0.00     0.071 C 
HETATM    2  C2  UNL     1       7.313  14.534 -11.222  1.00  0.00     0.047 A 
HETATM    3  N1  UNL     1       7.994  13.562 -11.834  1.00  0.00    -0.302 N 
ATOM      4  H1  UNL     1       8.103  12.616 -11.470  1.00  0.00     0.186 HD
HETATM    5  N2  UNL     1       8.505  13.984 -12.965  1.00  0.00    -0.283 N 
ATOM      6  H2  UNL     1       9.067  13.430 -13.612  1.00  0.00     0.188 HD
HETATM    7  C3  UNL     1       8.158  15.288 -13.126  1.00  0.00     0.158 A 
HETATM    8  N3  UNL     1       8.481  16.049 -14.131  1.00  0.00    -0.283 N 
ATOM      9  H3  UNL     1       9.047  15.684 -14.897  1.00  0.00     0.188 HD
HETATM   10  C12 UNL     1       7.407  15.643 -12.035  1.00  0.00     0.104 A 
HETATM   11 CL1  UNL     1       6.692  17.208 -11.713  1.00  0.00    -0.078 Cl
ENDROOT
BRANCH   8  12
HETATM   12  N4  UNL     1       8.042  17.364 -14.142  1.00  0.00    -0.307 N 
HETATM   13  C4  UNL     1       8.863  18.275 -14.603  1.00  0.00     0.004 C 
HETATM   14  C5  UNL     1       8.177  19.594 -14.515  1.00  0.00     0.054 C 
HETATM   15  C11 UNL     1      10.145  17.734 -15.046  1.00  0.00     0.054 C 
HETATM   16  C6  UNL     1       8.855  20.539 -15.471  1.00  0.00     0.006 C 
HETATM   17  C7  UNL     1       9.703  21.556 -14.770  1.00  0.00     0.000 C 
HETATM   18  C8  UNL     1      11.060  21.126 -14.370  1.00  0.00     0.000 C 
HETATM   19  C9  UNL     1      11.182  19.713 -13.859  1.00  0.00     0.000 C 
HETATM   20  C10 UNL     1      11.290  18.706 -14.966  1.00  0.00     0.006 C 
ATOM     21  H4  UNL     1       7.113  17.614 -13.803  1.00  0.00     0.186 HD
ENDBRANCH   8  12
TORSDOF 1
ENDMDL
MODEL 2
REMARK VINA RESULT: -6.593518857      6.218      8.684
REMARK  1 active torsions:
REMARK  status: ('A' for Active; 'I' for Inactive)
REMARK    1  A    between atoms: N3_8  and  N4_10 
ROOT
HETATM    1  C1  UNL     1      13.192  27.247  -9.762  1.00  0.00     0.071 C 
HETATM    2  C2  UNL     1      13.731  25.864 -10.010  1.00  0.00     0.047 A 
HETATM    3  N1  UNL     1      14.726  25.253  -9.360  1.00  0.00    -0.302 N 
ATOM      4  H1  UNL     1      15.254  25.668  -8.594  1.00  0.00     0.186 HD
HETATM    5  N2  UNL     1      14.933  24.051  -9.838  1.00  0.00    -0.283 N 
ATOM      6  H2  UNL     1      15.637  23.389  -9.510  1.00  0.00     0.188 HD
HETATM    7  C3  UNL     1      14.048  23.837 -10.847  1.00  0.00     0.158 A 
HETATM    8  N3  UNL     1      13.948  22.756 -11.563  1.00  0.00    -0.283 N 
ATOM      9  H3  UNL     1      14.567  21.963 -11.395  1.00  0.00     0.188 HD
HETATM   10  C12 UNL     1      13.287  24.973 -10.963  1.00  0.00     0.104 A 
HETATM   11 CL1  UNL     1      11.988  25.258 -12.101  1.00  0.00    -0.078 Cl
ENDROOT
BRANCH   8  12
HETATM   12  N4  UNL     1      12.984  22.700 -12.559  1.00  0.00    -0.307 N 
HETATM   13  C4  UNL     1      12.181  21.665 -12.570  1.00  0.00     0.004 C 
HETATM   14  C5  UNL     1      11.245  21.826 -13.717  1.00  0.00     0.054 C 
HETATM   15  C11 UNL     1      12.442  20.712 -11.494  1.00  0.00     0.054 C 
HETATM   16  C6  UNL     1      10.036  20.966 -13.459  1.00  0.00     0.006 C 
HETATM   17  C7  UNL     1      10.007  19.743 -14.324  1.00  0.00     0.000 C 
HETATM   18  C8  UNL     1      10.815  18.591 -13.870  1.00  0.00     0.000 C 
HETATM   19  C9  UNL     1      12.151  18.922 -13.256  1.00  0.00     0.000 C 
HETATM   20  C10 UNL     1      12.044  19.296 -11.808  1.00  0.00     0.006 C 
ATOM     21  H4  UNL     1      12.904  23.438 -13.259  1.00  0.00     0.186 HD
ENDBRANCH   8  12
TORSDOF 1
ENDMDL
MODEL 3
REMARK VINA RESULT: -6.465942122      2.858      3.588
REMARK  1 active torsions:
REMARK  status: ('A' for Active; 'I' for Inactive)
REMARK    1  A    between atoms: N3_8  and  N4_10 
ROOT
HETATM    1  C1  UNL     1       3.438  18.238 -12.381  1.00  0.00     0.071 C 
HETATM    2  C2  UNL     1       4.857  17.822 -12.665  1.00  0.00     0.047 A 
HETATM    3  N1  UNL     1       5.265  16.812 -13.438  1.00  0.00    -0.302 N 
ATOM      4  H1  UNL     1       4.641  16.184 -13.944  1.00  0.00     0.186 HD
HETATM    5  N2  UNL     1       6.573  16.735 -13.462  1.00  0.00    -0.283 N 
ATOM      6  H2  UNL     1       7.124  16.050 -13.979  1.00  0.00     0.188 HD
HETATM    7  C3  UNL     1       7.069  17.728 -12.678  1.00  0.00     0.158 A 
HETATM    8  N3  UNL     1       8.328  17.972 -12.454  1.00  0.00    -0.283 N 
ATOM      9  H3  UNL     1       9.052  17.394 -12.881  1.00  0.00     0.188 HD
HETATM   10  C12 UNL     1       5.997  18.417 -12.172  1.00  0.00     0.104 A 
HETATM   11 CL1  UNL     1       6.044  19.799 -11.098  1.00  0.00    -0.078 Cl
ENDROOT
BRANCH   8  12
HETATM   12  N4  UNL     1       8.667  19.030 -11.624  1.00  0.00    -0.307 N 
HETATM   13  C4  UNL     1       9.721  19.740 -11.944  1.00  0.00     0.004 C 
HETATM   14  C5  UNL     1       9.883  20.806 -10.917  1.00  0.00     0.054 C 
HETATM   15  C11 UNL     1      10.383  19.284 -13.164  1.00  0.00     0.054 C 
HETATM   16  C6  UNL     1      10.728  21.902 -11.509  1.00  0.00     0.006 C 
HETATM   17  C7  UNL     1      12.117  21.922 -10.949  1.00  0.00     0.000 C 
HETATM   18  C8  UNL     1      13.085  20.975 -11.542  1.00  0.00     0.000 C 
HETATM   19  C9  UNL     1      12.546  19.613 -11.895  1.00  0.00     0.000 C 
HETATM   20  C10 UNL     1      11.853  19.593 -13.225  1.00  0.00     0.006 C 
ATOM     21  H4  UNL     1       8.116  19.248 -10.794  1.00  0.00     0.186 HD
ENDBRANCH   8  12
TORSDOF 1
ENDMDL
MODEL 4
REMARK VINA RESULT: -6.447982453      5.652      7.272
REMARK  1 active torsions:
REMARK  status: ('A' for Active; 'I' for Inactive)
REMARK    1  A    between atoms: N3_8  and  N4_10 
ROOT
HETATM    1  C1  UNL     1      14.358  24.441 -10.391  1.00  0.00     0.071 C 
HETATM    2  C2  UNL     1      13.257  23.516 -10.835  1.00  0.00     0.047 A 
HETATM    3  N1  UNL     1      12.491  22.740 -10.063  1.00  0.00    -0.302 N 
ATOM      4  H1  UNL     1      12.566  22.682  -9.048  1.00  0.00     0.186 HD
HETATM    5  N2  UNL     1      11.630  22.062 -10.783  1.00  0.00    -0.283 N 
ATOM      6  H2  UNL     1      10.939  21.402 -10.426  1.00  0.00     0.188 HD
HETATM    7  C3  UNL     1      11.818  22.390 -12.088  1.00  0.00     0.158 A 
HETATM    8  N3  UNL     1      11.150  21.920 -13.101  1.00  0.00    -0.283 N 
ATOM      9  H3  UNL     1      10.405  21.239 -12.960  1.00  0.00     0.188 HD
HETATM   10  C12 UNL     1      12.840  23.305 -12.131  1.00  0.00     0.104 A 
HETATM   11 CL1  UNL     1      13.506  24.074 -13.555  1.00  0.00    -0.078 Cl
ENDROOT
BRANCH   8  12
HETATM   12  N4  UNL     1      11.469  22.363 -14.376  1.00  0.00    -0.307 N 
HETATM   13  C4  UNL     1      10.971  21.701 -15.392  1.00  0.00     0.004 C 
HETATM   14  C5  UNL     1      11.448  22.355 -16.641  1.00  0.00     0.054 C 
HETATM   15  C11 UNL     1      10.133  20.572 -14.997  1.00  0.00     0.054 C 
HETATM   16  C6  UNL     1      10.521  21.961 -17.760  1.00  0.00     0.006 C 
HETATM   17  C7  UNL     1      11.141  20.972 -18.698  1.00  0.00     0.000 C 
HETATM   18  C8  UNL     1      11.105  19.553 -18.285  1.00  0.00     0.000 C 
HETATM   19  C9  UNL     1      11.326  19.286 -16.819  1.00  0.00     0.000 C 
HETATM   20  C10 UNL     1      10.078  19.457 -16.005  1.00  0.00     0.006 C 
ATOM     21  H4  UNL     1      12.071  23.175 -14.519  1.00  0.00     0.186 HD
ENDBRANCH   8  12
TORSDOF 1
ENDMDL
MODEL 5
REMARK VINA RESULT: -6.445191602      5.701      8.003
REMARK  1 active torsions:
REMARK  status: ('A' for Active; 'I' for Inactive)
REMARK    1  A    between atoms: N3_8  and  N4_10 
ROOT
HETATM    1  C1  UNL     1      15.376  24.605  -9.258  1.00  0.00     0.071 C 
HETATM    2  C2  UNL     1      13.917  24.252  -9.377  1.00  0.00     0.047 A 
HETATM    3  N1  UNL     1      12.998  24.269  -8.408  1.00  0.00    -0.302 N 
ATOM      4  H1  UNL     1      13.184  24.532  -7.440  1.00  0.00     0.186 HD
HETATM    5  N2  UNL     1      11.825  23.902  -8.864  1.00  0.00    -0.283 N 
ATOM      6  H2  UNL     1      10.965  23.834  -8.319  1.00  0.00     0.188 HD
HETATM    7  C3  UNL     1      11.953  23.628 -10.188  1.00  0.00     0.158 A 
HETATM    8  N3  UNL     1      11.002  23.233 -10.985  1.00  0.00    -0.283 N 
ATOM      9  H3  UNL     1      10.054  23.101 -10.635  1.00  0.00     0.188 HD
HETATM   10  C12 UNL     1      13.266  23.845 -10.520  1.00  0.00     0.104 A 
HETATM   11 CL1  UNL     1      13.999  23.649 -12.098  1.00  0.00    -0.078 Cl
ENDROOT
BRANCH   8  12
HETATM   12  N4  UNL     1      11.302  22.997 -12.318  1.00  0.00    -0.307 N 
HETATM   13  C4  UNL     1      10.939  21.845 -12.828  1.00  0.00     0.004 C 
HETATM   14  C5  UNL     1      11.364  21.823 -14.255  1.00  0.00     0.054 C 
HETATM   15  C11 UNL     1      10.253  20.976 -11.875  1.00  0.00     0.054 C 
HETATM   16  C6  UNL     1      10.542  20.786 -14.972  1.00  0.00     0.006 C 
HETATM   17  C7  UNL     1      11.328  19.552 -15.294  1.00  0.00     0.000 C 
HETATM   18  C8  UNL     1      11.475  18.558 -14.209  1.00  0.00     0.000 C 
HETATM   19  C9  UNL     1      11.679  19.116 -12.825  1.00  0.00     0.000 C 
HETATM   20  C10 UNL     1      10.390  19.507 -12.164  1.00  0.00     0.006 C 
ATOM     21  H4  UNL     1      11.789  23.693 -12.882  1.00  0.00     0.186 HD
ENDBRANCH   8  12
TORSDOF 1
ENDMDL
