MODEL 1
REMARK VINA RESULT: -5.263118704      0.000      0.000
REMARK  2 active torsions:
REMARK  status: ('A' for Active; 'I' for Inactive)
REMARK    1  A    between atoms: N1_1  and  C1_4 
REMARK    2  A    between atoms: N3_10  and  C4_11 
ROOT
HETATM    1  C1  UNL     1       6.281  18.675 -11.245  1.00  0.00     0.135 A 
HETATM    2  C2  UNL     1       7.028  19.798 -11.526  1.00  0.00     0.072 A 
HETATM    3 BR1  UNL     1       6.548  21.603 -11.307  1.00  0.00    -0.045 Br
HETATM    4  C3  UNL     1       8.216  19.315 -12.007  1.00  0.00     0.130 A 
HETATM    5  N2  UNL     1       8.150  17.995 -12.001  1.00  0.00    -0.306 N 
ATOM      6  H2  UNL     1       8.905  17.382 -12.311  1.00  0.00     0.186 HD
HETATM    7  N3  UNL     1       6.991  17.569 -11.545  1.00  0.00    -0.271 N 
ENDROOT
BRANCH   7   8
HETATM    8  C4  UNL     1       6.641  16.209 -11.426  1.00  0.00     0.110 C 
HETATM    9  C5  UNL     1       7.054  15.494 -10.195  1.00  0.00     0.027 C 
HETATM   10  C6  UNL     1       6.871  14.040 -10.615  1.00  0.00     0.002 C 
HETATM   11  C7  UNL     1       7.618  14.043 -11.933  1.00  0.00     0.002 C 
HETATM   12  C8  UNL     1       7.106  15.321 -12.565  1.00  0.00     0.027 C 
ENDBRANCH   7   8
BRANCH   1  13
HETATM   13  N1  UNL     1       5.095  18.753 -10.771  1.00  0.00    -0.383 N 
ATOM     14  H12 UNL     1       4.408  19.494 -10.903  1.00  0.00     0.157 HD
ATOM     15  H11 UNL     1       4.706  18.024 -10.173  1.00  0.00     0.157 HD
ENDBRANCH   1  13
TORSDOF 2
ENDMDL
MODEL 2
REMARK VINA RESULT: -5.026893050      2.036      2.039
REMARK  2 active torsions:
REMARK  status: ('A' for Active; 'I' for Inactive)
REMARK    1  A    between atoms: N1_1  and  C1_4 
REMARK    2  A    between atoms: N3_10  and  C4_11 
ROOT
HETATM    1  C1  UNL     1       6.604  17.948 -13.646  1.00  0.00     0.135 A 
HETATM    2  C2  UNL     1       7.464  18.937 -14.072  1.00  0.00     0.072 A 
HETATM    3 BR1  UNL     1       7.115  20.357 -15.254  1.00  0.00    -0.045 Br
HETATM    4  C3  UNL     1       8.649  18.663 -13.441  1.00  0.00     0.130 A 
HETATM    5  N2  UNL     1       8.474  17.582 -12.701  1.00  0.00    -0.306 N 
ATOM      6  H2  UNL     1       9.202  17.159 -12.124  1.00  0.00     0.186 HD
HETATM    7  N3  UNL     1       7.246  17.119 -12.799  1.00  0.00    -0.271 N 
ENDROOT
BRANCH   7   8
HETATM    8  C4  UNL     1       6.776  15.978 -12.120  1.00  0.00     0.110 C 
HETATM    9  C5  UNL     1       7.071  15.864 -10.672  1.00  0.00     0.027 C 
HETATM   10  C6  UNL     1       6.783  14.388 -10.420  1.00  0.00     0.002 C 
HETATM   11  C7  UNL     1       7.585  13.761 -11.541  1.00  0.00     0.002 C 
HETATM   12  C8  UNL     1       7.213  14.650 -12.710  1.00  0.00     0.027 C 
ENDBRANCH   7   8
BRANCH   1  13
HETATM   13  N1  UNL     1       5.389  17.893 -14.043  1.00  0.00    -0.383 N 
ATOM     14  H12 UNL     1       5.016  18.087 -14.972  1.00  0.00     0.157 HD
ATOM     15  H11 UNL     1       4.629  17.630 -13.415  1.00  0.00     0.157 HD
ENDBRANCH   1  13
TORSDOF 2
ENDMDL
MODEL 3
REMARK VINA RESULT: -4.806387257      0.847      2.059
REMARK  2 active torsions:
REMARK  status: ('A' for Active; 'I' for Inactive)
REMARK    1  A    between atoms: N1_1  and  C1_4 
REMARK    2  A    between atoms: N3_10  and  C4_11 
ROOT
HETATM    1  C1  UNL     1       6.944  18.907 -11.403  1.00  0.00     0.135 A 
HETATM    2  C2  UNL     1       5.900  19.806 -11.367  1.00  0.00     0.072 A 
HETATM    3 BR1  UNL     1       5.977  21.685 -11.382  1.00  0.00    -0.045 Br
HETATM    4  C3  UNL     1       4.772  19.029 -11.318  1.00  0.00     0.130 A 
HETATM    5  N2  UNL     1       5.152  17.763 -11.325  1.00  0.00    -0.306 N 
ATOM      6  H2  UNL     1       4.508  16.972 -11.295  1.00  0.00     0.186 HD
HETATM    7  N3  UNL     1       6.462  17.648 -11.376  1.00  0.00    -0.271 N 
ENDROOT
BRANCH   7   8
HETATM    8  C4  UNL     1       7.147  16.417 -11.396  1.00  0.00     0.110 C 
HETATM    9  C5  UNL     1       6.856  15.482 -12.507  1.00  0.00     0.027 C 
HETATM   10  C6  UNL     1       7.440  14.180 -11.968  1.00  0.00     0.002 C 
HETATM   11  C7  UNL     1       6.806  14.150 -10.592  1.00  0.00     0.002 C 
HETATM   12  C8  UNL     1       7.006  15.581 -10.137  1.00  0.00     0.027 C 
ENDBRANCH   7   8
BRANCH   1  13
HETATM   13  N1  UNL     1       8.164  19.290 -11.454  1.00  0.00    -0.383 N 
ATOM     14  H12 UNL     1       8.597  19.939 -12.110  1.00  0.00     0.157 HD
ATOM     15  H11 UNL     1       8.862  18.953 -10.791  1.00  0.00     0.157 HD
ENDBRANCH   1  13
TORSDOF 2
ENDMDL
MODEL 4
REMARK VINA RESULT: -4.758627422      1.749      2.426
REMARK  2 active torsions:
REMARK  status: ('A' for Active; 'I' for Inactive)
REMARK    1  A    between atoms: N1_1  and  C1_4 
REMARK    2  A    between atoms: N3_10  and  C4_11 
ROOT
HETATM    1  C1  UNL     1       5.415  18.210 -11.600  1.00  0.00     0.135 A 
HETATM    2  C2  UNL     1       4.423  18.840 -12.319  1.00  0.00     0.072 A 
HETATM    3 BR1  UNL     1       3.462  20.393 -11.870  1.00  0.00    -0.045 Br
HETATM    4  C3  UNL     1       4.280  18.084 -13.453  1.00  0.00     0.130 A 
HETATM    5  N2  UNL     1       5.141  17.082 -13.383  1.00  0.00    -0.306 N 
ATOM      6  H2  UNL     1       5.244  16.365 -14.101  1.00  0.00     0.186 HD
HETATM    7  N3  UNL     1       5.847  17.125 -12.273  1.00  0.00    -0.271 N 
ENDROOT
BRANCH   7   8
HETATM    8  C4  UNL     1       6.838  16.184 -11.931  1.00  0.00     0.110 C 
HETATM    9  C5  UNL     1       6.964  14.974 -12.777  1.00  0.00     0.027 C 
HETATM   10  C6  UNL     1       7.804  14.067 -11.884  1.00  0.00     0.002 C 
HETATM   11  C7  UNL     1       7.026  14.168 -10.588  1.00  0.00     0.002 C 
HETATM   12  C8  UNL     1       6.766  15.658 -10.509  1.00  0.00     0.027 C 
ENDBRANCH   7   8
BRANCH   1  13
HETATM   13  N1  UNL     1       5.812  18.652 -10.466  1.00  0.00    -0.383 N 
ATOM     14  H12 UNL     1       5.879  18.153  -9.580  1.00  0.00     0.157 HD
ATOM     15  H11 UNL     1       6.119  19.617 -10.343  1.00  0.00     0.157 HD
ENDBRANCH   1  13
TORSDOF 2
ENDMDL
MODEL 5
REMARK VINA RESULT: -4.756016866      5.734      6.873
REMARK  2 active torsions:
REMARK  status: ('A' for Active; 'I' for Inactive)
REMARK    1  A    between atoms: N1_1  and  C1_4 
REMARK    2  A    between atoms: N3_10  and  C4_11 
ROOT
HETATM    1  C1  UNL     1      12.843  22.229 -11.050  1.00  0.00     0.135 A 
HETATM    2  C2  UNL     1      12.215  22.829  -9.981  1.00  0.00     0.072 A 
HETATM    3 BR1  UNL     1      12.848  24.219  -8.885  1.00  0.00    -0.045 Br
HETATM    4  C3  UNL     1      11.007  22.189  -9.882  1.00  0.00     0.130 A 
HETATM    5  N2  UNL     1      10.952  21.277 -10.838  1.00  0.00    -0.306 N 
ATOM      6  H2  UNL     1      10.158  20.655 -10.991  1.00  0.00     0.186 HD
HETATM    7  N3  UNL     1      12.048  21.271 -11.567  1.00  0.00    -0.271 N 
ENDROOT
BRANCH   7   8
HETATM    8  C4  UNL     1      12.267  20.405 -12.656  1.00  0.00     0.110 C 
HETATM    9  C5  UNL     1      11.292  20.436 -13.772  1.00  0.00     0.027 C 
HETATM   10  C6  UNL     1      11.625  19.139 -14.501  1.00  0.00     0.002 C 
HETATM   11  C7  UNL     1      11.615  18.166 -13.340  1.00  0.00     0.002 C 
HETATM   12  C8  UNL     1      12.397  18.936 -12.296  1.00  0.00     0.027 C 
ENDBRANCH   7   8
BRANCH   1  13
HETATM   13  N1  UNL     1      14.011  22.585 -11.434  1.00  0.00    -0.383 N 
ATOM     14  H12 UNL     1      14.519  22.294 -12.269  1.00  0.00     0.157 HD
ATOM     15  H11 UNL     1      14.578  23.240 -10.895  1.00  0.00     0.157 HD
ENDBRANCH   1  13
TORSDOF 2
ENDMDL
