MODEL 1
REMARK VINA RESULT: -8.087215417      0.000      0.000
REMARK  8 active torsions:
REMARK  status: ('A' for Active; 'I' for Inactive)
REMARK    1  A    between atoms: C2_2  and  C3_3 
REMARK    2  A    between atoms: C2_2  and  C12_22 
REMARK    3  A    between atoms: C3_3  and  C4_4 
REMARK    4  A    between atoms: C4_4  and  N1_5 
REMARK    5  A    between atoms: N1_5  and  O1_6 
REMARK    6  A    between atoms: N1_5  and  C5_8 
REMARK    7  A    between atoms: N2_11  and  C8_12 
REMARK    8  A    between atoms: C12_22  and  C13_23 
ROOT
HETATM    1  C5  UNL     1      -5.772  35.191  80.593  1.00  0.00     0.116 C 
HETATM    2  C6  UNL     1      -6.489  35.697  79.394  1.00  0.00     0.047 C 
HETATM    3  C7  UNL     1      -7.955  35.199  79.398  1.00  0.00     0.126 C 
HETATM    4  N2  UNL     1      -8.570  35.891  80.493  1.00  0.00    -0.365 N 
HETATM    5  C10 UNL     1      -7.922  35.757  81.782  1.00  0.00     0.126 C 
HETATM    6  C11 UNL     1      -6.718  34.868  81.715  1.00  0.00     0.047 C 
ENDROOT
BRANCH   1   7
HETATM    7  N1  UNL     1      -4.759  36.078  81.040  1.00  0.00    -0.271 N 
BRANCH   7   8
HETATM    8  C4  UNL     1      -3.472  35.521  81.108  1.00  0.00     0.090 C 
BRANCH   8   9
HETATM    9  C3  UNL     1      -3.299  34.115  81.495  1.00  0.00     0.051 C 
BRANCH   9  10
HETATM   10  C2  UNL     1      -2.733  33.139  80.548  1.00  0.00    -0.013 C 
HETATM   11  C1  UNL     1      -2.579  31.737  81.082  1.00  0.00     0.010 C 
BRANCH  10  12
HETATM   12  C12 UNL     1      -3.263  33.109  79.157  1.00  0.00     0.013 C 
BRANCH  12  13
HETATM   13  C13 UNL     1      -2.452  33.598  78.044  1.00  0.00    -0.051 C 
HETATM   14  C14 UNL     1      -2.457  32.702  76.825  1.00  0.00     0.014 C 
HETATM   15  C15 UNL     1      -1.068  34.084  78.308  1.00  0.00     0.014 C 
HETATM   16  C16 UNL     1      -3.171  34.894  77.475  1.00  0.00     0.014 C 
ENDBRANCH  12  13
ENDBRANCH  10  12
ENDBRANCH   9  10
ENDBRANCH   8   9
ENDBRANCH   7   8
BRANCH   7  17
HETATM   17  O1  UNL     1      -4.987  37.344  81.148  1.00  0.00    -0.288 OA
ATOM     18  H1  UNL     1      -5.862  37.714  81.185  1.00  0.00     0.244 HD
ENDBRANCH   7  17
ENDBRANCH   1   7
BRANCH   4  19
HETATM   19  C8  UNL     1      -9.735  36.689  80.419  1.00  0.00     0.136 A 
HETATM   20  C9  UNL     1     -10.521  37.140  81.449  1.00  0.00     0.158 A 
HETATM   21  N3  UNL     1     -11.498  37.867  80.892  1.00  0.00    -0.294 N 
HETATM   22  N4  UNL     1     -11.324  37.865  79.586  1.00  0.00    -0.241 N 
ATOM     23  H3  UNL     1     -12.249  38.342  81.393  1.00  0.00     0.187 HD
HETATM   24  N5  UNL     1     -10.270  37.164  79.294  1.00  0.00    -0.270 N 
ATOM     25  H4  UNL     1     -11.924  38.340  78.910  1.00  0.00     0.208 HD
ATOM     26  H5  UNL     1      -9.908  37.004  78.354  1.00  0.00     0.190 HD
ENDBRANCH   4  19
TORSDOF 8
ENDMDL
MODEL 2
REMARK VINA RESULT: -7.188134256      2.173      2.980
REMARK  8 active torsions:
REMARK  status: ('A' for Active; 'I' for Inactive)
REMARK    1  A    between atoms: C2_2  and  C3_3 
REMARK    2  A    between atoms: C2_2  and  C12_22 
REMARK    3  A    between atoms: C3_3  and  C4_4 
REMARK    4  A    between atoms: C4_4  and  N1_5 
REMARK    5  A    between atoms: N1_5  and  O1_6 
REMARK    6  A    between atoms: N1_5  and  C5_8 
REMARK    7  A    between atoms: N2_11  and  C8_12 
REMARK    8  A    between atoms: C12_22  and  C13_23 
ROOT
HETATM    1  C5  UNL     1      -6.666  36.038  80.846  1.00  0.00     0.116 C 
HETATM    2  C6  UNL     1      -8.075  35.591  81.002  1.00  0.00     0.047 C 
HETATM    3  C7  UNL     1      -8.875  35.885  79.710  1.00  0.00     0.126 C 
HETATM    4  N2  UNL     1      -8.329  34.988  78.734  1.00  0.00    -0.365 N 
HETATM    5  C10 UNL     1      -6.894  35.049  78.538  1.00  0.00     0.126 C 
HETATM    6  C11 UNL     1      -6.254  36.092  79.402  1.00  0.00     0.047 C 
ENDROOT
BRANCH   1   7
HETATM    7  N1  UNL     1      -5.754  35.246  81.590  1.00  0.00    -0.271 N 
BRANCH   7   8
HETATM    8  C4  UNL     1      -4.406  35.393  81.224  1.00  0.00     0.090 C 
BRANCH   8   9
HETATM    9  C3  UNL     1      -3.419  34.385  81.632  1.00  0.00     0.051 C 
BRANCH   9  10
HETATM   10  C2  UNL     1      -2.845  33.454  80.647  1.00  0.00    -0.013 C 
HETATM   11  C1  UNL     1      -2.656  32.038  81.133  1.00  0.00     0.010 C 
BRANCH  10  12
HETATM   12  C12 UNL     1      -3.394  33.458  79.262  1.00  0.00     0.013 C 
BRANCH  12  13
HETATM   13  C13 UNL     1      -2.518  33.711  78.120  1.00  0.00    -0.051 C 
HETATM   14  C14 UNL     1      -2.610  32.677  77.019  1.00  0.00     0.014 C 
HETATM   15  C15 UNL     1      -1.091  34.069  78.360  1.00  0.00     0.014 C 
HETATM   16  C16 UNL     1      -3.077  34.999  77.379  1.00  0.00     0.014 C 
ENDBRANCH  12  13
ENDBRANCH  10  12
ENDBRANCH   9  10
ENDBRANCH   8   9
ENDBRANCH   7   8
BRANCH   7  17
HETATM   17  O1  UNL     1      -6.132  34.628  82.659  1.00  0.00    -0.288 OA
ATOM     18  H1  UNL     1      -6.379  33.710  82.669  1.00  0.00     0.244 HD
ENDBRANCH   7  17
ENDBRANCH   1   7
BRANCH   4  19
HETATM   19  C8  UNL     1      -9.061  34.056  77.963  1.00  0.00     0.136 A 
HETATM   20  C9  UNL     1      -9.252  34.042  76.604  1.00  0.00     0.158 A 
HETATM   21  N3  UNL     1     -10.000  32.964  76.335  1.00  0.00    -0.294 N 
HETATM   22  N4  UNL     1     -10.257  32.345  77.469  1.00  0.00    -0.241 N 
ATOM     23  H3  UNL     1     -10.315  32.672  75.411  1.00  0.00     0.187 HD
HETATM   24  N5  UNL     1      -9.698  32.990  78.448  1.00  0.00    -0.270 N 
ATOM     25  H4  UNL     1     -10.810  31.492  77.563  1.00  0.00     0.208 HD
ATOM     26  H5  UNL     1      -9.739  32.723  79.432  1.00  0.00     0.190 HD
ENDBRANCH   4  19
TORSDOF 8
ENDMDL
MODEL 3
REMARK VINA RESULT: -6.816282780      1.626      2.356
REMARK  8 active torsions:
REMARK  status: ('A' for Active; 'I' for Inactive)
REMARK    1  A    between atoms: C2_2  and  C3_3 
REMARK    2  A    between atoms: C2_2  and  C12_22 
REMARK    3  A    between atoms: C3_3  and  C4_4 
REMARK    4  A    between atoms: C4_4  and  N1_5 
REMARK    5  A    between atoms: N1_5  and  O1_6 
REMARK    6  A    between atoms: N1_5  and  C5_8 
REMARK    7  A    between atoms: N2_11  and  C8_12 
REMARK    8  A    between atoms: C12_22  and  C13_23 
ROOT
HETATM    1  C5  UNL     1      -7.742  34.769  81.722  1.00  0.00     0.116 C 
HETATM    2  C6  UNL     1      -7.792  35.511  80.435  1.00  0.00     0.047 C 
HETATM    3  C7  UNL     1      -9.233  35.504  79.871  1.00  0.00     0.126 C 
HETATM    4  N2  UNL     1      -9.981  36.325  80.778  1.00  0.00    -0.365 N 
HETATM    5  C10 UNL     1      -9.918  35.956  82.178  1.00  0.00     0.126 C 
HETATM    6  C11 UNL     1      -9.083  34.732  82.398  1.00  0.00     0.047 C 
ENDROOT
BRANCH   1   7
HETATM    7  N1  UNL     1      -6.755  35.275  82.607  1.00  0.00    -0.271 N 
BRANCH   7   8
HETATM    8  C4  UNL     1      -5.626  35.829  81.982  1.00  0.00     0.090 C 
BRANCH   8   9
HETATM    9  C3  UNL     1      -4.560  34.954  81.479  1.00  0.00     0.051 C 
BRANCH   9  10
HETATM   10  C2  UNL     1      -4.124  35.031  80.075  1.00  0.00    -0.013 C 
HETATM   11  C1  UNL     1      -4.532  36.285  79.342  1.00  0.00     0.010 C 
BRANCH  10  12
HETATM   12  C12 UNL     1      -2.716  34.673  79.747  1.00  0.00     0.013 C 
BRANCH  12  13
HETATM   13  C13 UNL     1      -2.425  33.669  78.727  1.00  0.00    -0.051 C 
HETATM   14  C14 UNL     1      -1.129  33.892  77.979  1.00  0.00     0.014 C 
HETATM   15  C15 UNL     1      -3.496  33.267  77.772  1.00  0.00     0.014 C 
HETATM   16  C16 UNL     1      -2.112  32.309  79.485  1.00  0.00     0.014 C 
ENDBRANCH  12  13
ENDBRANCH  10  12
ENDBRANCH   9  10
ENDBRANCH   8   9
ENDBRANCH   7   8
BRANCH   7  17
HETATM   17  O1  UNL     1      -7.002  35.410  83.867  1.00  0.00    -0.288 OA
ATOM     18  H1  UNL     1      -7.159  36.253  84.278  1.00  0.00     0.244 HD
ENDBRANCH   7  17
ENDBRANCH   1   7
BRANCH   4  19
HETATM   19  C8  UNL     1     -10.757  37.454  80.427  1.00  0.00     0.136 A 
HETATM   20  C9  UNL     1     -10.997  38.583  81.170  1.00  0.00     0.158 A 
HETATM   21  N3  UNL     1     -11.771  39.376  80.418  1.00  0.00    -0.294 N 
HETATM   22  N4  UNL     1     -11.998  38.768  79.272  1.00  0.00    -0.241 N 
ATOM     23  H3  UNL     1     -12.125  40.293  80.687  1.00  0.00     0.187 HD
HETATM   24  N5  UNL     1     -11.393  37.618  79.267  1.00  0.00    -0.270 N 
ATOM     25  H4  UNL     1     -12.561  39.142  78.507  1.00  0.00     0.208 HD
ATOM     26  H5  UNL     1     -11.402  36.948  78.498  1.00  0.00     0.190 HD
ENDBRANCH   4  19
TORSDOF 8
ENDMDL
MODEL 4
REMARK VINA RESULT: -6.666098570      1.842      2.699
REMARK  8 active torsions:
REMARK  status: ('A' for Active; 'I' for Inactive)
REMARK    1  A    between atoms: C2_2  and  C3_3 
REMARK    2  A    between atoms: C2_2  and  C12_22 
REMARK    3  A    between atoms: C3_3  and  C4_4 
REMARK    4  A    between atoms: C4_4  and  N1_5 
REMARK    5  A    between atoms: N1_5  and  O1_6 
REMARK    6  A    between atoms: N1_5  and  C5_8 
REMARK    7  A    between atoms: N2_11  and  C8_12 
REMARK    8  A    between atoms: C12_22  and  C13_23 
ROOT
HETATM    1  C5  UNL     1      -5.976  35.824  81.525  1.00  0.00     0.116 C 
HETATM    2  C6  UNL     1      -7.288  35.125  81.551  1.00  0.00     0.047 C 
HETATM    3  C7  UNL     1      -8.264  35.785  80.546  1.00  0.00     0.126 C 
HETATM    4  N2  UNL     1      -7.724  35.469  79.256  1.00  0.00    -0.365 N 
HETATM    5  C10 UNL     1      -6.342  35.841  79.031  1.00  0.00     0.126 C 
HETATM    6  C11 UNL     1      -5.745  36.532  80.220  1.00  0.00     0.047 C 
ENDROOT
BRANCH   1   7
HETATM    7  N1  UNL     1      -4.890  34.961  81.819  1.00  0.00    -0.271 N 
BRANCH   7   8
HETATM    8  C4  UNL     1      -3.682  35.291  81.181  1.00  0.00     0.090 C 
BRANCH   8   9
HETATM    9  C3  UNL     1      -2.522  34.398  81.296  1.00  0.00     0.051 C 
BRANCH   9  10
HETATM   10  C2  UNL     1      -2.412  33.197  80.452  1.00  0.00    -0.013 C 
HETATM   11  C1  UNL     1      -2.669  31.888  81.156  1.00  0.00     0.010 C 
BRANCH  10  12
HETATM   12  C12 UNL     1      -3.070  33.205  79.116  1.00  0.00     0.013 C 
BRANCH  12  13
HETATM   13  C13 UNL     1      -2.328  33.619  77.927  1.00  0.00    -0.051 C 
HETATM   14  C14 UNL     1      -2.475  32.690  76.742  1.00  0.00     0.014 C 
HETATM   15  C15 UNL     1      -0.905  34.040  78.065  1.00  0.00     0.014 C 
HETATM   16  C16 UNL     1      -3.025  34.934  77.375  1.00  0.00     0.014 C 
ENDBRANCH  12  13
ENDBRANCH  10  12
ENDBRANCH   9  10
ENDBRANCH   8   9
ENDBRANCH   7   8
BRANCH   7  17
HETATM   17  O1  UNL     1      -4.971  34.094  82.772  1.00  0.00    -0.288 OA
ATOM     18  H1  UNL     1      -5.797  33.806  83.144  1.00  0.00     0.244 HD
ENDBRANCH   7  17
ENDBRANCH   1   7
BRANCH   4  19
HETATM   19  C8  UNL     1      -8.414  34.826  78.203  1.00  0.00     0.136 A 
HETATM   20  C9  UNL     1      -7.966  33.821  77.383  1.00  0.00     0.158 A 
HETATM   21  N3  UNL     1      -8.975  33.530  76.552  1.00  0.00    -0.294 N 
HETATM   22  N4  UNL     1      -9.992  34.315  76.842  1.00  0.00    -0.241 N 
ATOM     23  H3  UNL     1      -8.958  32.822  75.818  1.00  0.00     0.187 HD
HETATM   24  N5  UNL     1      -9.666  35.093  77.831  1.00  0.00    -0.270 N 
ATOM     25  H4  UNL     1     -10.894  34.312  76.365  1.00  0.00     0.208 HD
ATOM     26  H5  UNL     1     -10.272  35.795  78.255  1.00  0.00     0.190 HD
ENDBRANCH   4  19
TORSDOF 8
ENDMDL
MODEL 5
REMARK VINA RESULT: -6.466890839      3.685      7.153
REMARK  8 active torsions:
REMARK  status: ('A' for Active; 'I' for Inactive)
REMARK    1  A    between atoms: C2_2  and  C3_3 
REMARK    2  A    between atoms: C2_2  and  C12_22 
REMARK    3  A    between atoms: C3_3  and  C4_4 
REMARK    4  A    between atoms: C4_4  and  N1_5 
REMARK    5  A    between atoms: N1_5  and  O1_6 
REMARK    6  A    between atoms: N1_5  and  C5_8 
REMARK    7  A    between atoms: N2_11  and  C8_12 
REMARK    8  A    between atoms: C12_22  and  C13_23 
ROOT
HETATM    1  C5  UNL     1      -7.442  35.986  79.890  1.00  0.00     0.116 C 
HETATM    2  C6  UNL     1      -6.312  35.888  78.930  1.00  0.00     0.047 C 
HETATM    3  C7  UNL     1      -4.978  36.230  79.638  1.00  0.00     0.126 C 
HETATM    4  N2  UNL     1      -4.761  35.143  80.547  1.00  0.00    -0.365 N 
HETATM    5  C10 UNL     1      -5.838  34.857  81.474  1.00  0.00     0.126 C 
HETATM    6  C11 UNL     1      -6.986  35.806  81.311  1.00  0.00     0.047 C 
ENDROOT
BRANCH   1   7
HETATM    7  N1  UNL     1      -8.495  35.084  79.591  1.00  0.00    -0.271 N 
BRANCH   7   8
HETATM    8  C4  UNL     1      -8.376  34.424  78.357  1.00  0.00     0.090 C 
BRANCH   8   9
HETATM    9  C3  UNL     1      -9.497  34.433  77.408  1.00  0.00     0.051 C 
BRANCH   9  10
HETATM   10  C2  UNL     1      -9.820  33.234  76.616  1.00  0.00    -0.013 C 
HETATM   11  C1  UNL     1      -9.270  33.224  75.211  1.00  0.00     0.010 C 
BRANCH  10  12
HETATM   12  C12 UNL     1      -9.651  31.897  77.249  1.00  0.00     0.013 C 
BRANCH  12  13
HETATM   13  C13 UNL     1     -10.545  30.795  76.901  1.00  0.00    -0.051 C 
HETATM   14  C14 UNL     1      -9.903  29.704  76.072  1.00  0.00     0.014 C 
HETATM   15  C15 UNL     1     -11.905  31.098  76.371  1.00  0.00     0.014 C 
HETATM   16  C16 UNL     1     -10.866  30.011  78.245  1.00  0.00     0.014 C 
ENDBRANCH  12  13
ENDBRANCH  10  12
ENDBRANCH   9  10
ENDBRANCH   8   9
ENDBRANCH   7   8
BRANCH   7  17
HETATM   17  O1  UNL     1      -9.354  34.745  80.493  1.00  0.00    -0.288 OA
ATOM     18  H1  UNL     1      -9.327  33.911  80.949  1.00  0.00     0.244 HD
ENDBRANCH   7  17
ENDBRANCH   1   7
BRANCH   4  19
HETATM   19  C8  UNL     1      -3.605  34.331  80.608  1.00  0.00     0.136 A 
HETATM   20  C9  UNL     1      -3.278  33.258  79.819  1.00  0.00     0.158 A 
HETATM   21  N3  UNL     1      -2.085  32.822  80.244  1.00  0.00    -0.294 N 
HETATM   22  N4  UNL     1      -1.695  33.586  81.243  1.00  0.00    -0.241 N 
ATOM     23  H3  UNL     1      -1.566  32.032  79.859  1.00  0.00     0.187 HD
HETATM   24  N5  UNL     1      -2.598  34.495  81.467  1.00  0.00    -0.270 N 
ATOM     25  H4  UNL     1      -0.822  33.482  81.760  1.00  0.00     0.208 HD
ATOM     26  H5  UNL     1      -2.544  35.217  82.185  1.00  0.00     0.190 HD
ENDBRANCH   4  19
TORSDOF 8
ENDMDL
