MODEL 1
REMARK VINA RESULT: -7.436611892      0.000      0.000
REMARK  6 active torsions:
REMARK  status: ('A' for Active; 'I' for Inactive)
REMARK    1  A    between atoms: N1_8  and  C8_9 
REMARK    2  A    between atoms: C8_9  and  C9_10 
REMARK    3  A    between atoms: C9_10  and  C10_11 
REMARK    4  A    between atoms: C10_11  and  C11_12 
REMARK    5  A    between atoms: C11_12  and  S1_13 
REMARK    6  A    between atoms: S1_13  and  C12_14 
ROOT
HETATM    1  C1  UNL     1     -13.366  31.784  76.143  1.00  0.00     0.015 C 
HETATM    2  C2  UNL     1     -12.195  31.568  75.921  1.00  0.00    -0.076 C 
HETATM    3  C3  UNL     1     -10.771  31.322  75.630  1.00  0.00     0.217 C 
HETATM    4  C4  UNL     1     -10.283  30.190  76.442  1.00  0.00     0.064 C 
HETATM    5  C5  UNL     1     -10.613  30.968  74.152  1.00  0.00     0.056 C 
HETATM    6  C6  UNL     1      -9.271  31.583  73.897  1.00  0.00     0.034 C 
HETATM    7  C7  UNL     1      -9.421  32.930  74.648  1.00  0.00     0.275 C 
HETATM    8  N1  UNL     1     -10.112  32.595  75.820  1.00  0.00     0.109 N 
ENDROOT
BRANCH   8   9
HETATM    9  C8  UNL     1      -9.518  32.749  77.089  1.00  0.00     0.275 C 
BRANCH   9  10
HETATM   10  C9  UNL     1      -8.893  34.041  77.450  1.00  0.00     0.031 C 
BRANCH  10  11
HETATM   11  C10 UNL     1      -8.888  34.535  78.829  1.00  0.00     0.012 C 
BRANCH  11  12
HETATM   12  C11 UNL     1      -8.143  35.828  79.088  1.00  0.00     0.082 C 
BRANCH  12  13
HETATM   13  S1  UNL     1      -7.022  35.531  80.461  1.00  0.00    -0.094 SA
BRANCH  13  14
HETATM   14  C12 UNL     1      -5.368  35.107  79.934  1.00  0.00     0.145 A 
HETATM   15  N2  UNL     1      -4.354  34.841  80.734  1.00  0.00    -0.322 N 
HETATM   16  C13 UNL     1      -3.148  34.526  80.242  1.00  0.00     0.123 A 
ATOM     17  H2  UNL     1      -4.490  34.877  81.744  1.00  0.00     0.169 HD
HETATM   18  N3  UNL     1      -2.129  34.246  81.013  1.00  0.00    -0.384 N 
HETATM   19  C14 UNL     1      -2.932  34.471  78.875  1.00  0.00     0.103 A 
ATOM     20  H32 UNL     1      -2.288  34.287  82.020  1.00  0.00     0.157 HD
ATOM     21  H31 UNL     1      -1.210  34.006  80.638  1.00  0.00     0.157 HD
HETATM   22  C15 UNL     1      -1.653  34.141  78.305  1.00  0.00     0.104 C 
HETATM   23  C16 UNL     1      -4.005  34.753  78.063  1.00  0.00     0.116 A 
HETATM   24  N4  UNL     1      -0.625  33.890  77.832  1.00  0.00    -0.191 NA
HETATM   25  N5  UNL     1      -5.191  35.062  78.589  1.00  0.00    -0.345 N 
ATOM     26  H5  UNL     1      -5.976  35.267  77.971  1.00  0.00     0.167 HD
ENDBRANCH  13  14
ENDBRANCH  12  13
ENDBRANCH  11  12
ENDBRANCH  10  11
ENDBRANCH   9  10
ENDBRANCH   8   9
TORSDOF 6
ENDMDL
MODEL 2
REMARK VINA RESULT: -7.218384163      1.771      8.274
REMARK  6 active torsions:
REMARK  status: ('A' for Active; 'I' for Inactive)
REMARK    1  A    between atoms: N1_8  and  C8_9 
REMARK    2  A    between atoms: C8_9  and  C9_10 
REMARK    3  A    between atoms: C9_10  and  C10_11 
REMARK    4  A    between atoms: C10_11  and  C11_12 
REMARK    5  A    between atoms: C11_12  and  S1_13 
REMARK    6  A    between atoms: S1_13  and  C12_14 
ROOT
HETATM    1  C1  UNL     1      -0.757  34.080  77.857  1.00  0.00     0.015 C 
HETATM    2  C2  UNL     1      -1.665  33.842  78.623  1.00  0.00    -0.076 C 
HETATM    3  C3  UNL     1      -2.754  33.559  79.575  1.00  0.00     0.217 C 
HETATM    4  C4  UNL     1      -3.872  32.897  78.874  1.00  0.00     0.064 C 
HETATM    5  C5  UNL     1      -2.238  32.621  80.667  1.00  0.00     0.056 C 
HETATM    6  C6  UNL     1      -3.042  33.129  81.823  1.00  0.00     0.034 C 
HETATM    7  C7  UNL     1      -2.928  34.659  81.608  1.00  0.00     0.275 C 
HETATM    8  N1  UNL     1      -3.042  34.820  80.221  1.00  0.00     0.109 N 
ENDROOT
BRANCH   8   9
HETATM    9  C8  UNL     1      -4.125  35.520  79.651  1.00  0.00     0.275 C 
BRANCH   9  10
HETATM   10  C9  UNL     1      -5.204  36.032  80.526  1.00  0.00     0.031 C 
BRANCH  10  11
HETATM   11  C10 UNL     1      -6.610  35.697  80.290  1.00  0.00     0.012 C 
BRANCH  11  12
HETATM   12  C11 UNL     1      -6.993  35.316  78.875  1.00  0.00     0.082 C 
BRANCH  12  13
HETATM   13  S1  UNL     1      -8.742  34.904  78.889  1.00  0.00    -0.094 SA
BRANCH  13  14
HETATM   14  C12 UNL     1      -9.208  33.794  77.568  1.00  0.00     0.145 A 
HETATM   15  N2  UNL     1      -9.064  34.034  76.280  1.00  0.00    -0.322 N 
HETATM   16  C13 UNL     1      -9.439  33.133  75.362  1.00  0.00     0.123 A 
ATOM     17  H2  UNL     1      -8.659  34.919  75.977  1.00  0.00     0.169 HD
HETATM   18  N3  UNL     1      -9.296  33.340  74.077  1.00  0.00    -0.384 N 
HETATM   19  C14 UNL     1      -9.994  31.921  75.741  1.00  0.00     0.103 A 
ATOM     20  H32 UNL     1      -8.888  34.233  73.798  1.00  0.00     0.157 HD
ATOM     21  H31 UNL     1      -9.583  32.654  73.378  1.00  0.00     0.157 HD
HETATM   22  C15 UNL     1     -10.414  30.929  74.789  1.00  0.00     0.104 C 
HETATM   23  C16 UNL     1     -10.134  31.697  77.091  1.00  0.00     0.116 A 
HETATM   24  N4  UNL     1     -10.771  30.125  74.032  1.00  0.00    -0.191 NA
HETATM   25  N5  UNL     1      -9.747  32.616  77.975  1.00  0.00    -0.345 N 
ATOM     26  H5  UNL     1      -9.858  32.432  78.972  1.00  0.00     0.167 HD
ENDBRANCH  13  14
ENDBRANCH  12  13
ENDBRANCH  11  12
ENDBRANCH  10  11
ENDBRANCH   9  10
ENDBRANCH   8   9
TORSDOF 6
ENDMDL
MODEL 3
REMARK VINA RESULT: -7.174664742      0.698      1.424
REMARK  6 active torsions:
REMARK  status: ('A' for Active; 'I' for Inactive)
REMARK    1  A    between atoms: N1_8  and  C8_9 
REMARK    2  A    between atoms: C8_9  and  C9_10 
REMARK    3  A    between atoms: C9_10  and  C10_11 
REMARK    4  A    between atoms: C10_11  and  C11_12 
REMARK    5  A    between atoms: C11_12  and  S1_13 
REMARK    6  A    between atoms: S1_13  and  C12_14 
ROOT
HETATM    1  C1  UNL     1     -13.313  32.041  76.285  1.00  0.00     0.015 C 
HETATM    2  C2  UNL     1     -12.152  31.792  76.043  1.00  0.00    -0.076 C 
HETATM    3  C3  UNL     1     -10.742  31.506  75.728  1.00  0.00     0.217 C 
HETATM    4  C4  UNL     1     -10.266  30.374  76.547  1.00  0.00     0.064 C 
HETATM    5  C5  UNL     1     -10.622  31.126  74.252  1.00  0.00     0.056 C 
HETATM    6  C6  UNL     1      -9.270  31.703  73.963  1.00  0.00     0.034 C 
HETATM    7  C7  UNL     1      -9.372  33.064  74.696  1.00  0.00     0.275 C 
HETATM    8  N1  UNL     1     -10.046  32.764  75.886  1.00  0.00     0.109 N 
ENDROOT
BRANCH   8   9
HETATM    9  C8  UNL     1      -9.424  32.921  77.141  1.00  0.00     0.275 C 
BRANCH   9  10
HETATM   10  C9  UNL     1      -8.879  34.243  77.523  1.00  0.00     0.031 C 
BRANCH  10  11
HETATM   11  C10 UNL     1      -8.689  34.621  78.926  1.00  0.00     0.012 C 
BRANCH  11  12
HETATM   12  C11 UNL     1      -7.927  35.902  79.191  1.00  0.00     0.082 C 
BRANCH  12  13
HETATM   13  S1  UNL     1      -6.635  35.518  80.379  1.00  0.00    -0.094 SA
BRANCH  13  14
HETATM   14  C12 UNL     1      -5.065  35.150  79.609  1.00  0.00     0.145 A 
HETATM   15  N2  UNL     1      -4.727  35.456  78.372  1.00  0.00    -0.322 N 
HETATM   16  C13 UNL     1      -3.519  35.142  77.886  1.00  0.00     0.123 A 
ATOM     17  H2  UNL     1      -5.397  35.941  77.776  1.00  0.00     0.169 HD
HETATM   18  N3  UNL     1      -3.154  35.445  76.666  1.00  0.00    -0.384 N 
HETATM   19  C14 UNL     1      -2.588  34.482  78.671  1.00  0.00     0.103 A 
ATOM     20  H32 UNL     1      -3.840  35.931  76.088  1.00  0.00     0.157 HD
ATOM     21  H31 UNL     1      -2.234  35.206  76.296  1.00  0.00     0.157 HD
HETATM   22  C15 UNL     1      -1.282  34.123  78.188  1.00  0.00     0.104 C 
HETATM   23  C16 UNL     1      -2.965  34.174  79.957  1.00  0.00     0.116 A 
HETATM   24  N4  UNL     1      -0.230  33.814  77.807  1.00  0.00    -0.191 NA
HETATM   25  N5  UNL     1      -4.176  34.504  80.407  1.00  0.00    -0.345 N 
ATOM     26  H5  UNL     1      -4.438  34.267  81.364  1.00  0.00     0.167 HD
ENDBRANCH  13  14
ENDBRANCH  12  13
ENDBRANCH  11  12
ENDBRANCH  10  11
ENDBRANCH   9  10
ENDBRANCH   8   9
TORSDOF 6
ENDMDL
MODEL 4
REMARK VINA RESULT: -7.140407306      0.627      1.769
REMARK  6 active torsions:
REMARK  status: ('A' for Active; 'I' for Inactive)
REMARK    1  A    between atoms: N1_8  and  C8_9 
REMARK    2  A    between atoms: C8_9  and  C9_10 
REMARK    3  A    between atoms: C9_10  and  C10_11 
REMARK    4  A    between atoms: C10_11  and  C11_12 
REMARK    5  A    between atoms: C11_12  and  S1_13 
REMARK    6  A    between atoms: S1_13  and  C12_14 
ROOT
HETATM    1  C1  UNL     1      -9.971  31.608  73.120  1.00  0.00     0.015 C 
HETATM    2  C2  UNL     1     -10.372  31.472  74.255  1.00  0.00    -0.076 C 
HETATM    3  C3  UNL     1     -10.841  31.290  75.640  1.00  0.00     0.217 C 
HETATM    4  C4  UNL     1     -12.190  31.870  75.793  1.00  0.00     0.064 C 
HETATM    5  C5  UNL     1     -10.912  29.796  75.957  1.00  0.00     0.056 C 
HETATM    6  C6  UNL     1     -10.547  29.838  77.408  1.00  0.00     0.034 C 
HETATM    7  C7  UNL     1      -9.379  30.856  77.385  1.00  0.00     0.275 C 
HETATM    8  N1  UNL     1      -9.796  31.837  76.477  1.00  0.00     0.109 N 
ENDROOT
BRANCH   8   9
HETATM    9  C8  UNL     1     -10.028  33.165  76.889  1.00  0.00     0.275 C 
BRANCH   9  10
HETATM   10  C9  UNL     1      -8.901  33.978  77.397  1.00  0.00     0.031 C 
BRANCH  10  11
HETATM   11  C10 UNL     1      -8.876  34.485  78.771  1.00  0.00     0.012 C 
BRANCH  11  12
HETATM   12  C11 UNL     1      -8.129  35.781  79.007  1.00  0.00     0.082 C 
BRANCH  12  13
HETATM   13  S1  UNL     1      -7.019  35.512  80.395  1.00  0.00    -0.094 SA
BRANCH  13  14
HETATM   14  C12 UNL     1      -5.356  35.100  79.889  1.00  0.00     0.145 A 
HETATM   15  N2  UNL     1      -4.343  34.870  80.701  1.00  0.00    -0.322 N 
HETATM   16  C13 UNL     1      -3.130  34.560  80.225  1.00  0.00     0.123 A 
ATOM     17  H2  UNL     1      -4.486  34.928  81.709  1.00  0.00     0.169 HD
HETATM   18  N3  UNL     1      -2.111  34.315  81.009  1.00  0.00    -0.384 N 
HETATM   19  C14 UNL     1      -2.903  34.476  78.861  1.00  0.00     0.103 A 
ATOM     20  H32 UNL     1      -2.277  34.378  82.013  1.00  0.00     0.157 HD
ATOM     21  H31 UNL     1      -1.187  34.080  80.646  1.00  0.00     0.157 HD
HETATM   22  C15 UNL     1      -1.616  34.151  78.308  1.00  0.00     0.104 C 
HETATM   23  C16 UNL     1      -3.976  34.721  78.035  1.00  0.00     0.116 A 
HETATM   24  N4  UNL     1      -0.581  33.904  77.846  1.00  0.00    -0.191 NA
HETATM   25  N5  UNL     1      -5.169  35.025  78.546  1.00  0.00    -0.345 N 
ATOM     26  H5  UNL     1      -5.953  35.203  77.919  1.00  0.00     0.167 HD
ENDBRANCH  13  14
ENDBRANCH  12  13
ENDBRANCH  11  12
ENDBRANCH  10  11
ENDBRANCH   9  10
ENDBRANCH   8   9
TORSDOF 6
ENDMDL
MODEL 5
REMARK VINA RESULT: -7.063204364      1.746      8.074
REMARK  6 active torsions:
REMARK  status: ('A' for Active; 'I' for Inactive)
REMARK    1  A    between atoms: N1_8  and  C8_9 
REMARK    2  A    between atoms: C8_9  and  C9_10 
REMARK    3  A    between atoms: C9_10  and  C10_11 
REMARK    4  A    between atoms: C10_11  and  C11_12 
REMARK    5  A    between atoms: C11_12  and  S1_13 
REMARK    6  A    between atoms: S1_13  and  C12_14 
ROOT
HETATM    1  C1  UNL     1      -1.012  34.331  77.828  1.00  0.00     0.015 C 
HETATM    2  C2  UNL     1      -1.870  34.072  78.644  1.00  0.00    -0.076 C 
HETATM    3  C3  UNL     1      -2.903  33.773  79.651  1.00  0.00     0.217 C 
HETATM    4  C4  UNL     1      -3.643  32.556  79.265  1.00  0.00     0.064 C 
HETATM    5  C5  UNL     1      -2.232  33.529  81.003  1.00  0.00     0.056 C 
HETATM    6  C6  UNL     1      -3.290  34.089  81.903  1.00  0.00     0.034 C 
HETATM    7  C7  UNL     1      -3.673  35.379  81.135  1.00  0.00     0.275 C 
HETATM    8  N1  UNL     1      -3.673  34.989  79.789  1.00  0.00     0.109 N 
ENDROOT
BRANCH   8   9
HETATM    9  C8  UNL     1      -4.853  35.010  79.019  1.00  0.00     0.275 C 
BRANCH   9  10
HETATM   10  C9  UNL     1      -6.035  35.748  79.518  1.00  0.00     0.031 C 
BRANCH  10  11
HETATM   11  C10 UNL     1      -6.930  35.176  80.527  1.00  0.00     0.012 C 
BRANCH  11  12
HETATM   12  C11 UNL     1      -8.403  35.121  80.181  1.00  0.00     0.082 C 
BRANCH  12  13
HETATM   13  S1  UNL     1      -8.544  35.371  78.408  1.00  0.00    -0.094 SA
BRANCH  13  14
HETATM   14  C12 UNL     1      -9.144  33.926  77.544  1.00  0.00     0.145 A 
HETATM   15  N2  UNL     1      -9.736  32.889  78.104  1.00  0.00    -0.322 N 
HETATM   16  C13 UNL     1     -10.159  31.852  77.369  1.00  0.00     0.123 A 
ATOM     17  H2  UNL     1      -9.874  32.877  79.115  1.00  0.00     0.169 HD
HETATM   18  N3  UNL     1     -10.759  30.817  77.898  1.00  0.00    -0.384 N 
HETATM   19  C14 UNL     1      -9.985  31.839  75.995  1.00  0.00     0.103 A 
ATOM     20  H32 UNL     1     -10.888  30.827  78.910  1.00  0.00     0.157 HD
ATOM     21  H31 UNL     1     -11.081  30.027  77.338  1.00  0.00     0.157 HD
HETATM   22  C15 UNL     1     -10.420  30.745  75.169  1.00  0.00     0.104 C 
HETATM   23  C16 UNL     1      -9.365  32.932  75.435  1.00  0.00     0.116 A 
HETATM   24  N4  UNL     1     -10.753  29.864  74.492  1.00  0.00    -0.191 NA
HETATM   25  N5  UNL     1      -8.958  33.946  76.199  1.00  0.00    -0.345 N 
ATOM     26  H5  UNL     1      -8.501  34.749  75.767  1.00  0.00     0.167 HD
ENDBRANCH  13  14
ENDBRANCH  12  13
ENDBRANCH  11  12
ENDBRANCH  10  11
ENDBRANCH   9  10
ENDBRANCH   8   9
TORSDOF 6
ENDMDL
