MODEL 1
REMARK VINA RESULT: -6.870963852      0.000      0.000
REMARK  6 active torsions:
REMARK  status: ('A' for Active; 'I' for Inactive)
REMARK       I    between atoms: C1_2  and  N1_3 
REMARK    1  A    between atoms: C1_2  and  C6_9 
REMARK    2  A    between atoms: N1_3  and  C2_5 
REMARK    3  A    between atoms: C7_12  and  S1_13 
REMARK    4  A    between atoms: S1_13  and  C8_14 
REMARK    5  A    between atoms: C8_14  and  C9_15 
REMARK    6  A    between atoms: C9_15  and  C10_16 
ROOT
HETATM    1  C6  UNL     1      -8.503  34.580  78.436  1.00  0.00     0.191 A 
HETATM    2  N2  UNL     1      -7.202  34.900  78.346  1.00  0.00    -0.316 N 
ATOM      3  H2  UNL     1      -6.569  34.604  77.603  1.00  0.00     0.169 HD
HETATM    4  C7  UNL     1      -6.873  35.666  79.387  1.00  0.00     0.160 A 
HETATM    5  N3  UNL     1      -7.994  35.816  80.124  1.00  0.00    -0.278 N 
ATOM      6  H3  UNL     1      -8.065  36.353  80.988  1.00  0.00     0.189 HD
HETATM    7  N4  UNL     1      -8.972  35.168  79.558  1.00  0.00    -0.279 N 
ATOM      8  H4  UNL     1      -9.929  35.112  79.904  1.00  0.00     0.189 HD
ENDROOT
BRANCH   1   9
HETATM    9  C1  UNL     1      -9.273  33.763  77.512  1.00  0.00     0.287 C 
HETATM   10  O1  UNL     1      -9.514  34.182  76.353  1.00  0.00    -0.264 OA
HETATM   11  N1  UNL     1      -9.769  32.490  77.874  1.00  0.00    -0.350 N 
ATOM     12  H1  UNL     1      -9.579  32.138  78.813  1.00  0.00     0.163 HD
BRANCH  11  13
HETATM   13  C2  UNL     1     -10.539  31.660  76.960  1.00  0.00     0.084 C 
HETATM   14  C3  UNL     1      -9.662  30.824  76.051  1.00  0.00     0.025 C 
HETATM   15  C4  UNL     1      -9.603  29.789  77.161  1.00  0.00     0.004 C 
HETATM   16  C5  UNL     1     -10.927  30.357  77.665  1.00  0.00     0.025 C 
ENDBRANCH  11  13
ENDBRANCH   1   9
BRANCH   4  17
HETATM   17  S1  UNL     1      -5.300  36.383  79.791  1.00  0.00    -0.092 SA
BRANCH  17  18
HETATM   18  C8  UNL     1      -4.468  35.430  81.070  1.00  0.00     0.083 C 
BRANCH  18  19
HETATM   19  C9  UNL     1      -3.977  34.137  80.469  1.00  0.00     0.016 C 
BRANCH  19  20
HETATM   20  C10 UNL     1      -3.235  34.386  79.157  1.00  0.00    -0.004 C 
HETATM   21  C11 UNL     1      -1.798  34.087  79.403  1.00  0.00     0.015 C 
HETATM   22  C12 UNL     1      -1.085  34.079  78.063  1.00  0.00     0.074 C 
HETATM   23  S2  UNL     1      -2.339  33.210  77.040  1.00  0.00    -0.169 SA
HETATM   24  C13 UNL     1      -3.781  33.414  78.159  1.00  0.00     0.078 C 
ENDBRANCH  19  20
ENDBRANCH  18  19
ENDBRANCH  17  18
ENDBRANCH   4  17
TORSDOF 6
ENDMDL
MODEL 2
REMARK VINA RESULT: -6.818034479      1.158      1.443
REMARK  6 active torsions:
REMARK  status: ('A' for Active; 'I' for Inactive)
REMARK       I    between atoms: C1_2  and  N1_3 
REMARK    1  A    between atoms: C1_2  and  C6_9 
REMARK    2  A    between atoms: N1_3  and  C2_5 
REMARK    3  A    between atoms: C7_12  and  S1_13 
REMARK    4  A    between atoms: S1_13  and  C8_14 
REMARK    5  A    between atoms: C8_14  and  C9_15 
REMARK    6  A    between atoms: C9_15  and  C10_16 
ROOT
HETATM    1  C6  UNL     1      -8.443  34.701  78.569  1.00  0.00     0.191 A 
HETATM    2  N2  UNL     1      -7.313  34.733  79.293  1.00  0.00    -0.316 N 
ATOM      3  H2  UNL     1      -6.504  34.128  79.157  1.00  0.00     0.169 HD
HETATM    4  C7  UNL     1      -7.422  35.686  80.221  1.00  0.00     0.160 A 
HETATM    5  N3  UNL     1      -8.641  36.243  80.058  1.00  0.00    -0.278 N 
ATOM      6  H3  UNL     1      -9.022  37.005  80.620  1.00  0.00     0.189 HD
HETATM    7  N4  UNL     1      -9.255  35.656  79.070  1.00  0.00    -0.279 N 
ATOM      8  H4  UNL     1     -10.191  35.879  78.733  1.00  0.00     0.189 HD
ENDROOT
BRANCH   1   9
HETATM    9  C1  UNL     1      -8.748  33.815  77.456  1.00  0.00     0.287 C 
HETATM   10  O1  UNL     1      -7.864  33.546  76.607  1.00  0.00    -0.264 OA
HETATM   11  N1  UNL     1     -10.025  33.232  77.292  1.00  0.00    -0.350 N 
ATOM     12  H1  UNL     1     -10.752  33.443  77.976  1.00  0.00     0.163 HD
BRANCH  11  13
HETATM   13  C2  UNL     1     -10.344  32.343  76.186  1.00  0.00     0.084 C 
HETATM   14  C3  UNL     1      -9.929  30.911  76.449  1.00  0.00     0.025 C 
HETATM   15  C4  UNL     1     -11.255  30.722  77.166  1.00  0.00     0.004 C 
HETATM   16  C5  UNL     1     -11.796  31.872  76.319  1.00  0.00     0.025 C 
ENDBRANCH  11  13
ENDBRANCH   1   9
BRANCH   4  17
HETATM   17  S1  UNL     1      -6.247  36.181  81.456  1.00  0.00    -0.092 SA
BRANCH  17  18
HETATM   18  C8  UNL     1      -4.570  36.128  80.806  1.00  0.00     0.083 C 
BRANCH  18  19
HETATM   19  C9  UNL     1      -4.014  34.741  81.013  1.00  0.00     0.016 C 
BRANCH  19  20
HETATM   20  C10 UNL     1      -3.501  34.152  79.701  1.00  0.00    -0.004 C 
HETATM   21  C11 UNL     1      -3.711  35.180  78.646  1.00  0.00     0.015 C 
HETATM   22  C12 UNL     1      -2.984  34.724  77.395  1.00  0.00     0.074 C 
HETATM   23  S2  UNL     1      -1.443  34.063  78.144  1.00  0.00    -0.169 SA
HETATM   24  C13 UNL     1      -2.035  33.912  79.876  1.00  0.00     0.078 C 
ENDBRANCH  19  20
ENDBRANCH  18  19
ENDBRANCH  17  18
ENDBRANCH   4  17
TORSDOF 6
ENDMDL
MODEL 3
REMARK VINA RESULT: -6.756361882      1.984      2.500
REMARK  6 active torsions:
REMARK  status: ('A' for Active; 'I' for Inactive)
REMARK       I    between atoms: C1_2  and  N1_3 
REMARK    1  A    between atoms: C1_2  and  C6_9 
REMARK    2  A    between atoms: N1_3  and  C2_5 
REMARK    3  A    between atoms: C7_12  and  S1_13 
REMARK    4  A    between atoms: S1_13  and  C8_14 
REMARK    5  A    between atoms: C8_14  and  C9_15 
REMARK    6  A    between atoms: C9_15  and  C10_16 
ROOT
HETATM    1  C6  UNL     1      -8.832  33.734  77.419  1.00  0.00     0.191 A 
HETATM    2  N2  UNL     1      -9.252  34.185  78.612  1.00  0.00    -0.316 N 
ATOM      3  H2  UNL     1     -10.188  34.059  78.997  1.00  0.00     0.169 HD
HETATM    4  C7  UNL     1      -8.246  34.826  79.210  1.00  0.00     0.160 A 
HETATM    5  N3  UNL     1      -7.195  34.763  78.365  1.00  0.00    -0.278 N 
ATOM      6  H3  UNL     1      -6.273  35.163  78.540  1.00  0.00     0.189 HD
HETATM    7  N4  UNL     1      -7.541  34.110  77.293  1.00  0.00    -0.279 N 
ATOM      8  H4  UNL     1      -6.940  33.917  76.493  1.00  0.00     0.189 HD
ENDROOT
BRANCH   1   9
HETATM    9  C1  UNL     1      -9.604  32.982  76.442  1.00  0.00     0.287 C 
HETATM   10  O1  UNL     1      -9.102  32.702  75.326  1.00  0.00    -0.264 OA
HETATM   11  N1  UNL     1     -10.922  32.546  76.706  1.00  0.00    -0.350 N 
ATOM     12  H1  UNL     1     -11.340  32.768  77.610  1.00  0.00     0.163 HD
BRANCH  11  13
HETATM   13  C2  UNL     1     -11.706  31.792  75.740  1.00  0.00     0.084 C 
HETATM   14  C3  UNL     1     -11.638  30.297  75.972  1.00  0.00     0.025 C 
HETATM   15  C4  UNL     1     -12.769  30.461  76.971  1.00  0.00     0.004 C 
HETATM   16  C5  UNL     1     -13.162  31.726  76.212  1.00  0.00     0.025 C 
ENDBRANCH  11  13
ENDBRANCH   1   9
BRANCH   4  17
HETATM   17  S1  UNL     1      -8.218  35.625  80.795  1.00  0.00    -0.092 SA
BRANCH  17  18
HETATM   18  C8  UNL     1      -6.634  35.380  81.611  1.00  0.00     0.083 C 
BRANCH  18  19
HETATM   19  C9  UNL     1      -5.677  36.449  81.144  1.00  0.00     0.016 C 
BRANCH  19  20
HETATM   20  C10 UNL     1      -4.284  35.873  80.899  1.00  0.00    -0.004 C 
HETATM   21  C11 UNL     1      -4.207  34.582  81.635  1.00  0.00     0.015 C 
HETATM   22  C12 UNL     1      -2.937  33.871  81.204  1.00  0.00     0.074 C 
HETATM   23  S2  UNL     1      -2.964  34.233  79.403  1.00  0.00    -0.169 SA
HETATM   24  C13 UNL     1      -4.174  35.615  79.429  1.00  0.00     0.078 C 
ENDBRANCH  19  20
ENDBRANCH  18  19
ENDBRANCH  17  18
ENDBRANCH   4  17
TORSDOF 6
ENDMDL
MODEL 4
REMARK VINA RESULT: -6.746725416      0.999      1.353
REMARK  6 active torsions:
REMARK  status: ('A' for Active; 'I' for Inactive)
REMARK       I    between atoms: C1_2  and  N1_3 
REMARK    1  A    between atoms: C1_2  and  C6_9 
REMARK    2  A    between atoms: N1_3  and  C2_5 
REMARK    3  A    between atoms: C7_12  and  S1_13 
REMARK    4  A    between atoms: S1_13  and  C8_14 
REMARK    5  A    between atoms: C8_14  and  C9_15 
REMARK    6  A    between atoms: C9_15  and  C10_16 
ROOT
HETATM    1  C6  UNL     1      -8.513  34.629  78.347  1.00  0.00     0.191 A 
HETATM    2  N2  UNL     1      -7.205  34.820  78.581  1.00  0.00    -0.316 N 
ATOM      3  H2  UNL     1      -6.441  34.383  78.067  1.00  0.00     0.169 HD
HETATM    4  C7  UNL     1      -7.069  35.676  79.596  1.00  0.00     0.160 A 
HETATM    5  N3  UNL     1      -8.317  36.011  79.987  1.00  0.00    -0.278 N 
ATOM      6  H3  UNL     1      -8.546  36.652  80.746  1.00  0.00     0.189 HD
HETATM    7  N4  UNL     1      -9.184  35.386  79.242  1.00  0.00    -0.279 N 
ATOM      8  H4  UNL     1     -10.198  35.457  79.321  1.00  0.00     0.189 HD
ENDROOT
BRANCH   1   9
HETATM    9  C1  UNL     1      -9.108  33.776  77.330  1.00  0.00     0.287 C 
HETATM   10  O1  UNL     1      -9.536  34.278  76.262  1.00  0.00    -0.264 OA
HETATM   11  N1  UNL     1      -9.225  32.378  77.501  1.00  0.00    -0.350 N 
ATOM     12  H1  UNL     1      -8.881  31.959  78.365  1.00  0.00     0.163 HD
BRANCH  11  13
HETATM   13  C2  UNL     1      -9.816  31.512  76.492  1.00  0.00     0.084 C 
HETATM   14  C3  UNL     1      -9.594  30.042  76.782  1.00  0.00     0.025 C 
HETATM   15  C4  UNL     1     -10.830  30.092  77.663  1.00  0.00     0.004 C 
HETATM   16  C5  UNL     1     -11.292  31.282  76.826  1.00  0.00     0.025 C 
ENDBRANCH  11  13
ENDBRANCH   1   9
BRANCH   4  17
HETATM   17  S1  UNL     1      -5.581  36.296  80.341  1.00  0.00    -0.092 SA
BRANCH  17  18
HETATM   18  C8  UNL     1      -4.758  35.015  81.298  1.00  0.00     0.083 C 
BRANCH  18  19
HETATM   19  C9  UNL     1      -3.287  35.338  81.377  1.00  0.00     0.016 C 
BRANCH  19  20
HETATM   20  C10 UNL     1      -2.449  34.268  80.681  1.00  0.00    -0.004 C 
HETATM   21  C11 UNL     1      -2.848  32.955  81.256  1.00  0.00     0.015 C 
HETATM   22  C12 UNL     1      -2.222  31.862  80.411  1.00  0.00     0.074 C 
HETATM   23  S2  UNL     1      -2.473  32.570  78.735  1.00  0.00    -0.169 SA
HETATM   24  C13 UNL     1      -2.813  34.306  79.230  1.00  0.00     0.078 C 
ENDBRANCH  19  20
ENDBRANCH  18  19
ENDBRANCH  17  18
ENDBRANCH   4  17
TORSDOF 6
ENDMDL
MODEL 5
REMARK VINA RESULT: -6.663998942      1.814      2.484
REMARK  6 active torsions:
REMARK  status: ('A' for Active; 'I' for Inactive)
REMARK       I    between atoms: C1_2  and  N1_3 
REMARK    1  A    between atoms: C1_2  and  C6_9 
REMARK    2  A    between atoms: N1_3  and  C2_5 
REMARK    3  A    between atoms: C7_12  and  S1_13 
REMARK    4  A    between atoms: S1_13  and  C8_14 
REMARK    5  A    between atoms: C8_14  and  C9_15 
REMARK    6  A    between atoms: C9_15  and  C10_16 
ROOT
HETATM    1  C6  UNL     1      -9.121  34.489  78.491  1.00  0.00     0.191 A 
HETATM    2  N2  UNL     1      -8.891  34.137  79.766  1.00  0.00    -0.316 N 
ATOM      3  H2  UNL     1      -8.724  33.188  80.099  1.00  0.00     0.169 HD
HETATM    4  C7  UNL     1      -8.917  35.233  80.527  1.00  0.00     0.160 A 
HETATM    5  N3  UNL     1      -9.167  36.270  79.699  1.00  0.00    -0.278 N 
ATOM      6  H3  UNL     1      -9.247  37.246  79.983  1.00  0.00     0.189 HD
HETATM    7  N4  UNL     1      -9.290  35.828  78.480  1.00  0.00    -0.279 N 
ATOM      8  H4  UNL     1      -9.482  36.397  77.656  1.00  0.00     0.189 HD
ENDROOT
BRANCH   1   9
HETATM    9  C1  UNL     1      -9.179  33.608  77.334  1.00  0.00     0.287 C 
HETATM   10  O1  UNL     1      -8.151  33.415  76.641  1.00  0.00    -0.264 OA
HETATM   11  N1  UNL     1     -10.370  32.949  76.955  1.00  0.00    -0.350 N 
ATOM     12  H1  UNL     1     -11.212  33.099  77.511  1.00  0.00     0.163 HD
BRANCH  11  13
HETATM   13  C2  UNL     1     -10.443  32.065  75.802  1.00  0.00     0.084 C 
HETATM   14  C3  UNL     1     -10.013  30.649  76.124  1.00  0.00     0.025 C 
HETATM   15  C4  UNL     1     -11.435  30.388  76.589  1.00  0.00     0.004 C 
HETATM   16  C5  UNL     1     -11.870  31.525  75.668  1.00  0.00     0.025 C 
ENDBRANCH  11  13
ENDBRANCH   1   9
BRANCH   4  17
HETATM   17  S1  UNL     1      -8.679  35.381  82.280  1.00  0.00    -0.092 SA
BRANCH  17  18
HETATM   18  C8  UNL     1      -6.937  35.241  82.707  1.00  0.00     0.083 C 
BRANCH  18  19
HETATM   19  C9  UNL     1      -6.124  35.989  81.680  1.00  0.00     0.016 C 
BRANCH  19  20
HETATM   20  C10 UNL     1      -5.395  35.026  80.746  1.00  0.00    -0.004 C 
HETATM   21  C11 UNL     1      -5.276  35.702  79.426  1.00  0.00     0.015 C 
HETATM   22  C12 UNL     1      -4.338  34.880  78.561  1.00  0.00     0.074 C 
HETATM   23  S2  UNL     1      -3.064  34.434  79.806  1.00  0.00    -0.169 SA
HETATM   24  C13 UNL     1      -4.029  34.815  81.321  1.00  0.00     0.078 C 
ENDBRANCH  19  20
ENDBRANCH  18  19
ENDBRANCH  17  18
ENDBRANCH   4  17
TORSDOF 6
ENDMDL
