MODEL 1
REMARK VINA RESULT: -7.721633606      0.000      0.000
REMARK  8 active torsions:
REMARK  status: ('A' for Active; 'I' for Inactive)
REMARK    1  A    between atoms: C4_6  and  N2_7 
REMARK    2  A    between atoms: N2_7  and  C5_9 
REMARK    3  A    between atoms: C5_9  and  C6_10 
REMARK    4  A    between atoms: C6_10  and  C7_11 
REMARK    5  A    between atoms: C7_11  and  C8_12 
REMARK    6  A    between atoms: C8_12  and  C9_13 
REMARK    7  A    between atoms: C9_13  and  N3_14 
REMARK    8  A    between atoms: N6_24  and  C12_25 
ROOT
HETATM    1  C1  UNL     1      -2.383  32.998  81.879  1.00  0.00     0.089 C 
HETATM    2  C2  UNL     1      -3.506  33.812  81.358  1.00  0.00     0.082 A 
HETATM    3  N1  UNL     1      -4.506  34.321  82.114  1.00  0.00    -0.340 N 
ATOM      4  H1  UNL     1      -4.608  34.208  83.123  1.00  0.00     0.167 HD
HETATM    5  C3  UNL     1      -5.342  35.002  81.313  1.00  0.00     0.122 A 
HETATM    6  C4  UNL     1      -6.509  35.717  81.516  1.00  0.00     0.133 A 
HETATM    7  N4  UNL     1      -7.100  36.284  80.464  1.00  0.00    -0.337 N 
ATOM      8  H4  UNL     1      -7.960  36.812  80.615  1.00  0.00     0.168 HD
HETATM    9  C10 UNL     1      -6.612  36.193  79.204  1.00  0.00     0.183 A 
HETATM   10  N5  UNL     1      -5.465  35.487  79.025  1.00  0.00    -0.336 N 
ATOM     11  H5  UNL     1      -5.079  35.406  78.084  1.00  0.00     0.168 HD
HETATM   12  C11 UNL     1      -4.818  34.889  80.045  1.00  0.00     0.141 A 
HETATM   13  N6  UNL     1      -3.676  34.150  80.067  1.00  0.00    -0.316 N 
ENDROOT
BRANCH   6  14
HETATM   14  N2  UNL     1      -6.968  35.806  82.684  1.00  0.00    -0.374 N 
ATOM     15  H2  UNL     1      -6.689  36.646  83.190  1.00  0.00     0.161 HD
BRANCH  14  16
HETATM   16  C5  UNL     1      -7.813  34.926  83.410  1.00  0.00     0.121 C 
BRANCH  16  17
HETATM   17  C6  UNL     1      -9.098  34.570  82.650  1.00  0.00     0.020 C 
BRANCH  17  18
HETATM   18  C7  UNL     1      -9.925  35.806  82.581  1.00  0.00     0.003 C 
BRANCH  18  19
HETATM   19  C8  UNL     1     -10.088  36.340  81.179  1.00  0.00     0.027 C 
BRANCH  19  20
HETATM   20  C9  UNL     1     -10.874  37.603  81.119  1.00  0.00     0.229 C 
BRANCH  20  21
HETATM   21  N3  UNL     1     -11.329  37.837  79.754  1.00  0.00    -0.079 N 
ATOM     22  H33 UNL     1     -11.023  37.102  79.117  1.00  0.00     0.274 HD
ATOM     23  H32 UNL     1     -12.336  37.708  79.658  1.00  0.00     0.274 HD
ATOM     24  H31 UNL     1     -11.030  38.762  79.444  1.00  0.00     0.274 HD
ENDBRANCH  20  21
ENDBRANCH  19  20
ENDBRANCH  18  19
ENDBRANCH  17  18
ENDBRANCH  16  17
ENDBRANCH  14  16
ENDBRANCH   6  14
BRANCH  13  25
HETATM   25  C12 UNL     1      -2.881  33.841  78.928  1.00  0.00     0.093 C 
HETATM   26  C13 UNL     1      -1.420  34.163  79.078  1.00  0.00     0.026 C 
HETATM   27  C14 UNL     1      -0.783  34.052  77.717  1.00  0.00     0.002 C 
HETATM   28  C15 UNL     1      -1.703  33.556  76.656  1.00  0.00     0.000 C 
HETATM   29  C16 UNL     1      -2.513  32.359  77.039  1.00  0.00     0.002 C 
HETATM   30  C17 UNL     1      -2.974  32.397  78.482  1.00  0.00     0.026 C 
ENDBRANCH  13  25
TORSDOF 8
ENDMDL
MODEL 2
REMARK VINA RESULT: -7.257254912      1.720      7.122
REMARK  8 active torsions:
REMARK  status: ('A' for Active; 'I' for Inactive)
REMARK    1  A    between atoms: C4_6  and  N2_7 
REMARK    2  A    between atoms: N2_7  and  C5_9 
REMARK    3  A    between atoms: C5_9  and  C6_10 
REMARK    4  A    between atoms: C6_10  and  C7_11 
REMARK    5  A    between atoms: C7_11  and  C8_12 
REMARK    6  A    between atoms: C8_12  and  C9_13 
REMARK    7  A    between atoms: C9_13  and  N3_14 
REMARK    8  A    between atoms: N6_24  and  C12_25 
ROOT
HETATM    1  C1  UNL     1      -9.028  34.458  78.388  1.00  0.00     0.089 C 
HETATM    2  C2  UNL     1      -7.699  34.839  78.922  1.00  0.00     0.082 A 
HETATM    3  N1  UNL     1      -6.575  34.959  78.178  1.00  0.00    -0.340 N 
ATOM      4  H1  UNL     1      -6.506  34.803  77.173  1.00  0.00     0.167 HD
HETATM    5  C3  UNL     1      -5.566  35.317  78.988  1.00  0.00     0.122 A 
HETATM    6  C4  UNL     1      -4.220  35.580  78.800  1.00  0.00     0.133 A 
HETATM    7  N4  UNL     1      -3.482  35.921  79.857  1.00  0.00    -0.337 N 
ATOM      8  H4  UNL     1      -2.490  36.115  79.716  1.00  0.00     0.168 HD
HETATM    9  C10 UNL     1      -3.988  36.021  81.109  1.00  0.00     0.183 A 
HETATM   10  N5  UNL     1      -5.311  35.759  81.274  1.00  0.00    -0.336 N 
ATOM     11  H5  UNL     1      -5.713  35.830  82.209  1.00  0.00     0.168 HD
HETATM   12  C11 UNL     1      -6.112  35.410  80.248  1.00  0.00     0.141 A 
HETATM   13  N6  UNL     1      -7.439  35.113  80.212  1.00  0.00    -0.316 N 
ENDROOT
BRANCH   6  14
HETATM   14  N2  UNL     1      -3.743  35.488  77.639  1.00  0.00    -0.374 N 
ATOM     15  H2  UNL     1      -4.216  36.056  76.936  1.00  0.00     0.161 HD
BRANCH  14  16
HETATM   16  C5  UNL     1      -2.653  34.722  77.149  1.00  0.00     0.121 C 
BRANCH  16  17
HETATM   17  C6  UNL     1      -2.783  33.227  77.469  1.00  0.00     0.020 C 
BRANCH  17  18
HETATM   18  C7  UNL     1      -1.880  32.943  78.619  1.00  0.00     0.003 C 
BRANCH  18  19
HETATM   19  C8  UNL     1      -2.608  32.444  79.843  1.00  0.00     0.027 C 
BRANCH  19  20
HETATM   20  C9  UNL     1      -2.027  32.947  81.118  1.00  0.00     0.229 C 
BRANCH  20  21
HETATM   21  N3  UNL     1      -3.009  32.827  82.189  1.00  0.00    -0.079 N 
ATOM     22  H33 UNL     1      -3.964  32.816  81.833  1.00  0.00     0.274 HD
ATOM     23  H32 UNL     1      -2.998  31.901  82.616  1.00  0.00     0.274 HD
ATOM     24  H31 UNL     1      -2.863  33.567  82.876  1.00  0.00     0.274 HD
ENDBRANCH  20  21
ENDBRANCH  19  20
ENDBRANCH  18  19
ENDBRANCH  17  18
ENDBRANCH  16  17
ENDBRANCH  14  16
ENDBRANCH   6  14
BRANCH  13  25
HETATM   25  C12 UNL     1      -8.307  35.114  81.340  1.00  0.00     0.093 C 
HETATM   26  C13 UNL     1      -7.609  35.014  82.669  1.00  0.00     0.026 C 
HETATM   27  C14 UNL     1      -8.655  34.738  83.717  1.00  0.00     0.002 C 
HETATM   28  C15 UNL     1     -10.052  34.761  83.202  1.00  0.00     0.000 C 
HETATM   29  C16 UNL     1     -10.376  35.925  82.321  1.00  0.00     0.002 C 
HETATM   30  C17 UNL     1      -9.227  36.314  81.412  1.00  0.00     0.026 C 
ENDBRANCH  13  25
TORSDOF 8
ENDMDL
MODEL 3
REMARK VINA RESULT: -7.250614178      0.533      1.113
REMARK  8 active torsions:
REMARK  status: ('A' for Active; 'I' for Inactive)
REMARK    1  A    between atoms: C4_6  and  N2_7 
REMARK    2  A    between atoms: N2_7  and  C5_9 
REMARK    3  A    between atoms: C5_9  and  C6_10 
REMARK    4  A    between atoms: C6_10  and  C7_11 
REMARK    5  A    between atoms: C7_11  and  C8_12 
REMARK    6  A    between atoms: C8_12  and  C9_13 
REMARK    7  A    between atoms: C9_13  and  N3_14 
REMARK    8  A    between atoms: N6_24  and  C12_25 
ROOT
HETATM    1  C1  UNL     1      -2.226  33.320  81.698  1.00  0.00     0.089 C 
HETATM    2  C2  UNL     1      -3.475  33.990  81.267  1.00  0.00     0.082 A 
HETATM    3  N1  UNL     1      -4.442  34.433  82.105  1.00  0.00    -0.340 N 
ATOM      4  H1  UNL     1      -4.428  34.361  83.122  1.00  0.00     0.167 HD
HETATM    5  C3  UNL     1      -5.421  34.985  81.370  1.00  0.00     0.122 A 
HETATM    6  C4  UNL     1      -6.630  35.589  81.667  1.00  0.00     0.133 A 
HETATM    7  N4  UNL     1      -7.382  36.041  80.662  1.00  0.00    -0.337 N 
ATOM      8  H4  UNL     1      -8.273  36.486  80.883  1.00  0.00     0.168 HD
HETATM    9  C10 UNL     1      -7.017  35.936  79.362  1.00  0.00     0.183 A 
HETATM   10  N5  UNL     1      -5.826  35.340  79.091  1.00  0.00    -0.336 N 
ATOM     11  H5  UNL     1      -5.532  35.252  78.118  1.00  0.00     0.168 HD
HETATM   12  C11 UNL     1      -5.019  34.862  80.059  1.00  0.00     0.141 A 
HETATM   13  N6  UNL     1      -3.810  34.244  79.989  1.00  0.00    -0.316 N 
ENDROOT
BRANCH   6  14
HETATM   14  N2  UNL     1      -6.976  35.690  82.873  1.00  0.00    -0.374 N 
ATOM     15  H2  UNL     1      -6.499  36.425  83.394  1.00  0.00     0.161 HD
BRANCH  14  16
HETATM   16  C5  UNL     1      -7.922  34.945  83.625  1.00  0.00     0.121 C 
BRANCH  16  17
HETATM   17  C6  UNL     1      -9.166  34.567  82.811  1.00  0.00     0.020 C 
BRANCH  17  18
HETATM   18  C7  UNL     1     -10.013  35.787  82.709  1.00  0.00     0.003 C 
BRANCH  18  19
HETATM   19  C8  UNL     1     -10.195  36.273  81.292  1.00  0.00     0.027 C 
BRANCH  19  20
HETATM   20  C9  UNL     1     -10.892  37.585  81.205  1.00  0.00     0.229 C 
BRANCH  20  21
HETATM   21  N3  UNL     1     -11.292  37.842  79.828  1.00  0.00    -0.079 N 
ATOM     22  H33 UNL     1     -11.687  38.775  79.711  1.00  0.00     0.274 HD
ATOM     23  H32 UNL     1     -10.488  37.943  79.207  1.00  0.00     0.274 HD
ATOM     24  H31 UNL     1     -11.931  37.113  79.511  1.00  0.00     0.274 HD
ENDBRANCH  20  21
ENDBRANCH  19  20
ENDBRANCH  18  19
ENDBRANCH  17  18
ENDBRANCH  16  17
ENDBRANCH  14  16
ENDBRANCH   6  14
BRANCH  13  25
HETATM   25  C12 UNL     1      -3.107  33.959  78.785  1.00  0.00     0.093 C 
HETATM   26  C13 UNL     1      -3.446  32.634  78.160  1.00  0.00     0.026 C 
HETATM   27  C14 UNL     1      -2.428  32.362  77.082  1.00  0.00     0.002 C 
HETATM   28  C15 UNL     1      -1.475  33.482  76.851  1.00  0.00     0.000 C 
HETATM   29  C16 UNL     1      -2.109  34.833  76.751  1.00  0.00     0.002 C 
HETATM   30  C17 UNL     1      -3.268  35.012  77.710  1.00  0.00     0.026 C 
ENDBRANCH  13  25
TORSDOF 8
ENDMDL
MODEL 4
REMARK VINA RESULT: -6.976200703      1.651      3.152
REMARK  8 active torsions:
REMARK  status: ('A' for Active; 'I' for Inactive)
REMARK    1  A    between atoms: C4_6  and  N2_7 
REMARK    2  A    between atoms: N2_7  and  C5_9 
REMARK    3  A    between atoms: C5_9  and  C6_10 
REMARK    4  A    between atoms: C6_10  and  C7_11 
REMARK    5  A    between atoms: C7_11  and  C8_12 
REMARK    6  A    between atoms: C8_12  and  C9_13 
REMARK    7  A    between atoms: C9_13  and  N3_14 
REMARK    8  A    between atoms: N6_24  and  C12_25 
ROOT
HETATM    1  C1  UNL     1      -4.158  36.285  80.753  1.00  0.00     0.089 C 
HETATM    2  C2  UNL     1      -5.333  35.831  79.973  1.00  0.00     0.082 A 
HETATM    3  N1  UNL     1      -6.607  36.232  80.194  1.00  0.00    -0.340 N 
ATOM      4  H1  UNL     1      -6.910  36.886  80.915  1.00  0.00     0.167 HD
HETATM    5  C3  UNL     1      -7.405  35.622  79.303  1.00  0.00     0.122 A 
HETATM    6  C4  UNL     1      -8.766  35.641  79.050  1.00  0.00     0.133 A 
HETATM    7  N4  UNL     1      -9.240  34.890  78.056  1.00  0.00    -0.337 N 
ATOM      8  H4  UNL     1     -10.244  34.906  77.870  1.00  0.00     0.168 HD
HETATM    9  C10 UNL     1      -8.453  34.107  77.281  1.00  0.00     0.183 A 
HETATM   10  N5  UNL     1      -7.120  34.102  77.544  1.00  0.00    -0.336 N 
ATOM     11  H5  UNL     1      -6.508  33.520  76.972  1.00  0.00     0.168 HD
HETATM   12  C11 UNL     1      -6.576  34.837  78.534  1.00  0.00     0.141 A 
HETATM   13  N6  UNL     1      -5.286  34.964  78.947  1.00  0.00    -0.316 N 
ENDROOT
BRANCH   6  14
HETATM   14  N2  UNL     1      -9.504  36.366  79.766  1.00  0.00    -0.374 N 
ATOM     15  H2  UNL     1      -9.937  37.149  79.278  1.00  0.00     0.161 HD
BRANCH  14  16
HETATM   16  C5  UNL     1      -9.830  36.270  81.144  1.00  0.00     0.121 C 
BRANCH  16  17
HETATM   17  C6  UNL     1      -9.591  34.867  81.718  1.00  0.00     0.020 C 
BRANCH  17  18
HETATM   18  C7  UNL     1      -9.759  34.961  83.194  1.00  0.00     0.003 C 
BRANCH  18  19
HETATM   19  C8  UNL     1      -8.571  34.440  83.966  1.00  0.00     0.027 C 
BRANCH  19  20
HETATM   20  C9  UNL     1      -7.360  35.294  83.828  1.00  0.00     0.229 C 
BRANCH  20  21
HETATM   21  N3  UNL     1      -6.293  34.538  83.183  1.00  0.00    -0.079 N 
ATOM     22  H33 UNL     1      -6.473  34.392  82.190  1.00  0.00     0.274 HD
ATOM     23  H32 UNL     1      -5.434  35.083  83.100  1.00  0.00     0.274 HD
ATOM     24  H31 UNL     1      -6.143  33.660  83.680  1.00  0.00     0.274 HD
ENDBRANCH  20  21
ENDBRANCH  19  20
ENDBRANCH  18  19
ENDBRANCH  17  18
ENDBRANCH  16  17
ENDBRANCH  14  16
ENDBRANCH   6  14
BRANCH  13  25
HETATM   25  C12 UNL     1      -4.173  34.291  78.368  1.00  0.00     0.093 C 
HETATM   26  C13 UNL     1      -3.184  35.192  77.682  1.00  0.00     0.026 C 
HETATM   27  C14 UNL     1      -2.243  34.322  76.889  1.00  0.00     0.002 C 
HETATM   28  C15 UNL     1      -2.457  32.861  77.086  1.00  0.00     0.000 C 
HETATM   29  C16 UNL     1      -2.611  32.437  78.512  1.00  0.00     0.002 C 
HETATM   30  C17 UNL     1      -3.392  33.435  79.342  1.00  0.00     0.026 C 
ENDBRANCH  13  25
TORSDOF 8
ENDMDL
MODEL 5
REMARK VINA RESULT: -6.896196271      1.550      6.867
REMARK  8 active torsions:
REMARK  status: ('A' for Active; 'I' for Inactive)
REMARK    1  A    between atoms: C4_6  and  N2_7 
REMARK    2  A    between atoms: N2_7  and  C5_9 
REMARK    3  A    between atoms: C5_9  and  C6_10 
REMARK    4  A    between atoms: C6_10  and  C7_11 
REMARK    5  A    between atoms: C7_11  and  C8_12 
REMARK    6  A    between atoms: C8_12  and  C9_13 
REMARK    7  A    between atoms: C9_13  and  N3_14 
REMARK    8  A    between atoms: N6_24  and  C12_25 
ROOT
HETATM    1  C1  UNL     1      -7.839  34.653  83.777  1.00  0.00     0.089 C 
HETATM    2  C2  UNL     1      -6.911  34.990  82.673  1.00  0.00     0.082 A 
HETATM    3  N1  UNL     1      -5.597  34.667  82.643  1.00  0.00    -0.340 N 
ATOM      4  H1  UNL     1      -5.092  34.159  83.369  1.00  0.00     0.167 HD
HETATM    5  C3  UNL     1      -5.072  35.127  81.496  1.00  0.00     0.122 A 
HETATM    6  C4  UNL     1      -3.810  35.097  80.929  1.00  0.00     0.133 A 
HETATM    7  N4  UNL     1      -3.631  35.670  79.739  1.00  0.00    -0.337 N 
ATOM      8  H4  UNL     1      -2.700  35.646  79.322  1.00  0.00     0.168 HD
HETATM    9  C10 UNL     1      -4.628  36.283  79.057  1.00  0.00     0.183 A 
HETATM   10  N5  UNL     1      -5.860  36.302  79.630  1.00  0.00    -0.336 N 
ATOM     11  H5  UNL     1      -6.626  36.758  79.133  1.00  0.00     0.168 HD
HETATM   12  C11 UNL     1      -6.108  35.742  80.830  1.00  0.00     0.141 A 
HETATM   13  N6  UNL     1      -7.254  35.659  81.557  1.00  0.00    -0.316 N 
ENDROOT
BRANCH   6  14
HETATM   14  N2  UNL     1      -2.878  34.530  81.557  1.00  0.00    -0.374 N 
ATOM     15  H2  UNL     1      -2.606  34.990  82.425  1.00  0.00     0.161 HD
BRANCH  14  16
HETATM   16  C5  UNL     1      -2.146  33.353  81.253  1.00  0.00     0.121 C 
BRANCH  16  17
HETATM   17  C6  UNL     1      -2.896  32.413  80.300  1.00  0.00     0.020 C 
BRANCH  17  18
HETATM   18  C7  UNL     1      -2.090  32.317  79.052  1.00  0.00     0.003 C 
BRANCH  18  19
HETATM   19  C8  UNL     1      -2.821  32.810  77.827  1.00  0.00     0.027 C 
BRANCH  19  20
HETATM   20  C9  UNL     1      -2.087  33.880  77.096  1.00  0.00     0.229 C 
BRANCH  20  21
HETATM   21  N3  UNL     1      -0.989  34.375  77.917  1.00  0.00    -0.079 N 
ATOM     22  H33 UNL     1      -0.792  33.759  78.705  1.00  0.00     0.274 HD
ATOM     23  H32 UNL     1      -0.090  34.299  77.440  1.00  0.00     0.274 HD
ATOM     24  H31 UNL     1      -1.184  35.330  78.215  1.00  0.00     0.274 HD
ENDBRANCH  20  21
ENDBRANCH  19  20
ENDBRANCH  18  19
ENDBRANCH  17  18
ENDBRANCH  16  17
ENDBRANCH  14  16
ENDBRANCH   6  14
BRANCH  13  25
HETATM   25  C12 UNL     1      -8.514  36.190  81.160  1.00  0.00     0.093 C 
HETATM   26  C13 UNL     1      -8.841  36.004  79.705  1.00  0.00     0.026 C 
HETATM   27  C14 UNL     1     -10.043  36.858  79.392  1.00  0.00     0.002 C 
HETATM   28  C15 UNL     1     -10.634  37.532  80.580  1.00  0.00     0.000 C 
HETATM   29  C16 UNL     1     -10.818  36.649  81.774  1.00  0.00     0.002 C 
HETATM   30  C17 UNL     1      -9.688  35.656  81.952  1.00  0.00     0.026 C 
ENDBRANCH  13  25
TORSDOF 8
ENDMDL
