MODEL 1
REMARK VINA RESULT: -7.608251852      0.000      0.000
REMARK  6 active torsions:
REMARK  status: ('A' for Active; 'I' for Inactive)
REMARK    1  A    between atoms: N3_11  and  C7_12 
REMARK    2  A    between atoms: C7_12  and  C8_13 
REMARK    3  A    between atoms: C8_13  and  C9_14 
REMARK    4  A    between atoms: C9_14  and  C10_15 
REMARK    5  A    between atoms: C10_15  and  C11_16 
REMARK    6  A    between atoms: C11_16  and  C12_17 
ROOT
HETATM    1  C7  UNL     1      -5.865  35.209  78.930  1.00  0.00     0.124 C 
ENDROOT
BRANCH   1   2
HETATM    2  N3  UNL     1      -7.253  35.255  79.217  1.00  0.00    -0.366 N 
HETATM    3  C6  UNL     1      -7.772  35.317  80.573  1.00  0.00     0.113 A 
HETATM    4  C5  UNL     1      -8.999  35.959  80.571  1.00  0.00     0.010 A 
HETATM    5  N2  UNL     1      -7.304  34.889  81.760  1.00  0.00    -0.332 N 
HETATM    6  C3  UNL     1      -9.694  36.137  81.761  1.00  0.00     0.016 A 
HETATM    7  C17 UNL     1      -9.265  36.325  79.152  1.00  0.00     0.064 C 
HETATM    8  N1  UNL     1      -9.168  35.683  82.912  1.00  0.00    -0.349 N 
HETATM    9  C4  UNL     1     -11.002  36.821  81.765  1.00  0.00     0.069 C 
HETATM   10  C2  UNL     1      -7.982  35.065  82.904  1.00  0.00     0.078 A 
ATOM     11  H1  UNL     1      -9.672  35.810  83.789  1.00  0.00     0.167 HD
HETATM   12  C1  UNL     1      -7.389  34.557  84.172  1.00  0.00     0.089 C 
HETATM   13  C16 UNL     1      -8.458  35.265  78.417  1.00  0.00     0.129 C 
ATOM     14  H2  UNL     1      -6.402  34.413  81.791  1.00  0.00     0.168 HD
ENDBRANCH   1   2
BRANCH   1  15
HETATM   15  C8  UNL     1      -5.028  36.349  79.371  1.00  0.00     0.020 C 
BRANCH  15  16
HETATM   16  C9  UNL     1      -4.650  36.411  80.803  1.00  0.00     0.002 C 
BRANCH  16  17
HETATM   17  C10 UNL     1      -3.348  35.700  81.106  1.00  0.00     0.001 C 
BRANCH  17  18
HETATM   18  C11 UNL     1      -3.555  34.345  81.692  1.00  0.00     0.008 C 
BRANCH  18  19
HETATM   19  C12 UNL     1      -2.486  33.379  81.250  1.00  0.00     0.028 C 
HETATM   20  C13 UNL     1      -2.993  32.070  80.737  1.00  0.00     0.130 C 
HETATM   21  N4  UNL     1      -3.400  32.153  79.349  1.00  0.00    -0.356 N 
HETATM   22  C14 UNL     1      -2.511  32.786  78.448  1.00  0.00     0.212 C 
ATOM     23  H4  UNL     1      -4.291  31.770  79.035  1.00  0.00     0.163 HD
HETATM   24  N5  UNL     1      -2.628  32.673  77.165  1.00  0.00    -0.366 N 
HETATM   25  O1  UNL     1      -1.489  33.549  79.022  1.00  0.00    -0.322 OA
ATOM     26  H52 UNL     1      -3.373  32.117  76.747  1.00  0.00     0.159 HD
ATOM     27  H51 UNL     1      -1.988  33.130  76.516  1.00  0.00     0.159 HD
HETATM   28  C15 UNL     1      -1.479  34.014  80.334  1.00  0.00     0.185 C 
ENDBRANCH  18  19
ENDBRANCH  17  18
ENDBRANCH  16  17
ENDBRANCH  15  16
ENDBRANCH   1  15
TORSDOF 6
ENDMDL
MODEL 2
REMARK VINA RESULT: -7.483136914      1.450      2.562
REMARK  6 active torsions:
REMARK  status: ('A' for Active; 'I' for Inactive)
REMARK    1  A    between atoms: N3_11  and  C7_12 
REMARK    2  A    between atoms: C7_12  and  C8_13 
REMARK    3  A    between atoms: C8_13  and  C9_14 
REMARK    4  A    between atoms: C9_14  and  C10_15 
REMARK    5  A    between atoms: C10_15  and  C11_16 
REMARK    6  A    between atoms: C11_16  and  C12_17 
ROOT
HETATM    1  C7  UNL     1      -4.099  35.159  81.562  1.00  0.00     0.124 C 
ENDROOT
BRANCH   1   2
HETATM    2  N3  UNL     1      -5.211  35.174  80.682  1.00  0.00    -0.366 N 
HETATM    3  C6  UNL     1      -6.585  35.224  81.154  1.00  0.00     0.113 A 
HETATM    4  C5  UNL     1      -7.380  35.837  80.202  1.00  0.00     0.010 A 
HETATM    5  N2  UNL     1      -7.188  34.805  82.283  1.00  0.00    -0.332 N 
HETATM    6  C3  UNL     1      -8.741  35.999  80.430  1.00  0.00     0.016 A 
HETATM    7  C17 UNL     1      -6.469  36.198  79.080  1.00  0.00     0.064 C 
HETATM    8  N1  UNL     1      -9.279  35.557  81.580  1.00  0.00    -0.349 N 
HETATM    9  C4  UNL     1      -9.594  36.653  79.419  1.00  0.00     0.069 C 
HETATM   10  C2  UNL     1      -8.503  34.966  82.495  1.00  0.00     0.078 A 
ATOM     11  H1  UNL     1     -10.277  35.672  81.755  1.00  0.00     0.167 HD
HETATM   12  C1  UNL     1      -9.086  34.470  83.771  1.00  0.00     0.089 C 
HETATM   13  C16 UNL     1      -5.371  35.157  79.245  1.00  0.00     0.129 C 
ATOM     14  H2  UNL     1      -6.625  34.350  83.002  1.00  0.00     0.168 HD
ENDBRANCH   1   2
BRANCH   1  15
HETATM   15  C8  UNL     1      -3.995  34.040  82.527  1.00  0.00     0.020 C 
BRANCH  15  16
HETATM   16  C9  UNL     1      -2.887  33.073  82.341  1.00  0.00     0.002 C 
BRANCH  16  17
HETATM   17  C10 UNL     1      -2.172  33.235  81.015  1.00  0.00     0.001 C 
BRANCH  17  18
HETATM   18  C11 UNL     1      -2.783  32.420  79.929  1.00  0.00     0.008 C 
BRANCH  18  19
HETATM   19  C12 UNL     1      -1.946  32.447  78.676  1.00  0.00     0.028 C 
HETATM   20  C13 UNL     1      -2.703  32.213  77.407  1.00  0.00     0.130 C 
HETATM   21  N4  UNL     1      -3.343  33.420  76.928  1.00  0.00    -0.356 N 
HETATM   22  C14 UNL     1      -2.560  34.599  76.888  1.00  0.00     0.212 C 
ATOM     23  H4  UNL     1      -4.318  33.421  76.630  1.00  0.00     0.163 HD
HETATM   24  N5  UNL     1      -2.924  35.650  76.229  1.00  0.00    -0.366 N 
HETATM   25  O1  UNL     1      -1.362  34.570  77.607  1.00  0.00    -0.322 OA
ATOM     26  H52 UNL     1      -3.799  35.672  75.705  1.00  0.00     0.159 HD
ATOM     27  H51 UNL     1      -2.361  36.500  76.200  1.00  0.00     0.159 HD
HETATM   28  C15 UNL     1      -1.051  33.651  78.607  1.00  0.00     0.185 C 
ENDBRANCH  18  19
ENDBRANCH  17  18
ENDBRANCH  16  17
ENDBRANCH  15  16
ENDBRANCH   1  15
TORSDOF 6
ENDMDL
MODEL 3
REMARK VINA RESULT: -7.413751029      2.033      3.590
REMARK  6 active torsions:
REMARK  status: ('A' for Active; 'I' for Inactive)
REMARK    1  A    between atoms: N3_11  and  C7_12 
REMARK    2  A    between atoms: C7_12  and  C8_13 
REMARK    3  A    between atoms: C8_13  and  C9_14 
REMARK    4  A    between atoms: C9_14  and  C10_15 
REMARK    5  A    between atoms: C10_15  and  C11_16 
REMARK    6  A    between atoms: C11_16  and  C12_17 
ROOT
HETATM    1  C7  UNL     1      -4.246  36.039  78.971  1.00  0.00     0.124 C 
ENDROOT
BRANCH   1   2
HETATM    2  N3  UNL     1      -5.324  36.213  79.876  1.00  0.00    -0.366 N 
HETATM    3  C6  UNL     1      -6.631  35.615  79.664  1.00  0.00     0.113 A 
HETATM    4  C5  UNL     1      -7.247  35.401  80.885  1.00  0.00     0.010 A 
HETATM    5  N2  UNL     1      -7.311  35.254  78.559  1.00  0.00    -0.332 N 
HETATM    6  C3  UNL     1      -8.516  34.836  80.936  1.00  0.00     0.016 A 
HETATM    7  C17 UNL     1      -6.285  35.878  81.916  1.00  0.00     0.064 C 
HETATM    8  N1  UNL     1      -9.139  34.499  79.794  1.00  0.00    -0.349 N 
HETATM    9  C4  UNL     1      -9.177  34.604  82.235  1.00  0.00     0.069 C 
HETATM   10  C2  UNL     1      -8.536  34.709  78.618  1.00  0.00     0.078 A 
ATOM     11  H1  UNL     1     -10.070  34.084  79.823  1.00  0.00     0.167 HD
HETATM   12  C1  UNL     1      -9.216  34.342  77.346  1.00  0.00     0.089 C 
HETATM   13  C16 UNL     1      -5.497  36.915  81.129  1.00  0.00     0.129 C 
ATOM     14  H2  UNL     1      -6.881  35.400  77.646  1.00  0.00     0.168 HD
ENDBRANCH   1   2
BRANCH   1  15
HETATM   15  C8  UNL     1      -4.277  34.858  78.077  1.00  0.00     0.020 C 
BRANCH  15  16
HETATM   16  C9  UNL     1      -3.214  34.746  77.049  1.00  0.00     0.002 C 
BRANCH  16  17
HETATM   17  C10 UNL     1      -2.225  33.635  77.334  1.00  0.00     0.001 C 
BRANCH  17  18
HETATM   18  C11 UNL     1      -2.735  32.654  78.332  1.00  0.00     0.008 C 
BRANCH  18  19
HETATM   19  C12 UNL     1      -1.821  32.550  79.526  1.00  0.00     0.028 C 
HETATM   20  C13 UNL     1      -1.517  33.849  80.201  1.00  0.00     0.130 C 
HETATM   21  N4  UNL     1      -2.565  34.240  81.120  1.00  0.00    -0.356 N 
HETATM   22  C14 UNL     1      -3.044  33.256  82.018  1.00  0.00     0.212 C 
ATOM     23  H4  UNL     1      -2.944  35.187  81.120  1.00  0.00     0.163 HD
HETATM   24  N5  UNL     1      -3.760  33.552  83.053  1.00  0.00    -0.366 N 
HETATM   25  O1  UNL     1      -2.699  31.933  81.725  1.00  0.00    -0.322 OA
ATOM     26  H52 UNL     1      -4.011  34.517  83.267  1.00  0.00     0.159 HD
ATOM     27  H51 UNL     1      -4.104  32.843  83.700  1.00  0.00     0.159 HD
HETATM   28  C15 UNL     1      -2.249  31.479  80.488  1.00  0.00     0.185 C 
ENDBRANCH  18  19
ENDBRANCH  17  18
ENDBRANCH  16  17
ENDBRANCH  15  16
ENDBRANCH   1  15
TORSDOF 6
ENDMDL
MODEL 4
REMARK VINA RESULT: -7.409339856      1.826      3.250
REMARK  6 active torsions:
REMARK  status: ('A' for Active; 'I' for Inactive)
REMARK    1  A    between atoms: N3_11  and  C7_12 
REMARK    2  A    between atoms: C7_12  and  C8_13 
REMARK    3  A    between atoms: C8_13  and  C9_14 
REMARK    4  A    between atoms: C9_14  and  C10_15 
REMARK    5  A    between atoms: C10_15  and  C11_16 
REMARK    6  A    between atoms: C11_16  and  C12_17 
ROOT
HETATM    1  C7  UNL     1      -5.862  35.804  78.938  1.00  0.00     0.124 C 
ENDROOT
BRANCH   1   2
HETATM    2  N3  UNL     1      -6.267  35.764  80.296  1.00  0.00    -0.366 N 
HETATM    3  C6  UNL     1      -7.646  35.962  80.709  1.00  0.00     0.113 A 
HETATM    4  C5  UNL     1      -7.876  35.286  81.895  1.00  0.00     0.010 A 
HETATM    5  N2  UNL     1      -8.679  36.643  80.179  1.00  0.00    -0.332 N 
HETATM    6  C3  UNL     1      -9.131  35.329  82.490  1.00  0.00     0.016 A 
HETATM    7  C17 UNL     1      -6.588  34.626  82.245  1.00  0.00     0.064 C 
HETATM    8  N1  UNL     1     -10.119  36.030  81.906  1.00  0.00    -0.349 N 
HETATM    9  C4  UNL     1      -9.383  34.610  83.754  1.00  0.00     0.069 C 
HETATM   10  C2  UNL     1      -9.888  36.679  80.760  1.00  0.00     0.078 A 
ATOM     11  H1  UNL     1     -11.043  36.066  82.337  1.00  0.00     0.167 HD
HETATM   12  C1  UNL     1     -10.972  37.460  80.105  1.00  0.00     0.089 C 
HETATM   13  C16 UNL     1      -5.589  35.543  81.554  1.00  0.00     0.129 C 
ATOM     14  H2  UNL     1      -8.538  37.150  79.305  1.00  0.00     0.168 HD
ENDBRANCH   1   2
BRANCH   1  15
HETATM   15  C8  UNL     1      -4.805  34.861  78.502  1.00  0.00     0.020 C 
BRANCH  15  16
HETATM   16  C9  UNL     1      -3.675  35.409  77.715  1.00  0.00     0.002 C 
BRANCH  16  17
HETATM   17  C10 UNL     1      -2.609  34.379  77.407  1.00  0.00     0.001 C 
BRANCH  17  18
HETATM   18  C11 UNL     1      -2.868  33.069  78.067  1.00  0.00     0.008 C 
BRANCH  18  19
HETATM   19  C12 UNL     1      -1.839  32.769  79.127  1.00  0.00     0.028 C 
HETATM   20  C13 UNL     1      -1.428  33.944  79.956  1.00  0.00     0.130 C 
HETATM   21  N4  UNL     1      -2.364  34.204  81.029  1.00  0.00    -0.356 N 
HETATM   22  C14 UNL     1      -2.778  33.100  81.813  1.00  0.00     0.212 C 
ATOM     23  H4  UNL     1      -2.711  35.145  81.213  1.00  0.00     0.163 HD
HETATM   24  N5  UNL     1      -3.374  33.244  82.951  1.00  0.00    -0.366 N 
HETATM   25  O1  UNL     1      -2.506  31.834  81.288  1.00  0.00    -0.322 OA
ATOM     26  H52 UNL     1      -3.572  34.168  83.334  1.00  0.00     0.159 HD
ATOM     27  H51 UNL     1      -3.672  32.449  83.516  1.00  0.00     0.159 HD
HETATM   28  C15 UNL     1      -2.199  31.568  79.956  1.00  0.00     0.185 C 
ENDBRANCH  18  19
ENDBRANCH  17  18
ENDBRANCH  16  17
ENDBRANCH  15  16
ENDBRANCH   1  15
TORSDOF 6
ENDMDL
MODEL 5
REMARK VINA RESULT: -7.309334166      1.601      3.116
REMARK  6 active torsions:
REMARK  status: ('A' for Active; 'I' for Inactive)
REMARK    1  A    between atoms: N3_11  and  C7_12 
REMARK    2  A    between atoms: C7_12  and  C8_13 
REMARK    3  A    between atoms: C8_13  and  C9_14 
REMARK    4  A    between atoms: C9_14  and  C10_15 
REMARK    5  A    between atoms: C10_15  and  C11_16 
REMARK    6  A    between atoms: C11_16  and  C12_17 
ROOT
HETATM    1  C7  UNL     1      -4.210  35.578  79.834  1.00  0.00     0.124 C 
ENDROOT
BRANCH   1   2
HETATM    2  N3  UNL     1      -5.397  35.888  80.546  1.00  0.00    -0.366 N 
HETATM    3  C6  UNL     1      -6.708  35.423  80.126  1.00  0.00     0.113 A 
HETATM    4  C5  UNL     1      -7.535  35.308  81.230  1.00  0.00     0.010 A 
HETATM    5  N2  UNL     1      -7.232  35.104  78.927  1.00  0.00    -0.332 N 
HETATM    6  C3  UNL     1      -8.847  34.878  81.076  1.00  0.00     0.016 A 
HETATM    7  C17 UNL     1      -6.709  35.710  82.402  1.00  0.00     0.064 C 
HETATM    8  N1  UNL     1      -9.308  34.577  79.849  1.00  0.00    -0.349 N 
HETATM    9  C4  UNL     1      -9.733  34.753  82.249  1.00  0.00     0.069 C 
HETATM   10  C2  UNL     1      -8.501  34.691  78.788  1.00  0.00     0.078 A 
ATOM     11  H1  UNL     1     -10.270  34.261  79.728  1.00  0.00     0.167 HD
HETATM   12  C1  UNL     1      -8.999  34.361  77.424  1.00  0.00     0.089 C 
HETATM   13  C16 UNL     1      -5.697  36.638  81.745  1.00  0.00     0.129 C 
ATOM     14  H2  UNL     1      -6.645  35.180  78.097  1.00  0.00     0.168 HD
ENDBRANCH   1   2
BRANCH   1  15
HETATM   15  C8  UNL     1      -2.976  35.333  80.617  1.00  0.00     0.020 C 
BRANCH  15  16
HETATM   16  C9  UNL     1      -2.974  34.184  81.554  1.00  0.00     0.002 C 
BRANCH  16  17
HETATM   17  C10 UNL     1      -2.156  33.011  81.056  1.00  0.00     0.001 C 
BRANCH  17  18
HETATM   18  C11 UNL     1      -2.814  32.286  79.933  1.00  0.00     0.008 C 
BRANCH  18  19
HETATM   19  C12 UNL     1      -1.967  32.307  78.687  1.00  0.00     0.028 C 
HETATM   20  C13 UNL     1      -2.722  32.115  77.410  1.00  0.00     0.130 C 
HETATM   21  N4  UNL     1      -3.322  33.348  76.945  1.00  0.00    -0.356 N 
HETATM   22  C14 UNL     1      -2.504  34.503  76.928  1.00  0.00     0.212 C 
ATOM     23  H4  UNL     1      -4.295  33.383  76.641  1.00  0.00     0.163 HD
HETATM   24  N5  UNL     1      -2.831  35.575  76.282  1.00  0.00    -0.366 N 
HETATM   25  O1  UNL     1      -1.312  34.426  77.654  1.00  0.00    -0.322 OA
ATOM     26  H52 UNL     1      -3.701  35.631  75.753  1.00  0.00     0.159 HD
ATOM     27  H51 UNL     1      -2.242  36.407  76.271  1.00  0.00     0.159 HD
HETATM   28  C15 UNL     1      -1.036  33.484  78.642  1.00  0.00     0.185 C 
ENDBRANCH  18  19
ENDBRANCH  17  18
ENDBRANCH  16  17
ENDBRANCH  15  16
ENDBRANCH   1  15
TORSDOF 6
ENDMDL
