MODEL 1
REMARK VINA RESULT: -7.125110875      0.000      0.000
REMARK  7 active torsions:
REMARK  status: ('A' for Active; 'I' for Inactive)
REMARK    1  A    between atoms: C2_2  and  N1_4 
REMARK    2  A    between atoms: N1_4  and  C4_6 
REMARK    3  A    between atoms: C4_6  and  C5_7 
REMARK    4  A    between atoms: C4_6  and  C8_13 
REMARK    5  A    between atoms: C8_13  and  O1_14 
REMARK    6  A    between atoms: C8_13  and  C9_16 
REMARK    7  A    between atoms: C9_16  and  N3_17 
ROOT
HETATM    1  C4  UNL     1      -3.964  34.034  78.495  1.00  0.00     0.165 C 
ENDROOT
BRANCH   1   2
HETATM    2  N1  UNL     1      -3.036  34.923  77.901  1.00  0.00    -0.406 N 
ATOM      3  H1  UNL     1      -3.108  35.936  78.002  1.00  0.00     0.154 HD
BRANCH   2   4
HETATM    4  C2  UNL     1      -1.978  34.295  77.142  1.00  0.00     0.069 C 
HETATM    5  C1  UNL     1      -2.302  32.896  76.678  1.00  0.00     0.031 C 
HETATM    6  C3  UNL     1      -0.689  34.219  77.946  1.00  0.00     0.031 C 
ENDBRANCH   2   4
ENDBRANCH   1   2
BRANCH   1   7
HETATM    7  C5  UNL     1      -3.586  33.760  79.930  1.00  0.00     0.075 A 
HETATM    8  N2  UNL     1      -3.698  34.509  81.013  1.00  0.00    -0.361 N 
HETATM    9  C6  UNL     1      -3.285  34.077  82.160  1.00  0.00     0.096 A 
ATOM     10  H2  UNL     1      -4.115  35.438  80.943  1.00  0.00     0.165 HD
HETATM   11  C7  UNL     1      -2.734  32.818  82.205  1.00  0.00     0.068 A 
HETATM   12  S1  UNL     1      -2.845  32.335  80.572  1.00  0.00    -0.085 SA
ENDBRANCH   1   7
BRANCH   1  13
HETATM   13  C8  UNL     1      -5.373  34.535  78.541  1.00  0.00     0.164 C 
BRANCH  13  14
HETATM   14  O1  UNL     1      -6.062  34.218  77.378  1.00  0.00    -0.391 OA
ATOM     15  H1  UNL     1      -5.991  33.292  77.175  1.00  0.00     0.210 HD
ENDBRANCH  13  14
BRANCH  13  16
HETATM   16  C9  UNL     1      -5.573  35.967  78.855  1.00  0.00     0.156 C 
BRANCH  16  17
HETATM   17  N3  UNL     1      -6.691  36.057  79.747  1.00  0.00    -0.391 N 
HETATM   18  C10 UNL     1      -7.926  35.647  79.229  1.00  0.00     0.059 C 
HETATM   19  C11 UNL     1      -8.786  34.794  80.102  1.00  0.00     0.054 C 
HETATM   20  C12 UNL     1      -8.556  35.053  81.561  1.00  0.00    -0.035 A 
HETATM   21  C13 UNL     1      -7.067  35.047  81.875  1.00  0.00     0.029 C 
HETATM   22  C15 UNL     1      -9.451  35.922  82.332  1.00  0.00     0.010 A 
HETATM   23  C16 UNL     1      -9.459  34.431  82.546  1.00  0.00     0.010 A 
HETATM   24  C14 UNL     1      -6.486  36.240  81.102  1.00  0.00     0.122 C 
ENDBRANCH  16  17
ENDBRANCH  13  16
ENDBRANCH   1  13
TORSDOF 7
ENDMDL
MODEL 2
REMARK VINA RESULT: -7.111833732      1.158      3.032
REMARK  7 active torsions:
REMARK  status: ('A' for Active; 'I' for Inactive)
REMARK    1  A    between atoms: C2_2  and  N1_4 
REMARK    2  A    between atoms: N1_4  and  C4_6 
REMARK    3  A    between atoms: C4_6  and  C5_7 
REMARK    4  A    between atoms: C4_6  and  C8_13 
REMARK    5  A    between atoms: C8_13  and  O1_14 
REMARK    6  A    between atoms: C8_13  and  C9_16 
REMARK    7  A    between atoms: C9_16  and  N3_17 
ROOT
HETATM    1  C4  UNL     1      -4.287  34.689  79.593  1.00  0.00     0.165 C 
ENDROOT
BRANCH   1   2
HETATM    2  N1  UNL     1      -4.110  33.612  80.496  1.00  0.00    -0.406 N 
ATOM      3  H1  UNL     1      -4.631  32.738  80.413  1.00  0.00     0.154 HD
BRANCH   2   4
HETATM    4  C2  UNL     1      -3.139  33.838  81.543  1.00  0.00     0.069 C 
HETATM    5  C1  UNL     1      -1.874  33.028  81.393  1.00  0.00     0.031 C 
HETATM    6  C3  UNL     1      -3.719  33.524  82.913  1.00  0.00     0.031 C 
ENDBRANCH   2   4
ENDBRANCH   1   2
BRANCH   1   7
HETATM    7  C5  UNL     1      -3.469  34.467  78.343  1.00  0.00     0.075 A 
HETATM    8  N2  UNL     1      -3.179  35.280  77.343  1.00  0.00    -0.361 N 
HETATM    9  C6  UNL     1      -2.466  34.870  76.346  1.00  0.00     0.096 A 
ATOM     10  H2  UNL     1      -3.521  36.241  77.358  1.00  0.00     0.165 HD
HETATM   11  C7  UNL     1      -2.024  33.568  76.372  1.00  0.00     0.068 A 
HETATM   12  S1  UNL     1      -2.676  33.013  77.847  1.00  0.00    -0.085 SA
ENDBRANCH   1   7
BRANCH   1  13
HETATM   13  C8  UNL     1      -5.693  34.887  79.121  1.00  0.00     0.164 C 
BRANCH  13  14
HETATM   14  O1  UNL     1      -5.844  34.492  77.798  1.00  0.00    -0.391 OA
ATOM     15  H1  UNL     1      -6.113  35.218  77.248  1.00  0.00     0.210 HD
ENDBRANCH  13  14
BRANCH  13  16
HETATM   16  C9  UNL     1      -6.286  36.231  79.303  1.00  0.00     0.156 C 
BRANCH  16  17
HETATM   17  N3  UNL     1      -7.187  36.152  80.415  1.00  0.00    -0.391 N 
HETATM   18  C10 UNL     1      -8.500  35.770  80.117  1.00  0.00     0.059 C 
HETATM   19  C11 UNL     1      -9.145  34.772  81.021  1.00  0.00     0.054 C 
HETATM   20  C12 UNL     1      -8.610  34.836  82.420  1.00  0.00    -0.035 A 
HETATM   21  C13 UNL     1      -7.088  34.845  82.408  1.00  0.00     0.029 C 
HETATM   22  C15 UNL     1      -9.325  35.556  83.479  1.00  0.00     0.010 A 
HETATM   23  C16 UNL     1      -9.275  34.050  83.474  1.00  0.00     0.010 A 
HETATM   24  C14 UNL     1      -6.696  36.155  81.708  1.00  0.00     0.122 C 
ENDBRANCH  16  17
ENDBRANCH  13  16
ENDBRANCH   1  13
TORSDOF 7
ENDMDL
MODEL 3
REMARK VINA RESULT: -6.438682505      2.846      6.716
REMARK  7 active torsions:
REMARK  status: ('A' for Active; 'I' for Inactive)
REMARK    1  A    between atoms: C2_2  and  N1_4 
REMARK    2  A    between atoms: N1_4  and  C4_6 
REMARK    3  A    between atoms: C4_6  and  C5_7 
REMARK    4  A    between atoms: C4_6  and  C8_13 
REMARK    5  A    between atoms: C8_13  and  O1_14 
REMARK    6  A    between atoms: C8_13  and  C9_16 
REMARK    7  A    between atoms: C9_16  and  N3_17 
ROOT
HETATM    1  C4  UNL     1      -8.606  35.599  80.638  1.00  0.00     0.165 C 
ENDROOT
BRANCH   1   2
HETATM    2  N1  UNL     1      -7.998  35.759  81.907  1.00  0.00    -0.406 N 
ATOM      3  H1  UNL     1      -7.554  36.632  82.194  1.00  0.00     0.154 HD
BRANCH   2   4
HETATM    4  C2  UNL     1      -8.052  34.599  82.768  1.00  0.00     0.069 C 
HETATM    5  C1  UNL     1      -9.374  34.417  83.474  1.00  0.00     0.031 C 
HETATM    6  C3  UNL     1      -6.971  34.651  83.836  1.00  0.00     0.031 C 
ENDBRANCH   2   4
ENDBRANCH   1   2
BRANCH   1   7
HETATM    7  C5  UNL     1      -9.715  36.606  80.455  1.00  0.00     0.075 A 
HETATM    8  N2  UNL     1     -10.208  37.162  79.363  1.00  0.00    -0.361 N 
HETATM    9  C6  UNL     1     -11.163  38.031  79.439  1.00  0.00     0.096 A 
ATOM     10  H2  UNL     1      -9.832  36.903  78.450  1.00  0.00     0.165 HD
HETATM   11  C7  UNL     1     -11.640  38.345  80.690  1.00  0.00     0.068 A 
HETATM   12  S1  UNL     1     -10.668  37.359  81.686  1.00  0.00    -0.085 SA
ENDBRANCH   1   7
BRANCH   1  13
HETATM   13  C8  UNL     1      -7.688  35.799  79.474  1.00  0.00     0.164 C 
BRANCH  13  14
HETATM   14  O1  UNL     1      -7.579  34.644  78.710  1.00  0.00    -0.391 OA
ATOM     15  H1  UNL     1      -8.104  34.700  77.920  1.00  0.00     0.210 HD
ENDBRANCH  13  14
BRANCH  13  16
HETATM   16  C9  UNL     1      -6.336  36.329  79.758  1.00  0.00     0.156 C 
BRANCH  16  17
HETATM   17  N3  UNL     1      -5.418  35.233  79.660  1.00  0.00    -0.391 N 
HETATM   18  C10 UNL     1      -4.893  34.982  78.387  1.00  0.00     0.059 C 
HETATM   19  C11 UNL     1      -3.431  34.697  78.292  1.00  0.00     0.054 C 
HETATM   20  C12 UNL     1      -2.889  34.064  79.539  1.00  0.00    -0.035 A 
HETATM   21  C13 UNL     1      -3.344  34.837  80.769  1.00  0.00     0.029 C 
HETATM   22  C15 UNL     1      -2.687  32.615  79.634  1.00  0.00     0.010 A 
HETATM   23  C16 UNL     1      -1.509  33.548  79.535  1.00  0.00     0.010 A 
HETATM   24  C14 UNL     1      -4.872  34.680  80.804  1.00  0.00     0.122 C 
ENDBRANCH  16  17
ENDBRANCH  13  16
ENDBRANCH   1  13
TORSDOF 7
ENDMDL
MODEL 4
REMARK VINA RESULT: -6.265776526      4.123      6.611
REMARK  7 active torsions:
REMARK  status: ('A' for Active; 'I' for Inactive)
REMARK    1  A    between atoms: C2_2  and  N1_4 
REMARK    2  A    between atoms: N1_4  and  C4_6 
REMARK    3  A    between atoms: C4_6  and  C5_7 
REMARK    4  A    between atoms: C4_6  and  C8_13 
REMARK    5  A    between atoms: C8_13  and  O1_14 
REMARK    6  A    between atoms: C8_13  and  C9_16 
REMARK    7  A    between atoms: C9_16  and  N3_17 
ROOT
HETATM    1  C4  UNL     1      -8.441  35.324  79.146  1.00  0.00     0.165 C 
ENDROOT
BRANCH   1   2
HETATM    2  N1  UNL     1      -9.116  34.888  80.313  1.00  0.00    -0.406 N 
ATOM      3  H1  UNL     1      -9.469  33.936  80.417  1.00  0.00     0.154 HD
BRANCH   2   4
HETATM    4  C2  UNL     1      -9.269  35.886  81.347  1.00  0.00     0.069 C 
HETATM    5  C1  UNL     1      -9.631  35.321  82.699  1.00  0.00     0.031 C 
HETATM    6  C3  UNL     1     -10.338  36.904  80.980  1.00  0.00     0.031 C 
ENDBRANCH   2   4
ENDBRANCH   1   2
BRANCH   1   7
HETATM    7  C5  UNL     1      -7.035  35.755  79.482  1.00  0.00     0.075 A 
HETATM    8  N2  UNL     1      -6.215  36.590  78.867  1.00  0.00    -0.361 N 
HETATM    9  C6  UNL     1      -5.025  36.803  79.326  1.00  0.00     0.096 A 
ATOM     10  H2  UNL     1      -6.524  37.071  78.023  1.00  0.00     0.165 HD
HETATM   11  C7  UNL     1      -4.654  36.134  80.469  1.00  0.00     0.068 A 
HETATM   12  S1  UNL     1      -6.060  35.230  80.811  1.00  0.00    -0.085 SA
ENDBRANCH   1   7
BRANCH   1  13
HETATM   13  C8  UNL     1      -8.298  34.285  78.079  1.00  0.00     0.164 C 
BRANCH  13  14
HETATM   14  O1  UNL     1      -7.039  34.333  77.493  1.00  0.00    -0.391 OA
ATOM     15  H1  UNL     1      -6.648  35.194  77.581  1.00  0.00     0.210 HD
ENDBRANCH  13  14
BRANCH  13  16
HETATM   16  C9  UNL     1      -9.332  34.251  77.021  1.00  0.00     0.156 C 
BRANCH  16  17
HETATM   17  N3  UNL     1      -9.315  32.937  76.450  1.00  0.00    -0.391 N 
HETATM   18  C10 UNL     1      -9.661  31.888  77.310  1.00  0.00     0.059 C 
HETATM   19  C11 UNL     1     -10.584  30.842  76.777  1.00  0.00     0.054 C 
HETATM   20  C12 UNL     1     -10.464  30.676  75.292  1.00  0.00    -0.035 A 
HETATM   21  C13 UNL     1     -10.515  32.030  74.599  1.00  0.00     0.029 C 
HETATM   22  C15 UNL     1      -9.662  29.597  74.706  1.00  0.00     0.010 A 
HETATM   23  C16 UNL     1     -11.166  29.555  74.641  1.00  0.00     0.010 A 
HETATM   24  C14 UNL     1      -9.261  32.777  75.078  1.00  0.00     0.122 C 
ENDBRANCH  16  17
ENDBRANCH  13  16
ENDBRANCH   1  13
TORSDOF 7
ENDMDL
MODEL 5
REMARK VINA RESULT: -6.228699371      2.928      6.274
REMARK  7 active torsions:
REMARK  status: ('A' for Active; 'I' for Inactive)
REMARK    1  A    between atoms: C2_2  and  N1_4 
REMARK    2  A    between atoms: N1_4  and  C4_6 
REMARK    3  A    between atoms: C4_6  and  C5_7 
REMARK    4  A    between atoms: C4_6  and  C8_13 
REMARK    5  A    between atoms: C8_13  and  O1_14 
REMARK    6  A    between atoms: C8_13  and  C9_16 
REMARK    7  A    between atoms: C9_16  and  N3_17 
ROOT
HETATM    1  C4  UNL     1      -8.506  35.235  78.798  1.00  0.00     0.165 C 
ENDROOT
BRANCH   1   2
HETATM    2  N1  UNL     1      -9.100  33.958  78.653  1.00  0.00    -0.406 N 
ATOM      3  H1  UNL     1      -9.550  33.473  79.430  1.00  0.00     0.154 HD
BRANCH   2   4
HETATM    4  C2  UNL     1      -9.022  33.388  77.327  1.00  0.00     0.069 C 
HETATM    5  C1  UNL     1      -9.720  34.204  76.265  1.00  0.00     0.031 C 
HETATM    6  C3  UNL     1      -9.617  31.989  77.289  1.00  0.00     0.031 C 
ENDBRANCH   2   4
ENDBRANCH   1   2
BRANCH   1   7
HETATM    7  C5  UNL     1      -9.407  36.146  79.596  1.00  0.00     0.075 A 
HETATM    8  N2  UNL     1     -10.150  37.173  79.222  1.00  0.00    -0.361 N 
HETATM    9  C6  UNL     1     -10.842  37.836  80.090  1.00  0.00     0.096 A 
ATOM     10  H2  UNL     1     -10.178  37.444  78.239  1.00  0.00     0.165 HD
HETATM   11  C7  UNL     1     -10.775  37.431  81.402  1.00  0.00     0.068 A 
HETATM   12  S1  UNL     1      -9.705  36.106  81.299  1.00  0.00    -0.085 SA
ENDBRANCH   1   7
BRANCH   1  13
HETATM   13  C8  UNL     1      -7.194  35.240  79.517  1.00  0.00     0.164 C 
BRANCH  13  14
HETATM   14  O1  UNL     1      -7.368  35.104  80.889  1.00  0.00    -0.391 OA
ATOM     15  H1  UNL     1      -7.313  34.194  81.157  1.00  0.00     0.210 HD
ENDBRANCH  13  14
BRANCH  13  16
HETATM   16  C9  UNL     1      -6.276  36.368  79.248  1.00  0.00     0.156 C 
BRANCH  16  17
HETATM   17  N3  UNL     1      -4.942  35.895  79.471  1.00  0.00    -0.391 N 
HETATM   18  C10 UNL     1      -4.420  36.105  80.753  1.00  0.00     0.059 C 
HETATM   19  C11 UNL     1      -3.680  34.973  81.385  1.00  0.00     0.054 C 
HETATM   20  C12 UNL     1      -3.027  34.080  80.373  1.00  0.00    -0.035 A 
HETATM   21  C13 UNL     1      -4.015  33.706  79.277  1.00  0.00     0.029 C 
HETATM   22  C15 UNL     1      -1.604  34.209  80.046  1.00  0.00     0.010 A 
HETATM   23  C16 UNL     1      -2.103  33.031  80.839  1.00  0.00     0.010 A 
HETATM   24  C14 UNL     1      -4.353  35.026  78.570  1.00  0.00     0.122 C 
ENDBRANCH  16  17
ENDBRANCH  13  16
ENDBRANCH   1  13
TORSDOF 7
ENDMDL
