MODEL 1
REMARK VINA RESULT: -6.026154633      0.000      0.000
REMARK  7 active torsions:
REMARK  status: ('A' for Active; 'I' for Inactive)
REMARK    1  A    between atoms: O1_2  and  C2_3 
REMARK    2  A    between atoms: C5_6  and  N1_7 
REMARK       I    between atoms: N1_7  and  C6_9 
REMARK       I    between atoms: C6_9  and  N2_11 
REMARK    3  A    between atoms: N2_11  and  C7_13 
REMARK    4  A    between atoms: C10_16  and  N3_17 
REMARK    5  A    between atoms: N3_17  and  S1_19 
REMARK    6  A    between atoms: S1_19  and  C11_22 
REMARK    7  A    between atoms: C23_35  and  O5_36 
ROOT
HETATM    1  N1  UNL     1      28.594  33.726  13.239  1.00  0.00    -0.338 N 
ATOM      2  H1  UNL     1      27.985  34.345  13.774  1.00  0.00     0.164 HD
HETATM    3  C6  UNL     1      29.017  32.541  13.844  1.00  0.00     0.316 C 
HETATM    4  O2  UNL     1      29.777  31.759  13.189  1.00  0.00    -0.247 OA
HETATM    5  N2  UNL     1      28.643  32.172  15.140  1.00  0.00    -0.339 N 
ATOM      6  H2  UNL     1      28.033  32.803  15.660  1.00  0.00     0.164 HD
ENDROOT
BRANCH   5   7
HETATM    7  C7  UNL     1      29.069  30.947  15.792  1.00  0.00     0.086 C 
HETATM    8  C8  UNL     1      27.830  30.108  16.032  1.00  0.00     0.027 C 
HETATM    9  C9  UNL     1      27.434  30.083  17.466  1.00  0.00     0.028 C 
HETATM   10  C10 UNL     1      28.532  29.457  18.283  1.00  0.00     0.093 C 
HETATM   11  C18 UNL     1      29.802  30.236  18.080  1.00  0.00     0.028 C 
HETATM   12  C19 UNL     1      29.720  31.350  17.098  1.00  0.00     0.027 C 
BRANCH  10  13
HETATM   13  N3  UNL     1      28.699  28.069  18.032  1.00  0.00    -0.314 N 
ATOM     14  H3  UNL     1      29.412  27.722  17.391  1.00  0.00     0.172 HD
BRANCH  13  15
HETATM   15  S1  UNL     1      27.643  27.010  18.861  1.00  0.00     0.231 S 
HETATM   16  O3  UNL     1      27.270  27.729  20.153  1.00  0.00    -0.206 OA
HETATM   17  O4  UNL     1      28.457  25.768  19.198  1.00  0.00    -0.206 OA
BRANCH  15  18
HETATM   18  C11 UNL     1      26.232  26.522  17.962  1.00  0.00     0.133 C 
HETATM   19  C12 UNL     1      25.889  25.062  18.008  1.00  0.00     0.026 C 
HETATM   20  C13 UNL     1      25.419  24.702  16.611  1.00  0.00    -0.013 C 
HETATM   21  C14 UNL     1      26.673  24.488  15.789  1.00  0.00     0.005 C 
HETATM   22  C17 UNL     1      25.005  26.066  16.073  1.00  0.00     0.010 C 
HETATM   23  C15 UNL     1      27.320  25.881  15.836  1.00  0.00     0.006 C 
HETATM   24  C16 UNL     1      26.327  26.780  16.461  1.00  0.00     0.006 C 
ENDBRANCH  15  18
ENDBRANCH  13  15
ENDBRANCH  10  13
ENDBRANCH   5   7
BRANCH   1  25
HETATM   25  C5  UNL     1      28.968  34.139  11.884  1.00  0.00     0.091 C 
HETATM   26  C4  UNL     1      27.858  34.719  11.165  1.00  0.00     0.028 C 
HETATM   27  C3  UNL     1      27.881  36.116  10.682  1.00  0.00     0.041 C 
HETATM   28  C2  UNL     1      28.745  36.401   9.476  1.00  0.00     0.078 C 
HETATM   29  C22 UNL     1      30.047  37.012   9.928  1.00  0.00     0.116 C 
HETATM   30  C26 UNL     1      29.495  35.262   8.898  1.00  0.00     0.078 C 
HETATM   31  S2  UNL     1      30.086  37.544  11.630  1.00  0.00    -0.158 SA
HETATM   32  C23 UNL     1      30.731  35.713   9.647  1.00  0.00     0.079 C 
HETATM   33  C21 UNL     1      30.210  36.165  12.767  1.00  0.00     0.081 C 
HETATM   34  C20 UNL     1      30.260  34.876  12.011  1.00  0.00     0.020 C 
HETATM   35  C25 UNL     1      31.104  34.889  10.785  1.00  0.00     0.047 C 
BRANCH  28  36
HETATM   36  O1  UNL     1      28.072  37.102   8.490  1.00  0.00    -0.384 OA
HETATM   37  C1  UNL     1      26.733  37.237   8.596  1.00  0.00     0.202 C 
ENDBRANCH  28  36
BRANCH  32  38
HETATM   38  O5  UNL     1      31.796  35.858   8.753  1.00  0.00    -0.384 OA
HETATM   39  C24 UNL     1      32.962  35.327   9.241  1.00  0.00     0.202 C 
ENDBRANCH  32  38
ENDBRANCH   1  25
TORSDOF 7
ENDMDL
MODEL 2
REMARK VINA RESULT: -5.589934509      2.129     11.750
REMARK  7 active torsions:
REMARK  status: ('A' for Active; 'I' for Inactive)
REMARK    1  A    between atoms: O1_2  and  C2_3 
REMARK    2  A    between atoms: C5_6  and  N1_7 
REMARK       I    between atoms: N1_7  and  C6_9 
REMARK       I    between atoms: C6_9  and  N2_11 
REMARK    3  A    between atoms: N2_11  and  C7_13 
REMARK    4  A    between atoms: C10_16  and  N3_17 
REMARK    5  A    between atoms: N3_17  and  S1_19 
REMARK    6  A    between atoms: S1_19  and  C11_22 
REMARK    7  A    between atoms: C23_35  and  O5_36 
ROOT
HETATM    1  N1  UNL     1      28.051  30.421  16.224  1.00  0.00    -0.338 N 
ATOM      2  H1  UNL     1      27.035  30.478  16.157  1.00  0.00     0.164 HD
HETATM    3  C6  UNL     1      28.810  31.169  15.321  1.00  0.00     0.316 C 
HETATM    4  O2  UNL     1      30.079  31.108  15.392  1.00  0.00    -0.247 OA
HETATM    5  N2  UNL     1      28.239  31.985  14.340  1.00  0.00    -0.339 N 
ATOM      6  H2  UNL     1      27.221  32.031  14.289  1.00  0.00     0.164 HD
ENDROOT
BRANCH   5   7
HETATM    7  C7  UNL     1      29.003  32.772  13.390  1.00  0.00     0.086 C 
HETATM    8  C8  UNL     1      29.120  34.173  13.954  1.00  0.00     0.027 C 
HETATM    9  C9  UNL     1      28.260  35.148  13.230  1.00  0.00     0.028 C 
HETATM   10  C10 UNL     1      28.695  35.235  11.792  1.00  0.00     0.093 C 
HETATM   11  C18 UNL     1      28.615  33.868  11.170  1.00  0.00     0.028 C 
HETATM   12  C19 UNL     1      28.226  32.767  12.091  1.00  0.00     0.027 C 
BRANCH  10  13
HETATM   13  N3  UNL     1      29.970  35.835  11.624  1.00  0.00    -0.314 N 
ATOM     14  H3  UNL     1      30.776  35.547  12.178  1.00  0.00     0.172 HD
BRANCH  13  15
HETATM   15  S1  UNL     1      30.086  37.069  10.445  1.00  0.00     0.231 S 
HETATM   16  O3  UNL     1      31.431  36.857   9.759  1.00  0.00    -0.206 OA
HETATM   17  O4  UNL     1      30.114  38.388  11.204  1.00  0.00    -0.206 OA
BRANCH  15  18
HETATM   18  C11 UNL     1      28.776  37.116   9.296  1.00  0.00     0.133 C 
HETATM   19  C12 UNL     1      28.988  36.360   8.017  1.00  0.00     0.026 C 
HETATM   20  C13 UNL     1      28.380  37.217   6.923  1.00  0.00    -0.013 C 
HETATM   21  C14 UNL     1      29.415  38.272   6.592  1.00  0.00     0.005 C 
HETATM   22  C17 UNL     1      27.405  38.074   7.719  1.00  0.00     0.010 C 
HETATM   23  C15 UNL     1      29.524  39.033   7.923  1.00  0.00     0.006 C 
HETATM   24  C16 UNL     1      28.441  38.515   8.787  1.00  0.00     0.006 C 
ENDBRANCH  15  18
ENDBRANCH  13  15
ENDBRANCH  10  13
ENDBRANCH   5   7
BRANCH   1  25
HETATM   25  C5  UNL     1      28.621  29.559  17.262  1.00  0.00     0.091 C 
HETATM   26  C4  UNL     1      28.274  30.004  18.591  1.00  0.00     0.028 C 
HETATM   27  C3  UNL     1      27.488  29.164  19.520  1.00  0.00     0.041 C 
HETATM   28  C2  UNL     1      28.209  27.998  20.154  1.00  0.00     0.078 C 
HETATM   29  C22 UNL     1      27.850  26.731  19.420  1.00  0.00     0.116 C 
HETATM   30  C26 UNL     1      29.628  27.798  19.780  1.00  0.00     0.078 C 
HETATM   31  S2  UNL     1      26.474  26.868  18.294  1.00  0.00    -0.158 SA
HETATM   32  C23 UNL     1      29.203  26.741  18.783  1.00  0.00     0.079 C 
HETATM   33  C21 UNL     1      26.912  27.745  16.794  1.00  0.00     0.081 C 
HETATM   34  C20 UNL     1      28.350  28.153  16.837  1.00  0.00     0.020 C 
HETATM   35  C25 UNL     1      29.286  27.135  17.386  1.00  0.00     0.047 C 
BRANCH  28  36
HETATM   36  O1  UNL     1      28.048  27.953  21.528  1.00  0.00    -0.384 OA
HETATM   37  C1  UNL     1      26.839  28.262  22.045  1.00  0.00     0.202 C 
ENDBRANCH  28  36
BRANCH  32  38
HETATM   38  O5  UNL     1      29.909  25.558  19.022  1.00  0.00    -0.384 OA
HETATM   39  C24 UNL     1      30.352  24.973  17.863  1.00  0.00     0.202 C 
ENDBRANCH  32  38
ENDBRANCH   1  25
TORSDOF 7
ENDMDL
MODEL 3
REMARK VINA RESULT: -5.588452979      1.345      1.782
REMARK  7 active torsions:
REMARK  status: ('A' for Active; 'I' for Inactive)
REMARK    1  A    between atoms: O1_2  and  C2_3 
REMARK    2  A    between atoms: C5_6  and  N1_7 
REMARK       I    between atoms: N1_7  and  C6_9 
REMARK       I    between atoms: C6_9  and  N2_11 
REMARK    3  A    between atoms: N2_11  and  C7_13 
REMARK    4  A    between atoms: C10_16  and  N3_17 
REMARK    5  A    between atoms: N3_17  and  S1_19 
REMARK    6  A    between atoms: S1_19  and  C11_22 
REMARK    7  A    between atoms: C23_35  and  O5_36 
ROOT
HETATM    1  N1  UNL     1      29.848  33.467  12.694  1.00  0.00    -0.338 N 
ATOM      2  H1  UNL     1      30.571  33.794  13.335  1.00  0.00     0.164 HD
HETATM    3  C6  UNL     1      29.034  32.411  13.111  1.00  0.00     0.316 C 
HETATM    4  O2  UNL     1      28.128  31.991  12.323  1.00  0.00    -0.247 OA
HETATM    5  N2  UNL     1      29.168  31.792  14.358  1.00  0.00    -0.339 N 
ATOM      6  H2  UNL     1      29.896  32.134  14.985  1.00  0.00     0.164 HD
ENDROOT
BRANCH   5   7
HETATM    7  C7  UNL     1      28.336  30.695  14.814  1.00  0.00     0.086 C 
HETATM    8  C8  UNL     1      28.168  30.848  16.312  1.00  0.00     0.027 C 
HETATM    9  C9  UNL     1      28.956  29.842  17.075  1.00  0.00     0.028 C 
HETATM   10  C10 UNL     1      28.472  28.458  16.736  1.00  0.00     0.093 C 
HETATM   11  C18 UNL     1      28.599  28.242  15.253  1.00  0.00     0.028 C 
HETATM   12  C19 UNL     1      29.071  29.416  14.472  1.00  0.00     0.027 C 
BRANCH  10  13
HETATM   13  N3  UNL     1      27.164  28.185  17.215  1.00  0.00    -0.314 N 
ATOM     14  H3  UNL     1      26.540  28.929  17.526  1.00  0.00     0.172 HD
BRANCH  13  15
HETATM   15  S1  UNL     1      26.688  26.542  17.247  1.00  0.00     0.231 S 
HETATM   16  O3  UNL     1      25.756  26.407  18.446  1.00  0.00    -0.206 OA
HETATM   17  O4  UNL     1      27.952  25.733  17.503  1.00  0.00    -0.206 OA
BRANCH  15  18
HETATM   18  C11 UNL     1      25.944  25.962  15.782  1.00  0.00     0.133 C 
HETATM   19  C12 UNL     1      24.444  25.972  15.752  1.00  0.00     0.026 C 
HETATM   20  C13 UNL     1      24.034  24.700  15.035  1.00  0.00    -0.013 C 
HETATM   21  C14 UNL     1      24.108  23.594  16.067  1.00  0.00     0.005 C 
HETATM   22  C17 UNL     1      25.297  24.380  14.245  1.00  0.00     0.010 C 
HETATM   23  C15 UNL     1      25.604  23.597  16.422  1.00  0.00     0.006 C 
HETATM   24  C16 UNL     1      26.259  24.504  15.456  1.00  0.00     0.006 C 
ENDBRANCH  15  18
ENDBRANCH  13  15
ENDBRANCH  10  13
ENDBRANCH   5   7
BRANCH   1  25
HETATM   25  C5  UNL     1      29.732  34.134  11.395  1.00  0.00     0.091 C 
HETATM   26  C4  UNL     1      28.386  34.590  11.136  1.00  0.00     0.028 C 
HETATM   27  C3  UNL     1      28.065  36.020  10.945  1.00  0.00     0.041 C 
HETATM   28  C2  UNL     1      28.473  36.636   9.627  1.00  0.00     0.078 C 
HETATM   29  C22 UNL     1      29.752  37.412   9.813  1.00  0.00     0.116 C 
HETATM   30  C26 UNL     1      29.163  35.755   8.656  1.00  0.00     0.078 C 
HETATM   31  S2  UNL     1      30.232  37.690  11.509  1.00  0.00    -0.158 SA
HETATM   32  C23 UNL     1      30.492  36.321   9.109  1.00  0.00     0.079 C 
HETATM   33  C21 UNL     1      30.887  36.211  12.278  1.00  0.00     0.081 C 
HETATM   34  C20 UNL     1      30.884  35.078  11.302  1.00  0.00     0.020 C 
HETATM   35  C25 UNL     1      31.305  35.428   9.918  1.00  0.00     0.047 C 
BRANCH  28  36
HETATM   36  O1  UNL     1      27.441  37.330   9.020  1.00  0.00    -0.384 OA
HETATM   37  C1  UNL     1      26.170  36.966   9.295  1.00  0.00     0.202 C 
ENDBRANCH  28  36
BRANCH  32  38
HETATM   38  O5  UNL     1      31.204  36.794   8.002  1.00  0.00    -0.384 OA
HETATM   39  C24 UNL     1      32.496  36.336   7.978  1.00  0.00     0.202 C 
ENDBRANCH  32  38
ENDBRANCH   1  25
TORSDOF 7
ENDMDL
MODEL 4
REMARK VINA RESULT: -5.541848937      2.500     11.758
REMARK  7 active torsions:
REMARK  status: ('A' for Active; 'I' for Inactive)
REMARK    1  A    between atoms: O1_2  and  C2_3 
REMARK    2  A    between atoms: C5_6  and  N1_7 
REMARK       I    between atoms: N1_7  and  C6_9 
REMARK       I    between atoms: C6_9  and  N2_11 
REMARK    3  A    between atoms: N2_11  and  C7_13 
REMARK    4  A    between atoms: C10_16  and  N3_17 
REMARK    5  A    between atoms: N3_17  and  S1_19 
REMARK    6  A    between atoms: S1_19  and  C11_22 
REMARK    7  A    between atoms: C23_35  and  O5_36 
ROOT
HETATM    1  N1  UNL     1      28.638  31.772  14.370  1.00  0.00    -0.338 N 
ATOM      2  H1  UNL     1      28.790  32.470  15.098  1.00  0.00     0.164 HD
HETATM    3  C6  UNL     1      28.383  32.224  13.073  1.00  0.00     0.316 C 
HETATM    4  O2  UNL     1      28.191  31.366  12.154  1.00  0.00    -0.247 OA
HETATM    5  N2  UNL     1      28.329  33.580  12.737  1.00  0.00    -0.339 N 
ATOM      6  H2  UNL     1      28.484  34.264  13.478  1.00  0.00     0.164 HD
ENDROOT
BRANCH   5   7
HETATM    7  C7  UNL     1      28.065  34.076  11.399  1.00  0.00     0.086 C 
HETATM    8  C8  UNL     1      29.390  34.517  10.811  1.00  0.00     0.027 C 
HETATM    9  C9  UNL     1      29.512  35.998  10.740  1.00  0.00     0.028 C 
HETATM   10  C10 UNL     1      28.444  36.551   9.835  1.00  0.00     0.093 C 
HETATM   11  C18 UNL     1      27.095  36.138  10.356  1.00  0.00     0.028 C 
HETATM   12  C19 UNL     1      27.113  35.245  11.545  1.00  0.00     0.027 C 
BRANCH  10  13
HETATM   13  N3  UNL     1      28.629  36.207   8.470  1.00  0.00    -0.314 N 
ATOM     14  H3  UNL     1      28.656  35.236   8.160  1.00  0.00     0.172 HD
BRANCH  13  15
HETATM   15  S1  UNL     1      28.805  37.506   7.371  1.00  0.00     0.231 S 
HETATM   16  O3  UNL     1      27.926  38.626   7.915  1.00  0.00    -0.206 OA
HETATM   17  O4  UNL     1      28.239  37.025   6.042  1.00  0.00    -0.206 OA
BRANCH  15  18
HETATM   18  C11 UNL     1      30.445  38.038   7.115  1.00  0.00     0.133 C 
HETATM   19  C12 UNL     1      31.525  37.114   7.597  1.00  0.00     0.026 C 
HETATM   20  C13 UNL     1      32.603  38.005   8.182  1.00  0.00    -0.013 C 
HETATM   21  C14 UNL     1      32.142  38.361   9.579  1.00  0.00     0.005 C 
HETATM   22  C17 UNL     1      32.311  39.328   7.485  1.00  0.00     0.010 C 
HETATM   23  C15 UNL     1      30.847  39.138   9.293  1.00  0.00     0.006 C 
HETATM   24  C16 UNL     1      30.799  39.340   7.829  1.00  0.00     0.006 C 
ENDBRANCH  15  18
ENDBRANCH  13  15
ENDBRANCH  10  13
ENDBRANCH   5   7
BRANCH   1  25
HETATM   25  C5  UNL     1      28.702  30.360  14.752  1.00  0.00     0.091 C 
HETATM   26  C4  UNL     1      30.011  29.793  14.529  1.00  0.00     0.028 C 
HETATM   27  C3  UNL     1      30.831  29.251  15.633  1.00  0.00     0.041 C 
HETATM   28  C2  UNL     1      30.407  27.917  16.200  1.00  0.00     0.078 C 
HETATM   29  C22 UNL     1      29.640  28.138  17.479  1.00  0.00     0.116 C 
HETATM   30  C26 UNL     1      29.207  27.282  15.605  1.00  0.00     0.078 C 
HETATM   31  S2  UNL     1      29.736  29.790  18.146  1.00  0.00    -0.158 SA
HETATM   32  C23 UNL     1      28.374  27.813  16.752  1.00  0.00     0.079 C 
HETATM   33  C21 UNL     1      28.741  30.954  17.217  1.00  0.00     0.081 C 
HETATM   34  C20 UNL     1      28.048  30.256  16.090  1.00  0.00     0.020 C 
HETATM   35  C25 UNL     1      27.488  28.917  16.418  1.00  0.00     0.047 C 
BRANCH  28  36
HETATM   36  O1  UNL     1      31.454  27.015  16.285  1.00  0.00    -0.384 OA
HETATM   37  C1  UNL     1      31.835  26.585  17.507  1.00  0.00     0.202 C 
ENDBRANCH  28  36
BRANCH  32  38
HETATM   38  O5  UNL     1      27.675  26.762  17.353  1.00  0.00    -0.384 OA
HETATM   39  C24 UNL     1      26.364  27.082  17.598  1.00  0.00     0.202 C 
ENDBRANCH  32  38
ENDBRANCH   1  25
TORSDOF 7
ENDMDL
MODEL 5
REMARK VINA RESULT: -5.523191968      1.856      2.309
REMARK  7 active torsions:
REMARK  status: ('A' for Active; 'I' for Inactive)
REMARK    1  A    between atoms: O1_2  and  C2_3 
REMARK    2  A    between atoms: C5_6  and  N1_7 
REMARK       I    between atoms: N1_7  and  C6_9 
REMARK       I    between atoms: C6_9  and  N2_11 
REMARK    3  A    between atoms: N2_11  and  C7_13 
REMARK    4  A    between atoms: C10_16  and  N3_17 
REMARK    5  A    between atoms: N3_17  and  S1_19 
REMARK    6  A    between atoms: S1_19  and  C11_22 
REMARK    7  A    between atoms: C23_35  and  O5_36 
ROOT
HETATM    1  N1  UNL     1      28.539  33.155  13.531  1.00  0.00    -0.338 N 
ATOM      2  H1  UNL     1      27.755  33.690  13.902  1.00  0.00     0.164 HD
HETATM    3  C6  UNL     1      29.041  32.107  14.307  1.00  0.00     0.316 C 
HETATM    4  O2  UNL     1      30.020  31.430  13.858  1.00  0.00    -0.247 OA
HETATM    5  N2  UNL     1      28.516  31.766  15.558  1.00  0.00    -0.339 N 
ATOM      6  H2  UNL     1      27.731  32.313  15.912  1.00  0.00     0.164 HD
ENDROOT
BRANCH   5   7
HETATM    7  C7  UNL     1      29.019  30.684  16.383  1.00  0.00     0.086 C 
HETATM    8  C8  UNL     1      27.844  29.790  16.722  1.00  0.00     0.027 C 
HETATM    9  C9  UNL     1      27.414  29.935  18.139  1.00  0.00     0.028 C 
HETATM   10  C10 UNL     1      28.536  29.520  19.053  1.00  0.00     0.093 C 
HETATM   11  C18 UNL     1      29.746  30.363  18.760  1.00  0.00     0.028 C 
HETATM   12  C19 UNL     1      29.604  31.317  17.628  1.00  0.00     0.027 C 
BRANCH  10  13
HETATM   13  N3  UNL     1      28.816  28.129  19.004  1.00  0.00    -0.314 N 
ATOM     14  H3  UNL     1      28.746  27.598  18.137  1.00  0.00     0.172 HD
BRANCH  13  15
HETATM   15  S1  UNL     1      29.279  27.391  20.476  1.00  0.00     0.231 S 
HETATM   16  O3  UNL     1      29.214  28.494  21.527  1.00  0.00    -0.206 OA
HETATM   17  O4  UNL     1      30.727  26.953  20.301  1.00  0.00    -0.206 OA
BRANCH  15  18
HETATM   18  C11 UNL     1      28.331  26.004  20.936  1.00  0.00     0.133 C 
HETATM   19  C12 UNL     1      27.642  25.273  19.821  1.00  0.00     0.026 C 
HETATM   20  C13 UNL     1      26.283  24.873  20.363  1.00  0.00    -0.013 C 
HETATM   21  C14 UNL     1      25.404  26.099  20.239  1.00  0.00     0.005 C 
HETATM   22  C17 UNL     1      26.537  24.906  21.865  1.00  0.00     0.010 C 
HETATM   23  C15 UNL     1      26.122  27.094  21.166  1.00  0.00     0.006 C 
HETATM   24  C16 UNL     1      27.168  26.323  21.872  1.00  0.00     0.006 C 
ENDBRANCH  15  18
ENDBRANCH  13  15
ENDBRANCH  10  13
ENDBRANCH   5   7
BRANCH   1  25
HETATM   25  C5  UNL     1      29.067  33.534  12.219  1.00  0.00     0.091 C 
HETATM   26  C4  UNL     1      28.023  33.936  11.307  1.00  0.00     0.028 C 
HETATM   27  C3  UNL     1      27.964  35.297  10.732  1.00  0.00     0.041 C 
HETATM   28  C2  UNL     1      28.964  35.617   9.646  1.00  0.00     0.078 C 
HETATM   29  C22 UNL     1      30.106  36.405  10.237  1.00  0.00     0.116 C 
HETATM   30  C26 UNL     1      29.915  34.546   9.267  1.00  0.00     0.078 C 
HETATM   31  S2  UNL     1      29.827  37.030  11.884  1.00  0.00    -0.158 SA
HETATM   32  C23 UNL     1      30.965  35.183  10.152  1.00  0.00     0.079 C 
HETATM   33  C21 UNL     1      29.928  35.741  13.123  1.00  0.00     0.081 C 
HETATM   34  C20 UNL     1      30.235  34.428  12.478  1.00  0.00     0.020 C 
HETATM   35  C25 UNL     1      31.249  34.474  11.389  1.00  0.00     0.047 C 
BRANCH  28  36
HETATM   36  O1  UNL     1      28.376  36.177   8.525  1.00  0.00    -0.384 OA
HETATM   37  C1  UNL     1      27.485  37.177   8.697  1.00  0.00     0.202 C 
ENDBRANCH  28  36
BRANCH  32  38
HETATM   38  O5  UNL     1      32.131  35.406   9.414  1.00  0.00    -0.384 OA
HETATM   39  C24 UNL     1      33.262  35.063  10.109  1.00  0.00     0.202 C 
ENDBRANCH  32  38
ENDBRANCH   1  25
TORSDOF 7
ENDMDL
