MODEL 1
REMARK VINA RESULT: -7.169294852      0.000      0.000
REMARK  10 active torsions:
REMARK  status: ('A' for Active; 'I' for Inactive)
REMARK    1  A    between atoms: C3_3  and  C4_4 
REMARK    2  A    between atoms: C4_4  and  N1_5 
REMARK    3  A    between atoms: C12_13  and  O1_14 
REMARK    4  A    between atoms: C16_19  and  O2_20 
REMARK    5  A    between atoms: C22_28  and  C23_29 
REMARK    6  A    between atoms: C23_29  and  C25_31 
REMARK    7  A    between atoms: C25_31  and  N2_32 
REMARK    8  A    between atoms: N2_32  and  C26_34 
REMARK    9  A    between atoms: C26_34  and  C27_35 
REMARK   10  A    between atoms: C27_35  and  N3_36 
ROOT
HETATM    1  C1  UNL     1      28.343  26.509  13.579  1.00  0.00     0.044 C 
HETATM    2  C2  UNL     1      28.994  27.840  13.643  1.00  0.00    -0.076 C 
HETATM    3  C3  UNL     1      29.073  28.539  14.817  1.00  0.00    -0.034 C 
HETATM    4  C11 UNL     1      29.630  29.885  14.839  1.00  0.00     0.054 C 
HETATM    5  C12 UNL     1      28.522  30.910  14.445  1.00  0.00     0.132 C 
HETATM    6  C13 UNL     1      29.390  32.052  14.073  1.00  0.00     0.025 C 
HETATM    7  C14 UNL     1      30.354  31.395  13.099  1.00  0.00    -0.000 C 
HETATM    8  C15 UNL     1      31.402  32.374  12.788  1.00  0.00     0.038 C 
HETATM    9  C16 UNL     1      31.179  33.801  13.206  1.00  0.00     0.128 C 
HETATM   10  C17 UNL     1      29.820  34.315  13.314  1.00  0.00    -0.003 C 
HETATM   11  C18 UNL     1      29.633  34.971  14.691  1.00  0.00     0.019 C 
HETATM   12  C19 UNL     1      28.764  33.173  13.375  1.00  0.00     0.011 C 
HETATM   13  C20 UNL     1      28.454  33.025  11.931  1.00  0.00     0.084 C 
HETATM   14  C21 UNL     1      28.155  34.477  11.616  1.00  0.00     0.132 C 
HETATM   15  O3  UNL     1      27.197  34.784  10.949  1.00  0.00    -0.298 OA
HETATM   16  C22 UNL     1      29.246  35.216  12.290  1.00  0.00     0.071 C 
HETATM   17  C32 UNL     1      30.744  30.160  13.853  1.00  0.00     0.001 C 
HETATM   18  C33 UNL     1      30.918  29.038  12.847  1.00  0.00     0.010 C 
HETATM   19  C34 UNL     1      29.591  28.448  12.441  1.00  0.00     0.034 C 
ENDROOT
BRANCH  16  20
HETATM   20  C23 UNL     1      30.141  35.950  11.380  1.00  0.00     0.011 C 
HETATM   21  C24 UNL     1      30.566  37.272  11.965  1.00  0.00     0.012 C 
BRANCH  20  22
HETATM   22  C25 UNL     1      29.493  36.280  10.049  1.00  0.00     0.118 C 
BRANCH  22  23
HETATM   23  N2  UNL     1      28.825  37.545  10.018  1.00  0.00    -0.419 N 
ATOM     24  H2  UNL     1      28.708  38.107  10.861  1.00  0.00     0.153 HD
BRANCH  23  25
HETATM   25  C26 UNL     1      28.333  37.984   8.757  1.00  0.00     0.144 C 
BRANCH  25  26
HETATM   26  C27 UNL     1      27.387  36.916   8.251  1.00  0.00     0.291 C 
BRANCH  26  27
HETATM   27  N3  UNL     1      26.010  37.221   8.427  1.00  0.00     0.090 N 
HETATM   28  C28 UNL     1      25.360  36.554   9.496  1.00  0.00     0.272 C 
HETATM   29  C29 UNL     1      24.361  37.510  10.106  1.00  0.00     0.032 C 
HETATM   30  C30 UNL     1      24.605  38.831   9.454  1.00  0.00     0.032 C 
HETATM   31  C31 UNL     1      25.725  38.622   8.468  1.00  0.00     0.272 C 
ENDBRANCH  26  27
ENDBRANCH  25  26
ENDBRANCH  23  25
ENDBRANCH  22  23
ENDBRANCH  20  22
ENDBRANCH  16  20
BRANCH   9  32
HETATM   32  O2  UNL     1      31.856  33.917  14.452  1.00  0.00    -0.395 OA
ATOM     33  H2  UNL     1      31.911  34.853  14.606  1.00  0.00     0.210 HD
ENDBRANCH   9  32
BRANCH   5  34
HETATM   34  O1  UNL     1      27.780  31.116  15.604  1.00  0.00    -0.394 OA
ATOM     35  H1  UNL     1      27.906  32.032  15.825  1.00  0.00     0.210 HD
ENDBRANCH   5  34
BRANCH   3  36
HETATM   36  C4  UNL     1      28.478  27.884  15.967  1.00  0.00     0.093 C 
BRANCH  36  37
HETATM   37  N1  UNL     1      28.488  28.396  17.256  1.00  0.00    -0.389 N 
HETATM   38  C5  UNL     1      27.381  28.558  18.085  1.00  0.00     0.122 C 
HETATM   39  C6  UNL     1      27.613  29.794  18.974  1.00  0.00     0.020 C 
HETATM   40  C7  UNL     1      28.772  29.536  19.871  1.00  0.00     0.002 C 
HETATM   41  C8  UNL     1      28.817  28.109  20.296  1.00  0.00     0.002 C 
HETATM   42  C9  UNL     1      29.297  27.170  19.238  1.00  0.00     0.020 C 
HETATM   43  C10 UNL     1      29.650  27.834  17.952  1.00  0.00     0.122 C 
ENDBRANCH  36  37
ENDBRANCH   3  36
TORSDOF 10
ENDMDL
MODEL 2
REMARK VINA RESULT: -7.055960382      1.961      3.871
REMARK  10 active torsions:
REMARK  status: ('A' for Active; 'I' for Inactive)
REMARK    1  A    between atoms: C3_3  and  C4_4 
REMARK    2  A    between atoms: C4_4  and  N1_5 
REMARK    3  A    between atoms: C12_13  and  O1_14 
REMARK    4  A    between atoms: C16_19  and  O2_20 
REMARK    5  A    between atoms: C22_28  and  C23_29 
REMARK    6  A    between atoms: C23_29  and  C25_31 
REMARK    7  A    between atoms: C25_31  and  N2_32 
REMARK    8  A    between atoms: N2_32  and  C26_34 
REMARK    9  A    between atoms: C26_34  and  C27_35 
REMARK   10  A    between atoms: C27_35  and  N3_36 
ROOT
HETATM    1  C1  UNL     1      30.851  33.521  18.838  1.00  0.00     0.044 C 
HETATM    2  C2  UNL     1      30.321  33.595  17.455  1.00  0.00    -0.076 C 
HETATM    3  C3  UNL     1      29.779  32.498  16.842  1.00  0.00    -0.034 C 
HETATM    4  C11 UNL     1      29.353  32.566  15.450  1.00  0.00     0.054 C 
HETATM    5  C12 UNL     1      30.582  32.327  14.520  1.00  0.00     0.132 C 
HETATM    6  C13 UNL     1      30.037  32.905  13.269  1.00  0.00     0.025 C 
HETATM    7  C14 UNL     1      29.559  34.266  13.747  1.00  0.00    -0.000 C 
HETATM    8  C15 UNL     1      28.815  34.884  12.644  1.00  0.00     0.038 C 
HETATM    9  C16 UNL     1      28.920  34.253  11.283  1.00  0.00     0.128 C 
HETATM   10  C17 UNL     1      30.122  33.514  10.923  1.00  0.00    -0.003 C 
HETATM   11  C18 UNL     1      29.727  32.126  10.395  1.00  0.00     0.019 C 
HETATM   12  C19 UNL     1      30.972  33.133  12.171  1.00  0.00     0.011 C 
HETATM   13  C20 UNL     1      31.875  34.311  12.242  1.00  0.00     0.084 C 
HETATM   14  C21 UNL     1      32.370  34.301  10.810  1.00  0.00     0.132 C 
HETATM   15  O3  UNL     1      33.540  34.451  10.556  1.00  0.00    -0.298 OA
HETATM   16  C22 UNL     1      31.141  34.082  10.013  1.00  0.00     0.071 C 
HETATM   17  C32 UNL     1      28.803  33.897  14.987  1.00  0.00     0.001 C 
HETATM   18  C33 UNL     1      29.019  35.000  16.007  1.00  0.00     0.010 C 
HETATM   19  C34 UNL     1      30.350  34.859  16.700  1.00  0.00     0.034 C 
ENDROOT
BRANCH  16  20
HETATM   20  C23 UNL     1      30.783  35.200   9.124  1.00  0.00     0.011 C 
HETATM   21  C24 UNL     1      31.456  35.078   7.781  1.00  0.00     0.012 C 
BRANCH  20  22
HETATM   22  C25 UNL     1      31.201  36.551   9.671  1.00  0.00     0.118 C 
BRANCH  22  23
HETATM   23  N2  UNL     1      30.301  37.617   9.357  1.00  0.00    -0.419 N 
ATOM     24  H2  UNL     1      30.623  38.470   8.900  1.00  0.00     0.153 HD
BRANCH  23  25
HETATM   25  C26 UNL     1      28.934  37.433   9.709  1.00  0.00     0.144 C 
BRANCH  25  26
HETATM   26  C27 UNL     1      28.111  37.740   8.476  1.00  0.00     0.291 C 
BRANCH  26  27
HETATM   27  N3  UNL     1      26.754  37.327   8.559  1.00  0.00     0.090 N 
HETATM   28  C28 UNL     1      26.413  36.544   9.691  1.00  0.00     0.272 C 
HETATM   29  C29 UNL     1      25.016  36.926  10.122  1.00  0.00     0.032 C 
HETATM   30  C30 UNL     1      24.639  38.110   9.294  1.00  0.00     0.032 C 
HETATM   31  C31 UNL     1      25.810  38.388   8.386  1.00  0.00     0.272 C 
ENDBRANCH  26  27
ENDBRANCH  25  26
ENDBRANCH  23  25
ENDBRANCH  22  23
ENDBRANCH  20  22
ENDBRANCH  16  20
BRANCH   9  32
HETATM   32  O2  UNL     1      27.774  33.415  11.190  1.00  0.00    -0.395 OA
ATOM     33  H2  UNL     1      27.152  33.796  11.798  1.00  0.00     0.210 HD
ENDBRANCH   9  32
BRANCH   5  34
HETATM   34  O1  UNL     1      30.751  30.946  14.480  1.00  0.00    -0.394 OA
ATOM     35  H1  UNL     1      31.418  30.793  13.821  1.00  0.00     0.210 HD
ENDBRANCH   5  34
BRANCH   3  36
HETATM   36  C4  UNL     1      29.767  31.287  17.640  1.00  0.00     0.093 C 
BRANCH  36  37
HETATM   37  N1  UNL     1      29.003  30.164  17.354  1.00  0.00    -0.389 N 
HETATM   38  C5  UNL     1      29.488  28.903  17.017  1.00  0.00     0.122 C 
HETATM   39  C6  UNL     1      28.492  28.240  16.048  1.00  0.00     0.020 C 
HETATM   40  C7  UNL     1      27.201  28.016  16.756  1.00  0.00     0.002 C 
HETATM   41  C8  UNL     1      27.427  27.663  18.185  1.00  0.00     0.002 C 
HETATM   42  C9  UNL     1      27.816  28.819  19.047  1.00  0.00     0.020 C 
HETATM   43  C10 UNL     1      27.900  30.117  18.320  1.00  0.00     0.122 C 
ENDBRANCH  36  37
ENDBRANCH   3  36
TORSDOF 10
ENDMDL
MODEL 3
REMARK VINA RESULT: -6.743588323      1.394      1.832
REMARK  10 active torsions:
REMARK  status: ('A' for Active; 'I' for Inactive)
REMARK    1  A    between atoms: C3_3  and  C4_4 
REMARK    2  A    between atoms: C4_4  and  N1_5 
REMARK    3  A    between atoms: C12_13  and  O1_14 
REMARK    4  A    between atoms: C16_19  and  O2_20 
REMARK    5  A    between atoms: C22_28  and  C23_29 
REMARK    6  A    between atoms: C23_29  and  C25_31 
REMARK    7  A    between atoms: C25_31  and  N2_32 
REMARK    8  A    between atoms: N2_32  and  C26_34 
REMARK    9  A    between atoms: C26_34  and  C27_35 
REMARK   10  A    between atoms: C27_35  and  N3_36 
ROOT
HETATM    1  C1  UNL     1      28.408  26.787  13.094  1.00  0.00     0.044 C 
HETATM    2  C2  UNL     1      29.023  28.135  13.151  1.00  0.00    -0.076 C 
HETATM    3  C3  UNL     1      29.162  28.805  14.336  1.00  0.00    -0.034 C 
HETATM    4  C11 UNL     1      29.679  30.166  14.359  1.00  0.00     0.054 C 
HETATM    5  C12 UNL     1      28.517  31.167  14.070  1.00  0.00     0.132 C 
HETATM    6  C13 UNL     1      29.324  32.345  13.673  1.00  0.00     0.025 C 
HETATM    7  C14 UNL     1      30.237  31.744  12.617  1.00  0.00    -0.000 C 
HETATM    8  C15 UNL     1      31.232  32.763  12.264  1.00  0.00     0.038 C 
HETATM    9  C16 UNL     1      30.997  34.171  12.737  1.00  0.00     0.128 C 
HETATM   10  C17 UNL     1      29.634  34.639  12.951  1.00  0.00    -0.003 C 
HETATM   11  C18 UNL     1      29.523  35.252  14.356  1.00  0.00     0.019 C 
HETATM   12  C19 UNL     1      28.619  33.463  13.052  1.00  0.00     0.011 C 
HETATM   13  C20 UNL     1      28.214  33.344  11.628  1.00  0.00     0.084 C 
HETATM   14  C21 UNL     1      27.852  34.794  11.376  1.00  0.00     0.132 C 
HETATM   15  O3  UNL     1      26.842  35.088  10.785  1.00  0.00    -0.298 OA
HETATM   16  C22 UNL     1      28.965  35.549  11.995  1.00  0.00     0.071 C 
HETATM   17  C32 UNL     1      30.714  30.502  13.307  1.00  0.00     0.001 C 
HETATM   18  C33 UNL     1      30.851  29.413  12.260  1.00  0.00     0.010 C 
HETATM   19  C34 UNL     1      29.518  28.793  11.929  1.00  0.00     0.034 C 
ENDROOT
BRANCH  16  20
HETATM   20  C23 UNL     1      29.772  36.333  11.047  1.00  0.00     0.011 C 
HETATM   21  C24 UNL     1      30.063  37.714  11.577  1.00  0.00     0.012 C 
BRANCH  20  22
HETATM   22  C25 UNL     1      29.085  36.543   9.712  1.00  0.00     0.118 C 
BRANCH  22  23
HETATM   23  N2  UNL     1      28.250  37.702   9.655  1.00  0.00    -0.419 N 
ATOM     24  H2  UNL     1      28.213  38.371  10.424  1.00  0.00     0.153 HD
BRANCH  23  25
HETATM   25  C26 UNL     1      27.472  37.882   8.477  1.00  0.00     0.144 C 
BRANCH  25  26
HETATM   26  C27 UNL     1      28.437  37.944   7.311  1.00  0.00     0.291 C 
BRANCH  26  27
HETATM   27  N3  UNL     1      27.907  38.557   6.144  1.00  0.00     0.090 N 
HETATM   28  C28 UNL     1      28.347  38.019   4.908  1.00  0.00     0.272 C 
HETATM   29  C29 UNL     1      27.189  38.066   3.938  1.00  0.00     0.032 C 
HETATM   30  C30 UNL     1      25.998  38.483   4.739  1.00  0.00     0.032 C 
HETATM   31  C31 UNL     1      26.482  38.688   6.151  1.00  0.00     0.272 C 
ENDBRANCH  26  27
ENDBRANCH  25  26
ENDBRANCH  23  25
ENDBRANCH  22  23
ENDBRANCH  20  22
ENDBRANCH  16  20
BRANCH   9  32
HETATM   32  O2  UNL     1      31.754  34.275  13.936  1.00  0.00    -0.395 OA
ATOM     33  H2  UNL     1      31.589  33.459  14.392  1.00  0.00     0.210 HD
ENDBRANCH   9  32
BRANCH   5  34
HETATM   34  O1  UNL     1      27.851  31.318  15.282  1.00  0.00    -0.394 OA
ATOM     35  H1  UNL     1      27.175  30.650  15.284  1.00  0.00     0.210 HD
ENDBRANCH   5  34
BRANCH   3  36
HETATM   36  C4  UNL     1      28.668  28.101  15.504  1.00  0.00     0.093 C 
BRANCH  36  37
HETATM   37  N1  UNL     1      28.636  28.630  16.787  1.00  0.00    -0.389 N 
HETATM   38  C5  UNL     1      27.532  28.672  17.633  1.00  0.00     0.122 C 
HETATM   39  C6  UNL     1      27.628  29.940  18.501  1.00  0.00     0.020 C 
HETATM   40  C7  UNL     1      28.825  29.835  19.381  1.00  0.00     0.002 C 
HETATM   41  C8  UNL     1      29.046  28.430  19.823  1.00  0.00     0.002 C 
HETATM   42  C9  UNL     1      29.617  27.539  18.770  1.00  0.00     0.020 C 
HETATM   43  C10 UNL     1      29.868  28.221  17.469  1.00  0.00     0.122 C 
ENDBRANCH  36  37
ENDBRANCH   3  36
TORSDOF 10
ENDMDL
MODEL 4
REMARK VINA RESULT: -6.659227482      1.009      1.385
REMARK  10 active torsions:
REMARK  status: ('A' for Active; 'I' for Inactive)
REMARK    1  A    between atoms: C3_3  and  C4_4 
REMARK    2  A    between atoms: C4_4  and  N1_5 
REMARK    3  A    between atoms: C12_13  and  O1_14 
REMARK    4  A    between atoms: C16_19  and  O2_20 
REMARK    5  A    between atoms: C22_28  and  C23_29 
REMARK    6  A    between atoms: C23_29  and  C25_31 
REMARK    7  A    between atoms: C25_31  and  N2_32 
REMARK    8  A    between atoms: N2_32  and  C26_34 
REMARK    9  A    between atoms: C26_34  and  C27_35 
REMARK   10  A    between atoms: C27_35  and  N3_36 
ROOT
HETATM    1  C1  UNL     1      28.546  26.686  13.145  1.00  0.00     0.044 C 
HETATM    2  C2  UNL     1      29.168  28.026  13.264  1.00  0.00    -0.076 C 
HETATM    3  C3  UNL     1      29.189  28.698  14.456  1.00  0.00    -0.034 C 
HETATM    4  C11 UNL     1      29.718  30.053  14.532  1.00  0.00     0.054 C 
HETATM    5  C12 UNL     1      28.607  31.067  14.119  1.00  0.00     0.132 C 
HETATM    6  C13 UNL     1      29.467  32.233  13.808  1.00  0.00     0.025 C 
HETATM    7  C14 UNL     1      30.480  31.617  12.856  1.00  0.00    -0.000 C 
HETATM    8  C15 UNL     1      31.520  32.622  12.610  1.00  0.00     0.038 C 
HETATM    9  C16 UNL     1      31.253  34.035  13.052  1.00  0.00     0.128 C 
HETATM   10  C17 UNL     1      29.882  34.521  13.119  1.00  0.00    -0.003 C 
HETATM   11  C18 UNL     1      29.630  35.140  14.503  1.00  0.00     0.019 C 
HETATM   12  C19 UNL     1      28.846  33.358  13.113  1.00  0.00     0.011 C 
HETATM   13  C20 UNL     1      28.594  33.240  11.655  1.00  0.00     0.084 C 
HETATM   14  C21 UNL     1      28.280  34.693  11.362  1.00  0.00     0.132 C 
HETATM   15  O3  UNL     1      27.343  34.998  10.667  1.00  0.00    -0.298 OA
HETATM   16  C22 UNL     1      29.330  35.436  12.096  1.00  0.00     0.071 C 
HETATM   17  C32 UNL     1      30.864  30.372  13.596  1.00  0.00     0.001 C 
HETATM   18  C33 UNL     1      31.098  29.277  12.571  1.00  0.00     0.010 C 
HETATM   19  C34 UNL     1      29.799  28.674  12.101  1.00  0.00     0.034 C 
ENDROOT
BRANCH  16  20
HETATM   20  C23 UNL     1      30.245  36.207  11.238  1.00  0.00     0.011 C 
HETATM   21  C24 UNL     1      29.783  37.633  11.075  1.00  0.00     0.012 C 
BRANCH  20  22
HETATM   22  C25 UNL     1      30.354  35.649   9.832  1.00  0.00     0.118 C 
BRANCH  22  23
HETATM   23  N2  UNL     1      30.822  36.588   8.860  1.00  0.00    -0.419 N 
ATOM     24  H2  UNL     1      31.439  37.358   9.118  1.00  0.00     0.153 HD
BRANCH  23  25
HETATM   25  C26 UNL     1      30.388  36.399   7.518  1.00  0.00     0.144 C 
BRANCH  25  26
HETATM   26  C27 UNL     1      28.877  36.317   7.545  1.00  0.00     0.291 C 
BRANCH  26  27
HETATM   27  N3  UNL     1      28.222  37.577   7.597  1.00  0.00     0.090 N 
HETATM   28  C28 UNL     1      27.894  38.156   6.345  1.00  0.00     0.272 C 
HETATM   29  C29 UNL     1      26.571  38.871   6.492  1.00  0.00     0.032 C 
HETATM   30  C30 UNL     1      26.057  38.511   7.847  1.00  0.00     0.032 C 
HETATM   31  C31 UNL     1      27.091  37.610   8.472  1.00  0.00     0.272 C 
ENDBRANCH  26  27
ENDBRANCH  25  26
ENDBRANCH  23  25
ENDBRANCH  22  23
ENDBRANCH  20  22
ENDBRANCH  16  20
BRANCH   9  32
HETATM   32  O2  UNL     1      31.880  34.133  14.325  1.00  0.00    -0.395 OA
ATOM     33  H2  UNL     1      31.295  34.679  14.836  1.00  0.00     0.210 HD
ENDBRANCH   9  32
BRANCH   5  34
HETATM   34  O1  UNL     1      27.818  31.231  15.253  1.00  0.00    -0.394 OA
ATOM     35  H1  UNL     1      26.979  30.841  15.035  1.00  0.00     0.210 HD
ENDBRANCH   5  34
BRANCH   3  36
HETATM   36  C4  UNL     1      28.564  28.004  15.567  1.00  0.00     0.093 C 
BRANCH  36  37
HETATM   37  N1  UNL     1      28.497  28.495  16.863  1.00  0.00    -0.389 N 
HETATM   38  C5  UNL     1      27.342  28.647  17.626  1.00  0.00     0.122 C 
HETATM   39  C6  UNL     1      27.523  29.866  18.549  1.00  0.00     0.020 C 
HETATM   40  C7  UNL     1      28.626  29.589  19.510  1.00  0.00     0.002 C 
HETATM   41  C8  UNL     1      28.640  28.154  19.912  1.00  0.00     0.002 C 
HETATM   42  C9  UNL     1      29.181  27.232  18.869  1.00  0.00     0.020 C 
HETATM   43  C10 UNL     1      29.613  27.916  17.618  1.00  0.00     0.122 C 
ENDBRANCH  36  37
ENDBRANCH   3  36
TORSDOF 10
ENDMDL
MODEL 5
REMARK VINA RESULT: -6.445330305      2.359      4.838
REMARK  10 active torsions:
REMARK  status: ('A' for Active; 'I' for Inactive)
REMARK    1  A    between atoms: C3_3  and  C4_4 
REMARK    2  A    between atoms: C4_4  and  N1_5 
REMARK    3  A    between atoms: C12_13  and  O1_14 
REMARK    4  A    between atoms: C16_19  and  O2_20 
REMARK    5  A    between atoms: C22_28  and  C23_29 
REMARK    6  A    between atoms: C23_29  and  C25_31 
REMARK    7  A    between atoms: C25_31  and  N2_32 
REMARK    8  A    between atoms: N2_32  and  C26_34 
REMARK    9  A    between atoms: C26_34  and  C27_35 
REMARK   10  A    between atoms: C27_35  and  N3_36 
ROOT
HETATM    1  C1  UNL     1      29.365  34.342  16.737  1.00  0.00     0.044 C 
HETATM    2  C2  UNL     1      29.527  34.427  15.265  1.00  0.00    -0.076 C 
HETATM    3  C3  UNL     1      30.374  33.589  14.592  1.00  0.00    -0.034 C 
HETATM    4  C11 UNL     1      30.593  33.752  13.162  1.00  0.00     0.054 C 
HETATM    5  C12 UNL     1      31.682  34.843  12.925  1.00  0.00     0.132 C 
HETATM    6  C13 UNL     1      31.382  35.163  11.510  1.00  0.00     0.025 C 
HETATM    7  C14 UNL     1      29.886  35.425  11.569  1.00  0.00    -0.000 C 
HETATM    8  C15 UNL     1      29.408  35.570  10.189  1.00  0.00     0.038 C 
HETATM    9  C16 UNL     1      30.435  35.726   9.102  1.00  0.00     0.128 C 
HETATM   10  C17 UNL     1      31.725  36.329   9.411  1.00  0.00    -0.003 C 
HETATM   11  C18 UNL     1      32.849  35.407   8.912  1.00  0.00     0.019 C 
HETATM   12  C19 UNL     1      32.009  36.353  10.942  1.00  0.00     0.011 C 
HETATM   13  C20 UNL     1      31.451  37.684  11.291  1.00  0.00     0.084 C 
HETATM   14  C21 UNL     1      32.180  38.512  10.252  1.00  0.00     0.132 C 
HETATM   15  O3  UNL     1      32.694  39.564  10.545  1.00  0.00    -0.298 OA
HETATM   16  C22 UNL     1      32.051  37.715   9.011  1.00  0.00     0.071 C 
HETATM   17  C32 UNL     1      29.408  34.245  12.360  1.00  0.00     0.001 C 
HETATM   18  C33 UNL     1      28.264  34.710  13.242  1.00  0.00     0.010 C 
HETATM   19  C34 UNL     1      28.769  35.413  14.476  1.00  0.00     0.034 C 
ENDROOT
BRANCH  16  20
HETATM   20  C23 UNL     1      31.276  38.368   7.943  1.00  0.00     0.011 C 
HETATM   21  C24 UNL     1      32.137  39.285   7.113  1.00  0.00     0.012 C 
BRANCH  20  22
HETATM   22  C25 UNL     1      30.147  39.232   8.472  1.00  0.00     0.118 C 
BRANCH  22  23
HETATM   23  N2  UNL     1      29.203  39.640   7.478  1.00  0.00    -0.419 N 
ATOM     24  H2  UNL     1      29.297  40.529   6.987  1.00  0.00     0.153 HD
BRANCH  23  25
HETATM   25  C26 UNL     1      28.128  38.749   7.204  1.00  0.00     0.144 C 
BRANCH  25  26
HETATM   26  C27 UNL     1      27.733  38.109   8.518  1.00  0.00     0.291 C 
BRANCH  26  27
HETATM   27  N3  UNL     1      26.406  37.601   8.547  1.00  0.00     0.090 N 
HETATM   28  C28 UNL     1      26.118  36.681   9.586  1.00  0.00     0.272 C 
HETATM   29  C29 UNL     1      24.699  36.921  10.046  1.00  0.00     0.032 C 
HETATM   30  C30 UNL     1      24.245  38.161   9.347  1.00  0.00     0.032 C 
HETATM   31  C31 UNL     1      25.394  38.611   8.483  1.00  0.00     0.272 C 
ENDBRANCH  26  27
ENDBRANCH  25  26
ENDBRANCH  23  25
ENDBRANCH  22  23
ENDBRANCH  20  22
ENDBRANCH  16  20
BRANCH   9  32
HETATM   32  O2  UNL     1      30.610  34.412   8.587  1.00  0.00    -0.395 OA
ATOM     33  H2  UNL     1      31.547  34.262   8.630  1.00  0.00     0.210 HD
ENDBRANCH   9  32
BRANCH   5  34
HETATM   34  O1  UNL     1      32.899  34.196  13.114  1.00  0.00    -0.394 OA
ATOM     35  H1  UNL     1      33.473  34.847  13.503  1.00  0.00     0.210 HD
ENDBRANCH   5  34
BRANCH   3  36
HETATM   36  C4  UNL     1      31.083  32.632  15.421  1.00  0.00     0.093 C 
BRANCH  36  37
HETATM   37  N1  UNL     1      30.623  31.358  15.722  1.00  0.00    -0.389 N 
HETATM   38  C5  UNL     1      30.493  30.810  16.995  1.00  0.00     0.122 C 
HETATM   39  C6  UNL     1      30.755  29.295  16.904  1.00  0.00     0.020 C 
HETATM   40  C7  UNL     1      29.692  28.669  16.069  1.00  0.00     0.002 C 
HETATM   41  C8  UNL     1      28.378  29.338  16.281  1.00  0.00     0.002 C 
HETATM   42  C9  UNL     1      28.256  30.671  15.617  1.00  0.00     0.020 C 
HETATM   43  C10 UNL     1      29.470  31.084  14.858  1.00  0.00     0.122 C 
ENDBRANCH  36  37
ENDBRANCH   3  36
TORSDOF 10
ENDMDL
