MODEL 1
REMARK VINA RESULT: -6.324979351      0.000      0.000
REMARK  9 active torsions:
REMARK  status: ('A' for Active; 'I' for Inactive)
REMARK    1  A    between atoms: C2_2  and  C3_3 
REMARK    2  A    between atoms: C3_3  and  C4_4 
REMARK    3  A    between atoms: C4_4  and  N1_5 
REMARK    4  A    between atoms: N1_5  and  C6_7 
REMARK    5  A    between atoms: C9_11  and  O2_12 
REMARK    6  A    between atoms: N2_21  and  C17_22 
REMARK    7  A    between atoms: C17_22  and  C18_23 
REMARK    8  A    between atoms: C25_34  and  C26_35 
REMARK    9  A    between atoms: C33_42  and  O3_43 
ROOT
HETATM    1  C6  UNL     1      28.972  35.398  11.662  1.00  0.00     0.288 C 
HETATM    2  C7  UNL     1      28.180  34.911  12.849  1.00  0.00     0.182 C 
HETATM    3  O1  UNL     1      28.764  35.421  14.024  1.00  0.00    -0.339 OA
HETATM    4  C8  UNL     1      29.103  34.299  14.791  1.00  0.00     0.110 A 
HETATM    5  C9  UNL     1      29.402  34.186  16.151  1.00  0.00     0.099 A 
HETATM    6  C10 UNL     1      29.707  32.960  16.684  1.00  0.00     0.040 A 
HETATM    7  C11 UNL     1      29.726  31.819  15.896  1.00  0.00     0.011 A 
HETATM    8  C12 UNL     1      29.435  31.921  14.561  1.00  0.00    -0.042 A 
HETATM    9  C13 UNL     1      29.123  33.165  14.010  1.00  0.00    -0.001 A 
HETATM   10  C14 UNL     1      28.767  33.516  12.640  1.00  0.00     0.057 C 
HETATM   11  C15 UNL     1      27.771  32.533  12.127  1.00  0.00     0.065 C 
HETATM   12  C16 UNL     1      28.215  31.269  11.557  1.00  0.00     0.065 C 
HETATM   13  N2  UNL     1      29.558  30.865  11.558  1.00  0.00    -0.363 N 
HETATM   14  C21 UNL     1      30.338  30.634  12.661  1.00  0.00     0.017 C 
HETATM   15  C22 UNL     1      29.546  30.540  13.999  1.00  0.00     0.096 C 
HETATM   16  C23 UNL     1      31.601  31.341  12.935  1.00  0.00     0.057 C 
HETATM   17  C24 UNL     1      32.318  32.049  11.909  1.00  0.00     0.058 A 
HETATM   18  N3  UNL     1      33.349  31.587  11.135  1.00  0.00    -0.300 N 
ATOM     19  H3  UNL     1      33.713  30.635  11.178  1.00  0.00     0.187 HD
HETATM   20  N4  UNL     1      33.803  32.496  10.345  1.00  0.00    -0.303 N 
ATOM     21  H4  UNL     1      34.567  32.379   9.681  1.00  0.00     0.186 HD
HETATM   22  C25 UNL     1      33.090  33.647  10.544  1.00  0.00     0.038 A 
HETATM   23  C31 UNL     1      32.158  33.370  11.524  1.00  0.00    -0.003 A 
HETATM   24  C32 UNL     1      31.139  34.257  12.157  1.00  0.00     0.084 C 
HETATM   25  C33 UNL     1      29.729  34.054  11.705  1.00  0.00     0.110 C 
ENDROOT
BRANCH   1  26
HETATM   26  N1  UNL     1      28.138  35.588  10.482  1.00  0.00     0.094 N 
HETATM   27  C5  UNL     1      28.625  36.687   9.666  1.00  0.00     0.310 C 
BRANCH  26  28
HETATM   28  C4  UNL     1      26.748  35.863  10.837  1.00  0.00     0.272 C 
BRANCH  28  29
HETATM   29  C3  UNL     1      26.118  36.589   9.671  1.00  0.00     0.030 C 
BRANCH  29  30
HETATM   30  C2  UNL     1      24.724  37.072  10.074  1.00  0.00    -0.003 C 
HETATM   31  C1  UNL     1      24.466  38.376   9.367  1.00  0.00     0.005 C 
ENDBRANCH  29  30
ENDBRANCH  28  29
ENDBRANCH  26  28
ENDBRANCH   1  26
BRANCH  25  32
HETATM   32  O3  UNL     1      29.677  33.574  10.384  1.00  0.00    -0.386 OA
ATOM     33  H3  UNL     1      29.360  32.682  10.464  1.00  0.00     0.210 HD
ENDBRANCH  25  32
BRANCH   5  34
HETATM   34  O2  UNL     1      29.376  35.351  16.924  1.00  0.00    -0.358 OA
ATOM     35  H2  UNL     1      28.954  35.309  17.773  1.00  0.00     0.217 HD
ENDBRANCH   5  34
BRANCH  22  36
HETATM   36  C26 UNL     1      33.338  34.914   9.778  1.00  0.00     0.037 C 
HETATM   37  C27 UNL     1      34.618  34.674   8.968  1.00  0.00     0.011 C 
HETATM   38  C28 UNL     1      34.452  35.381   7.662  1.00  0.00     0.001 C 
HETATM   39  C29 UNL     1      32.984  35.123   7.362  1.00  0.00     0.001 C 
HETATM   40  C30 UNL     1      32.302  35.103   8.699  1.00  0.00     0.011 C 
ENDBRANCH  22  36
BRANCH  13  41
HETATM   41  C17 UNL     1      29.826  29.897  10.463  1.00  0.00     0.132 C 
BRANCH  41  42
HETATM   42  C18 UNL     1      28.579  29.091  10.188  1.00  0.00     0.004 A 
HETATM   43  C19 UNL     1      28.459  28.337   8.893  1.00  0.00     0.007 A 
HETATM   44  C20 UNL     1      28.831  27.591  10.117  1.00  0.00     0.007 A 
ENDBRANCH  41  42
ENDBRANCH  13  41
TORSDOF 9
ENDMDL
MODEL 2
REMARK VINA RESULT: -6.152690248      2.169      3.226
REMARK  9 active torsions:
REMARK  status: ('A' for Active; 'I' for Inactive)
REMARK    1  A    between atoms: C2_2  and  C3_3 
REMARK    2  A    between atoms: C3_3  and  C4_4 
REMARK    3  A    between atoms: C4_4  and  N1_5 
REMARK    4  A    between atoms: N1_5  and  C6_7 
REMARK    5  A    between atoms: C9_11  and  O2_12 
REMARK    6  A    between atoms: N2_21  and  C17_22 
REMARK    7  A    between atoms: C17_22  and  C18_23 
REMARK    8  A    between atoms: C25_34  and  C26_35 
REMARK    9  A    between atoms: C33_42  and  O3_43 
ROOT
HETATM    1  C6  UNL     1      28.565  36.559  10.875  1.00  0.00     0.288 C 
HETATM    2  C7  UNL     1      27.923  35.540  11.781  1.00  0.00     0.182 C 
HETATM    3  O1  UNL     1      27.904  36.048  13.094  1.00  0.00    -0.339 OA
HETATM    4  C8  UNL     1      28.616  35.121  13.865  1.00  0.00     0.110 A 
HETATM    5  C9  UNL     1      28.648  34.925  15.248  1.00  0.00     0.099 A 
HETATM    6  C10 UNL     1      29.434  33.936  15.780  1.00  0.00     0.040 A 
HETATM    7  C11 UNL     1      30.205  33.117  14.968  1.00  0.00     0.011 A 
HETATM    8  C12 UNL     1      30.180  33.302  13.612  1.00  0.00    -0.042 A 
HETATM    9  C13 UNL     1      29.382  34.307  13.061  1.00  0.00    -0.001 A 
HETATM   10  C14 UNL     1      29.181  34.679  11.665  1.00  0.00     0.057 C 
HETATM   11  C15 UNL     1      28.972  33.445  10.857  1.00  0.00     0.065 C 
HETATM   12  C16 UNL     1      30.116  32.692  10.362  1.00  0.00     0.065 C 
HETATM   13  N2  UNL     1      31.439  33.009  10.700  1.00  0.00    -0.363 N 
HETATM   14  C21 UNL     1      31.984  32.996  11.958  1.00  0.00     0.017 C 
HETATM   15  C22 UNL     1      31.107  32.283  13.029  1.00  0.00     0.096 C 
HETATM   16  C23 UNL     1      32.605  34.170  12.594  1.00  0.00     0.057 C 
HETATM   17  C24 UNL     1      33.036  35.312  11.834  1.00  0.00     0.058 A 
HETATM   18  N3  UNL     1      34.288  35.566  11.340  1.00  0.00    -0.300 N 
ATOM     19  H3  UNL     1      35.079  34.928  11.431  1.00  0.00     0.187 HD
HETATM   20  N4  UNL     1      34.349  36.708  10.747  1.00  0.00    -0.303 N 
ATOM     21  H4  UNL     1      35.177  37.105  10.306  1.00  0.00     0.186 HD
HETATM   22  C25 UNL     1      33.117  37.300  10.808  1.00  0.00     0.038 A 
HETATM   23  C31 UNL     1      32.291  36.427  11.487  1.00  0.00    -0.003 A 
HETATM   24  C32 UNL     1      30.857  36.566  11.871  1.00  0.00     0.084 C 
HETATM   25  C33 UNL     1      29.885  35.781  11.049  1.00  0.00     0.110 C 
ENDROOT
BRANCH   1  26
HETATM   26  N1  UNL     1      28.013  36.525   9.526  1.00  0.00     0.094 N 
HETATM   27  C5  UNL     1      28.453  37.670   8.749  1.00  0.00     0.310 C 
BRANCH  26  28
HETATM   28  C4  UNL     1      26.552  36.513   9.537  1.00  0.00     0.272 C 
BRANCH  28  29
HETATM   29  C3  UNL     1      26.084  37.629   8.631  1.00  0.00     0.030 C 
BRANCH  29  30
HETATM   30  C2  UNL     1      24.863  38.305   9.258  1.00  0.00    -0.003 C 
HETATM   31  C1  UNL     1      24.115  37.263  10.047  1.00  0.00     0.005 C 
ENDBRANCH  29  30
ENDBRANCH  28  29
ENDBRANCH  26  28
ENDBRANCH   1  26
BRANCH  25  32
HETATM   32  O3  UNL     1      30.360  35.586   9.740  1.00  0.00    -0.386 OA
ATOM     33  H3  UNL     1      31.040  34.929   9.825  1.00  0.00     0.210 HD
ENDBRANCH  25  32
BRANCH   5  34
HETATM   34  O2  UNL     1      27.862  35.764  16.044  1.00  0.00    -0.358 OA
ATOM     35  H2  UNL     1      27.258  36.351  15.607  1.00  0.00     0.217 HD
ENDBRANCH   5  34
BRANCH  22  36
HETATM   36  C26 UNL     1      32.815  38.640  10.201  1.00  0.00     0.037 C 
HETATM   37  C27 UNL     1      34.165  39.215   9.753  1.00  0.00     0.011 C 
HETATM   38  C28 UNL     1      33.924  39.972   8.488  1.00  0.00     0.001 C 
HETATM   39  C29 UNL     1      32.905  39.083   7.792  1.00  0.00     0.001 C 
HETATM   40  C30 UNL     1      32.079  38.486   8.894  1.00  0.00     0.011 C 
ENDBRANCH  22  36
BRANCH  13  41
HETATM   41  C17 UNL     1      32.388  32.515   9.668  1.00  0.00     0.132 C 
BRANCH  41  42
HETATM   42  C18 UNL     1      32.211  33.314   8.399  1.00  0.00     0.004 A 
HETATM   43  C19 UNL     1      33.170  34.431   8.092  1.00  0.00     0.007 A 
HETATM   44  C20 UNL     1      33.351  33.131   7.405  1.00  0.00     0.007 A 
ENDBRANCH  41  42
ENDBRANCH  13  41
TORSDOF 9
ENDMDL
MODEL 3
REMARK VINA RESULT: -5.912055627      2.035      6.289
REMARK  9 active torsions:
REMARK  status: ('A' for Active; 'I' for Inactive)
REMARK    1  A    between atoms: C2_2  and  C3_3 
REMARK    2  A    between atoms: C3_3  and  C4_4 
REMARK    3  A    between atoms: C4_4  and  N1_5 
REMARK    4  A    between atoms: N1_5  and  C6_7 
REMARK    5  A    between atoms: C9_11  and  O2_12 
REMARK    6  A    between atoms: N2_21  and  C17_22 
REMARK    7  A    between atoms: C17_22  and  C18_23 
REMARK    8  A    between atoms: C25_34  and  C26_35 
REMARK    9  A    between atoms: C33_42  and  O3_43 
ROOT
HETATM    1  C6  UNL     1      28.720  33.681  13.871  1.00  0.00     0.288 C 
HETATM    2  C7  UNL     1      28.757  35.111  13.397  1.00  0.00     0.182 C 
HETATM    3  O1  UNL     1      27.567  35.389  12.699  1.00  0.00    -0.339 OA
HETATM    4  C8  UNL     1      27.967  35.784  11.416  1.00  0.00     0.110 A 
HETATM    5  C9  UNL     1      27.272  36.473  10.420  1.00  0.00     0.099 A 
HETATM    6  C10 UNL     1      27.886  36.751   9.226  1.00  0.00     0.040 A 
HETATM    7  C11 UNL     1      29.194  36.361   8.983  1.00  0.00     0.011 A 
HETATM    8  C12 UNL     1      29.884  35.685   9.954  1.00  0.00    -0.042 A 
HETATM    9  C13 UNL     1      29.266  35.396  11.173  1.00  0.00    -0.001 A 
HETATM   10  C14 UNL     1      29.795  34.713  12.348  1.00  0.00     0.057 C 
HETATM   11  C15 UNL     1      31.158  35.237  12.646  1.00  0.00     0.065 C 
HETATM   12  C16 UNL     1      32.319  34.690  11.958  1.00  0.00     0.065 C 
HETATM   13  N2  UNL     1      32.216  33.746  10.926  1.00  0.00    -0.363 N 
HETATM   14  C21 UNL     1      31.594  33.924   9.718  1.00  0.00     0.017 C 
HETATM   15  C22 UNL     1      31.240  35.404   9.391  1.00  0.00     0.096 C 
HETATM   16  C23 UNL     1      30.488  33.079   9.234  1.00  0.00     0.057 C 
HETATM   17  C24 UNL     1      30.216  31.783   9.793  1.00  0.00     0.058 A 
HETATM   18  N3  UNL     1      30.654  30.566   9.341  1.00  0.00    -0.300 N 
ATOM     19  H3  UNL     1      31.278  30.444   8.544  1.00  0.00     0.187 HD
HETATM   20  N4  UNL     1      30.183  29.595  10.043  1.00  0.00    -0.303 N 
ATOM     21  H4  UNL     1      30.373  28.605   9.889  1.00  0.00     0.186 HD
HETATM   22  C25 UNL     1      29.386  30.110  11.028  1.00  0.00     0.038 A 
HETATM   23  C31 UNL     1      29.405  31.482  10.875  1.00  0.00    -0.003 A 
HETATM   24  C32 UNL     1      28.696  32.543  11.646  1.00  0.00     0.084 C 
HETATM   25  C33 UNL     1      29.535  33.316  12.612  1.00  0.00     0.110 C 
ENDROOT
BRANCH   1  26
HETATM   26  N1  UNL     1      29.432  33.497  15.130  1.00  0.00     0.094 N 
HETATM   27  C5  UNL     1      28.893  32.376  15.879  1.00  0.00     0.310 C 
BRANCH  26  28
HETATM   28  C4  UNL     1      29.362  34.687  15.973  1.00  0.00     0.272 C 
BRANCH  28  29
HETATM   29  C3  UNL     1      30.535  34.638  16.924  1.00  0.00     0.030 C 
BRANCH  29  30
HETATM   30  C2  UNL     1      31.835  34.639  16.118  1.00  0.00    -0.003 C 
HETATM   31  C1  UNL     1      32.665  33.471  16.584  1.00  0.00     0.005 C 
ENDBRANCH  29  30
ENDBRANCH  28  29
ENDBRANCH  26  28
ENDBRANCH   1  26
BRANCH  25  32
HETATM   32  O3  UNL     1      30.607  32.544  13.093  1.00  0.00    -0.386 OA
ATOM     33  H3  UNL     1      31.261  32.585  12.405  1.00  0.00     0.210 HD
ENDBRANCH  25  32
BRANCH   5  34
HETATM   34  O2  UNL     1      25.954  36.856  10.690  1.00  0.00    -0.358 OA
ATOM     35  H2  UNL     1      25.335  36.850   9.970  1.00  0.00     0.217 HD
ENDBRANCH   5  34
BRANCH  22  36
HETATM   36  C26 UNL     1      28.683  29.262  12.048  1.00  0.00     0.037 C 
HETATM   37  C27 UNL     1      28.802  27.816  11.551  1.00  0.00     0.011 C 
HETATM   38  C28 UNL     1      28.960  26.947  12.756  1.00  0.00     0.001 C 
HETATM   39  C29 UNL     1      29.854  27.808  13.636  1.00  0.00     0.001 C 
HETATM   40  C30 UNL     1      29.454  29.225  13.343  1.00  0.00     0.011 C 
ENDBRANCH  22  36
BRANCH  13  41
HETATM   41  C17 UNL     1      33.464  32.947  10.807  1.00  0.00     0.132 C 
BRANCH  41  42
HETATM   42  C18 UNL     1      33.597  32.040  12.008  1.00  0.00     0.004 A 
HETATM   43  C19 UNL     1      33.206  30.594  11.885  1.00  0.00     0.007 A 
HETATM   44  C20 UNL     1      34.643  30.948  11.828  1.00  0.00     0.007 A 
ENDBRANCH  41  42
ENDBRANCH  13  41
TORSDOF 9
ENDMDL
MODEL 4
REMARK VINA RESULT: -5.741908346      2.055      6.258
REMARK  9 active torsions:
REMARK  status: ('A' for Active; 'I' for Inactive)
REMARK    1  A    between atoms: C2_2  and  C3_3 
REMARK    2  A    between atoms: C3_3  and  C4_4 
REMARK    3  A    between atoms: C4_4  and  N1_5 
REMARK    4  A    between atoms: N1_5  and  C6_7 
REMARK    5  A    between atoms: C9_11  and  O2_12 
REMARK    6  A    between atoms: N2_21  and  C17_22 
REMARK    7  A    between atoms: C17_22  and  C18_23 
REMARK    8  A    between atoms: C25_34  and  C26_35 
REMARK    9  A    between atoms: C33_42  and  O3_43 
ROOT
HETATM    1  C6  UNL     1      28.722  33.874  13.011  1.00  0.00     0.288 C 
HETATM    2  C7  UNL     1      28.256  35.283  12.742  1.00  0.00     0.182 C 
HETATM    3  O1  UNL     1      27.167  35.238  11.852  1.00  0.00    -0.339 OA
HETATM    4  C8  UNL     1      27.557  35.999  10.743  1.00  0.00     0.110 A 
HETATM    5  C9  UNL     1      26.797  36.569   9.719  1.00  0.00     0.099 A 
HETATM    6  C10 UNL     1      27.414  37.284   8.726  1.00  0.00     0.040 A 
HETATM    7  C11 UNL     1      28.790  37.456   8.714  1.00  0.00     0.011 A 
HETATM    8  C12 UNL     1      29.544  36.900   9.713  1.00  0.00    -0.042 A 
HETATM    9  C13 UNL     1      28.924  36.170  10.729  1.00  0.00    -0.001 A 
HETATM   10  C14 UNL     1      29.506  35.509  11.891  1.00  0.00     0.057 C 
HETATM   11  C15 UNL     1      30.491  36.424  12.532  1.00  0.00     0.065 C 
HETATM   12  C16 UNL     1      31.860  36.488  12.038  1.00  0.00     0.065 C 
HETATM   13  N2  UNL     1      32.289  35.797  10.895  1.00  0.00    -0.363 N 
HETATM   14  C21 UNL     1      31.827  35.972   9.616  1.00  0.00     0.017 C 
HETATM   15  C22 UNL     1      30.966  37.253   9.415  1.00  0.00     0.096 C 
HETATM   16  C23 UNL     1      31.228  34.895   8.808  1.00  0.00     0.057 C 
HETATM   17  C24 UNL     1      31.415  33.506   9.127  1.00  0.00     0.058 A 
HETATM   18  N3  UNL     1      32.358  32.650   8.625  1.00  0.00    -0.300 N 
ATOM     19  H3  UNL     1      33.088  32.926   7.967  1.00  0.00     0.187 HD
HETATM   20  N4  UNL     1      32.216  31.455   9.083  1.00  0.00    -0.303 N 
ATOM     21  H4  UNL     1      32.802  30.655   8.847  1.00  0.00     0.186 HD
HETATM   22  C25 UNL     1      31.148  31.436   9.937  1.00  0.00     0.038 A 
HETATM   23  C31 UNL     1      30.644  32.721   9.968  1.00  0.00    -0.003 A 
HETATM   24  C32 UNL     1      29.469  33.273  10.703  1.00  0.00     0.084 C 
HETATM   25  C33 UNL     1      29.785  34.090  11.914  1.00  0.00     0.110 C 
ENDROOT
BRANCH   1  26
HETATM   26  N1  UNL     1      29.260  33.717  14.357  1.00  0.00     0.094 N 
HETATM   27  C5  UNL     1      28.847  32.455  14.944  1.00  0.00     0.310 C 
BRANCH  26  28
HETATM   28  C4  UNL     1      28.831  34.796  15.243  1.00  0.00     0.272 C 
BRANCH  28  29
HETATM   29  C3  UNL     1      29.831  34.878  16.373  1.00  0.00     0.030 C 
BRANCH  29  30
HETATM   30  C2  UNL     1      31.246  34.851  15.794  1.00  0.00    -0.003 C 
HETATM   31  C1  UNL     1      32.202  34.594  16.928  1.00  0.00     0.005 C 
ENDBRANCH  29  30
ENDBRANCH  28  29
ENDBRANCH  26  28
ENDBRANCH   1  26
BRANCH  25  32
HETATM   32  O3  UNL     1      30.995  33.685  12.506  1.00  0.00    -0.386 OA
ATOM     33  H3  UNL     1      31.018  34.137  13.341  1.00  0.00     0.210 HD
ENDBRANCH  25  32
BRANCH   5  34
HETATM   34  O2  UNL     1      25.411  36.381   9.754  1.00  0.00    -0.358 OA
ATOM     35  H2  UNL     1      24.976  36.143   8.945  1.00  0.00     0.217 HD
ENDBRANCH   5  34
BRANCH  22  36
HETATM   36  C26 UNL     1      30.700  30.205  10.671  1.00  0.00     0.037 C 
HETATM   37  C27 UNL     1      30.950  30.485  12.158  1.00  0.00     0.011 C 
HETATM   38  C28 UNL     1      29.841  29.836  12.921  1.00  0.00     0.001 C 
HETATM   39  C29 UNL     1      28.650  30.104  12.012  1.00  0.00     0.001 C 
HETATM   40  C30 UNL     1      29.200  30.062  10.616  1.00  0.00     0.011 C 
ENDBRANCH  22  36
BRANCH  13  41
HETATM   41  C17 UNL     1      33.754  35.551  10.939  1.00  0.00     0.132 C 
BRANCH  41  42
HETATM   42  C18 UNL     1      34.061  34.534  12.012  1.00  0.00     0.004 A 
HETATM   43  C19 UNL     1      34.322  33.106  11.621  1.00  0.00     0.007 A 
HETATM   44  C20 UNL     1      35.477  33.979  11.931  1.00  0.00     0.007 A 
ENDBRANCH  41  42
ENDBRANCH  13  41
TORSDOF 9
ENDMDL
MODEL 5
REMARK VINA RESULT: -5.736991792      2.413      6.589
REMARK  9 active torsions:
REMARK  status: ('A' for Active; 'I' for Inactive)
REMARK    1  A    between atoms: C2_2  and  C3_3 
REMARK    2  A    between atoms: C3_3  and  C4_4 
REMARK    3  A    between atoms: C4_4  and  N1_5 
REMARK    4  A    between atoms: N1_5  and  C6_7 
REMARK    5  A    between atoms: C9_11  and  O2_12 
REMARK    6  A    between atoms: N2_21  and  C17_22 
REMARK    7  A    between atoms: C17_22  and  C18_23 
REMARK    8  A    between atoms: C25_34  and  C26_35 
REMARK    9  A    between atoms: C33_42  and  O3_43 
ROOT
HETATM    1  C6  UNL     1      29.083  34.270  11.244  1.00  0.00     0.288 C 
HETATM    2  C7  UNL     1      28.321  35.569  11.188  1.00  0.00     0.182 C 
HETATM    3  O1  UNL     1      27.500  35.565  10.045  1.00  0.00    -0.339 OA
HETATM    4  C8  UNL     1      27.896  36.679   9.294  1.00  0.00     0.110 A 
HETATM    5  C9  UNL     1      27.245  37.355   8.260  1.00  0.00     0.099 A 
HETATM    6  C10 UNL     1      27.842  38.438   7.670  1.00  0.00     0.040 A 
HETATM    7  C11 UNL     1      29.090  38.884   8.081  1.00  0.00     0.011 A 
HETATM    8  C12 UNL     1      29.736  38.227   9.094  1.00  0.00    -0.042 A 
HETATM    9  C13 UNL     1      29.135  37.122   9.701  1.00  0.00    -0.001 A 
HETATM   10  C14 UNL     1      29.613  36.284  10.795  1.00  0.00     0.057 C 
HETATM   11  C15 UNL     1      30.154  37.154  11.877  1.00  0.00     0.065 C 
HETATM   12  C16 UNL     1      31.526  37.637  11.811  1.00  0.00     0.065 C 
HETATM   13  N2  UNL     1      32.359  37.412  10.706  1.00  0.00    -0.363 N 
HETATM   14  C21 UNL     1      32.151  37.853   9.425  1.00  0.00     0.017 C 
HETATM   15  C22 UNL     1      31.038  38.934   9.293  1.00  0.00     0.096 C 
HETATM   16  C23 UNL     1      32.053  36.961   8.257  1.00  0.00     0.057 C 
HETATM   17  C24 UNL     1      32.537  35.608   8.287  1.00  0.00     0.058 A 
HETATM   18  N3  UNL     1      33.762  35.146   7.884  1.00  0.00    -0.300 N 
ATOM     19  H3  UNL     1      34.512  35.745   7.536  1.00  0.00     0.187 HD
HETATM   20  N4  UNL     1      33.855  33.867   7.996  1.00  0.00    -0.303 N 
ATOM     21  H4  UNL     1      34.673  33.308   7.755  1.00  0.00     0.186 HD
HETATM   22  C25 UNL     1      32.676  33.383   8.492  1.00  0.00     0.038 A 
HETATM   23  C31 UNL     1      31.848  34.471   8.676  1.00  0.00    -0.003 A 
HETATM   24  C32 UNL     1      30.439  34.533   9.162  1.00  0.00     0.084 C 
HETATM   25  C33 UNL     1      30.256  35.009  10.567  1.00  0.00     0.110 C 
ENDROOT
BRANCH   1  26
HETATM   26  N1  UNL     1      29.344  33.841  12.613  1.00  0.00     0.094 N 
HETATM   27  C5  UNL     1      28.970  32.451  12.808  1.00  0.00     0.310 C 
BRANCH  26  28
HETATM   28  C4  UNL     1      28.615  34.651  13.585  1.00  0.00     0.272 C 
BRANCH  28  29
HETATM   29  C3  UNL     1      29.589  35.036  14.674  1.00  0.00     0.030 C 
BRANCH  29  30
HETATM   30  C2  UNL     1      28.868  35.013  16.024  1.00  0.00    -0.003 C 
HETATM   31  C1  UNL     1      29.738  34.262  16.997  1.00  0.00     0.005 C 
ENDBRANCH  29  30
ENDBRANCH  28  29
ENDBRANCH  26  28
ENDBRANCH   1  26
BRANCH  25  32
HETATM   32  O3  UNL     1      31.375  34.704  11.362  1.00  0.00    -0.386 OA
ATOM     33  H3  UNL     1      31.674  33.860  11.045  1.00  0.00     0.210 HD
ENDBRANCH  25  32
BRANCH   5  34
HETATM   34  O2  UNL     1      25.988  36.887   7.864  1.00  0.00    -0.358 OA
ATOM     35  H2  UNL     1      25.750  36.977   6.949  1.00  0.00     0.217 HD
ENDBRANCH   5  34
BRANCH  22  36
HETATM   36  C26 UNL     1      32.433  31.927   8.767  1.00  0.00     0.037 C 
HETATM   37  C27 UNL     1      32.475  31.773  10.293  1.00  0.00     0.011 C 
HETATM   38  C28 UNL     1      31.462  30.737  10.660  1.00  0.00     0.001 C 
HETATM   39  C29 UNL     1      30.335  31.059   9.691  1.00  0.00     0.001 C 
HETATM   40  C30 UNL     1      31.011  31.547   8.442  1.00  0.00     0.011 C 
ENDBRANCH  22  36
BRANCH  13  41
HETATM   41  C17 UNL     1      33.792  37.468  11.098  1.00  0.00     0.132 C 
BRANCH  41  42
HETATM   42  C18 UNL     1      34.126  36.271  11.955  1.00  0.00     0.004 A 
HETATM   43  C19 UNL     1      34.833  35.097  11.338  1.00  0.00     0.007 A 
HETATM   44  C20 UNL     1      35.623  36.059  12.140  1.00  0.00     0.007 A 
ENDBRANCH  41  42
ENDBRANCH  13  41
TORSDOF 9
ENDMDL
