MODEL 1
REMARK VINA RESULT: -5.585421370      0.000      0.000
REMARK  12 active torsions:
REMARK  status: ('A' for Active; 'I' for Inactive)
REMARK    1  A    between atoms: C2_2  and  O1_5 
REMARK    2  A    between atoms: O1_5  and  C5_6 
REMARK       I    between atoms: C5_6  and  N1_8 
REMARK    3  A    between atoms: N1_8  and  C6_10 
REMARK    4  A    between atoms: C6_10  and  C7_11 
REMARK    5  A    between atoms: C6_10  and  C25_39 
REMARK    6  A    between atoms: C7_11  and  O3_12 
REMARK    7  A    between atoms: C7_11  and  N2_14 
REMARK    8  A    between atoms: C11_18  and  C12_19 
REMARK       I    between atoms: C12_19  and  N3_21 
REMARK    9  A    between atoms: N3_21  and  C13_23 
REMARK   10  A    between atoms: C13_23  and  C15_25 
REMARK   11  A    between atoms: C13_23  and  C24_36 
REMARK   12  A    between atoms: C15_25  and  C16_26 
REMARK       I    between atoms: C16_26  and  N4_28 
ROOT
HETATM    1  N2  UNL     1      28.979  33.127  12.335  1.00  0.00    -0.350 N 
HETATM    2  C8  UNL     1      27.919  32.289  11.867  1.00  0.00     0.126 C 
HETATM    3  C9  UNL     1      28.447  30.858  11.872  1.00  0.00     0.022 C 
HETATM    4  C10 UNL     1      29.906  31.100  11.608  1.00  0.00     0.037 C 
HETATM    5  C11 UNL     1      30.213  32.302  12.428  1.00  0.00     0.178 C 
ENDROOT
BRANCH   5   6
HETATM    6  C12 UNL     1      30.446  31.867  13.844  1.00  0.00     0.241 C 
HETATM    7  O4  UNL     1      31.018  30.772  13.991  1.00  0.00    -0.271 OA
HETATM    8  N3  UNL     1      30.046  32.638  14.936  1.00  0.00    -0.337 N 
ATOM      9  H3  UNL     1      29.574  33.502  14.668  1.00  0.00     0.164 HD
BRANCH   8  10
HETATM   10  C13 UNL     1      30.157  32.475  16.326  1.00  0.00     0.141 C 
HETATM   11  C14 UNL     1      29.803  33.774  17.069  1.00  0.00     0.055 C 
BRANCH  10  12
HETATM   12  C15 UNL     1      29.671  31.310  17.044  1.00  0.00     0.089 C 
BRANCH  12  13
HETATM   13  C16 UNL     1      28.662  30.412  16.571  1.00  0.00     0.242 C 
HETATM   14  O5  UNL     1      27.581  30.684  16.011  1.00  0.00    -0.269 OA
HETATM   15  N4  UNL     1      28.885  28.997  16.743  1.00  0.00    -0.349 N 
HETATM   16  C17 UNL     1      27.820  28.162  16.245  1.00  0.00     0.126 C 
HETATM   17  C23 UNL     1      30.142  28.697  17.378  1.00  0.00     0.126 C 
HETATM   18  C18 UNL     1      26.808  27.820  17.313  1.00  0.00     0.020 C 
HETATM   19  C19 UNL     1      27.347  26.716  18.201  1.00  0.00     0.002 C 
HETATM   20  C20 UNL     1      28.183  27.378  19.272  1.00  0.00     0.000 C 
HETATM   21  C21 UNL     1      29.634  27.025  19.167  1.00  0.00     0.002 C 
HETATM   22  C22 UNL     1      30.218  27.240  17.803  1.00  0.00     0.020 C 
ENDBRANCH  12  13
ENDBRANCH  10  12
BRANCH  10  23
HETATM   23  C24 UNL     1      31.706  32.431  16.643  1.00  0.00     0.206 C 
HETATM   24  O6  UNL     1      32.212  31.415  17.119  1.00  0.00    -0.646 OA
HETATM   25  O7  UNL     1      32.411  33.554  16.366  1.00  0.00    -0.646 OA
ENDBRANCH  10  23
ENDBRANCH   8  10
ENDBRANCH   5   6
BRANCH   1  26
HETATM   26  C7  UNL     1      28.966  34.492  12.657  1.00  0.00     0.138 C 
BRANCH  26  27
HETATM   27  C6  UNL     1      29.555  35.716  12.204  1.00  0.00     0.168 C 
BRANCH  27  28
HETATM   28  N1  UNL     1      29.088  35.884  10.789  1.00  0.00    -0.324 N 
HETATM   29  C5  UNL     1      27.774  36.117  10.425  1.00  0.00     0.362 C 
HETATM   30  O2  UNL     1      26.849  36.208  11.266  1.00  0.00    -0.238 OA
ATOM     31  H1  UNL     1      29.785  35.822  10.046  1.00  0.00     0.165 HD
BRANCH  29  32
HETATM   32  O1  UNL     1      27.441  36.259   9.107  1.00  0.00    -0.294 OA
BRANCH  32  33
HETATM   33  C2  UNL     1      27.879  37.207   8.207  1.00  0.00     0.061 C 
HETATM   34  C1  UNL     1      28.674  38.343   8.795  1.00  0.00     0.046 C 
HETATM   35  C3  UNL     1      28.757  36.528   7.169  1.00  0.00     0.046 C 
HETATM   36  C4  UNL     1      26.693  37.786   7.463  1.00  0.00     0.046 C 
ENDBRANCH  32  33
ENDBRANCH  29  32
ENDBRANCH  27  28
BRANCH  27  37
HETATM   37  C25 UNL     1      30.992  36.004  12.267  1.00  0.00    -0.023 C 
HETATM   38  C26 UNL     1      31.766  35.417  13.395  1.00  0.00     0.017 C 
HETATM   39  C27 UNL     1      31.586  35.293  10.976  1.00  0.00     0.017 C 
HETATM   40  C28 UNL     1      31.344  37.430  12.039  1.00  0.00     0.017 C 
ENDBRANCH  27  37
ENDBRANCH  26  27
BRANCH  26  41
HETATM   41  O3  UNL     1      28.153  34.702  13.705  1.00  0.00    -0.348 OA
ATOM     42  H3  UNL     1      27.240  34.612  13.457  1.00  0.00     0.219 HD
ENDBRANCH  26  41
ENDBRANCH   1  26
TORSDOF 12
ENDMDL
MODEL 2
REMARK VINA RESULT: -5.513329044      2.569      5.469
REMARK  12 active torsions:
REMARK  status: ('A' for Active; 'I' for Inactive)
REMARK    1  A    between atoms: C2_2  and  O1_5 
REMARK    2  A    between atoms: O1_5  and  C5_6 
REMARK       I    between atoms: C5_6  and  N1_8 
REMARK    3  A    between atoms: N1_8  and  C6_10 
REMARK    4  A    between atoms: C6_10  and  C7_11 
REMARK    5  A    between atoms: C6_10  and  C25_39 
REMARK    6  A    between atoms: C7_11  and  O3_12 
REMARK    7  A    between atoms: C7_11  and  N2_14 
REMARK    8  A    between atoms: C11_18  and  C12_19 
REMARK       I    between atoms: C12_19  and  N3_21 
REMARK    9  A    between atoms: N3_21  and  C13_23 
REMARK   10  A    between atoms: C13_23  and  C15_25 
REMARK   11  A    between atoms: C13_23  and  C24_36 
REMARK   12  A    between atoms: C15_25  and  C16_26 
REMARK       I    between atoms: C16_26  and  N4_28 
ROOT
HETATM    1  N2  UNL     1      29.036  33.654  10.746  1.00  0.00    -0.350 N 
HETATM    2  C8  UNL     1      29.910  34.460   9.952  1.00  0.00     0.126 C 
HETATM    3  C9  UNL     1      29.500  35.912  10.173  1.00  0.00     0.022 C 
HETATM    4  C10 UNL     1      28.030  35.749  10.434  1.00  0.00     0.037 C 
HETATM    5  C11 UNL     1      27.962  34.530  11.284  1.00  0.00     0.178 C 
ENDROOT
BRANCH   5   6
HETATM    6  C12 UNL     1      28.265  34.919  12.700  1.00  0.00     0.241 C 
HETATM    7  O4  UNL     1      28.006  36.096  13.010  1.00  0.00    -0.271 OA
HETATM    8  N3  UNL     1      28.806  34.020  13.620  1.00  0.00    -0.337 N 
ATOM      9  H3  UNL     1      28.984  33.097  13.224  1.00  0.00     0.164 HD
BRANCH   8  10
HETATM   10  C13 UNL     1      29.158  34.120  14.975  1.00  0.00     0.141 C 
HETATM   11  C14 UNL     1      28.445  35.303  15.651  1.00  0.00     0.055 C 
BRANCH  10  12
HETATM   12  C15 UNL     1      29.249  32.981  15.872  1.00  0.00     0.089 C 
BRANCH  12  13
HETATM   13  C16 UNL     1      28.949  31.627  15.518  1.00  0.00     0.242 C 
HETATM   14  O5  UNL     1      28.417  31.197  14.474  1.00  0.00    -0.269 OA
HETATM   15  N4  UNL     1      29.290  30.592  16.463  1.00  0.00    -0.349 N 
HETATM   16  C17 UNL     1      28.950  29.258  16.033  1.00  0.00     0.126 C 
HETATM   17  C23 UNL     1      29.914  31.101  17.656  1.00  0.00     0.126 C 
HETATM   18  C18 UNL     1      27.587  28.826  16.519  1.00  0.00     0.020 C 
HETATM   19  C19 UNL     1      27.665  28.408  17.974  1.00  0.00     0.002 C 
HETATM   20  C20 UNL     1      27.511  29.661  18.804  1.00  0.00     0.000 C 
HETATM   21  C21 UNL     1      28.750  29.995  19.574  1.00  0.00     0.002 C 
HETATM   22  C22 UNL     1      29.995  30.038  18.739  1.00  0.00     0.020 C 
ENDBRANCH  12  13
ENDBRANCH  10  12
BRANCH  10  23
HETATM   23  C24 UNL     1      30.637  34.680  15.008  1.00  0.00     0.206 C 
HETATM   24  O6  UNL     1      31.227  34.930  13.958  1.00  0.00    -0.646 OA
HETATM   25  O7  UNL     1      31.188  34.856  16.232  1.00  0.00    -0.646 OA
ENDBRANCH  10  23
ENDBRANCH   8  10
ENDBRANCH   5   6
BRANCH   1  26
HETATM   26  C7  UNL     1      29.083  32.278  11.013  1.00  0.00     0.138 C 
BRANCH  26  27
HETATM   27  C6  UNL     1      29.995  31.181  10.886  1.00  0.00     0.168 C 
BRANCH  27  28
HETATM   28  N1  UNL     1      29.279  29.998  11.465  1.00  0.00    -0.324 N 
HETATM   29  C5  UNL     1      28.592  29.061  10.715  1.00  0.00     0.362 C 
HETATM   30  O2  UNL     1      28.510  29.126   9.466  1.00  0.00    -0.238 OA
ATOM     31  H1  UNL     1      29.300  29.877  12.478  1.00  0.00     0.165 HD
BRANCH  29  32
HETATM   32  O1  UNL     1      27.969  28.011  11.331  1.00  0.00    -0.294 OA
BRANCH  32  33
HETATM   33  C2  UNL     1      28.513  26.816  11.751  1.00  0.00     0.061 C 
HETATM   34  C1  UNL     1      29.829  26.444  11.122  1.00  0.00     0.046 C 
HETATM   35  C3  UNL     1      28.728  26.877  13.254  1.00  0.00     0.046 C 
HETATM   36  C4  UNL     1      27.526  25.694  11.498  1.00  0.00     0.046 C 
ENDBRANCH  32  33
ENDBRANCH  29  32
ENDBRANCH  27  28
BRANCH  27  37
HETATM   37  C25 UNL     1      31.371  31.200  11.396  1.00  0.00    -0.023 C 
HETATM   38  C26 UNL     1      31.590  31.709  12.777  1.00  0.00     0.017 C 
HETATM   39  C27 UNL     1      31.774  29.665  11.477  1.00  0.00     0.017 C 
HETATM   40  C28 UNL     1      32.372  31.744  10.441  1.00  0.00     0.017 C 
ENDBRANCH  27  37
ENDBRANCH  26  27
BRANCH  26  41
HETATM   41  O3  UNL     1      27.917  31.881  11.549  1.00  0.00    -0.348 OA
ATOM     42  H3  UNL     1      27.787  32.261  12.410  1.00  0.00     0.219 HD
ENDBRANCH  26  41
ENDBRANCH   1  26
TORSDOF 12
ENDMDL
MODEL 3
REMARK VINA RESULT: -5.481340466      1.509      2.107
REMARK  12 active torsions:
REMARK  status: ('A' for Active; 'I' for Inactive)
REMARK    1  A    between atoms: C2_2  and  O1_5 
REMARK    2  A    between atoms: O1_5  and  C5_6 
REMARK       I    between atoms: C5_6  and  N1_8 
REMARK    3  A    between atoms: N1_8  and  C6_10 
REMARK    4  A    between atoms: C6_10  and  C7_11 
REMARK    5  A    between atoms: C6_10  and  C25_39 
REMARK    6  A    between atoms: C7_11  and  O3_12 
REMARK    7  A    between atoms: C7_11  and  N2_14 
REMARK    8  A    between atoms: C11_18  and  C12_19 
REMARK       I    between atoms: C12_19  and  N3_21 
REMARK    9  A    between atoms: N3_21  and  C13_23 
REMARK   10  A    between atoms: C13_23  and  C15_25 
REMARK   11  A    between atoms: C13_23  and  C24_36 
REMARK   12  A    between atoms: C15_25  and  C16_26 
REMARK       I    between atoms: C16_26  and  N4_28 
ROOT
HETATM    1  N2  UNL     1      29.051  32.467  12.354  1.00  0.00    -0.350 N 
HETATM    2  C8  UNL     1      27.926  31.824  11.748  1.00  0.00     0.126 C 
HETATM    3  C9  UNL     1      28.323  30.373  11.498  1.00  0.00     0.022 C 
HETATM    4  C10 UNL     1      29.801  30.524  11.275  1.00  0.00     0.037 C 
HETATM    5  C11 UNL     1      30.205  31.529  12.295  1.00  0.00     0.178 C 
ENDROOT
BRANCH   5   6
HETATM    6  C12 UNL     1      30.380  30.832  13.610  1.00  0.00     0.241 C 
HETATM    7  O4  UNL     1      31.496  30.318  13.811  1.00  0.00    -0.271 OA
HETATM    8  N3  UNL     1      29.358  30.758  14.556  1.00  0.00    -0.337 N 
ATOM      9  H3  UNL     1      28.493  31.207  14.252  1.00  0.00     0.164 HD
BRANCH   8  10
HETATM   10  C13 UNL     1      29.268  30.196  15.840  1.00  0.00     0.141 C 
HETATM   11  C14 UNL     1      27.898  30.482  16.479  1.00  0.00     0.055 C 
BRANCH  10  12
HETATM   12  C15 UNL     1      29.733  28.861  16.172  1.00  0.00     0.089 C 
BRANCH  12  13
HETATM   13  C16 UNL     1      29.452  27.678  15.415  1.00  0.00     0.242 C 
HETATM   14  O5  UNL     1      29.764  27.419  14.235  1.00  0.00    -0.269 OA
HETATM   15  N4  UNL     1      28.713  26.624  16.065  1.00  0.00    -0.349 N 
HETATM   16  C17 UNL     1      28.466  25.471  15.233  1.00  0.00     0.126 C 
HETATM   17  C23 UNL     1      28.371  26.931  17.429  1.00  0.00     0.126 C 
HETATM   18  C18 UNL     1      27.136  25.546  14.523  1.00  0.00     0.020 C 
HETATM   19  C19 UNL     1      26.017  25.179  15.478  1.00  0.00     0.002 C 
HETATM   20  C20 UNL     1      25.638  26.438  16.222  1.00  0.00     0.000 C 
HETATM   21  C21 UNL     1      25.949  26.357  17.684  1.00  0.00     0.002 C 
HETATM   22  C22 UNL     1      27.359  25.944  17.986  1.00  0.00     0.020 C 
ENDBRANCH  12  13
ENDBRANCH  10  12
BRANCH  10  23
HETATM   23  C24 UNL     1      30.165  31.097  16.780  1.00  0.00     0.206 C 
HETATM   24  O6  UNL     1      31.038  30.585  17.479  1.00  0.00    -0.646 OA
HETATM   25  O7  UNL     1      29.910  32.427  16.764  1.00  0.00    -0.646 OA
ENDBRANCH  10  23
ENDBRANCH   8  10
ENDBRANCH   5   6
BRANCH   1  26
HETATM   26  C7  UNL     1      29.157  33.748  12.912  1.00  0.00     0.138 C 
BRANCH  26  27
HETATM   27  C6  UNL     1      29.649  35.046  12.558  1.00  0.00     0.168 C 
BRANCH  27  28
HETATM   28  N1  UNL     1      29.233  35.254  11.132  1.00  0.00    -0.324 N 
HETATM   29  C5  UNL     1      28.003  35.754  10.745  1.00  0.00     0.362 C 
HETATM   30  O2  UNL     1      27.118  36.079  11.571  1.00  0.00    -0.238 OA
ATOM     31  H1  UNL     1      29.901  35.012  10.400  1.00  0.00     0.165 HD
BRANCH  29  32
HETATM   32  O1  UNL     1      27.712  35.911   9.419  1.00  0.00    -0.294 OA
BRANCH  32  33
HETATM   33  C2  UNL     1      27.992  36.985   8.599  1.00  0.00     0.061 C 
HETATM   34  C1  UNL     1      28.871  38.050   9.200  1.00  0.00     0.046 C 
HETATM   35  C3  UNL     1      28.686  36.476   7.346  1.00  0.00     0.046 C 
HETATM   36  C4  UNL     1      26.697  37.629   8.148  1.00  0.00     0.046 C 
ENDBRANCH  32  33
ENDBRANCH  29  32
ENDBRANCH  27  28
BRANCH  27  37
HETATM   37  C25 UNL     1      31.048  35.459  12.710  1.00  0.00    -0.023 C 
HETATM   38  C26 UNL     1      31.759  35.049  13.951  1.00  0.00     0.017 C 
HETATM   39  C27 UNL     1      31.809  34.683  11.550  1.00  0.00     0.017 C 
HETATM   40  C28 UNL     1      31.310  36.882  12.368  1.00  0.00     0.017 C 
ENDBRANCH  27  37
ENDBRANCH  26  27
BRANCH  26  41
HETATM   41  O3  UNL     1      28.638  33.747  14.151  1.00  0.00    -0.348 OA
ATOM     42  H3  UNL     1      27.869  33.191  14.201  1.00  0.00     0.219 HD
ENDBRANCH  26  41
ENDBRANCH   1  26
TORSDOF 12
ENDMDL
MODEL 4
REMARK VINA RESULT: -5.471290358      1.960      2.855
REMARK  12 active torsions:
REMARK  status: ('A' for Active; 'I' for Inactive)
REMARK    1  A    between atoms: C2_2  and  O1_5 
REMARK    2  A    between atoms: O1_5  and  C5_6 
REMARK       I    between atoms: C5_6  and  N1_8 
REMARK    3  A    between atoms: N1_8  and  C6_10 
REMARK    4  A    between atoms: C6_10  and  C7_11 
REMARK    5  A    between atoms: C6_10  and  C25_39 
REMARK    6  A    between atoms: C7_11  and  O3_12 
REMARK    7  A    between atoms: C7_11  and  N2_14 
REMARK    8  A    between atoms: C11_18  and  C12_19 
REMARK       I    between atoms: C12_19  and  N3_21 
REMARK    9  A    between atoms: N3_21  and  C13_23 
REMARK   10  A    between atoms: C13_23  and  C15_25 
REMARK   11  A    between atoms: C13_23  and  C24_36 
REMARK   12  A    between atoms: C15_25  and  C16_26 
REMARK       I    between atoms: C16_26  and  N4_28 
ROOT
HETATM    1  N2  UNL     1      29.738  34.198  10.892  1.00  0.00    -0.350 N 
HETATM    2  C8  UNL     1      29.730  32.818  10.517  1.00  0.00     0.126 C 
HETATM    3  C9  UNL     1      30.469  32.055  11.610  1.00  0.00     0.022 C 
HETATM    4  C10 UNL     1      31.444  33.102  12.070  1.00  0.00     0.037 C 
HETATM    5  C11 UNL     1      30.637  34.351  12.067  1.00  0.00     0.178 C 
ENDROOT
BRANCH   5   6
HETATM    6  C12 UNL     1      29.837  34.406  13.333  1.00  0.00     0.241 C 
HETATM    7  O4  UNL     1      28.605  34.525  13.197  1.00  0.00    -0.271 OA
HETATM    8  N3  UNL     1      30.430  34.329  14.594  1.00  0.00    -0.337 N 
ATOM      9  H3  UNL     1      31.447  34.251  14.556  1.00  0.00     0.164 HD
BRANCH   8  10
HETATM   10  C13 UNL     1      29.923  34.337  15.903  1.00  0.00     0.141 C 
HETATM   11  C14 UNL     1      28.779  35.355  16.051  1.00  0.00     0.055 C 
BRANCH  10  12
HETATM   12  C15 UNL     1      29.659  33.135  16.675  1.00  0.00     0.089 C 
BRANCH  12  13
HETATM   13  C16 UNL     1      29.209  31.890  16.132  1.00  0.00     0.242 C 
HETATM   14  O5  UNL     1      28.651  31.676  15.036  1.00  0.00    -0.269 OA
HETATM   15  N4  UNL     1      29.408  30.700  16.922  1.00  0.00    -0.349 N 
HETATM   16  C17 UNL     1      28.922  29.489  16.306  1.00  0.00     0.126 C 
HETATM   17  C23 UNL     1      30.064  30.958  18.176  1.00  0.00     0.126 C 
HETATM   18  C18 UNL     1      27.509  29.157  16.722  1.00  0.00     0.020 C 
HETATM   19  C19 UNL     1      27.509  28.533  18.104  1.00  0.00     0.002 C 
HETATM   20  C20 UNL     1      27.487  29.667  19.103  1.00  0.00     0.000 C 
HETATM   21  C21 UNL     1      28.741  29.741  19.916  1.00  0.00     0.002 C 
HETATM   22  C22 UNL     1      29.999  29.752  19.099  1.00  0.00     0.020 C 
ENDBRANCH  12  13
ENDBRANCH  10  12
BRANCH  10  23
HETATM   23  C24 UNL     1      31.009  35.065  16.793  1.00  0.00     0.206 C 
HETATM   24  O6  UNL     1      30.690  35.568  17.870  1.00  0.00    -0.646 OA
HETATM   25  O7  UNL     1      32.270  35.094  16.302  1.00  0.00    -0.646 OA
ENDBRANCH  10  23
ENDBRANCH   8  10
ENDBRANCH   5   6
BRANCH   1  26
HETATM   26  C7  UNL     1      29.072  35.287  10.313  1.00  0.00     0.138 C 
BRANCH  26  27
HETATM   27  C6  UNL     1      29.383  36.527   9.666  1.00  0.00     0.168 C 
BRANCH  27  28
HETATM   28  N1  UNL     1      29.651  36.173   8.234  1.00  0.00    -0.324 N 
HETATM   29  C5  UNL     1      28.697  36.206   7.232  1.00  0.00     0.362 C 
HETATM   30  O2  UNL     1      27.508  36.540   7.445  1.00  0.00    -0.238 OA
ATOM     31  H1  UNL     1      30.598  35.889   7.981  1.00  0.00     0.165 HD
BRANCH  29  32
HETATM   32  O1  UNL     1      29.034  35.867   5.952  1.00  0.00    -0.294 OA
BRANCH  32  33
HETATM   33  C2  UNL     1      29.777  36.586   5.039  1.00  0.00     0.061 C 
HETATM   34  C1  UNL     1      29.824  38.074   5.269  1.00  0.00     0.046 C 
HETATM   35  C3  UNL     1      31.208  36.077   5.062  1.00  0.00     0.046 C 
HETATM   36  C4  UNL     1      29.247  36.333   3.642  1.00  0.00     0.046 C 
ENDBRANCH  32  33
ENDBRANCH  29  32
ENDBRANCH  27  28
BRANCH  27  37
HETATM   37  C25 UNL     1      30.423  37.452  10.129  1.00  0.00    -0.023 C 
HETATM   38  C26 UNL     1      31.839  37.110   9.824  1.00  0.00     0.017 C 
HETATM   39  C27 UNL     1      30.156  38.781   9.299  1.00  0.00     0.017 C 
HETATM   40  C28 UNL     1      30.256  37.911  11.533  1.00  0.00     0.017 C 
ENDBRANCH  27  37
ENDBRANCH  26  27
BRANCH  26  41
HETATM   41  O3  UNL     1      27.744  35.102  10.394  1.00  0.00    -0.348 OA
ATOM     42  H3  UNL     1      27.437  35.201  11.288  1.00  0.00     0.219 HD
ENDBRANCH  26  41
ENDBRANCH   1  26
TORSDOF 12
ENDMDL
MODEL 5
REMARK VINA RESULT: -5.372465055      2.351      8.829
REMARK  12 active torsions:
REMARK  status: ('A' for Active; 'I' for Inactive)
REMARK    1  A    between atoms: C2_2  and  O1_5 
REMARK    2  A    between atoms: O1_5  and  C5_6 
REMARK       I    between atoms: C5_6  and  N1_8 
REMARK    3  A    between atoms: N1_8  and  C6_10 
REMARK    4  A    between atoms: C6_10  and  C7_11 
REMARK    5  A    between atoms: C6_10  and  C25_39 
REMARK    6  A    between atoms: C7_11  and  O3_12 
REMARK    7  A    between atoms: C7_11  and  N2_14 
REMARK    8  A    between atoms: C11_18  and  C12_19 
REMARK       I    between atoms: C12_19  and  N3_21 
REMARK    9  A    between atoms: N3_21  and  C13_23 
REMARK   10  A    between atoms: C13_23  and  C15_25 
REMARK   11  A    between atoms: C13_23  and  C24_36 
REMARK   12  A    between atoms: C15_25  and  C16_26 
REMARK       I    between atoms: C16_26  and  N4_28 
ROOT
HETATM    1  N2  UNL     1      29.928  32.978  15.072  1.00  0.00    -0.350 N 
HETATM    2  C8  UNL     1      29.359  33.698  16.170  1.00  0.00     0.126 C 
HETATM    3  C9  UNL     1      30.126  35.011  16.287  1.00  0.00     0.022 C 
HETATM    4  C10 UNL     1      31.476  34.590  15.781  1.00  0.00     0.037 C 
HETATM    5  C11 UNL     1      31.156  33.696  14.636  1.00  0.00     0.178 C 
ENDROOT
BRANCH   5   6
HETATM    6  C12 UNL     1      30.867  34.544  13.435  1.00  0.00     0.241 C 
HETATM    7  O4  UNL     1      31.694  35.441  13.189  1.00  0.00    -0.271 OA
HETATM    8  N3  UNL     1      29.741  34.346  12.635  1.00  0.00    -0.337 N 
ATOM      9  H3  UNL     1      29.142  33.588  12.964  1.00  0.00     0.164 HD
BRANCH   8  10
HETATM   10  C13 UNL     1      29.259  34.970  11.474  1.00  0.00     0.141 C 
HETATM   11  C14 UNL     1      28.952  36.456  11.726  1.00  0.00     0.055 C 
BRANCH  10  12
HETATM   12  C15 UNL     1      29.827  34.768  10.153  1.00  0.00     0.089 C 
BRANCH  12  13
HETATM   13  C16 UNL     1      30.812  35.608   9.542  1.00  0.00     0.242 C 
HETATM   14  O5  UNL     1      31.999  35.786   9.883  1.00  0.00    -0.269 OA
HETATM   15  N4  UNL     1      30.423  36.366   8.379  1.00  0.00    -0.349 N 
HETATM   16  C17 UNL     1      31.471  37.191   7.829  1.00  0.00     0.126 C 
HETATM   17  C23 UNL     1      29.056  36.142   7.990  1.00  0.00     0.126 C 
HETATM   18  C18 UNL     1      31.444  38.598   8.374  1.00  0.00     0.020 C 
HETATM   19  C19 UNL     1      30.360  39.401   7.683  1.00  0.00     0.002 C 
HETATM   20  C20 UNL     1      29.071  39.138   8.427  1.00  0.00     0.000 C 
HETATM   21  C21 UNL     1      28.066  38.405   7.594  1.00  0.00     0.002 C 
HETATM   22  C22 UNL     1      28.597  37.156   6.955  1.00  0.00     0.020 C 
ENDBRANCH  12  13
ENDBRANCH  10  12
BRANCH  10  23
HETATM   23  C24 UNL     1      27.778  34.449  11.276  1.00  0.00     0.206 C 
HETATM   24  O6  UNL     1      27.490  33.284  11.546  1.00  0.00    -0.646 OA
HETATM   25  O7  UNL     1      26.882  35.347  10.802  1.00  0.00    -0.646 OA
ENDBRANCH  10  23
ENDBRANCH   8  10
ENDBRANCH   5   6
BRANCH   1  26
HETATM   26  C7  UNL     1      29.496  31.795  14.458  1.00  0.00     0.138 C 
BRANCH  26  27
HETATM   27  C6  UNL     1      30.024  30.521  14.070  1.00  0.00     0.168 C 
BRANCH  27  28
HETATM   28  N1  UNL     1      29.510  30.282  12.682  1.00  0.00    -0.324 N 
HETATM   29  C5  UNL     1      30.048  30.853  11.544  1.00  0.00     0.362 C 
HETATM   30  O2  UNL     1      31.029  31.633  11.581  1.00  0.00    -0.238 OA
ATOM     31  H1  UNL     1      28.711  29.657  12.571  1.00  0.00     0.165 HD
BRANCH  29  32
HETATM   32  O1  UNL     1      29.513  30.575  10.317  1.00  0.00    -0.294 OA
BRANCH  32  33
HETATM   33  C2  UNL     1      29.826  29.543   9.457  1.00  0.00     0.061 C 
HETATM   34  C1  UNL     1      30.985  28.678   9.874  1.00  0.00     0.046 C 
HETATM   35  C3  UNL     1      28.612  28.640   9.314  1.00  0.00     0.046 C 
HETATM   36  C4  UNL     1      30.116  30.103   8.079  1.00  0.00     0.046 C 
ENDBRANCH  32  33
ENDBRANCH  29  32
ENDBRANCH  27  28
BRANCH  27  37
HETATM   37  C25 UNL     1      29.857  29.294  14.857  1.00  0.00    -0.023 C 
HETATM   38  C26 UNL     1      28.988  28.224  14.295  1.00  0.00     0.017 C 
HETATM   39  C27 UNL     1      31.309  28.646  14.876  1.00  0.00     0.017 C 
HETATM   40  C28 UNL     1      29.589  29.521  16.301  1.00  0.00     0.017 C 
ENDBRANCH  27  37
ENDBRANCH  26  27
BRANCH  26  41
HETATM   41  O3  UNL     1      28.193  31.896  14.145  1.00  0.00    -0.348 OA
ATOM     42  H3  UNL     1      27.846  32.746  14.390  1.00  0.00     0.219 HD
ENDBRANCH  26  41
ENDBRANCH   1  26
TORSDOF 12
ENDMDL
