MODEL 1
REMARK VINA RESULT: -6.102763755      0.000      0.000
REMARK  5 active torsions:
REMARK  status: ('A' for Active; 'I' for Inactive)
REMARK    1  A    between atoms: C4_4  and  N1_5 
REMARK    2  A    between atoms: C9_12  and  C10_13 
REMARK    3  A    between atoms: C10_13  and  O1_14 
REMARK    4  A    between atoms: C10_13  and  N2_16 
REMARK    5  A    between atoms: N2_16  and  O2_18 
ROOT
HETATM    1  C1  UNL     1       2.820  -2.149  -0.608  1.00  0.00     0.050 C 
HETATM    2  C2  UNL     1       2.337  -3.573  -0.334  1.00  0.00    -0.038 A 
HETATM    3  C3  UNL     1       3.145  -4.655  -0.444  1.00  0.00     0.045 A 
HETATM    4  C4  UNL     1       2.591  -5.876  -0.171  1.00  0.00     0.073 A 
HETATM    5  S1  UNL     1       0.986  -5.499   0.227  1.00  0.00    -0.068 SA
HETATM    6  C9  UNL     1       1.042  -3.804   0.041  1.00  0.00     0.065 A 
ENDROOT
BRANCH   6   7
HETATM    7  C10 UNL     1      -0.036  -2.831   0.238  1.00  0.00     0.178 C 
BRANCH   7   8
HETATM    8  O1  UNL     1      -0.839  -2.454  -0.838  1.00  0.00    -0.344 OA
ATOM      9  H1  UNL     1      -1.776  -2.355  -0.720  1.00  0.00     0.219 HD
ENDBRANCH   7   8
BRANCH   7  10
HETATM   10  N2  UNL     1      -0.227  -2.342   1.387  1.00  0.00    -0.246 N 
ATOM     11  H2  UNL     1      -1.189  -2.104   1.628  1.00  0.00     0.196 HD
BRANCH  10  12
HETATM   12  O2  UNL     1       0.713  -2.101   2.330  1.00  0.00    -0.288 OA
ATOM     13  H2  UNL     1       1.626  -1.883   2.180  1.00  0.00     0.244 HD
ENDBRANCH  10  12
ENDBRANCH   7  10
ENDBRANCH   6   7
BRANCH   4  14
HETATM   14  N1  UNL     1       3.228  -7.168  -0.215  1.00  0.00    -0.372 N 
HETATM   15  C5  UNL     1       4.629  -7.356  -0.404  1.00  0.00     0.126 C 
HETATM   16  C6  UNL     1       4.926  -8.507   0.561  1.00  0.00     0.058 C 
HETATM   17  C7  UNL     1       3.702  -9.389   0.311  1.00  0.00     0.189 C 
HETATM   18  F1  UNL     1       4.048 -10.229  -0.732  1.00  0.00    -0.248 F 
HETATM   19  C8  UNL     1       2.592  -8.441  -0.082  1.00  0.00     0.160 C 
ENDBRANCH   4  14
TORSDOF 5
ENDMDL
MODEL 2
REMARK VINA RESULT: -6.057352062      2.412      3.081
REMARK  5 active torsions:
REMARK  status: ('A' for Active; 'I' for Inactive)
REMARK    1  A    between atoms: C4_4  and  N1_5 
REMARK    2  A    between atoms: C9_12  and  C10_13 
REMARK    3  A    between atoms: C10_13  and  O1_14 
REMARK    4  A    between atoms: C10_13  and  N2_16 
REMARK    5  A    between atoms: N2_16  and  O2_18 
ROOT
HETATM    1  C1  UNL     1      -1.405  -4.444  -3.309  1.00  0.00     0.050 C 
HETATM    2  C2  UNL     1      -0.567  -4.519  -2.033  1.00  0.00    -0.038 A 
HETATM    3  C3  UNL     1       0.569  -5.251  -1.944  1.00  0.00     0.045 A 
HETATM    4  C4  UNL     1       1.228  -5.235  -0.744  1.00  0.00     0.073 A 
HETATM    5  S1  UNL     1       0.269  -4.220   0.218  1.00  0.00    -0.068 SA
HETATM    6  C9  UNL     1      -0.949  -3.832  -0.914  1.00  0.00     0.065 A 
ENDROOT
BRANCH   6   7
HETATM    7  C10 UNL     1      -2.121  -2.970  -0.729  1.00  0.00     0.178 C 
BRANCH   7   8
HETATM    8  O1  UNL     1      -2.086  -1.646  -1.164  1.00  0.00    -0.344 OA
ATOM      9  H1  UNL     1      -1.804  -0.959  -0.572  1.00  0.00     0.219 HD
ENDBRANCH   7   8
BRANCH   7  10
HETATM   10  N2  UNL     1      -3.154  -3.441  -0.175  1.00  0.00    -0.246 N 
ATOM     11  H2  UNL     1      -3.329  -3.150   0.787  1.00  0.00     0.196 HD
BRANCH  10  12
HETATM   12  O2  UNL     1      -4.052  -4.290  -0.726  1.00  0.00    -0.288 OA
ATOM     13  H2  UNL     1      -4.514  -4.993  -0.285  1.00  0.00     0.244 HD
ENDBRANCH  10  12
ENDBRANCH   7  10
ENDBRANCH   6   7
BRANCH   4  14
HETATM   14  N1  UNL     1       2.445  -5.921  -0.393  1.00  0.00    -0.372 N 
HETATM   15  C5  UNL     1       2.922  -6.058   0.945  1.00  0.00     0.126 C 
HETATM   16  C6  UNL     1       3.454  -7.493   0.945  1.00  0.00     0.058 C 
HETATM   17  C7  UNL     1       4.135  -7.527  -0.424  1.00  0.00     0.189 C 
HETATM   18  F1  UNL     1       5.431  -7.090  -0.212  1.00  0.00    -0.248 F 
HETATM   19  C8  UNL     1       3.357  -6.562  -1.288  1.00  0.00     0.160 C 
ENDBRANCH   4  14
TORSDOF 5
ENDMDL
MODEL 3
REMARK VINA RESULT: -5.896225312      1.406      1.708
REMARK  5 active torsions:
REMARK  status: ('A' for Active; 'I' for Inactive)
REMARK    1  A    between atoms: C4_4  and  N1_5 
REMARK    2  A    between atoms: C9_12  and  C10_13 
REMARK    3  A    between atoms: C10_13  and  O1_14 
REMARK    4  A    between atoms: C10_13  and  N2_16 
REMARK    5  A    between atoms: N2_16  and  O2_18 
ROOT
HETATM    1  C1  UNL     1       2.225  -2.917  -0.928  1.00  0.00     0.050 C 
HETATM    2  C2  UNL     1       2.236  -4.127   0.004  1.00  0.00    -0.038 A 
HETATM    3  C3  UNL     1       3.080  -5.174  -0.164  1.00  0.00     0.045 A 
HETATM    4  C4  UNL     1       2.991  -6.197   0.740  1.00  0.00     0.073 A 
HETATM    5  S1  UNL     1       1.757  -5.690   1.787  1.00  0.00    -0.068 SA
HETATM    6  C9  UNL     1       1.375  -4.192   1.064  1.00  0.00     0.065 A 
ENDROOT
BRANCH   6   7
HETATM    7  C10 UNL     1       0.366  -3.212   1.479  1.00  0.00     0.178 C 
BRANCH   7   8
HETATM    8  O1  UNL     1       0.745  -2.096   2.224  1.00  0.00    -0.344 OA
ATOM      9  H1  UNL     1       0.119  -1.402   2.390  1.00  0.00     0.219 HD
ENDBRANCH   7   8
BRANCH   7  10
HETATM   10  N2  UNL     1      -0.841  -3.392   1.155  1.00  0.00    -0.246 N 
ATOM     11  H2  UNL     1      -1.040  -4.198   0.562  1.00  0.00     0.196 HD
BRANCH  10  12
HETATM   12  O2  UNL     1      -1.898  -2.627   1.515  1.00  0.00    -0.288 OA
ATOM     13  H2  UNL     1      -2.650  -2.901   2.028  1.00  0.00     0.244 HD
ENDBRANCH  10  12
ENDBRANCH   7  10
ENDBRANCH   6   7
BRANCH   4  14
HETATM   14  N1  UNL     1       3.765  -7.411   0.783  1.00  0.00    -0.372 N 
HETATM   15  C5  UNL     1       4.570  -7.879  -0.297  1.00  0.00     0.126 C 
HETATM   16  C6  UNL     1       5.804  -8.411   0.436  1.00  0.00     0.058 C 
HETATM   17  C7  UNL     1       5.134  -9.101   1.624  1.00  0.00     0.189 C 
HETATM   18  F1  UNL     1       4.872 -10.395   1.211  1.00  0.00    -0.248 F 
HETATM   19  C8  UNL     1       3.860  -8.329   1.876  1.00  0.00     0.160 C 
ENDBRANCH   4  14
TORSDOF 5
ENDMDL
MODEL 4
REMARK VINA RESULT: -5.838317935      0.517      1.337
REMARK  5 active torsions:
REMARK  status: ('A' for Active; 'I' for Inactive)
REMARK    1  A    between atoms: C4_4  and  N1_5 
REMARK    2  A    between atoms: C9_12  and  C10_13 
REMARK    3  A    between atoms: C10_13  and  O1_14 
REMARK    4  A    between atoms: C10_13  and  N2_16 
REMARK    5  A    between atoms: N2_16  and  O2_18 
ROOT
HETATM    1  C1  UNL     1       2.717  -2.148  -0.540  1.00  0.00     0.050 C 
HETATM    2  C2  UNL     1       2.286  -3.573  -0.195  1.00  0.00    -0.038 A 
HETATM    3  C3  UNL     1       3.078  -4.651  -0.411  1.00  0.00     0.045 A 
HETATM    4  C4  UNL     1       2.576  -5.874  -0.059  1.00  0.00     0.073 A 
HETATM    5  S1  UNL     1       1.039  -5.505   0.556  1.00  0.00    -0.068 SA
HETATM    6  C9  UNL     1       1.058  -3.810   0.357  1.00  0.00     0.065 A 
ENDROOT
BRANCH   6   7
HETATM    7  C10 UNL     1       0.010  -2.842   0.696  1.00  0.00     0.178 C 
BRANCH   7   8
HETATM    8  O1  UNL     1       0.135  -2.051   1.837  1.00  0.00    -0.344 OA
ATOM      9  H1  UNL     1      -0.596  -1.965   2.437  1.00  0.00     0.219 HD
ENDBRANCH   7   8
BRANCH   7  10
HETATM   10  N2  UNL     1      -1.001  -2.737  -0.055  1.00  0.00    -0.246 N 
ATOM     11  H2  UNL     1      -1.913  -2.807   0.395  1.00  0.00     0.196 HD
BRANCH  10  12
HETATM   12  O2  UNL     1      -0.998  -2.539  -1.394  1.00  0.00    -0.288 OA
ATOM     13  H2  UNL     1      -0.407  -2.933  -2.025  1.00  0.00     0.244 HD
ENDBRANCH  10  12
ENDBRANCH   7  10
ENDBRANCH   6   7
BRANCH   4  14
HETATM   14  N1  UNL     1       3.209  -7.162  -0.184  1.00  0.00    -0.372 N 
HETATM   15  C5  UNL     1       4.601  -7.341  -0.436  1.00  0.00     0.126 C 
HETATM   16  C6  UNL     1       4.935  -8.533   0.465  1.00  0.00     0.058 C 
HETATM   17  C7  UNL     1       3.701  -9.404   0.226  1.00  0.00     0.189 C 
HETATM   18  F1  UNL     1       4.005 -10.197  -0.866  1.00  0.00    -0.248 F 
HETATM   19  C8  UNL     1       2.578  -8.441  -0.081  1.00  0.00     0.160 C 
ENDBRANCH   4  14
TORSDOF 5
ENDMDL
MODEL 5
REMARK VINA RESULT: -5.825183896      1.547      1.614
REMARK  5 active torsions:
REMARK  status: ('A' for Active; 'I' for Inactive)
REMARK    1  A    between atoms: C4_4  and  N1_5 
REMARK    2  A    between atoms: C9_12  and  C10_13 
REMARK    3  A    between atoms: C10_13  and  O1_14 
REMARK    4  A    between atoms: C10_13  and  N2_16 
REMARK    5  A    between atoms: N2_16  and  O2_18 
ROOT
HETATM    1  C1  UNL     1       2.944  -3.159  -0.691  1.00  0.00     0.050 C 
HETATM    2  C2  UNL     1       2.289  -4.304   0.080  1.00  0.00    -0.038 A 
HETATM    3  C3  UNL     1       2.934  -5.461   0.363  1.00  0.00     0.045 A 
HETATM    4  C4  UNL     1       2.235  -6.409   1.060  1.00  0.00     0.073 A 
HETATM    5  S1  UNL     1       0.723  -5.682   1.305  1.00  0.00    -0.068 SA
HETATM    6  C9  UNL     1       0.999  -4.191   0.521  1.00  0.00     0.065 A 
ENDROOT
BRANCH   6   7
HETATM    7  C10 UNL     1       0.076  -3.063   0.359  1.00  0.00     0.178 C 
BRANCH   7   8
HETATM    8  O1  UNL     1      -0.596  -2.881  -0.848  1.00  0.00    -0.344 OA
ATOM      9  H1  UNL     1      -1.044  -2.062  -1.023  1.00  0.00     0.219 HD
ENDBRANCH   7   8
BRANCH   7  10
HETATM   10  N2  UNL     1      -0.099  -2.265   1.323  1.00  0.00    -0.246 N 
ATOM     11  H2  UNL     1      -0.937  -1.685   1.288  1.00  0.00     0.196 HD
BRANCH  10  12
HETATM   12  O2  UNL     1       0.710  -2.101   2.395  1.00  0.00    -0.288 OA
ATOM     13  H2  UNL     1       0.998  -2.775   2.998  1.00  0.00     0.244 HD
ENDBRANCH  10  12
ENDBRANCH   7  10
ENDBRANCH   6   7
BRANCH   4  14
HETATM   14  N1  UNL     1       2.686  -7.711   1.481  1.00  0.00    -0.372 N 
HETATM   15  C5  UNL     1       3.919  -8.297   1.067  1.00  0.00     0.126 C 
HETATM   16  C6  UNL     1       4.399  -8.968   2.356  1.00  0.00     0.058 C 
HETATM   17  C7  UNL     1       3.078  -9.546   2.865  1.00  0.00     0.189 C 
HETATM   18  F1  UNL     1       2.972 -10.803   2.299  1.00  0.00    -0.248 F 
HETATM   19  C8  UNL     1       2.004  -8.613   2.355  1.00  0.00     0.160 C 
ENDBRANCH   4  14
TORSDOF 5
ENDMDL
