MODEL 1
REMARK VINA RESULT: -6.669728550      0.000      0.000
REMARK  4 active torsions:
REMARK  status: ('A' for Active; 'I' for Inactive)
REMARK    1  A    between atoms: O1_1  and  N1_3 
REMARK    2  A    between atoms: C1_5  and  O2_6 
REMARK    3  A    between atoms: C1_5  and  C2_8 
REMARK    4  A    between atoms: C6_15  and  N3_16 
ROOT
HETATM    1  C2  UNL     1       2.320  -4.402  -0.393  1.00  0.00     0.049 A 
HETATM    2  C3  UNL     1       3.446  -5.240  -0.388  1.00  0.00     0.079 A 
HETATM    3  C4  UNL     1       3.253  -6.582  -0.341  1.00  0.00     0.189 A 
HETATM    4  F1  UNL     1       4.325  -7.433  -0.334  1.00  0.00    -0.186 F 
HETATM    5  N2  UNL     1       2.026  -7.148  -0.300  1.00  0.00    -0.341 N 
ATOM      6  H2  UNL     1       1.938  -8.164  -0.265  1.00  0.00     0.167 HD
HETATM    7  C5  UNL     1       0.947  -6.399  -0.303  1.00  0.00     0.120 A 
HETATM    8  C6  UNL     1       1.092  -5.001  -0.353  1.00  0.00     0.060 A 
ENDROOT
BRANCH   1   9
HETATM    9  C1  UNL     1       2.525  -2.960  -0.375  1.00  0.00     0.172 C 
HETATM   10  N1  UNL     1       3.066  -2.417  -1.430  1.00  0.00    -0.247 N 
ATOM     11  H1  UNL     1       3.314  -3.024  -2.210  1.00  0.00     0.196 HD
BRANCH  10  12
HETATM   12  O1  UNL     1       3.318  -1.078  -1.545  1.00  0.00    -0.288 OA
ATOM     13  H1  UNL     1       2.900  -0.519  -2.190  1.00  0.00     0.244 HD
ENDBRANCH  10  12
BRANCH   9  14
HETATM   14  O2  UNL     1       2.207  -2.106   0.652  1.00  0.00    -0.344 OA
ATOM     15  H2  UNL     1       2.929  -1.824   1.202  1.00  0.00     0.219 HD
ENDBRANCH   9  14
ENDBRANCH   1   9
BRANCH   8  16
HETATM   16  N3  UNL     1      -0.116  -4.241  -0.426  1.00  0.00    -0.379 N 
HETATM   17  C7  UNL     1      -0.820  -3.836   0.753  1.00  0.00     0.123 C 
HETATM   18  C8  UNL     1      -1.369  -2.429   0.561  1.00  0.00     0.020 C 
HETATM   19  C9  UNL     1      -2.240  -2.316  -0.636  1.00  0.00     0.003 C 
HETATM   20  C10 UNL     1      -1.993  -3.334  -1.715  1.00  0.00     0.020 C 
HETATM   21  C11 UNL     1      -0.594  -3.871  -1.727  1.00  0.00     0.123 C 
ENDBRANCH   8  16
TORSDOF 4
ENDMDL
MODEL 2
REMARK VINA RESULT: -6.563464178      2.360      4.494
REMARK  4 active torsions:
REMARK  status: ('A' for Active; 'I' for Inactive)
REMARK    1  A    between atoms: O1_1  and  N1_3 
REMARK    2  A    between atoms: C1_5  and  O2_6 
REMARK    3  A    between atoms: C1_5  and  C2_8 
REMARK    4  A    between atoms: C6_15  and  N3_16 
ROOT
HETATM    1  C2  UNL     1       0.764  -3.544  -0.484  1.00  0.00     0.049 A 
HETATM    2  C3  UNL     1      -0.483  -2.956  -0.746  1.00  0.00     0.079 A 
HETATM    3  C4  UNL     1      -1.548  -3.767  -0.964  1.00  0.00     0.189 A 
HETATM    4  F1  UNL     1      -2.782  -3.231  -1.223  1.00  0.00    -0.186 F 
HETATM    5  N2  UNL     1      -1.463  -5.116  -0.942  1.00  0.00    -0.341 N 
ATOM      6  H2  UNL     1      -2.296  -5.679  -1.114  1.00  0.00     0.167 HD
HETATM    7  C5  UNL     1      -0.314  -5.706  -0.701  1.00  0.00     0.120 A 
HETATM    8  C6  UNL     1       0.821  -4.910  -0.466  1.00  0.00     0.060 A 
ENDROOT
BRANCH   1   9
HETATM    9  C1  UNL     1       1.922  -2.677  -0.316  1.00  0.00     0.172 C 
HETATM   10  N1  UNL     1       2.753  -2.584  -1.316  1.00  0.00    -0.247 N 
ATOM     11  H1  UNL     1       2.551  -3.117  -2.161  1.00  0.00     0.196 HD
BRANCH  10  12
HETATM   12  O1  UNL     1       3.880  -1.811  -1.293  1.00  0.00    -0.288 OA
ATOM     13  H1  UNL     1       4.579  -1.882  -1.933  1.00  0.00     0.244 HD
ENDBRANCH  10  12
BRANCH   9  14
HETATM   14  O2  UNL     1       2.233  -1.943   0.801  1.00  0.00    -0.344 OA
ATOM     15  H2  UNL     1       2.353  -2.433   1.607  1.00  0.00     0.219 HD
ENDBRANCH   9  14
ENDBRANCH   1   9
BRANCH   8  16
HETATM   16  N3  UNL     1       2.026  -5.606  -0.139  1.00  0.00    -0.379 N 
HETATM   17  C7  UNL     1       2.464  -5.752   1.216  1.00  0.00     0.123 C 
HETATM   18  C8  UNL     1       3.059  -7.140   1.413  1.00  0.00     0.020 C 
HETATM   19  C9  UNL     1       4.170  -7.422   0.468  1.00  0.00     0.003 C 
HETATM   20  C10 UNL     1       4.148  -6.631  -0.811  1.00  0.00     0.020 C 
HETATM   21  C11 UNL     1       2.779  -6.180  -1.217  1.00  0.00     0.123 C 
ENDBRANCH   8  16
TORSDOF 4
ENDMDL
MODEL 3
REMARK VINA RESULT: -6.486981518      3.185      4.005
REMARK  4 active torsions:
REMARK  status: ('A' for Active; 'I' for Inactive)
REMARK    1  A    between atoms: O1_1  and  N1_3 
REMARK    2  A    between atoms: C1_5  and  O2_6 
REMARK    3  A    between atoms: C1_5  and  C2_8 
REMARK    4  A    between atoms: C6_15  and  N3_16 
ROOT
HETATM    1  C2  UNL     1       0.418  -3.463  -0.695  1.00  0.00     0.049 A 
HETATM    2  C3  UNL     1       1.698  -2.972  -0.995  1.00  0.00     0.079 A 
HETATM    3  C4  UNL     1       2.393  -2.340  -0.016  1.00  0.00     0.189 A 
HETATM    4  F1  UNL     1       3.646  -1.846  -0.269  1.00  0.00    -0.186 F 
HETATM    5  N2  UNL     1       1.910  -2.162   1.233  1.00  0.00    -0.341 N 
ATOM      6  H2  UNL     1       2.475  -1.678   1.931  1.00  0.00     0.167 HD
HETATM    7  C5  UNL     1       0.716  -2.607   1.554  1.00  0.00     0.120 A 
HETATM    8  C6  UNL     1      -0.045  -3.272   0.576  1.00  0.00     0.060 A 
ENDROOT
BRANCH   1   9
HETATM    9  C1  UNL     1      -0.357  -4.083  -1.762  1.00  0.00     0.172 C 
HETATM   10  N1  UNL     1      -1.322  -3.381  -2.288  1.00  0.00    -0.247 N 
ATOM     11  H1  UNL     1      -1.483  -2.440  -1.931  1.00  0.00     0.196 HD
BRANCH  10  12
HETATM   12  O1  UNL     1      -2.129  -3.840  -3.291  1.00  0.00    -0.288 OA
ATOM     13  H1  UNL     1      -1.933  -3.730  -4.215  1.00  0.00     0.244 HD
ENDBRANCH  10  12
BRANCH   9  14
HETATM   14  O2  UNL     1      -0.176  -5.344  -2.272  1.00  0.00    -0.344 OA
ATOM     15  H2  UNL     1       0.075  -6.017  -1.649  1.00  0.00     0.219 HD
ENDBRANCH   9  14
ENDBRANCH   1   9
BRANCH   8  16
HETATM   16  N3  UNL     1      -1.305  -3.796   1.002  1.00  0.00    -0.379 N 
HETATM   17  C7  UNL     1      -2.498  -3.006   0.962  1.00  0.00     0.123 C 
HETATM   18  C8  UNL     1      -3.671  -3.875   0.528  1.00  0.00     0.020 C 
HETATM   19  C9  UNL     1      -3.855  -5.061   1.402  1.00  0.00     0.003 C 
HETATM   20  C10 UNL     1      -2.626  -5.520   2.138  1.00  0.00     0.020 C 
HETATM   21  C11 UNL     1      -1.344  -5.157   1.454  1.00  0.00     0.123 C 
ENDBRANCH   8  16
TORSDOF 4
ENDMDL
MODEL 4
REMARK VINA RESULT: -6.422149732      3.506      5.147
REMARK  4 active torsions:
REMARK  status: ('A' for Active; 'I' for Inactive)
REMARK    1  A    between atoms: O1_1  and  N1_3 
REMARK    2  A    between atoms: C1_5  and  O2_6 
REMARK    3  A    between atoms: C1_5  and  C2_8 
REMARK    4  A    between atoms: C6_15  and  N3_16 
ROOT
HETATM    1  C2  UNL     1      -2.244  -4.272   0.031  1.00  0.00     0.049 A 
HETATM    2  C3  UNL     1      -3.479  -4.826   0.401  1.00  0.00     0.079 A 
HETATM    3  C4  UNL     1      -3.536  -5.585   1.524  1.00  0.00     0.189 A 
HETATM    4  F1  UNL     1      -4.723  -6.144   1.919  1.00  0.00    -0.186 F 
HETATM    5  N2  UNL     1      -2.459  -5.833   2.301  1.00  0.00    -0.341 N 
ATOM      6  H2  UNL     1      -2.558  -6.412   3.135  1.00  0.00     0.167 HD
HETATM    7  C5  UNL     1      -1.285  -5.333   1.989  1.00  0.00     0.120 A 
HETATM    8  C6  UNL     1      -1.171  -4.536   0.836  1.00  0.00     0.060 A 
ENDROOT
BRANCH   1   9
HETATM    9  C1  UNL     1      -2.165  -3.511  -1.209  1.00  0.00     0.172 C 
HETATM   10  N1  UNL     1      -2.230  -4.179  -2.327  1.00  0.00    -0.247 N 
ATOM     11  H1  UNL     1      -2.334  -5.192  -2.278  1.00  0.00     0.196 HD
BRANCH  10  12
HETATM   12  O1  UNL     1      -2.165  -3.594  -3.561  1.00  0.00    -0.288 OA
ATOM     13  H1  UNL     1      -1.351  -3.329  -3.975  1.00  0.00     0.244 HD
ENDBRANCH  10  12
BRANCH   9  14
HETATM   14  O2  UNL     1      -2.025  -2.151  -1.321  1.00  0.00    -0.344 OA
ATOM     15  H2  UNL     1      -1.139  -1.813  -1.258  1.00  0.00     0.219 HD
ENDBRANCH   9  14
ENDBRANCH   1   9
BRANCH   8  16
HETATM   16  N3  UNL     1       0.113  -3.962   0.587  1.00  0.00    -0.379 N 
HETATM   17  C7  UNL     1       1.069  -4.603  -0.264  1.00  0.00     0.123 C 
HETATM   18  C8  UNL     1       1.800  -3.555  -1.092  1.00  0.00     0.020 C 
HETATM   19  C9  UNL     1       2.455  -2.521  -0.251  1.00  0.00     0.003 C 
HETATM   20  C10 UNL     1       1.859  -2.325   1.116  1.00  0.00     0.020 C 
HETATM   21  C11 UNL     1       0.412  -2.700   1.201  1.00  0.00     0.123 C 
ENDBRANCH   8  16
TORSDOF 4
ENDMDL
MODEL 5
REMARK VINA RESULT: -6.387428862      2.452      4.633
REMARK  4 active torsions:
REMARK  status: ('A' for Active; 'I' for Inactive)
REMARK    1  A    between atoms: O1_1  and  N1_3 
REMARK    2  A    between atoms: C1_5  and  O2_6 
REMARK    3  A    between atoms: C1_5  and  C2_8 
REMARK    4  A    between atoms: C6_15  and  N3_16 
ROOT
HETATM    1  C2  UNL     1       0.496  -3.609  -0.401  1.00  0.00     0.049 A 
HETATM    2  C3  UNL     1      -0.718  -2.917  -0.526  1.00  0.00     0.079 A 
HETATM    3  C4  UNL     1      -1.852  -3.633  -0.731  1.00  0.00     0.189 A 
HETATM    4  F1  UNL     1      -3.057  -2.994  -0.859  1.00  0.00    -0.186 F 
HETATM    5  N2  UNL     1      -1.865  -4.981  -0.821  1.00  0.00    -0.341 N 
ATOM      6  H2  UNL     1      -2.747  -5.470  -0.977  1.00  0.00     0.167 HD
HETATM    7  C5  UNL     1      -0.750  -5.666  -0.709  1.00  0.00     0.120 A 
HETATM    8  C6  UNL     1       0.454  -4.972  -0.493  1.00  0.00     0.060 A 
ENDROOT
BRANCH   1   9
HETATM    9  C1  UNL     1       1.724  -2.840  -0.247  1.00  0.00     0.172 C 
HETATM   10  N1  UNL     1       2.526  -2.777  -1.273  1.00  0.00    -0.247 N 
ATOM     11  H1  UNL     1       2.255  -3.265  -2.127  1.00  0.00     0.196 HD
BRANCH  10  12
HETATM   12  O1  UNL     1       3.710  -2.095  -1.266  1.00  0.00    -0.288 OA
ATOM     13  H1  UNL     1       3.806  -1.205  -1.587  1.00  0.00     0.244 HD
ENDBRANCH  10  12
BRANCH   9  14
HETATM   14  O2  UNL     1       2.128  -2.170   0.880  1.00  0.00    -0.344 OA
ATOM     15  H2  UNL     1       1.666  -1.363   1.079  1.00  0.00     0.219 HD
ENDBRANCH   9  14
ENDBRANCH   1   9
BRANCH   8  16
HETATM   16  N3  UNL     1       1.623  -5.773  -0.309  1.00  0.00    -0.379 N 
HETATM   17  C7  UNL     1       2.298  -6.380  -1.415  1.00  0.00     0.123 C 
HETATM   18  C8  UNL     1       3.804  -6.314  -1.193  1.00  0.00     0.020 C 
HETATM   19  C9  UNL     1       4.218  -6.944   0.086  1.00  0.00     0.003 C 
HETATM   20  C10 UNL     1       3.159  -7.005   1.151  1.00  0.00     0.020 C 
HETATM   21  C11 UNL     1       2.119  -5.934   1.028  1.00  0.00     0.123 C 
ENDBRANCH   8  16
TORSDOF 4
ENDMDL
