MODEL 1
REMARK VINA RESULT: -6.988221054      0.000      0.000
REMARK  3 active torsions:
REMARK  status: ('A' for Active; 'I' for Inactive)
REMARK       I    between atoms: C1_2  and  N1_3 
REMARK    1  A    between atoms: C1_2  and  C8_13 
REMARK    2  A    between atoms: N1_3  and  N2_5 
REMARK    3  A    between atoms: C11_17  and  O3_18 
ROOT
HETATM    1  O1  UNL     1      -1.990  -2.026  -0.501  1.00  0.00    -0.264 OA
HETATM    2  C1  UNL     1      -1.252  -2.531   0.355  1.00  0.00     0.296 C 
HETATM    3  N1  UNL     1      -1.797  -2.955   1.586  1.00  0.00    -0.264 N 
ATOM      4  H1  UNL     1      -1.194  -3.372   2.295  1.00  0.00     0.190 HD
ENDROOT
BRANCH   3   5
HETATM    5  N2  UNL     1      -3.162  -2.803   1.831  1.00  0.00    -0.306 N 
HETATM    6  C2  UNL     1      -3.953  -3.802   1.776  1.00  0.00     0.004 C 
HETATM    7  C3  UNL     1      -3.442  -5.142   1.453  1.00  0.00     0.054 C 
HETATM    8  C7  UNL     1      -5.388  -3.613   2.039  1.00  0.00     0.054 C 
HETATM    9  C4  UNL     1      -4.629  -6.092   1.244  1.00  0.00     0.006 C 
HETATM   10  C5  UNL     1      -5.587  -5.384   0.332  1.00  0.00     0.001 C 
HETATM   11  C6  UNL     1      -6.282  -4.223   1.010  1.00  0.00     0.006 C 
ATOM     12  H2  UNL     1      -3.533  -1.880   2.058  1.00  0.00     0.186 HD
ENDBRANCH   3   5
BRANCH   2  13
HETATM   13  C8  UNL     1       0.177  -2.697   0.117  1.00  0.00     0.177 A 
HETATM   14  O2  UNL     1       0.747  -2.972  -1.053  1.00  0.00    -0.314 OA
HETATM   15  C9  UNL     1       2.042  -3.060  -0.948  1.00  0.00     0.145 A 
HETATM   16  C10 UNL     1       2.406  -2.838   0.352  1.00  0.00     0.064 A 
HETATM   17  C11 UNL     1       1.206  -2.606   1.028  1.00  0.00     0.107 A 
BRANCH  17  18
HETATM   18  O3  UNL     1       1.128  -2.336   2.386  1.00  0.00    -0.358 OA
ATOM     19  H3  UNL     1       1.267  -1.507   2.828  1.00  0.00     0.217 HD
ENDBRANCH  17  18
ENDBRANCH   2  13
TORSDOF 3
ENDMDL
MODEL 2
REMARK VINA RESULT: -6.625004601      1.657      1.902
REMARK  3 active torsions:
REMARK  status: ('A' for Active; 'I' for Inactive)
REMARK       I    between atoms: C1_2  and  N1_3 
REMARK    1  A    between atoms: C1_2  and  C8_13 
REMARK    2  A    between atoms: N1_3  and  N2_5 
REMARK    3  A    between atoms: C11_17  and  O3_18 
ROOT
HETATM    1  O1  UNL     1      -2.046  -2.572   1.062  1.00  0.00    -0.264 OA
HETATM    2  C1  UNL     1      -1.407  -3.098   0.141  1.00  0.00     0.296 C 
HETATM    3  N1  UNL     1      -2.077  -3.903  -0.805  1.00  0.00    -0.264 N 
ATOM      4  H1  UNL     1      -1.556  -4.339  -1.566  1.00  0.00     0.190 HD
ENDROOT
BRANCH   3   5
HETATM    5  N2  UNL     1      -3.455  -4.101  -0.699  1.00  0.00    -0.306 N 
HETATM    6  C2  UNL     1      -3.928  -5.220  -0.313  1.00  0.00     0.004 C 
HETATM    7  C3  UNL     1      -3.029  -6.332   0.031  1.00  0.00     0.054 C 
HETATM    8  C7  UNL     1      -5.384  -5.401  -0.210  1.00  0.00     0.054 C 
HETATM    9  C4  UNL     1      -3.865  -7.601   0.247  1.00  0.00     0.006 C 
HETATM   10  C5  UNL     1      -4.807  -7.694  -0.918  1.00  0.00     0.001 C 
HETATM   11  C6  UNL     1      -5.893  -6.641  -0.870  1.00  0.00     0.006 C 
ATOM     12  H2  UNL     1      -4.092  -3.339  -0.933  1.00  0.00     0.186 HD
ENDBRANCH   3   5
BRANCH   2  13
HETATM   13  C8  UNL     1       0.033  -2.904   0.013  1.00  0.00     0.177 A 
HETATM   14  O2  UNL     1       0.755  -3.114  -1.084  1.00  0.00    -0.314 OA
HETATM   15  C9  UNL     1       2.015  -2.851  -0.887  1.00  0.00     0.145 A 
HETATM   16  C10 UNL     1       2.194  -2.436   0.404  1.00  0.00     0.064 A 
HETATM   17  C11 UNL     1       0.920  -2.472   0.974  1.00  0.00     0.107 A 
BRANCH  17  18
HETATM   18  O3  UNL     1       0.655  -2.121   2.289  1.00  0.00    -0.358 OA
ATOM     19  H3  UNL     1       0.623  -2.686   3.052  1.00  0.00     0.217 HD
ENDBRANCH  17  18
ENDBRANCH   2  13
TORSDOF 3
ENDMDL
MODEL 3
REMARK VINA RESULT: -6.544910231      1.331      1.474
REMARK  3 active torsions:
REMARK  status: ('A' for Active; 'I' for Inactive)
REMARK       I    between atoms: C1_2  and  N1_3 
REMARK    1  A    between atoms: C1_2  and  C8_13 
REMARK    2  A    between atoms: N1_3  and  N2_5 
REMARK    3  A    between atoms: C11_17  and  O3_18 
ROOT
HETATM    1  O1  UNL     1      -2.179  -1.813  -0.741  1.00  0.00    -0.264 OA
HETATM    2  C1  UNL     1      -1.559  -2.873  -0.579  1.00  0.00     0.296 C 
HETATM    3  N1  UNL     1      -2.258  -4.099  -0.579  1.00  0.00    -0.264 N 
ATOM      4  H1  UNL     1      -1.753  -4.975  -0.447  1.00  0.00     0.190 HD
ENDROOT
BRANCH   3   5
HETATM    5  N2  UNL     1      -3.642  -4.110  -0.762  1.00  0.00    -0.306 N 
HETATM    6  C2  UNL     1      -4.419  -4.551   0.149  1.00  0.00     0.004 C 
HETATM    7  C3  UNL     1      -3.873  -5.058   1.416  1.00  0.00     0.054 C 
HETATM    8  C7  UNL     1      -5.873  -4.551  -0.071  1.00  0.00     0.054 C 
HETATM    9  C4  UNL     1      -5.003  -5.714   2.220  1.00  0.00     0.006 C 
HETATM   10  C5  UNL     1      -5.732  -6.619   1.270  1.00  0.00     0.001 C 
HETATM   11  C6  UNL     1      -6.537  -5.853   0.242  1.00  0.00     0.006 C 
ATOM     12  H2  UNL     1      -4.036  -3.761  -1.635  1.00  0.00     0.186 HD
ENDBRANCH   3   5
BRANCH   2  13
HETATM   13  C8  UNL     1      -0.113  -2.881  -0.386  1.00  0.00     0.177 A 
HETATM   14  O2  UNL     1       0.793  -3.228  -1.295  1.00  0.00    -0.314 OA
HETATM   15  C9  UNL     1       2.004  -3.132  -0.826  1.00  0.00     0.145 A 
HETATM   16  C10 UNL     1       1.955  -2.697   0.469  1.00  0.00     0.064 A 
HETATM   17  C11 UNL     1       0.595  -2.537   0.744  1.00  0.00     0.107 A 
BRANCH  17  18
HETATM   18  O3  UNL     1       0.102  -2.105   1.966  1.00  0.00    -0.358 OA
ATOM     19  H3  UNL     1       0.022  -1.214   2.285  1.00  0.00     0.217 HD
ENDBRANCH  17  18
ENDBRANCH   2  13
TORSDOF 3
ENDMDL
MODEL 4
REMARK VINA RESULT: -6.491902000      1.498      1.846
REMARK  3 active torsions:
REMARK  status: ('A' for Active; 'I' for Inactive)
REMARK       I    between atoms: C1_2  and  N1_3 
REMARK    1  A    between atoms: C1_2  and  C8_13 
REMARK    2  A    between atoms: N1_3  and  N2_5 
REMARK    3  A    between atoms: C11_17  and  O3_18 
ROOT
HETATM    1  O1  UNL     1      -0.893  -5.176  -1.094  1.00  0.00    -0.264 OA
HETATM    2  C1  UNL     1      -0.822  -3.999  -0.716  1.00  0.00     0.296 C 
HETATM    3  N1  UNL     1      -2.004  -3.249  -0.536  1.00  0.00    -0.264 N 
ATOM      4  H1  UNL     1      -1.952  -2.279  -0.225  1.00  0.00     0.190 HD
ENDROOT
BRANCH   3   5
HETATM    5  N2  UNL     1      -3.245  -3.837  -0.785  1.00  0.00    -0.306 N 
HETATM    6  C2  UNL     1      -4.081  -4.028   0.160  1.00  0.00     0.004 C 
HETATM    7  C3  UNL     1      -3.755  -3.630   1.538  1.00  0.00     0.054 C 
HETATM    8  C7  UNL     1      -5.381  -4.650  -0.130  1.00  0.00     0.054 C 
HETATM    9  C4  UNL     1      -4.836  -4.169   2.482  1.00  0.00     0.006 C 
HETATM   10  C5  UNL     1      -5.041  -5.611   2.118  1.00  0.00     0.001 C 
HETATM   11  C6  UNL     1      -5.736  -5.777   0.783  1.00  0.00     0.006 C 
ATOM     12  H2  UNL     1      -3.487  -4.119  -1.735  1.00  0.00     0.186 HD
ENDBRANCH   3   5
BRANCH   2  13
HETATM   13  C8  UNL     1       0.465  -3.367  -0.452  1.00  0.00     0.177 A 
HETATM   14  O2  UNL     1       1.543  -3.439  -1.228  1.00  0.00    -0.314 OA
HETATM   15  C9  UNL     1       2.541  -2.769  -0.727  1.00  0.00     0.145 A 
HETATM   16  C10 UNL     1       2.155  -2.198   0.454  1.00  0.00     0.064 A 
HETATM   17  C11 UNL     1       0.823  -2.584   0.623  1.00  0.00     0.107 A 
BRANCH  17  18
HETATM   18  O3  UNL     1       0.046  -2.213   1.709  1.00  0.00    -0.358 OA
ATOM     19  H3  UNL     1       0.319  -1.764   2.500  1.00  0.00     0.217 HD
ENDBRANCH  17  18
ENDBRANCH   2  13
TORSDOF 3
ENDMDL
MODEL 5
REMARK VINA RESULT: -6.488286145      3.695      6.582
REMARK  3 active torsions:
REMARK  status: ('A' for Active; 'I' for Inactive)
REMARK       I    between atoms: C1_2  and  N1_3 
REMARK    1  A    between atoms: C1_2  and  C8_13 
REMARK    2  A    between atoms: N1_3  and  N2_5 
REMARK    3  A    between atoms: C11_17  and  O3_18 
ROOT
HETATM    1  O1  UNL     1       2.145  -2.525  -1.077  1.00  0.00    -0.264 OA
HETATM    2  C1  UNL     1       1.289  -3.367  -0.773  1.00  0.00     0.296 C 
HETATM    3  N1  UNL     1       1.672  -4.706  -0.548  1.00  0.00    -0.264 N 
ATOM      4  H1  UNL     1       0.971  -5.403  -0.298  1.00  0.00     0.190 HD
ENDROOT
BRANCH   3   5
HETATM    5  N2  UNL     1       3.013  -5.075  -0.668  1.00  0.00    -0.306 N 
HETATM    6  C2  UNL     1       3.347  -6.300  -0.785  1.00  0.00     0.004 C 
HETATM    7  C3  UNL     1       2.324  -7.356  -0.798  1.00  0.00     0.054 C 
HETATM    8  C7  UNL     1       4.767  -6.660  -0.910  1.00  0.00     0.054 C 
HETATM    9  C4  UNL     1       3.016  -8.723  -0.731  1.00  0.00     0.006 C 
HETATM   10  C5  UNL     1       4.029  -8.635   0.373  1.00  0.00     0.001 C 
HETATM   11  C6  UNL     1       5.204  -7.751   0.013  1.00  0.00     0.006 C 
ATOM     12  H2  UNL     1       3.735  -4.354  -0.662  1.00  0.00     0.186 HD
ENDBRANCH   3   5
BRANCH   2  13
HETATM   13  C8  UNL     1      -0.117  -3.000  -0.644  1.00  0.00     0.177 A 
HETATM   14  O2  UNL     1      -1.041  -3.102  -1.596  1.00  0.00    -0.314 OA
HETATM   15  C9  UNL     1      -2.206  -2.696  -1.179  1.00  0.00     0.145 A 
HETATM   16  C10 UNL     1      -2.105  -2.290   0.123  1.00  0.00     0.064 A 
HETATM   17  C11 UNL     1      -0.764  -2.489   0.459  1.00  0.00     0.107 A 
BRANCH  17  18
HETATM   18  O3  UNL     1      -0.232  -2.200   1.707  1.00  0.00    -0.358 OA
ATOM     19  H3  UNL     1       0.168  -1.390   2.001  1.00  0.00     0.217 HD
ENDBRANCH  17  18
ENDBRANCH   2  13
TORSDOF 3
ENDMDL
