MODEL 1
REMARK VINA RESULT: -6.401184032      0.000      0.000
REMARK  5 active torsions:
REMARK  status: ('A' for Active; 'I' for Inactive)
REMARK    1  A    between atoms: C2_2  and  C4_5 
REMARK       I    between atoms: C4_5  and  N2_7 
REMARK    2  A    between atoms: N2_7  and  C5_9 
REMARK    3  A    between atoms: C6_14  and  S1_15 
REMARK    4  A    between atoms: S1_15  and  C7_16 
REMARK    5  A    between atoms: C7_16  and  C9_18 
ROOT
HETATM    1  C1  UNL     1      14.059   3.861  20.506  1.00  0.00     0.035 C 
HETATM    2  C2  UNL     1      15.013   2.892  21.182  1.00  0.00     0.181 C 
HETATM    3  C3  UNL     1      16.385   3.296  20.893  1.00  0.00     0.073 C 
HETATM    4  N1  UNL     1      17.461   3.607  20.686  1.00  0.00    -0.196 NA
ENDROOT
BRANCH   2   5
HETATM    5  C4  UNL     1      14.756   1.506  20.719  1.00  0.00     0.241 C 
HETATM    6  O1  UNL     1      13.713   1.306  20.031  1.00  0.00    -0.272 OA
HETATM    7  N2  UNL     1      15.649   0.459  21.043  1.00  0.00    -0.305 N 
ATOM      8  H2  UNL     1      16.480   0.656  21.600  1.00  0.00     0.171 HD
BRANCH   7   9
HETATM    9  C5  UNL     1      15.396  -0.864  20.597  1.00  0.00     0.168 A 
HETATM   10  N3  UNL     1      15.283  -1.291  19.341  1.00  0.00    -0.278 N 
HETATM   11  N4  UNL     1      15.055  -2.512  19.112  1.00  0.00    -0.286 N 
ATOM     12  H3  UNL     1      15.380  -0.634  18.566  1.00  0.00     0.189 HD
HETATM   13  C6  UNL     1      14.930  -3.364  20.123  1.00  0.00     0.130 A 
ATOM     14  H4  UNL     1      14.967  -2.843  18.152  1.00  0.00     0.188 HD
HETATM   15  S2  UNL     1      15.157  -2.321  21.458  1.00  0.00    -0.026 SA
BRANCH  13  16
HETATM   16  S1  UNL     1      14.605  -5.141  20.051  1.00  0.00    -0.088 SA
BRANCH  16  17
HETATM   17  C7  UNL     1      12.795  -5.321  20.048  1.00  0.00     0.151 C 
HETATM   18  C8  UNL     1      12.147  -4.165  20.817  1.00  0.00     0.033 C 
BRANCH  17  19
HETATM   19  C9  UNL     1      12.351  -5.227  18.634  1.00  0.00     0.187 C 
HETATM   20  O2  UNL     1      11.529  -6.065  18.146  1.00  0.00    -0.647 OA
HETATM   21  O3  UNL     1      12.837  -4.215  17.835  1.00  0.00    -0.647 OA
ENDBRANCH  17  19
ENDBRANCH  16  17
ENDBRANCH  13  16
ENDBRANCH   7   9
ENDBRANCH   2   5
TORSDOF 5
ENDMDL
MODEL 2
REMARK VINA RESULT: -6.368040475      1.908      2.023
REMARK  5 active torsions:
REMARK  status: ('A' for Active; 'I' for Inactive)
REMARK    1  A    between atoms: C2_2  and  C4_5 
REMARK       I    between atoms: C4_5  and  N2_7 
REMARK    2  A    between atoms: N2_7  and  C5_9 
REMARK    3  A    between atoms: C6_14  and  S1_15 
REMARK    4  A    between atoms: S1_15  and  C7_16 
REMARK    5  A    between atoms: C7_16  and  C9_18 
ROOT
HETATM    1  C1  UNL     1      14.363   3.614  20.473  1.00  0.00     0.035 C 
HETATM    2  C2  UNL     1      15.269   2.773  21.354  1.00  0.00     0.181 C 
HETATM    3  C3  UNL     1      16.644   3.235  21.199  1.00  0.00     0.073 C 
HETATM    4  N1  UNL     1      17.721   3.593  21.097  1.00  0.00    -0.196 NA
ENDROOT
BRANCH   2   5
HETATM    5  C4  UNL     1      15.146   1.338  21.001  1.00  0.00     0.241 C 
HETATM    6  O1  UNL     1      15.890   0.521  21.618  1.00  0.00    -0.272 OA
HETATM    7  N2  UNL     1      14.229   0.912  20.012  1.00  0.00    -0.305 N 
ATOM      8  H2  UNL     1      13.645   1.598  19.534  1.00  0.00     0.171 HD
BRANCH   7   9
HETATM    9  C5  UNL     1      14.118  -0.463  19.681  1.00  0.00     0.168 A 
HETATM   10  N3  UNL     1      15.082  -1.277  19.254  1.00  0.00    -0.278 N 
HETATM   11  N4  UNL     1      14.814  -2.485  19.001  1.00  0.00    -0.286 N 
ATOM     12  H3  UNL     1      16.031  -0.926  19.132  1.00  0.00     0.189 HD
HETATM   13  C6  UNL     1      13.576  -2.939  19.161  1.00  0.00     0.130 A 
ATOM     14  H4  UNL     1      15.549  -3.112  18.674  1.00  0.00     0.188 HD
HETATM   15  S2  UNL     1      12.781  -1.527  19.705  1.00  0.00    -0.026 SA
BRANCH  13  16
HETATM   16  S1  UNL     1      12.954  -4.610  18.868  1.00  0.00    -0.088 SA
BRANCH  16  17
HETATM   17  C7  UNL     1      12.609  -5.313  20.510  1.00  0.00     0.151 C 
HETATM   18  C8  UNL     1      13.773  -5.028  21.463  1.00  0.00     0.033 C 
BRANCH  17  19
HETATM   19  C9  UNL     1      11.410  -4.614  21.039  1.00  0.00     0.187 C 
HETATM   20  O2  UNL     1      10.385  -4.424  20.312  1.00  0.00    -0.647 OA
HETATM   21  O3  UNL     1      11.408  -4.161  22.340  1.00  0.00    -0.647 OA
ENDBRANCH  17  19
ENDBRANCH  16  17
ENDBRANCH  13  16
ENDBRANCH   7   9
ENDBRANCH   2   5
TORSDOF 5
ENDMDL
MODEL 3
REMARK VINA RESULT: -6.220412958      1.184      1.249
REMARK  5 active torsions:
REMARK  status: ('A' for Active; 'I' for Inactive)
REMARK    1  A    between atoms: C2_2  and  C4_5 
REMARK       I    between atoms: C4_5  and  N2_7 
REMARK    2  A    between atoms: N2_7  and  C5_9 
REMARK    3  A    between atoms: C6_14  and  S1_15 
REMARK    4  A    between atoms: S1_15  and  C7_16 
REMARK    5  A    between atoms: C7_16  and  C9_18 
ROOT
HETATM    1  C1  UNL     1      14.111   3.215  20.304  1.00  0.00     0.035 C 
HETATM    2  C2  UNL     1      15.110   2.630  21.286  1.00  0.00     0.181 C 
HETATM    3  C3  UNL     1      16.417   3.233  21.050  1.00  0.00     0.073 C 
HETATM    4  N1  UNL     1      17.442   3.703  20.885  1.00  0.00    -0.196 NA
ENDROOT
BRANCH   2   5
HETATM    5  C4  UNL     1      15.169   1.155  21.146  1.00  0.00     0.241 C 
HETATM    6  O1  UNL     1      15.881   0.519  21.977  1.00  0.00    -0.272 OA
HETATM    7  N2  UNL     1      14.454   0.496  20.119  1.00  0.00    -0.305 N 
ATOM      8  H2  UNL     1      13.890   1.040  19.466  1.00  0.00     0.171 HD
BRANCH   7   9
HETATM    9  C5  UNL     1      14.516  -0.916  19.992  1.00  0.00     0.168 A 
HETATM   10  N3  UNL     1      15.129  -1.619  19.042  1.00  0.00    -0.278 N 
HETATM   11  N4  UNL     1      15.089  -2.881  19.075  1.00  0.00    -0.286 N 
ATOM     12  H3  UNL     1      15.628  -1.142  18.292  1.00  0.00     0.189 HD
HETATM   13  C6  UNL     1      14.439  -3.501  20.053  1.00  0.00     0.130 A 
ATOM     14  H4  UNL     1      15.557  -3.425  18.349  1.00  0.00     0.188 HD
HETATM   15  S2  UNL     1      13.866  -2.168  20.957  1.00  0.00    -0.026 SA
BRANCH  13  16
HETATM   16  S1  UNL     1      14.243  -5.279  20.312  1.00  0.00    -0.088 SA
BRANCH  16  17
HETATM   17  C7  UNL     1      12.479  -5.634  20.042  1.00  0.00     0.151 C 
HETATM   18  C8  UNL     1      11.684  -5.373  21.324  1.00  0.00     0.033 C 
BRANCH  17  19
HETATM   19  C9  UNL     1      11.997  -4.680  19.010  1.00  0.00     0.187 C 
HETATM   20  O2  UNL     1      12.526  -4.637  17.855  1.00  0.00    -0.647 OA
HETATM   21  O3  UNL     1      10.959  -3.824  19.310  1.00  0.00    -0.647 OA
ENDBRANCH  17  19
ENDBRANCH  16  17
ENDBRANCH  13  16
ENDBRANCH   7   9
ENDBRANCH   2   5
TORSDOF 5
ENDMDL
MODEL 4
REMARK VINA RESULT: -6.192954678      1.485      1.735
REMARK  5 active torsions:
REMARK  status: ('A' for Active; 'I' for Inactive)
REMARK    1  A    between atoms: C2_2  and  C4_5 
REMARK       I    between atoms: C4_5  and  N2_7 
REMARK    2  A    between atoms: N2_7  and  C5_9 
REMARK    3  A    between atoms: C6_14  and  S1_15 
REMARK    4  A    between atoms: S1_15  and  C7_16 
REMARK    5  A    between atoms: C7_16  and  C9_18 
ROOT
HETATM    1  C1  UNL     1      16.760   3.241  21.139  1.00  0.00     0.035 C 
HETATM    2  C2  UNL     1      15.621   2.882  20.201  1.00  0.00     0.181 C 
HETATM    3  C3  UNL     1      14.358   3.282  20.811  1.00  0.00     0.073 C 
HETATM    4  N1  UNL     1      13.365   3.600  21.271  1.00  0.00    -0.196 NA
ENDROOT
BRANCH   2   5
HETATM    5  C4  UNL     1      15.634   1.428  19.904  1.00  0.00     0.241 C 
HETATM    6  O1  UNL     1      16.494   1.011  19.076  1.00  0.00    -0.272 OA
HETATM    7  N2  UNL     1      14.715   0.555  20.530  1.00  0.00    -0.305 N 
ATOM      8  H2  UNL     1      14.034   0.925  21.193  1.00  0.00     0.171 HD
BRANCH   7   9
HETATM    9  C5  UNL     1      14.733  -0.834  20.240  1.00  0.00     0.168 A 
HETATM   10  N3  UNL     1      15.087  -1.422  19.099  1.00  0.00    -0.278 N 
HETATM   11  N4  UNL     1      15.047  -2.681  19.005  1.00  0.00    -0.286 N 
ATOM     12  H3  UNL     1      15.389  -0.858  18.305  1.00  0.00     0.189 HD
HETATM   13  C6  UNL     1      14.653  -3.412  20.042  1.00  0.00     0.130 A 
ATOM     14  H4  UNL     1      15.317  -3.136  18.133  1.00  0.00     0.188 HD
HETATM   15  S2  UNL     1      14.331  -2.193  21.196  1.00  0.00    -0.026 SA
BRANCH  13  16
HETATM   16  S1  UNL     1      14.514  -5.211  20.149  1.00  0.00    -0.088 SA
BRANCH  16  17
HETATM   17  C7  UNL     1      12.732  -5.574  20.190  1.00  0.00     0.151 C 
HETATM   18  C8  UNL     1      12.176  -5.343  21.598  1.00  0.00     0.033 C 
BRANCH  17  19
HETATM   19  C9  UNL     1      12.070  -4.606  19.279  1.00  0.00     0.187 C 
HETATM   20  O2  UNL     1      11.131  -3.853  19.689  1.00  0.00    -0.647 OA
HETATM   21  O3  UNL     1      12.478  -4.521  17.965  1.00  0.00    -0.647 OA
ENDBRANCH  17  19
ENDBRANCH  16  17
ENDBRANCH  13  16
ENDBRANCH   7   9
ENDBRANCH   2   5
TORSDOF 5
ENDMDL
MODEL 5
REMARK VINA RESULT: -6.108674294      1.137      1.395
REMARK  5 active torsions:
REMARK  status: ('A' for Active; 'I' for Inactive)
REMARK    1  A    between atoms: C2_2  and  C4_5 
REMARK       I    between atoms: C4_5  and  N2_7 
REMARK    2  A    between atoms: N2_7  and  C5_9 
REMARK    3  A    between atoms: C6_14  and  S1_15 
REMARK    4  A    between atoms: S1_15  and  C7_16 
REMARK    5  A    between atoms: C7_16  and  C9_18 
ROOT
HETATM    1  C1  UNL     1      16.567   3.279  21.176  1.00  0.00     0.035 C 
HETATM    2  C2  UNL     1      15.459   3.166  20.144  1.00  0.00     0.181 C 
HETATM    3  C3  UNL     1      14.277   3.865  20.638  1.00  0.00     0.073 C 
HETATM    4  N1  UNL     1      13.351   4.417  21.006  1.00  0.00    -0.196 NA
ENDROOT
BRANCH   2   5
HETATM    5  C4  UNL     1      15.157   1.741  19.863  1.00  0.00     0.241 C 
HETATM    6  O1  UNL     1      14.409   1.489  18.874  1.00  0.00    -0.272 OA
HETATM    7  N2  UNL     1      15.691   0.715  20.676  1.00  0.00    -0.305 N 
ATOM      8  H2  UNL     1      16.290   0.954  21.466  1.00  0.00     0.171 HD
BRANCH   7   9
HETATM    9  C5  UNL     1      15.397  -0.646  20.401  1.00  0.00     0.168 A 
HETATM   10  N3  UNL     1      15.389  -1.252  19.215  1.00  0.00    -0.278 N 
HETATM   11  N4  UNL     1      15.104  -2.480  19.142  1.00  0.00    -0.286 N 
ATOM     12  H3  UNL     1      15.613  -0.727  18.370  1.00  0.00     0.189 HD
HETATM   13  C6  UNL     1      14.813  -3.161  20.244  1.00  0.00     0.130 A 
ATOM     14  H4  UNL     1      15.097  -2.948  18.236  1.00  0.00     0.188 HD
HETATM   15  S2  UNL     1      14.967  -1.941  21.431  1.00  0.00    -0.026 SA
BRANCH  13  16
HETATM   16  S1  UNL     1      14.377  -4.909  20.393  1.00  0.00    -0.088 SA
BRANCH  16  17
HETATM   17  C7  UNL     1      12.577  -5.000  20.143  1.00  0.00     0.151 C 
HETATM   18  C8  UNL     1      11.909  -3.710  20.627  1.00  0.00     0.033 C 
BRANCH  17  19
HETATM   19  C9  UNL     1      12.346  -5.106  18.680  1.00  0.00     0.187 C 
HETATM   20  O2  UNL     1      11.672  -6.065  18.188  1.00  0.00    -0.647 OA
HETATM   21  O3  UNL     1      12.872  -4.150  17.839  1.00  0.00    -0.647 OA
ENDBRANCH  17  19
ENDBRANCH  16  17
ENDBRANCH  13  16
ENDBRANCH   7   9
ENDBRANCH   2   5
TORSDOF 5
ENDMDL
