MODEL 1
REMARK VINA RESULT: -5.640473450      0.000      0.000
REMARK  8 active torsions:
REMARK  status: ('A' for Active; 'I' for Inactive)
REMARK    1  A    between atoms: O1_2  and  C2_3 
REMARK    2  A    between atoms: C4_6  and  N1_7 
REMARK    3  A    between atoms: N1_7  and  N2_9 
REMARK    4  A    between atoms: N2_9  and  N3_10 
REMARK    5  A    between atoms: C5_13  and  S1_14 
REMARK    6  A    between atoms: S1_14  and  C6_15 
REMARK    7  A    between atoms: C6_15  and  C7_16 
REMARK    8  A    between atoms: C7_16  and  O3_17 
ROOT
HETATM    1  C2  UNL     1      14.396  -1.190  20.454  1.00  0.00     0.330 C 
HETATM    2  C3  UNL     1      15.134  -0.995  21.729  1.00  0.00     0.271 C 
HETATM    3  O2  UNL     1      15.881   0.219  21.688  1.00  0.00    -0.325 OA
HETATM    4  C4  UNL     1      15.294   1.423  21.279  1.00  0.00     0.203 C 
HETATM    5  C5  UNL     1      14.368   1.354  20.349  1.00  0.00     0.125 C 
HETATM    6  N4  UNL     1      14.103   0.054  19.793  1.00  0.00    -0.315 N 
HETATM    7  C8  UNL     1      13.490  -0.075  18.462  1.00  0.00     0.130 C 
HETATM    8  C9  UNL     1      12.758  -1.369  18.363  1.00  0.00     0.048 C 
HETATM    9  C10 UNL     1      12.269  -1.951  19.633  1.00  0.00     0.240 C 
HETATM   10  N5  UNL     1      13.123  -1.835  20.766  1.00  0.00    -0.021 N 
ATOM     11  H51 UNL     1      12.649  -1.356  21.532  1.00  0.00     0.283 HD
ATOM     12  H52 UNL     1      13.272  -2.743  21.206  1.00  0.00     0.283 HD
ENDROOT
BRANCH   4  13
HETATM   13  N1  UNL     1      15.747   2.592  21.895  1.00  0.00    -0.191 N 
ATOM     14  H1  UNL     1      15.252   2.911  22.728  1.00  0.00     0.206 HD
BRANCH  13  15
HETATM   15  N2  UNL     1      16.702   3.266  21.504  1.00  0.00    -0.241 NA
BRANCH  15  16
HETATM   16  N3  UNL     1      17.441   4.221  21.235  1.00  0.00    -0.260 N 
ATOM     17  H32 UNL     1      17.212   4.235  20.241  1.00  0.00     0.193 HD
ATOM     18  H31 UNL     1      18.108   4.989  21.316  1.00  0.00     0.193 HD
ENDBRANCH  15  16
ENDBRANCH  13  15
ENDBRANCH   4  13
BRANCH   5  19
HETATM   19  S1  UNL     1      13.530   2.745  19.723  1.00  0.00    -0.106 SA
BRANCH  19  20
HETATM   20  C6  UNL     1      12.445   3.644  20.782  1.00  0.00     0.107 C 
BRANCH  20  21
HETATM   21  C7  UNL     1      12.879   5.013  21.190  1.00  0.00     0.174 C 
BRANCH  21  22
HETATM   22  O3  UNL     1      14.288   5.082  21.295  1.00  0.00    -0.400 OA
ATOM     23  H3  UNL     1      14.593   5.968  21.142  1.00  0.00     0.209 HD
ENDBRANCH  21  22
ENDBRANCH  20  21
ENDBRANCH  19  20
ENDBRANCH   5  19
BRANCH   1  24
HETATM   24  O1  UNL     1      15.068  -2.023  19.603  1.00  0.00    -0.342 OA
HETATM   25  C1  UNL     1      15.473  -3.232  20.084  1.00  0.00     0.206 C 
ENDBRANCH   1  24
TORSDOF 8
ENDMDL
MODEL 2
REMARK VINA RESULT: -5.591176717      3.160      5.209
REMARK  8 active torsions:
REMARK  status: ('A' for Active; 'I' for Inactive)
REMARK    1  A    between atoms: O1_2  and  C2_3 
REMARK    2  A    between atoms: C4_6  and  N1_7 
REMARK    3  A    between atoms: N1_7  and  N2_9 
REMARK    4  A    between atoms: N2_9  and  N3_10 
REMARK    5  A    between atoms: C5_13  and  S1_14 
REMARK    6  A    between atoms: S1_14  and  C6_15 
REMARK    7  A    between atoms: C6_15  and  C7_16 
REMARK    8  A    between atoms: C7_16  and  O3_17 
ROOT
HETATM    1  C2  UNL     1      13.452   1.023  18.260  1.00  0.00     0.330 C 
HETATM    2  C3  UNL     1      14.800   1.383  18.771  1.00  0.00     0.271 C 
HETATM    3  O2  UNL     1      15.116   0.609  19.926  1.00  0.00    -0.325 OA
HETATM    4  C4  UNL     1      14.948  -0.781  19.940  1.00  0.00     0.203 C 
HETATM    5  C5  UNL     1      13.944  -1.272  19.247  1.00  0.00     0.125 C 
HETATM    6  N4  UNL     1      13.077  -0.323  18.602  1.00  0.00    -0.315 N 
HETATM    7  C8  UNL     1      11.701  -0.700  18.241  1.00  0.00     0.130 C 
HETATM    8  C9  UNL     1      11.233   0.128  17.093  1.00  0.00     0.048 C 
HETATM    9  C10 UNL     1      12.280   0.663  16.193  1.00  0.00     0.240 C 
HETATM   10  N5  UNL     1      13.483   1.117  16.803  1.00  0.00    -0.021 N 
ATOM     11  H51 UNL     1      14.292   0.625  16.423  1.00  0.00     0.283 HD
ATOM     12  H52 UNL     1      13.709   2.065  16.503  1.00  0.00     0.283 HD
ENDROOT
BRANCH   4  13
HETATM   13  N1  UNL     1      15.860  -1.524  20.694  1.00  0.00    -0.191 N 
ATOM     14  H1  UNL     1      16.594  -2.022  20.191  1.00  0.00     0.206 HD
BRANCH  13  15
HETATM   15  N2  UNL     1      15.842  -1.620  21.922  1.00  0.00    -0.241 NA
BRANCH  15  16
HETATM   16  N3  UNL     1      15.474  -1.594  23.103  1.00  0.00    -0.260 N 
ATOM     17  H32 UNL     1      14.836  -2.384  23.015  1.00  0.00     0.193 HD
ATOM     18  H31 UNL     1      15.369  -1.335  24.084  1.00  0.00     0.193 HD
ENDBRANCH  15  16
ENDBRANCH  13  15
ENDBRANCH   4  13
BRANCH   5  19
HETATM   19  S1  UNL     1      13.587  -2.972  19.148  1.00  0.00    -0.106 SA
BRANCH  19  20
HETATM   20  C6  UNL     1      12.438  -3.677  20.284  1.00  0.00     0.107 C 
BRANCH  20  21
HETATM   21  C7  UNL     1      13.007  -4.384  21.471  1.00  0.00     0.174 C 
BRANCH  21  22
HETATM   22  O3  UNL     1      14.378  -4.073  21.629  1.00  0.00    -0.400 OA
ATOM     23  H3  UNL     1      14.878  -4.855  21.831  1.00  0.00     0.209 HD
ENDBRANCH  21  22
ENDBRANCH  20  21
ENDBRANCH  19  20
ENDBRANCH   5  19
BRANCH   1  24
HETATM   24  O1  UNL     1      12.495   1.898  18.696  1.00  0.00    -0.342 OA
HETATM   25  C1  UNL     1      12.861   3.197  18.887  1.00  0.00     0.206 C 
ENDBRANCH   1  24
TORSDOF 8
ENDMDL
MODEL 3
REMARK VINA RESULT: -5.574468712      2.555      3.763
REMARK  8 active torsions:
REMARK  status: ('A' for Active; 'I' for Inactive)
REMARK    1  A    between atoms: O1_2  and  C2_3 
REMARK    2  A    between atoms: C4_6  and  N1_7 
REMARK    3  A    between atoms: N1_7  and  N2_9 
REMARK    4  A    between atoms: N2_9  and  N3_10 
REMARK    5  A    between atoms: C5_13  and  S1_14 
REMARK    6  A    between atoms: S1_14  and  C6_15 
REMARK    7  A    between atoms: C6_15  and  C7_16 
REMARK    8  A    between atoms: C7_16  and  O3_17 
ROOT
HETATM    1  C2  UNL     1      14.194  -1.191  20.216  1.00  0.00     0.330 C 
HETATM    2  C3  UNL     1      13.493  -0.728  18.990  1.00  0.00     0.271 C 
HETATM    3  O2  UNL     1      12.969   0.584  19.185  1.00  0.00    -0.325 OA
HETATM    4  C4  UNL     1      13.759   1.614  19.711  1.00  0.00     0.203 C 
HETATM    5  C5  UNL     1      14.664   1.281  20.604  1.00  0.00     0.125 C 
HETATM    6  N4  UNL     1      14.702  -0.100  21.004  1.00  0.00    -0.315 N 
HETATM    7  C8  UNL     1      15.292  -0.484  22.296  1.00  0.00     0.130 C 
HETATM    8  C9  UNL     1      15.788  -1.888  22.231  1.00  0.00     0.048 C 
HETATM    9  C10 UNL     1      16.161  -2.396  20.891  1.00  0.00     0.240 C 
HETATM   10  N5  UNL     1      15.333  -2.005  19.801  1.00  0.00    -0.021 N 
ATOM     11  H51 UNL     1      15.879  -1.530  19.081  1.00  0.00     0.283 HD
ATOM     12  H52 UNL     1      15.026  -2.818  19.266  1.00  0.00     0.283 HD
ENDROOT
BRANCH   4  13
HETATM   13  N1  UNL     1      13.512   2.906  19.242  1.00  0.00    -0.191 N 
ATOM     14  H1  UNL     1      14.134   3.651  19.555  1.00  0.00     0.206 HD
BRANCH  13  15
HETATM   15  N2  UNL     1      12.595   3.212  18.476  1.00  0.00    -0.241 NA
BRANCH  15  16
HETATM   16  N3  UNL     1      11.641   3.146  17.691  1.00  0.00    -0.260 N 
ATOM     17  H32 UNL     1      10.926   3.251  18.411  1.00  0.00     0.193 HD
ATOM     18  H31 UNL     1      11.084   3.061  16.841  1.00  0.00     0.193 HD
ENDBRANCH  15  16
ENDBRANCH  13  15
ENDBRANCH   4  13
BRANCH   5  19
HETATM   19  S1  UNL     1      15.734   2.426  21.359  1.00  0.00    -0.106 SA
BRANCH  19  20
HETATM   20  C6  UNL     1      17.047   3.129  20.416  1.00  0.00     0.107 C 
BRANCH  20  21
HETATM   21  C7  UNL     1      17.709   4.344  20.978  1.00  0.00     0.174 C 
BRANCH  21  22
HETATM   22  O3  UNL     1      18.393   4.032  22.177  1.00  0.00    -0.400 OA
ATOM     23  H3  UNL     1      18.965   3.284  22.052  1.00  0.00     0.209 HD
ENDBRANCH  21  22
ENDBRANCH  20  21
ENDBRANCH  19  20
ENDBRANCH   5  19
BRANCH   1  24
HETATM   24  O1  UNL     1      13.393  -1.989  20.986  1.00  0.00    -0.342 OA
HETATM   25  C1  UNL     1      12.425  -2.714  20.358  1.00  0.00     0.206 C 
ENDBRANCH   1  24
TORSDOF 8
ENDMDL
MODEL 4
REMARK VINA RESULT: -5.501527790      2.705      3.968
REMARK  8 active torsions:
REMARK  status: ('A' for Active; 'I' for Inactive)
REMARK    1  A    between atoms: O1_2  and  C2_3 
REMARK    2  A    between atoms: C4_6  and  N1_7 
REMARK    3  A    between atoms: N1_7  and  N2_9 
REMARK    4  A    between atoms: N2_9  and  N3_10 
REMARK    5  A    between atoms: C5_13  and  S1_14 
REMARK    6  A    between atoms: S1_14  and  C6_15 
REMARK    7  A    between atoms: C6_15  and  C7_16 
REMARK    8  A    between atoms: C7_16  and  O3_17 
ROOT
HETATM    1  C2  UNL     1      12.566   0.652  18.862  1.00  0.00     0.330 C 
HETATM    2  C3  UNL     1      12.833  -0.780  19.157  1.00  0.00     0.271 C 
HETATM    3  O2  UNL     1      14.235  -1.005  19.290  1.00  0.00    -0.325 OA
HETATM    4  C4  UNL     1      15.032  -0.186  20.099  1.00  0.00     0.203 C 
HETATM    5  C5  UNL     1      14.703   1.084  20.177  1.00  0.00     0.125 C 
HETATM    6  N4  UNL     1      13.599   1.518  19.364  1.00  0.00    -0.315 N 
HETATM    7  C8  UNL     1      13.463   2.935  18.991  1.00  0.00     0.130 C 
HETATM    8  C9  UNL     1      12.030   3.256  18.732  1.00  0.00     0.048 C 
HETATM    9  C10 UNL     1      11.028   2.412  19.421  1.00  0.00     0.240 C 
HETATM   10  N5  UNL     1      11.318   1.022  19.523  1.00  0.00    -0.021 N 
ATOM     11  H51 UNL     1      11.318   0.721  20.498  1.00  0.00     0.283 HD
ATOM     12  H52 UNL     1      10.540   0.461  19.176  1.00  0.00     0.283 HD
ENDROOT
BRANCH   4  13
HETATM   13  N1  UNL     1      16.110  -0.792  20.750  1.00  0.00    -0.191 N 
ATOM     14  H1  UNL     1      16.997  -0.843  20.250  1.00  0.00     0.206 HD
BRANCH  13  15
HETATM   15  N2  UNL     1      16.065  -1.271  21.885  1.00  0.00    -0.241 NA
BRANCH  15  16
HETATM   16  N3  UNL     1      15.684  -1.584  23.020  1.00  0.00    -0.260 N 
ATOM     17  H32 UNL     1      14.696  -1.421  22.831  1.00  0.00     0.193 HD
ATOM     18  H31 UNL     1      15.674  -1.887  23.994  1.00  0.00     0.193 HD
ENDBRANCH  15  16
ENDBRANCH  13  15
ENDBRANCH   4  13
BRANCH   5  19
HETATM   19  S1  UNL     1      15.576   2.244  21.135  1.00  0.00    -0.106 SA
BRANCH  19  20
HETATM   20  C6  UNL     1      17.020   3.002  20.465  1.00  0.00     0.107 C 
BRANCH  20  21
HETATM   21  C7  UNL     1      17.450   4.296  21.075  1.00  0.00     0.174 C 
BRANCH  21  22
HETATM   22  O3  UNL     1      18.418   4.077  22.084  1.00  0.00    -0.400 OA
ATOM     23  H3  UNL     1      18.574   3.148  22.203  1.00  0.00     0.209 HD
ENDBRANCH  21  22
ENDBRANCH  20  21
ENDBRANCH  19  20
ENDBRANCH   5  19
BRANCH   1  24
HETATM   24  O1  UNL     1      12.388   0.867  17.523  1.00  0.00    -0.342 OA
HETATM   25  C1  UNL     1      11.770  -0.108  16.799  1.00  0.00     0.206 C 
ENDBRANCH   1  24
TORSDOF 8
ENDMDL
MODEL 5
REMARK VINA RESULT: -5.455309229      2.688      3.677
REMARK  8 active torsions:
REMARK  status: ('A' for Active; 'I' for Inactive)
REMARK    1  A    between atoms: O1_2  and  C2_3 
REMARK    2  A    between atoms: C4_6  and  N1_7 
REMARK    3  A    between atoms: N1_7  and  N2_9 
REMARK    4  A    between atoms: N2_9  and  N3_10 
REMARK    5  A    between atoms: C5_13  and  S1_14 
REMARK    6  A    between atoms: S1_14  and  C6_15 
REMARK    7  A    between atoms: C6_15  and  C7_16 
REMARK    8  A    between atoms: C7_16  and  O3_17 
ROOT
HETATM    1  C2  UNL     1      13.436  -1.326  19.622  1.00  0.00     0.330 C 
HETATM    2  C3  UNL     1      12.424  -0.570  18.840  1.00  0.00     0.271 C 
HETATM    3  O2  UNL     1      12.394   0.794  19.256  1.00  0.00    -0.325 OA
HETATM    4  C4  UNL     1      13.570   1.544  19.381  1.00  0.00     0.203 C 
HETATM    5  C5  UNL     1      14.650   0.907  19.774  1.00  0.00     0.125 C 
HETATM    6  N4  UNL     1      14.496  -0.484  20.107  1.00  0.00    -0.315 N 
HETATM    7  C8  UNL     1      15.462  -1.146  20.999  1.00  0.00     0.130 C 
HETATM    8  C9  UNL     1      15.500  -2.607  20.710  1.00  0.00     0.048 C 
HETATM    9  C10 UNL     1      15.116  -3.022  19.342  1.00  0.00     0.240 C 
HETATM   10  N5  UNL     1      14.034  -2.324  18.737  1.00  0.00    -0.021 N 
ATOM     11  H51 UNL     1      14.320  -1.903  17.853  1.00  0.00     0.283 HD
ATOM     12  H52 UNL     1      13.328  -2.974  18.391  1.00  0.00     0.283 HD
ENDROOT
BRANCH   4  13
HETATM   13  N1  UNL     1      13.489   2.906  19.078  1.00  0.00    -0.191 N 
ATOM     14  H1  UNL     1      14.303   3.485  19.283  1.00  0.00     0.206 HD
BRANCH  13  15
HETATM   15  N2  UNL     1      12.505   3.457  18.582  1.00  0.00    -0.241 NA
BRANCH  15  16
HETATM   16  N3  UNL     1      11.388   3.659  18.088  1.00  0.00    -0.260 N 
ATOM     17  H32 UNL     1      11.732   3.770  17.134  1.00  0.00     0.193 HD
ATOM     18  H31 UNL     1      10.383   3.789  17.975  1.00  0.00     0.193 HD
ENDBRANCH  15  16
ENDBRANCH  13  15
ENDBRANCH   4  13
BRANCH   5  19
HETATM   19  S1  UNL     1      16.196   1.677  19.980  1.00  0.00    -0.106 SA
BRANCH  19  20
HETATM   20  C6  UNL     1      16.379   2.925  21.211  1.00  0.00     0.107 C 
BRANCH  20  21
HETATM   21  C7  UNL     1      17.461   3.933  20.998  1.00  0.00     0.174 C 
BRANCH  21  22
HETATM   22  O3  UNL     1      18.306   4.007  22.130  1.00  0.00    -0.400 OA
ATOM     23  H3  UNL     1      18.232   4.856  22.550  1.00  0.00     0.209 HD
ENDBRANCH  21  22
ENDBRANCH  20  21
ENDBRANCH  19  20
ENDBRANCH   5  19
BRANCH   1  24
HETATM   24  O1  UNL     1      12.867  -2.006  20.663  1.00  0.00    -0.342 OA
HETATM   25  C1  UNL     1      11.589  -2.453  20.508  1.00  0.00     0.206 C 
ENDBRANCH   1  24
TORSDOF 8
ENDMDL
