MODEL 1
REMARK VINA RESULT: -8.769335122      0.000      0.000
REMARK  13 active torsions:
REMARK  status: ('A' for Active; 'I' for Inactive)
REMARK    1  A    between atoms: C1_2  and  C2_3 
REMARK       I    between atoms: C1_2  and  N1_25 
REMARK    2  A    between atoms: C2_3  and  C3_4 
REMARK    3  A    between atoms: C3_4  and  C4_5 
REMARK    4  A    between atoms: C5_6  and  O2_7 
REMARK    5  A    between atoms: C7_10  and  O3_11 
REMARK    6  A    between atoms: C8_13  and  C9_14 
REMARK    7  A    between atoms: C10_15  and  C11_16 
REMARK    8  A    between atoms: C11_16  and  O4_17 
REMARK    9  A    between atoms: C11_16  and  C12_19 
REMARK   10  A    between atoms: N1_25  and  C17_27 
REMARK   11  A    between atoms: C17_27  and  C18_28 
REMARK   12  A    between atoms: C18_28  and  N2_29 
REMARK   13  A    between atoms: C22_33  and  O6_34 
ROOT
HETATM    1  C4  UNL     1      30.965  45.447  45.115  1.00  0.00     0.025 C 
HETATM    2  C5  UNL     1      30.513  46.351  44.028  1.00  0.00     0.125 C 
HETATM    3  C6  UNL     1      29.789  47.516  44.610  1.00  0.00     0.064 C 
HETATM    4  C7  UNL     1      30.215  47.548  46.037  1.00  0.00     0.128 C 
HETATM    5  C8  UNL     1      31.127  46.372  46.292  1.00  0.00     0.043 C 
ENDROOT
BRANCH   1   6
HETATM    6  C3  UNL     1      30.103  44.270  45.381  1.00  0.00     0.017 C 
BRANCH   6   7
HETATM    7  C2  UNL     1      30.577  42.980  44.844  1.00  0.00     0.103 C 
BRANCH   7   8
HETATM    8  C1  UNL     1      29.489  42.369  44.004  1.00  0.00     0.217 C 
HETATM    9  O1  UNL     1      29.627  41.161  43.694  1.00  0.00    -0.274 OA
HETATM   10  N1  UNL     1      28.373  43.142  43.598  1.00  0.00    -0.359 N 
ATOM     11  H1  UNL     1      28.303  44.120  43.879  1.00  0.00     0.162 HD
BRANCH  10  12
HETATM   12  C17 UNL     1      27.341  42.553  42.792  1.00  0.00     0.152 C 
BRANCH  12  13
HETATM   13  C18 UNL     1      26.068  43.313  42.895  1.00  0.00     0.292 C 
BRANCH  13  14
HETATM   14  N2  UNL     1      26.307  44.400  43.862  1.00  0.00     0.092 N 
HETATM   15  C19 UNL     1      25.958  45.632  43.169  1.00  0.00     0.272 C 
HETATM   16  C20 UNL     1      26.280  46.848  44.010  1.00  0.00     0.033 C 
HETATM   17  C21 UNL     1      26.260  46.479  45.496  1.00  0.00     0.035 C 
HETATM   18  C22 UNL     1      25.149  45.486  45.693  1.00  0.00     0.146 C 
HETATM   19  C23 UNL     1      25.517  44.191  45.035  1.00  0.00     0.303 C 
BRANCH  18  20
HETATM   20  O6  UNL     1      24.938  45.271  47.060  1.00  0.00    -0.394 OA
ATOM     21  H6  UNL     1      24.470  44.454  47.191  1.00  0.00     0.210 HD
ENDBRANCH  18  20
ENDBRANCH  13  14
ENDBRANCH  12  13
ENDBRANCH  10  12
ENDBRANCH   7   8
ENDBRANCH   6   7
ENDBRANCH   1   6
BRANCH   2  22
HETATM   22  O2  UNL     1      29.791  45.701  43.029  1.00  0.00    -0.395 OA
ATOM     23  H2  UNL     1      30.069  44.804  42.884  1.00  0.00     0.210 HD
ENDBRANCH   2  22
BRANCH   5  24
HETATM   24  C9  UNL     1      32.527  46.875  46.327  1.00  0.00    -0.021 C 
HETATM   25  C10 UNL     1      33.405  46.536  47.239  1.00  0.00     0.003 C 
BRANCH  25  26
HETATM   26  C11 UNL     1      34.802  47.038  47.274  1.00  0.00     0.169 C 
BRANCH  26  27
HETATM   27  O4  UNL     1      34.886  48.109  46.392  1.00  0.00    -0.389 OA
ATOM     28  H4  UNL     1      35.793  48.389  46.366  1.00  0.00     0.210 HD
ENDBRANCH  26  27
BRANCH  26  29
HETATM   29  C12 UNL     1      35.204  47.531  48.633  1.00  0.00     0.153 C 
HETATM   30  C13 UNL     1      36.666  47.928  48.700  1.00  0.00     0.035 C 
HETATM   31  C14 UNL     1      37.025  48.021  50.189  1.00  0.00     0.005 C 
HETATM   32  C15 UNL     1      35.755  48.430  50.929  1.00  0.00     0.026 C 
HETATM   33  C16 UNL     1      34.736  47.332  50.820  1.00  0.00     0.168 C 
HETATM   34  O5  UNL     1      34.908  46.615  49.641  1.00  0.00    -0.383 OA
ENDBRANCH  26  29
ENDBRANCH  25  26
ENDBRANCH   5  24
BRANCH   4  35
HETATM   35  O3  UNL     1      30.873  48.753  46.278  1.00  0.00    -0.395 OA
ATOM     36  H3  UNL     1      31.459  48.637  47.016  1.00  0.00     0.210 HD
ENDBRANCH   4  35
TORSDOF 13
ENDMDL
MODEL 2
REMARK VINA RESULT: -8.757208814      3.036      6.176
REMARK  13 active torsions:
REMARK  status: ('A' for Active; 'I' for Inactive)
REMARK    1  A    between atoms: C1_2  and  C2_3 
REMARK       I    between atoms: C1_2  and  N1_25 
REMARK    2  A    between atoms: C2_3  and  C3_4 
REMARK    3  A    between atoms: C3_4  and  C4_5 
REMARK    4  A    between atoms: C5_6  and  O2_7 
REMARK    5  A    between atoms: C7_10  and  O3_11 
REMARK    6  A    between atoms: C8_13  and  C9_14 
REMARK    7  A    between atoms: C10_15  and  C11_16 
REMARK    8  A    between atoms: C11_16  and  O4_17 
REMARK    9  A    between atoms: C11_16  and  C12_19 
REMARK   10  A    between atoms: N1_25  and  C17_27 
REMARK   11  A    between atoms: C17_27  and  C18_28 
REMARK   12  A    between atoms: C18_28  and  N2_29 
REMARK   13  A    between atoms: C22_33  and  O6_34 
ROOT
HETATM    1  C4  UNL     1      34.777  47.772  48.237  1.00  0.00     0.025 C 
HETATM    2  C5  UNL     1      35.362  48.149  49.549  1.00  0.00     0.125 C 
HETATM    3  C6  UNL     1      36.093  46.987  50.127  1.00  0.00     0.064 C 
HETATM    4  C7  UNL     1      36.342  46.085  48.968  1.00  0.00     0.128 C 
HETATM    5  C8  UNL     1      35.702  46.691  47.743  1.00  0.00     0.043 C 
ENDROOT
BRANCH   1   6
HETATM    6  C3  UNL     1      33.346  47.388  48.252  1.00  0.00     0.017 C 
BRANCH   6   7
HETATM    7  C2  UNL     1      32.880  46.564  47.120  1.00  0.00     0.103 C 
BRANCH   7   8
HETATM    8  C1  UNL     1      31.694  47.232  46.481  1.00  0.00     0.217 C 
HETATM    9  O1  UNL     1      31.773  48.472  46.305  1.00  0.00    -0.274 OA
HETATM   10  N1  UNL     1      30.558  46.475  46.104  1.00  0.00    -0.359 N 
ATOM     11  H1  UNL     1      30.542  45.467  46.263  1.00  0.00     0.162 HD
BRANCH  10  12
HETATM   12  C17 UNL     1      29.428  47.121  45.498  1.00  0.00     0.152 C 
BRANCH  12  13
HETATM   13  C18 UNL     1      28.645  46.177  44.657  1.00  0.00     0.292 C 
BRANCH  13  14
HETATM   14  N2  UNL     1      29.597  45.162  44.173  1.00  0.00     0.092 N 
HETATM   15  C19 UNL     1      29.145  43.896  44.730  1.00  0.00     0.272 C 
HETATM   16  C20 UNL     1      30.113  42.777  44.413  1.00  0.00     0.033 C 
HETATM   17  C21 UNL     1      30.893  43.102  43.136  1.00  0.00     0.035 C 
HETATM   18  C22 UNL     1      29.944  43.797  42.200  1.00  0.00     0.146 C 
HETATM   19  C23 UNL     1      29.614  45.155  42.743  1.00  0.00     0.303 C 
BRANCH  18  20
HETATM   20  O6  UNL     1      30.532  43.931  40.937  1.00  0.00    -0.394 OA
ATOM     21  H6  UNL     1      30.321  44.782  40.570  1.00  0.00     0.210 HD
ENDBRANCH  18  20
ENDBRANCH  13  14
ENDBRANCH  12  13
ENDBRANCH  10  12
ENDBRANCH   7   8
ENDBRANCH   6   7
ENDBRANCH   1   6
BRANCH   2  22
HETATM   22  O2  UNL     1      34.437  48.707  50.430  1.00  0.00    -0.395 OA
ATOM     23  H2  UNL     1      34.698  49.558  50.763  1.00  0.00     0.210 HD
ENDBRANCH   2  22
BRANCH   5  24
HETATM   24  C9  UNL     1      36.777  47.310  46.921  1.00  0.00    -0.021 C 
HETATM   25  C10 UNL     1      36.582  48.297  46.081  1.00  0.00     0.003 C 
BRANCH  25  26
HETATM   26  C11 UNL     1      37.655  48.914  45.261  1.00  0.00     0.169 C 
BRANCH  26  27
HETATM   27  O4  UNL     1      38.431  49.700  46.106  1.00  0.00    -0.389 OA
ATOM     28  H4  UNL     1      39.333  49.627  45.819  1.00  0.00     0.210 HD
ENDBRANCH  26  27
BRANCH  26  29
HETATM   29  C12 UNL     1      38.556  47.895  44.628  1.00  0.00     0.153 C 
HETATM   30  C13 UNL     1      37.796  46.878  43.801  1.00  0.00     0.035 C 
HETATM   31  C14 UNL     1      38.757  45.707  43.557  1.00  0.00     0.005 C 
HETATM   32  C15 UNL     1      40.167  46.285  43.536  1.00  0.00     0.026 C 
HETATM   33  C16 UNL     1      40.510  46.822  44.896  1.00  0.00     0.168 C 
HETATM   34  O5  UNL     1      39.365  47.248  45.560  1.00  0.00    -0.383 OA
ENDBRANCH  26  29
ENDBRANCH  25  26
ENDBRANCH   5  24
BRANCH   4  35
HETATM   35  O3  UNL     1      37.719  45.948  48.798  1.00  0.00    -0.395 OA
ATOM     36  H3  UNL     1      38.031  46.668  48.264  1.00  0.00     0.210 HD
ENDBRANCH   4  35
TORSDOF 13
ENDMDL
MODEL 3
REMARK VINA RESULT: -8.722694243      2.119      3.446
REMARK  13 active torsions:
REMARK  status: ('A' for Active; 'I' for Inactive)
REMARK    1  A    between atoms: C1_2  and  C2_3 
REMARK       I    between atoms: C1_2  and  N1_25 
REMARK    2  A    between atoms: C2_3  and  C3_4 
REMARK    3  A    between atoms: C3_4  and  C4_5 
REMARK    4  A    between atoms: C5_6  and  O2_7 
REMARK    5  A    between atoms: C7_10  and  O3_11 
REMARK    6  A    between atoms: C8_13  and  C9_14 
REMARK    7  A    between atoms: C10_15  and  C11_16 
REMARK    8  A    between atoms: C11_16  and  O4_17 
REMARK    9  A    between atoms: C11_16  and  C12_19 
REMARK   10  A    between atoms: N1_25  and  C17_27 
REMARK   11  A    between atoms: C17_27  and  C18_28 
REMARK   12  A    between atoms: C18_28  and  N2_29 
REMARK   13  A    between atoms: C22_33  and  O6_34 
ROOT
HETATM    1  C4  UNL     1      30.939  45.493  45.082  1.00  0.00     0.025 C 
HETATM    2  C5  UNL     1      30.454  46.422  44.030  1.00  0.00     0.125 C 
HETATM    3  C6  UNL     1      29.790  47.597  44.661  1.00  0.00     0.064 C 
HETATM    4  C7  UNL     1      30.290  47.602  46.064  1.00  0.00     0.128 C 
HETATM    5  C8  UNL     1      31.184  46.401  46.259  1.00  0.00     0.043 C 
ENDROOT
BRANCH   1   6
HETATM    6  C3  UNL     1      30.063  44.335  45.380  1.00  0.00     0.017 C 
BRANCH   6   7
HETATM    7  C2  UNL     1      30.527  43.023  44.890  1.00  0.00     0.103 C 
BRANCH   7   8
HETATM    8  C1  UNL     1      29.628  42.569  43.773  1.00  0.00     0.217 C 
HETATM    9  O1  UNL     1      30.115  41.754  42.953  1.00  0.00    -0.274 OA
HETATM   10  N1  UNL     1      28.301  43.054  43.676  1.00  0.00    -0.359 N 
ATOM     11  H1  UNL     1      27.948  43.714  44.370  1.00  0.00     0.162 HD
BRANCH  10  12
HETATM   12  C17 UNL     1      27.450  42.620  42.604  1.00  0.00     0.152 C 
BRANCH  12  13
HETATM   13  C18 UNL     1      27.057  43.754  41.725  1.00  0.00     0.292 C 
BRANCH  13  14
HETATM   14  N2  UNL     1      27.324  43.321  40.342  1.00  0.00     0.092 N 
HETATM   15  C19 UNL     1      26.392  44.064  39.507  1.00  0.00     0.272 C 
HETATM   16  C20 UNL     1      26.470  43.620  38.062  1.00  0.00     0.033 C 
HETATM   17  C21 UNL     1      27.856  43.039  37.766  1.00  0.00     0.035 C 
HETATM   18  C22 UNL     1      28.855  43.854  38.539  1.00  0.00     0.146 C 
HETATM   19  C23 UNL     1      28.689  43.586  40.004  1.00  0.00     0.303 C 
BRANCH  18  20
HETATM   20  O6  UNL     1      30.155  43.513  38.147  1.00  0.00    -0.394 OA
ATOM     21  H6  UNL     1      30.752  44.222  38.354  1.00  0.00     0.210 HD
ENDBRANCH  18  20
ENDBRANCH  13  14
ENDBRANCH  12  13
ENDBRANCH  10  12
ENDBRANCH   7   8
ENDBRANCH   6   7
ENDBRANCH   1   6
BRANCH   2  22
HETATM   22  O2  UNL     1      29.665  45.801  43.063  1.00  0.00    -0.395 OA
ATOM     23  H2  UNL     1      28.737  45.818  43.264  1.00  0.00     0.210 HD
ENDBRANCH   2  22
BRANCH   5  24
HETATM   24  C9  UNL     1      32.596  46.869  46.227  1.00  0.00    -0.021 C 
HETATM   25  C10 UNL     1      33.450  46.689  47.205  1.00  0.00     0.003 C 
BRANCH  25  26
HETATM   26  C11 UNL     1      34.859  47.156  47.173  1.00  0.00     0.169 C 
BRANCH  26  27
HETATM   27  O4  UNL     1      34.918  48.256  46.325  1.00  0.00    -0.389 OA
ATOM     28  H4  UNL     1      35.834  48.485  46.214  1.00  0.00     0.210 HD
ENDBRANCH  26  27
BRANCH  26  29
HETATM   29  C12 UNL     1      35.354  47.590  48.521  1.00  0.00     0.153 C 
HETATM   30  C13 UNL     1      36.850  47.836  48.542  1.00  0.00     0.035 C 
HETATM   31  C14 UNL     1      37.265  47.875  50.019  1.00  0.00     0.005 C 
HETATM   32  C15 UNL     1      36.069  48.402  50.804  1.00  0.00     0.026 C 
HETATM   33  C16 UNL     1      34.941  47.414  50.721  1.00  0.00     0.168 C 
HETATM   34  O5  UNL     1      35.000  46.697  49.531  1.00  0.00    -0.383 OA
ENDBRANCH  26  29
ENDBRANCH  25  26
ENDBRANCH   5  24
BRANCH   4  35
HETATM   35  O3  UNL     1      30.990  48.787  46.283  1.00  0.00    -0.395 OA
ATOM     36  H3  UNL     1      31.476  48.707  47.095  1.00  0.00     0.210 HD
ENDBRANCH   4  35
TORSDOF 13
ENDMDL
MODEL 4
REMARK VINA RESULT: -8.702801371      2.256      3.324
REMARK  13 active torsions:
REMARK  status: ('A' for Active; 'I' for Inactive)
REMARK    1  A    between atoms: C1_2  and  C2_3 
REMARK       I    between atoms: C1_2  and  N1_25 
REMARK    2  A    between atoms: C2_3  and  C3_4 
REMARK    3  A    between atoms: C3_4  and  C4_5 
REMARK    4  A    between atoms: C5_6  and  O2_7 
REMARK    5  A    between atoms: C7_10  and  O3_11 
REMARK    6  A    between atoms: C8_13  and  C9_14 
REMARK    7  A    between atoms: C10_15  and  C11_16 
REMARK    8  A    between atoms: C11_16  and  O4_17 
REMARK    9  A    between atoms: C11_16  and  C12_19 
REMARK   10  A    between atoms: N1_25  and  C17_27 
REMARK   11  A    between atoms: C17_27  and  C18_28 
REMARK   12  A    between atoms: C18_28  and  N2_29 
REMARK   13  A    between atoms: C22_33  and  O6_34 
ROOT
HETATM    1  C4  UNL     1      30.841  45.511  45.045  1.00  0.00     0.025 C 
HETATM    2  C5  UNL     1      30.356  46.458  44.010  1.00  0.00     0.125 C 
HETATM    3  C6  UNL     1      29.638  47.591  44.659  1.00  0.00     0.064 C 
HETATM    4  C7  UNL     1      30.099  47.565  46.075  1.00  0.00     0.128 C 
HETATM    5  C8  UNL     1      31.025  46.387  46.257  1.00  0.00     0.043 C 
ENDROOT
BRANCH   1   6
HETATM    6  C3  UNL     1      29.995  44.318  45.281  1.00  0.00     0.017 C 
BRANCH   6   7
HETATM    7  C2  UNL     1      30.636  43.008  45.054  1.00  0.00     0.103 C 
BRANCH   7   8
HETATM    8  C1  UNL     1      30.347  42.557  43.649  1.00  0.00     0.217 C 
HETATM    9  O1  UNL     1      30.897  43.203  42.725  1.00  0.00    -0.274 OA
HETATM   10  N1  UNL     1      29.493  41.452  43.409  1.00  0.00    -0.359 N 
ATOM     11  H1  UNL     1      29.072  40.954  44.194  1.00  0.00     0.162 HD
BRANCH  10  12
HETATM   12  C17 UNL     1      29.218  41.030  42.064  1.00  0.00     0.152 C 
BRANCH  12  13
HETATM   13  C18 UNL     1      27.775  41.166  41.734  1.00  0.00     0.292 C 
BRANCH  13  14
HETATM   14  N2  UNL     1      27.697  42.066  40.569  1.00  0.00     0.092 N 
HETATM   15  C19 UNL     1      27.162  43.322  41.072  1.00  0.00     0.272 C 
HETATM   16  C20 UNL     1      26.909  44.304  39.948  1.00  0.00     0.033 C 
HETATM   17  C21 UNL     1      27.828  43.995  38.764  1.00  0.00     0.035 C 
HETATM   18  C22 UNL     1      29.151  43.558  39.329  1.00  0.00     0.146 C 
HETATM   19  C23 UNL     1      28.993  42.219  39.985  1.00  0.00     0.303 C 
BRANCH  18  20
HETATM   20  O6  UNL     1      30.100  43.465  38.304  1.00  0.00    -0.394 OA
ATOM     21  H6  UNL     1      30.959  43.290  38.673  1.00  0.00     0.210 HD
ENDBRANCH  18  20
ENDBRANCH  13  14
ENDBRANCH  12  13
ENDBRANCH  10  12
ENDBRANCH   7   8
ENDBRANCH   6   7
ENDBRANCH   1   6
BRANCH   2  22
HETATM   22  O2  UNL     1      29.613  45.845  43.002  1.00  0.00    -0.395 OA
ATOM     23  H2  UNL     1      30.079  45.780  42.176  1.00  0.00     0.210 HD
ENDBRANCH   2  22
BRANCH   5  24
HETATM   24  C9  UNL     1      32.422  46.900  46.279  1.00  0.00    -0.021 C 
HETATM   25  C10 UNL     1      33.312  46.562  47.180  1.00  0.00     0.003 C 
BRANCH  25  26
HETATM   26  C11 UNL     1      34.706  47.074  47.202  1.00  0.00     0.169 C 
BRANCH  26  27
HETATM   27  O4  UNL     1      34.767  48.166  46.344  1.00  0.00    -0.389 OA
ATOM     28  H4  UNL     1      33.946  48.203  45.868  1.00  0.00     0.210 HD
ENDBRANCH  26  27
BRANCH  26  29
HETATM   29  C12 UNL     1      35.129  47.538  48.565  1.00  0.00     0.153 C 
HETATM   30  C13 UNL     1      36.582  47.968  48.610  1.00  0.00     0.035 C 
HETATM   31  C14 UNL     1      36.974  48.027  50.093  1.00  0.00     0.005 C 
HETATM   32  C15 UNL     1      35.713  48.384  50.872  1.00  0.00     0.026 C 
HETATM   33  C16 UNL     1      34.718  47.266  50.756  1.00  0.00     0.168 C 
HETATM   34  O5  UNL     1      34.878  46.587  49.553  1.00  0.00    -0.383 OA
ENDBRANCH  26  29
ENDBRANCH  25  26
ENDBRANCH   5  24
BRANCH   4  35
HETATM   35  O3  UNL     1      30.754  48.764  46.351  1.00  0.00    -0.395 OA
ATOM     36  H3  UNL     1      30.771  49.290  45.560  1.00  0.00     0.210 HD
ENDBRANCH   4  35
TORSDOF 13
ENDMDL
MODEL 5
REMARK VINA RESULT: -8.687448642      2.731      5.453
REMARK  13 active torsions:
REMARK  status: ('A' for Active; 'I' for Inactive)
REMARK    1  A    between atoms: C1_2  and  C2_3 
REMARK       I    between atoms: C1_2  and  N1_25 
REMARK    2  A    between atoms: C2_3  and  C3_4 
REMARK    3  A    between atoms: C3_4  and  C4_5 
REMARK    4  A    between atoms: C5_6  and  O2_7 
REMARK    5  A    between atoms: C7_10  and  O3_11 
REMARK    6  A    between atoms: C8_13  and  C9_14 
REMARK    7  A    between atoms: C10_15  and  C11_16 
REMARK    8  A    between atoms: C11_16  and  O4_17 
REMARK    9  A    between atoms: C11_16  and  C12_19 
REMARK   10  A    between atoms: N1_25  and  C17_27 
REMARK   11  A    between atoms: C17_27  and  C18_28 
REMARK   12  A    between atoms: C18_28  and  N2_29 
REMARK   13  A    between atoms: C22_33  and  O6_34 
ROOT
HETATM    1  C4  UNL     1      36.176  47.463  45.808  1.00  0.00     0.025 C 
HETATM    2  C5  UNL     1      37.327  47.201  44.907  1.00  0.00     0.125 C 
HETATM    3  C6  UNL     1      37.995  48.485  44.556  1.00  0.00     0.064 C 
HETATM    4  C7  UNL     1      37.544  49.442  45.605  1.00  0.00     0.128 C 
HETATM    5  C8  UNL     1      36.572  48.732  46.516  1.00  0.00     0.043 C 
ENDROOT
BRANCH   1   6
HETATM    6  C3  UNL     1      34.844  47.518  45.161  1.00  0.00     0.017 C 
BRANCH   6   7
HETATM    7  C2  UNL     1      33.699  47.803  46.048  1.00  0.00     0.103 C 
BRANCH   7   8
HETATM    8  C1  UNL     1      32.452  47.221  45.441  1.00  0.00     0.217 C 
HETATM    9  O1  UNL     1      32.381  47.222  44.188  1.00  0.00    -0.274 OA
HETATM   10  N1  UNL     1      31.425  46.702  46.267  1.00  0.00    -0.359 N 
ATOM     11  H1  UNL     1      31.530  46.719  47.282  1.00  0.00     0.162 HD
BRANCH  10  12
HETATM   12  C17 UNL     1      30.235  46.153  45.681  1.00  0.00     0.152 C 
BRANCH  12  13
HETATM   13  C18 UNL     1      30.392  44.704  45.384  1.00  0.00     0.292 C 
BRANCH  13  14
HETATM   14  N2  UNL     1      29.577  44.434  44.185  1.00  0.00     0.092 N 
HETATM   15  C19 UNL     1      28.751  45.616  43.992  1.00  0.00     0.272 C 
HETATM   16  C20 UNL     1      27.766  45.421  42.860  1.00  0.00     0.033 C 
HETATM   17  C21 UNL     1      28.303  44.385  41.868  1.00  0.00     0.035 C 
HETATM   18  C22 UNL     1      29.790  44.587  41.776  1.00  0.00     0.146 C 
HETATM   19  C23 UNL     1      30.429  44.174  43.067  1.00  0.00     0.303 C 
BRANCH  18  20
HETATM   20  O6  UNL     1      30.312  43.817  40.730  1.00  0.00    -0.394 OA
ATOM     21  H6  UNL     1      30.362  44.339  39.937  1.00  0.00     0.210 HD
ENDBRANCH  18  20
ENDBRANCH  13  14
ENDBRANCH  12  13
ENDBRANCH  10  12
ENDBRANCH   7   8
ENDBRANCH   6   7
ENDBRANCH   1   6
BRANCH   2  22
HETATM   22  O2  UNL     1      36.994  46.433  43.792  1.00  0.00    -0.395 OA
ATOM     23  H2  UNL     1      37.748  46.049  43.359  1.00  0.00     0.210 HD
ENDBRANCH   2  22
BRANCH   5  24
HETATM   24  C9  UNL     1      37.290  48.385  47.772  1.00  0.00    -0.021 C 
HETATM   25  C10 UNL     1      36.699  47.946  48.857  1.00  0.00     0.003 C 
BRANCH  25  26
HETATM   26  C11 UNL     1      37.415  47.599  50.111  1.00  0.00     0.169 C 
BRANCH  26  27
HETATM   27  O4  UNL     1      38.613  48.304  50.119  1.00  0.00    -0.389 OA
ATOM     28  H4  UNL     1      38.449  49.154  49.730  1.00  0.00     0.210 HD
ENDBRANCH  26  27
BRANCH  26  29
HETATM   29  C12 UNL     1      36.648  47.987  51.340  1.00  0.00     0.153 C 
HETATM   30  C13 UNL     1      35.147  47.918  51.137  1.00  0.00     0.035 C 
HETATM   31  C14 UNL     1      34.513  48.701  52.295  1.00  0.00     0.005 C 
HETATM   32  C15 UNL     1      35.453  48.569  53.488  1.00  0.00     0.026 C 
HETATM   33  C16 UNL     1      36.750  49.263  53.185  1.00  0.00     0.168 C 
HETATM   34  O5  UNL     1      37.010  49.245  51.819  1.00  0.00    -0.383 OA
ENDBRANCH  26  29
ENDBRANCH  25  26
ENDBRANCH   5  24
BRANCH   4  35
HETATM   35  O3  UNL     1      38.661  49.885  46.312  1.00  0.00    -0.395 OA
ATOM     36  H3  UNL     1      38.958  50.701  45.929  1.00  0.00     0.210 HD
ENDBRANCH   4  35
TORSDOF 13
ENDMDL
