MODEL 1
REMARK VINA RESULT: -9.941228405      0.000      0.000
REMARK  12 active torsions:
REMARK  status: ('A' for Active; 'I' for Inactive)
REMARK    1  A    between atoms: C2_2  and  N1_4 
REMARK    2  A    between atoms: N1_4  and  C4_5 
REMARK    3  A    between atoms: N1_4  and  C6_9 
REMARK    4  A    between atoms: C4_5  and  C5_6 
REMARK    5  A    between atoms: C6_9  and  C7_10 
REMARK    6  A    between atoms: C12_15  and  O2_16 
REMARK    7  A    between atoms: O2_16  and  C13_17 
REMARK    8  A    between atoms: C15_19  and  O3_20 
REMARK    9  A    between atoms: O3_20  and  C16_21 
REMARK   10  A    between atoms: C20_28  and  O4_29 
REMARK   11  A    between atoms: C21_31  and  O5_32 
REMARK   12  A    between atoms: C22_34  and  O6_35 
ROOT
HETATM    1  C13 UNL     1      31.988  47.310  45.016  1.00  0.00     0.156 C 
HETATM    2  C14 UNL     1      31.332  45.953  45.224  1.00  0.00     0.069 C 
HETATM    3  C15 UNL     1      29.983  46.030  44.553  1.00  0.00     0.155 C 
HETATM    4  C20 UNL     1      29.231  47.284  44.752  1.00  0.00     0.178 C 
HETATM    5  C21 UNL     1      29.896  48.444  45.357  1.00  0.00     0.180 C 
HETATM    6  C22 UNL     1      31.251  48.198  45.971  1.00  0.00     0.178 C 
ENDROOT
BRANCH   1   7
HETATM    7  O2  UNL     1      33.355  47.326  45.125  1.00  0.00    -0.373 OA
BRANCH   7   8
HETATM    8  C12 UNL     1      33.787  47.510  46.422  1.00  0.00     0.152 C 
HETATM    9  C7  UNL     1      35.250  47.707  46.605  1.00  0.00    -0.036 C 
HETATM   10  C8  UNL     1      35.909  47.002  47.720  1.00  0.00     0.038 C 
HETATM   11  C9  UNL     1      35.124  46.382  48.805  1.00  0.00     0.004 C 
HETATM   12  C10 UNL     1      33.678  46.764  48.736  1.00  0.00     0.003 C 
HETATM   13  C11 UNL     1      33.259  46.374  47.302  1.00  0.00     0.036 C 
BRANCH   9  14
HETATM   14  C6  UNL     1      36.048  47.630  45.358  1.00  0.00     0.096 C 
BRANCH  14  15
HETATM   15  N1  UNL     1      37.398  47.988  45.298  1.00  0.00    -0.357 N 
BRANCH  15  16
HETATM   16  C2  UNL     1      38.391  47.259  44.693  1.00  0.00     0.080 C 
HETATM   17  C1  UNL     1      38.878  46.077  45.606  1.00  0.00     0.032 C 
HETATM   18  C3  UNL     1      37.968  46.522  43.434  1.00  0.00     0.032 C 
ENDBRANCH  15  16
BRANCH  15  19
HETATM   19  C4  UNL     1      37.553  49.351  45.626  1.00  0.00     0.161 C 
BRANCH  19  20
HETATM   20  C5  UNL     1      38.316  49.797  46.764  1.00  0.00     0.270 C 
HETATM   21  N2  UNL     1      39.249  50.838  46.836  1.00  0.00    -0.057 NA
HETATM   22  O1  UNL     1      38.152  49.169  47.889  1.00  0.00    -0.270 OA
ENDBRANCH  19  20
ENDBRANCH  15  19
ENDBRANCH  14  15
ENDBRANCH   9  14
ENDBRANCH   7   8
ENDBRANCH   1   7
BRANCH   6  23
HETATM   23  O6  UNL     1      31.858  49.365  46.313  1.00  0.00    -0.390 OA
ATOM     24  H6  UNL     1      31.294  50.068  46.614  1.00  0.00     0.210 HD
ENDBRANCH   6  23
BRANCH   3  25
HETATM   25  O3  UNL     1      29.162  44.964  44.857  1.00  0.00    -0.376 OA
BRANCH  25  26
HETATM   26  C16 UNL     1      28.604  44.337  43.768  1.00  0.00     0.149 C 
HETATM   27  C17 UNL     1      29.607  44.171  42.630  1.00  0.00     0.061 C 
HETATM   28  C18 UNL     1      30.491  43.095  43.181  1.00  0.00     0.235 C 
HETATM   29  N3  UNL     1      29.739  42.356  44.175  1.00  0.00    -0.073 N 
HETATM   30  C19 UNL     1      28.379  42.883  44.145  1.00  0.00     0.264 C 
ATOM     31  H32 UNL     1      29.783  41.345  44.044  1.00  0.00     0.277 HD
ATOM     32  H31 UNL     1      30.162  42.383  45.102  1.00  0.00     0.277 HD
ENDBRANCH  25  26
ENDBRANCH   3  25
BRANCH   5  33
HETATM   33  O5  UNL     1      30.054  49.484  44.412  1.00  0.00    -0.390 OA
ATOM     34  H5  UNL     1      30.973  49.634  44.225  1.00  0.00     0.210 HD
ENDBRANCH   5  33
BRANCH   4  35
HETATM   35  O4  UNL     1      28.064  47.019  45.519  1.00  0.00    -0.390 OA
ATOM     36  H4  UNL     1      27.391  47.653  45.300  1.00  0.00     0.210 HD
ENDBRANCH   4  35
TORSDOF 12
ENDMDL
MODEL 2
REMARK VINA RESULT: -9.014320436      1.532      2.426
REMARK  12 active torsions:
REMARK  status: ('A' for Active; 'I' for Inactive)
REMARK    1  A    between atoms: C2_2  and  N1_4 
REMARK    2  A    between atoms: N1_4  and  C4_5 
REMARK    3  A    between atoms: N1_4  and  C6_9 
REMARK    4  A    between atoms: C4_5  and  C5_6 
REMARK    5  A    between atoms: C6_9  and  C7_10 
REMARK    6  A    between atoms: C12_15  and  O2_16 
REMARK    7  A    between atoms: O2_16  and  C13_17 
REMARK    8  A    between atoms: C15_19  and  O3_20 
REMARK    9  A    between atoms: O3_20  and  C16_21 
REMARK   10  A    between atoms: C20_28  and  O4_29 
REMARK   11  A    between atoms: C21_31  and  O5_32 
REMARK   12  A    between atoms: C22_34  and  O6_35 
ROOT
HETATM    1  C13 UNL     1      32.086  47.306  45.074  1.00  0.00     0.156 C 
HETATM    2  C14 UNL     1      31.386  45.973  45.297  1.00  0.00     0.069 C 
HETATM    3  C15 UNL     1      30.052  46.077  44.599  1.00  0.00     0.155 C 
HETATM    4  C20 UNL     1      29.335  47.356  44.759  1.00  0.00     0.178 C 
HETATM    5  C21 UNL     1      30.023  48.508  45.354  1.00  0.00     0.180 C 
HETATM    6  C22 UNL     1      31.358  48.234  45.998  1.00  0.00     0.178 C 
ENDROOT
BRANCH   1   7
HETATM    7  O2  UNL     1      33.450  47.283  45.210  1.00  0.00    -0.373 OA
BRANCH   7   8
HETATM    8  C12 UNL     1      33.864  47.479  46.511  1.00  0.00     0.152 C 
HETATM    9  C7  UNL     1      35.320  47.711  46.709  1.00  0.00    -0.036 C 
HETATM   10  C8  UNL     1      35.983  47.024  47.832  1.00  0.00     0.038 C 
HETATM   11  C9  UNL     1      35.202  46.387  48.910  1.00  0.00     0.004 C 
HETATM   12  C10 UNL     1      33.748  46.734  48.824  1.00  0.00     0.003 C 
HETATM   13  C11 UNL     1      33.353  46.333  47.387  1.00  0.00     0.036 C 
BRANCH   9  14
HETATM   14  C6  UNL     1      36.132  47.652  45.471  1.00  0.00     0.096 C 
BRANCH  14  15
HETATM   15  N1  UNL     1      37.508  47.901  45.454  1.00  0.00    -0.357 N 
BRANCH  15  16
HETATM   16  C2  UNL     1      38.102  49.117  45.685  1.00  0.00     0.080 C 
HETATM   17  C1  UNL     1      37.183  50.305  45.226  1.00  0.00     0.032 C 
HETATM   18  C3  UNL     1      38.328  49.451  47.150  1.00  0.00     0.032 C 
ENDBRANCH  15  16
BRANCH  15  19
HETATM   19  C4  UNL     1      38.222  46.687  45.519  1.00  0.00     0.161 C 
BRANCH  19  20
HETATM   20  C5  UNL     1      38.946  46.148  44.396  1.00  0.00     0.270 C 
HETATM   21  N2  UNL     1      40.331  46.108  44.186  1.00  0.00    -0.057 NA
HETATM   22  O1  UNL     1      38.261  45.630  43.423  1.00  0.00    -0.270 OA
ENDBRANCH  19  20
ENDBRANCH  15  19
ENDBRANCH  14  15
ENDBRANCH   9  14
ENDBRANCH   7   8
ENDBRANCH   1   7
BRANCH   6  23
HETATM   23  O6  UNL     1      31.994  49.390  46.329  1.00  0.00    -0.390 OA
ATOM     24  H6  UNL     1      31.553  49.956  46.951  1.00  0.00     0.210 HD
ENDBRANCH   6  23
BRANCH   3  25
HETATM   25  O3  UNL     1      29.195  45.042  44.909  1.00  0.00    -0.376 OA
BRANCH  25  26
HETATM   26  C16 UNL     1      29.023  44.116  43.907  1.00  0.00     0.149 C 
HETATM   27  C17 UNL     1      27.917  43.116  44.239  1.00  0.00     0.061 C 
HETATM   28  C18 UNL     1      26.699  43.972  44.077  1.00  0.00     0.235 C 
HETATM   29  N3  UNL     1      27.033  45.074  43.198  1.00  0.00    -0.073 N 
HETATM   30  C19 UNL     1      28.392  44.833  42.725  1.00  0.00     0.264 C 
ATOM     31  H32 UNL     1      26.361  45.205  42.442  1.00  0.00     0.277 HD
ATOM     32  H31 UNL     1      26.914  45.988  43.635  1.00  0.00     0.277 HD
ENDBRANCH  25  26
ENDBRANCH   3  25
BRANCH   5  33
HETATM   33  O5  UNL     1      30.230  49.523  44.391  1.00  0.00    -0.390 OA
ATOM     34  H5  UNL     1      29.590  50.218  44.489  1.00  0.00     0.210 HD
ENDBRANCH   5  33
BRANCH   4  35
HETATM   35  O4  UNL     1      28.146  47.142  45.509  1.00  0.00    -0.390 OA
ATOM     36  H4  UNL     1      28.373  46.930  46.407  1.00  0.00     0.210 HD
ENDBRANCH   4  35
TORSDOF 12
ENDMDL
MODEL 3
REMARK VINA RESULT: -8.774195969      5.230      8.239
REMARK  12 active torsions:
REMARK  status: ('A' for Active; 'I' for Inactive)
REMARK    1  A    between atoms: C2_2  and  N1_4 
REMARK    2  A    between atoms: N1_4  and  C4_5 
REMARK    3  A    between atoms: N1_4  and  C6_9 
REMARK    4  A    between atoms: C4_5  and  C5_6 
REMARK    5  A    between atoms: C6_9  and  C7_10 
REMARK    6  A    between atoms: C12_15  and  O2_16 
REMARK    7  A    between atoms: O2_16  and  C13_17 
REMARK    8  A    between atoms: C15_19  and  O3_20 
REMARK    9  A    between atoms: O3_20  and  C16_21 
REMARK   10  A    between atoms: C20_28  and  O4_29 
REMARK   11  A    between atoms: C21_31  and  O5_32 
REMARK   12  A    between atoms: C22_34  and  O6_35 
ROOT
HETATM    1  C13 UNL     1      26.911  45.134  44.776  1.00  0.00     0.156 C 
HETATM    2  C14 UNL     1      26.589  46.247  43.790  1.00  0.00     0.069 C 
HETATM    3  C15 UNL     1      25.189  46.707  44.115  1.00  0.00     0.155 C 
HETATM    4  C20 UNL     1      24.212  45.643  44.418  1.00  0.00     0.178 C 
HETATM    5  C21 UNL     1      24.675  44.265  44.622  1.00  0.00     0.180 C 
HETATM    6  C22 UNL     1      26.110  43.978  44.262  1.00  0.00     0.178 C 
ENDROOT
BRANCH   1   7
HETATM    7  O2  UNL     1      28.246  44.891  44.973  1.00  0.00    -0.373 OA
BRANCH   7   8
HETATM    8  C12 UNL     1      29.039  45.978  44.672  1.00  0.00     0.152 C 
HETATM    9  C7  UNL     1      30.239  45.704  43.837  1.00  0.00    -0.036 C 
HETATM   10  C8  UNL     1      31.508  46.355  44.213  1.00  0.00     0.038 C 
HETATM   11  C9  UNL     1      31.539  47.475  45.173  1.00  0.00     0.004 C 
HETATM   12  C10 UNL     1      30.163  47.974  45.491  1.00  0.00     0.003 C 
HETATM   13  C11 UNL     1      29.410  46.713  45.963  1.00  0.00     0.036 C 
BRANCH   9  14
HETATM   14  C6  UNL     1      30.437  44.278  43.482  1.00  0.00     0.096 C 
BRANCH  14  15
HETATM   15  N1  UNL     1      29.895  43.701  42.330  1.00  0.00    -0.357 N 
BRANCH  15  16
HETATM   16  C2  UNL     1      29.507  44.382  41.203  1.00  0.00     0.080 C 
HETATM   17  C1  UNL     1      29.990  43.657  39.895  1.00  0.00     0.032 C 
HETATM   18  C3  UNL     1      28.005  44.450  40.981  1.00  0.00     0.032 C 
ENDBRANCH  15  16
BRANCH  15  19
HETATM   19  C4  UNL     1      30.121  42.309  42.332  1.00  0.00     0.161 C 
BRANCH  19  20
HETATM   20  C5  UNL     1      29.169  41.366  42.863  1.00  0.00     0.270 C 
HETATM   21  N2  UNL     1      27.838  41.159  42.480  1.00  0.00    -0.057 NA
HETATM   22  O1  UNL     1      29.555  40.593  43.832  1.00  0.00    -0.270 OA
ENDBRANCH  19  20
ENDBRANCH  15  19
ENDBRANCH  14  15
ENDBRANCH   9  14
ENDBRANCH   7   8
ENDBRANCH   1   7
BRANCH   6  23
HETATM   23  O6  UNL     1      26.486  42.740  44.680  1.00  0.00    -0.390 OA
ATOM     24  H6  UNL     1      25.975  42.352  45.381  1.00  0.00     0.210 HD
ENDBRANCH   6  23
BRANCH   3  25
HETATM   25  O3  UNL     1      24.656  47.545  43.159  1.00  0.00    -0.376 OA
BRANCH  25  26
HETATM   26  C16 UNL     1      24.627  48.874  43.509  1.00  0.00     0.149 C 
HETATM   27  C17 UNL     1      23.956  49.731  42.437  1.00  0.00     0.061 C 
HETATM   28  C18 UNL     1      22.522  49.338  42.611  1.00  0.00     0.235 C 
HETATM   29  N3  UNL     1      22.352  48.831  43.958  1.00  0.00    -0.073 N 
HETATM   30  C19 UNL     1      23.626  49.027  44.641  1.00  0.00     0.264 C 
ATOM     31  H32 UNL     1      21.562  49.250  44.450  1.00  0.00     0.277 HD
ATOM     32  H31 UNL     1      22.023  47.866  43.987  1.00  0.00     0.277 HD
ENDBRANCH  25  26
ENDBRANCH   3  25
BRANCH   5  33
HETATM   33  O5  UNL     1      24.501  43.871  45.969  1.00  0.00    -0.390 OA
ATOM     34  H5  UNL     1      25.176  43.257  46.232  1.00  0.00     0.210 HD
ENDBRANCH   5  33
BRANCH   4  35
HETATM   35  O4  UNL     1      23.221  45.608  43.399  1.00  0.00    -0.390 OA
ATOM     36  H4  UNL     1      23.499  45.019  42.707  1.00  0.00     0.210 HD
ENDBRANCH   4  35
TORSDOF 12
ENDMDL
MODEL 4
REMARK VINA RESULT: -8.694911212      2.843      8.544
REMARK  12 active torsions:
REMARK  status: ('A' for Active; 'I' for Inactive)
REMARK    1  A    between atoms: C2_2  and  N1_4 
REMARK    2  A    between atoms: N1_4  and  C4_5 
REMARK    3  A    between atoms: N1_4  and  C6_9 
REMARK    4  A    between atoms: C4_5  and  C5_6 
REMARK    5  A    between atoms: C6_9  and  C7_10 
REMARK    6  A    between atoms: C12_15  and  O2_16 
REMARK    7  A    between atoms: O2_16  and  C13_17 
REMARK    8  A    between atoms: C15_19  and  O3_20 
REMARK    9  A    between atoms: O3_20  and  C16_21 
REMARK   10  A    between atoms: C20_28  and  O4_29 
REMARK   11  A    between atoms: C21_31  and  O5_32 
REMARK   12  A    between atoms: C22_34  and  O6_35 
ROOT
HETATM    1  C13 UNL     1      30.591  46.420  44.365  1.00  0.00     0.156 C 
HETATM    2  C14 UNL     1      32.045  46.844  44.509  1.00  0.00     0.069 C 
HETATM    3  C15 UNL     1      32.261  47.120  45.976  1.00  0.00     0.155 C 
HETATM    4  C20 UNL     1      31.178  47.848  46.665  1.00  0.00     0.178 C 
HETATM    5  C21 UNL     1      29.891  48.049  45.989  1.00  0.00     0.180 C 
HETATM    6  C22 UNL     1      29.841  47.708  44.521  1.00  0.00     0.178 C 
ENDROOT
BRANCH   1   7
HETATM    7  O2  UNL     1      30.298  45.696  43.238  1.00  0.00    -0.373 OA
BRANCH   7   8
HETATM    8  C12 UNL     1      30.552  44.349  43.386  1.00  0.00     0.152 C 
HETATM    9  C7  UNL     1      30.216  43.486  42.221  1.00  0.00    -0.036 C 
HETATM   10  C8  UNL     1      29.544  42.200  42.483  1.00  0.00     0.038 C 
HETATM   11  C9  UNL     1      29.485  41.630  43.843  1.00  0.00     0.004 C 
HETATM   12  C10 UNL     1      30.361  42.378  44.800  1.00  0.00     0.003 C 
HETATM   13  C11 UNL     1      29.889  43.841  44.669  1.00  0.00     0.036 C 
BRANCH   9  14
HETATM   14  C6  UNL     1      29.608  44.201  41.074  1.00  0.00     0.096 C 
BRANCH  14  15
HETATM   15  N1  UNL     1      28.316  43.932  40.612  1.00  0.00    -0.357 N 
BRANCH  15  16
HETATM   16  C2  UNL     1      27.198  44.678  40.889  1.00  0.00     0.080 C 
HETATM   17  C1  UNL     1      25.882  43.913  40.502  1.00  0.00     0.032 C 
HETATM   18  C3  UNL     1      26.966  44.961  42.364  1.00  0.00     0.032 C 
ENDBRANCH  15  16
BRANCH  15  19
HETATM   19  C4  UNL     1      28.364  43.009  39.547  1.00  0.00     0.161 C 
BRANCH  19  20
HETATM   20  C5  UNL     1      28.830  43.361  38.230  1.00  0.00     0.270 C 
HETATM   21  N2  UNL     1      28.205  44.166  37.269  1.00  0.00    -0.057 NA
HETATM   22  O1  UNL     1      29.971  42.882  37.841  1.00  0.00    -0.270 OA
ENDBRANCH  19  20
ENDBRANCH  15  19
ENDBRANCH  14  15
ENDBRANCH   9  14
ENDBRANCH   7   8
ENDBRANCH   1   7
BRANCH   6  23
HETATM   23  O6  UNL     1      28.566  47.733  44.051  1.00  0.00    -0.390 OA
ATOM     24  H6  UNL     1      28.230  46.924  43.684  1.00  0.00     0.210 HD
ENDBRANCH   6  23
BRANCH   3  25
HETATM   25  O3  UNL     1      33.460  47.747  46.242  1.00  0.00    -0.376 OA
BRANCH  25  26
HETATM   26  C16 UNL     1      34.475  46.907  46.637  1.00  0.00     0.149 C 
HETATM   27  C17 UNL     1      35.681  47.681  47.165  1.00  0.00     0.061 C 
HETATM   28  C18 UNL     1      35.157  48.166  48.481  1.00  0.00     0.235 C 
HETATM   29  N3  UNL     1      34.078  47.289  48.890  1.00  0.00    -0.073 N 
HETATM   30  C19 UNL     1      34.023  46.211  47.909  1.00  0.00     0.264 C 
ATOM     31  H32 UNL     1      34.170  46.957  49.850  1.00  0.00     0.277 HD
ATOM     32  H31 UNL     1      33.188  47.773  49.007  1.00  0.00     0.277 HD
ENDBRANCH  25  26
ENDBRANCH   3  25
BRANCH   5  33
HETATM   33  O5  UNL     1      28.869  47.301  46.621  1.00  0.00    -0.390 OA
ATOM     34  H5  UNL     1      28.225  47.007  45.988  1.00  0.00     0.210 HD
ENDBRANCH   5  33
BRANCH   4  35
HETATM   35  O4  UNL     1      31.648  49.129  47.064  1.00  0.00    -0.390 OA
ATOM     36  H4  UNL     1      31.048  49.797  46.754  1.00  0.00     0.210 HD
ENDBRANCH   4  35
TORSDOF 12
ENDMDL
MODEL 5
REMARK VINA RESULT: -8.579218154      5.010      7.636
REMARK  12 active torsions:
REMARK  status: ('A' for Active; 'I' for Inactive)
REMARK    1  A    between atoms: C2_2  and  N1_4 
REMARK    2  A    between atoms: N1_4  and  C4_5 
REMARK    3  A    between atoms: N1_4  and  C6_9 
REMARK    4  A    between atoms: C4_5  and  C5_6 
REMARK    5  A    between atoms: C6_9  and  C7_10 
REMARK    6  A    between atoms: C12_15  and  O2_16 
REMARK    7  A    between atoms: O2_16  and  C13_17 
REMARK    8  A    between atoms: C15_19  and  O3_20 
REMARK    9  A    between atoms: O3_20  and  C16_21 
REMARK   10  A    between atoms: C20_28  and  O4_29 
REMARK   11  A    between atoms: C21_31  and  O5_32 
REMARK   12  A    between atoms: C22_34  and  O6_35 
ROOT
HETATM    1  C13 UNL     1      26.715  46.249  45.256  1.00  0.00     0.156 C 
HETATM    2  C14 UNL     1      26.369  45.521  43.966  1.00  0.00     0.069 C 
HETATM    3  C15 UNL     1      25.464  46.445  43.190  1.00  0.00     0.155 C 
HETATM    4  C20 UNL     1      24.431  47.150  43.973  1.00  0.00     0.178 C 
HETATM    5  C21 UNL     1      24.480  47.116  45.439  1.00  0.00     0.180 C 
HETATM    6  C22 UNL     1      25.454  46.146  46.058  1.00  0.00     0.178 C 
ENDROOT
BRANCH   1   7
HETATM    7  O2  UNL     1      27.855  45.821  45.886  1.00  0.00    -0.373 OA
BRANCH   7   8
HETATM    8  C12 UNL     1      28.981  46.506  45.480  1.00  0.00     0.152 C 
HETATM    9  C7  UNL     1      30.071  45.684  44.888  1.00  0.00    -0.036 C 
HETATM   10  C8  UNL     1      31.458  45.980  45.292  1.00  0.00     0.038 C 
HETATM   11  C9  UNL     1      31.800  47.231  45.998  1.00  0.00     0.004 C 
HETATM   12  C10 UNL     1      30.651  48.191  46.019  1.00  0.00     0.003 C 
HETATM   13  C11 UNL     1      29.495  47.374  46.632  1.00  0.00     0.036 C 
BRANCH   9  14
HETATM   14  C6  UNL     1      29.806  44.226  44.862  1.00  0.00     0.096 C 
BRANCH  14  15
HETATM   15  N1  UNL     1      29.645  43.506  43.675  1.00  0.00    -0.357 N 
BRANCH  15  16
HETATM   16  C2  UNL     1      30.270  43.780  42.484  1.00  0.00     0.080 C 
HETATM   17  C1  UNL     1      30.719  42.465  41.751  1.00  0.00     0.032 C 
HETATM   18  C3  UNL     1      29.388  44.433  41.433  1.00  0.00     0.032 C 
ENDBRANCH  15  16
BRANCH  15  19
HETATM   19  C4  UNL     1      29.036  42.262  43.941  1.00  0.00     0.161 C 
BRANCH  19  20
HETATM   20  C5  UNL     1      27.655  41.988  43.635  1.00  0.00     0.270 C 
HETATM   21  N2  UNL     1      26.554  41.978  44.501  1.00  0.00    -0.057 NA
HETATM   22  O1  UNL     1      27.351  41.698  42.407  1.00  0.00    -0.270 OA
ENDBRANCH  19  20
ENDBRANCH  15  19
ENDBRANCH  14  15
ENDBRANCH   9  14
ENDBRANCH   7   8
ENDBRANCH   1   7
BRANCH   6  23
HETATM   23  O6  UNL     1      25.564  46.342  47.399  1.00  0.00    -0.390 OA
ATOM     24  H6  UNL     1      24.765  46.270  47.908  1.00  0.00     0.210 HD
ENDBRANCH   6  23
BRANCH   3  25
HETATM   25  O3  UNL     1      24.866  45.837  42.106  1.00  0.00    -0.376 OA
BRANCH  25  26
HETATM   26  C16 UNL     1      25.345  44.583  41.810  1.00  0.00     0.149 C 
HETATM   27  C17 UNL     1      24.224  43.550  41.725  1.00  0.00     0.061 C 
HETATM   28  C18 UNL     1      23.572  43.940  40.434  1.00  0.00     0.235 C 
HETATM   29  N3  UNL     1      24.544  44.658  39.635  1.00  0.00    -0.073 N 
HETATM   30  C19 UNL     1      25.807  44.600  40.363  1.00  0.00     0.264 C 
ATOM     31  H32 UNL     1      24.614  44.311  38.678  1.00  0.00     0.277 HD
ATOM     32  H31 UNL     1      24.254  45.608  39.405  1.00  0.00     0.277 HD
ENDBRANCH  25  26
ENDBRANCH   3  25
BRANCH   5  33
HETATM   33  O5  UNL     1      24.784  48.395  45.963  1.00  0.00    -0.390 OA
ATOM     34  H5  UNL     1      24.150  48.650  46.621  1.00  0.00     0.210 HD
ENDBRANCH   5  33
BRANCH   4  35
HETATM   35  O4  UNL     1      23.144  46.688  43.584  1.00  0.00    -0.390 OA
ATOM     36  H4  UNL     1      22.478  47.244  43.971  1.00  0.00     0.210 HD
ENDBRANCH   4  35
TORSDOF 12
ENDMDL
