MODEL 1
REMARK VINA RESULT: -7.126877660      0.000      0.000
REMARK  14 active torsions:
REMARK  status: ('A' for Active; 'I' for Inactive)
REMARK    1  A    between atoms: N1_2  and  C2_5 
REMARK    2  A    between atoms: C2_5  and  C3_6 
REMARK    3  A    between atoms: C3_6  and  C4_7 
REMARK    4  A    between atoms: C4_7  and  O1_8 
REMARK    5  A    between atoms: O1_8  and  C5_9 
REMARK    6  A    between atoms: C5_9  and  C6_10 
REMARK    7  A    between atoms: C6_10  and  O2_11 
REMARK    8  A    between atoms: C6_10  and  C7_13 
REMARK    9  A    between atoms: C7_13  and  O3_14 
REMARK   10  A    between atoms: C7_13  and  C8_16 
REMARK   11  A    between atoms: C8_16  and  N2_17 
REMARK   12  A    between atoms: C17_26  and  O4_27 
REMARK   13  A    between atoms: C22_33  and  O5_34 
REMARK   14  A    between atoms: C23_36  and  O6_37 
ROOT
HETATM    1  N2  UNL     1      29.801  46.291  44.797  1.00  0.00     0.123 N 
HETATM    2  C9  UNL     1      28.819  45.271  45.208  1.00  0.00     0.288 C 
HETATM    3  C10 UNL     1      29.071  44.115  44.339  1.00  0.00     0.019 C 
HETATM    4  C11 UNL     1      30.116  43.264  44.888  1.00  0.00     0.020 C 
HETATM    5  C12 UNL     1      27.896  43.292  43.912  1.00  0.00     0.020 C 
HETATM    6  C13 UNL     1      27.986  43.248  42.423  1.00  0.00     0.008 C 
HETATM    7  C14 UNL     1      27.599  42.021  41.731  1.00  0.00    -0.017 C 
HETATM    8  C15 UNL     1      26.057  41.947  41.803  1.00  0.00     0.018 C 
HETATM    9  C16 UNL     1      28.079  40.729  42.288  1.00  0.00     0.018 C 
HETATM   10  C17 UNL     1      27.901  42.193  40.250  1.00  0.00     0.126 C 
HETATM   11  C18 UNL     1      28.118  43.604  39.833  1.00  0.00     0.033 C 
HETATM   12  C19 UNL     1      29.089  44.408  40.611  1.00  0.00     0.015 C 
HETATM   13  C20 UNL     1      29.318  43.889  42.034  1.00  0.00    -0.003 C 
HETATM   14  C21 UNL     1      30.469  42.956  41.933  1.00  0.00     0.019 C 
HETATM   15  C22 UNL     1      29.327  44.892  43.066  1.00  0.00     0.128 C 
HETATM   16  C23 UNL     1      30.291  45.839  43.465  1.00  0.00     0.393 C 
ENDROOT
BRANCH   1  17
HETATM   17  C8  UNL     1      30.863  46.390  45.729  1.00  0.00     0.310 C 
BRANCH  17  18
HETATM   18  C7  UNL     1      31.194  47.775  46.229  1.00  0.00     0.177 C 
BRANCH  18  19
HETATM   19  C6  UNL     1      32.686  48.030  46.346  1.00  0.00     0.172 C 
BRANCH  19  20
HETATM   20  C5  UNL     1      33.216  47.571  47.647  1.00  0.00     0.201 C 
BRANCH  20  21
HETATM   21  O1  UNL     1      34.030  46.474  47.502  1.00  0.00    -0.388 OA
BRANCH  21  22
HETATM   22  C4  UNL     1      35.003  46.437  48.455  1.00  0.00     0.169 C 
BRANCH  22  23
HETATM   23  C3  UNL     1      35.938  47.641  48.354  1.00  0.00     0.054 C 
BRANCH  23  24
HETATM   24  C2  UNL     1      36.934  47.294  47.252  1.00  0.00     0.234 C 
BRANCH  24  25
HETATM   25  N1  UNL     1      36.377  47.704  45.983  1.00  0.00    -0.079 N 
HETATM   26  C1  UNL     1      36.930  48.948  45.534  1.00  0.00     0.266 C 
ATOM     27  H12 UNL     1      35.359  47.743  46.021  1.00  0.00     0.276 HD
ATOM     28  H11 UNL     1      36.483  46.974  45.278  1.00  0.00     0.276 HD
ENDBRANCH  24  25
ENDBRANCH  23  24
ENDBRANCH  22  23
ENDBRANCH  21  22
ENDBRANCH  20  21
ENDBRANCH  19  20
BRANCH  19  29
HETATM   29  O2  UNL     1      33.356  47.462  45.237  1.00  0.00    -0.391 OA
ATOM     30  H2  UNL     1      32.853  47.505  44.432  1.00  0.00     0.210 HD
ENDBRANCH  19  29
ENDBRANCH  18  19
BRANCH  18  31
HETATM   31  O3  UNL     1      30.778  48.705  45.200  1.00  0.00    -0.391 OA
ATOM     32  H3  UNL     1      30.304  48.155  44.587  1.00  0.00     0.210 HD
ENDBRANCH  18  31
ENDBRANCH  17  18
ENDBRANCH   1  17
BRANCH  16  33
HETATM   33  O6  UNL     1      31.624  45.522  43.505  1.00  0.00    -0.365 OA
ATOM     34  H6  UNL     1      32.123  46.047  42.892  1.00  0.00     0.212 HD
ENDBRANCH  16  33
BRANCH  15  35
HETATM   35  O5  UNL     1      28.111  45.633  42.894  1.00  0.00    -0.384 OA
ATOM     36  H5  UNL     1      27.585  45.056  42.353  1.00  0.00     0.210 HD
ENDBRANCH  15  35
BRANCH  10  37
HETATM   37  O4  UNL     1      26.819  41.711  39.470  1.00  0.00    -0.395 OA
ATOM     38  H4  UNL     1      26.333  41.053  39.952  1.00  0.00     0.210 HD
ENDBRANCH  10  37
TORSDOF 14
ENDMDL
MODEL 2
REMARK VINA RESULT: -7.084915708      1.844      3.120
REMARK  14 active torsions:
REMARK  status: ('A' for Active; 'I' for Inactive)
REMARK    1  A    between atoms: N1_2  and  C2_5 
REMARK    2  A    between atoms: C2_5  and  C3_6 
REMARK    3  A    between atoms: C3_6  and  C4_7 
REMARK    4  A    between atoms: C4_7  and  O1_8 
REMARK    5  A    between atoms: O1_8  and  C5_9 
REMARK    6  A    between atoms: C5_9  and  C6_10 
REMARK    7  A    between atoms: C6_10  and  O2_11 
REMARK    8  A    between atoms: C6_10  and  C7_13 
REMARK    9  A    between atoms: C7_13  and  O3_14 
REMARK   10  A    between atoms: C7_13  and  C8_16 
REMARK   11  A    between atoms: C8_16  and  N2_17 
REMARK   12  A    between atoms: C17_26  and  O4_27 
REMARK   13  A    between atoms: C22_33  and  O5_34 
REMARK   14  A    between atoms: C23_36  and  O6_37 
ROOT
HETATM    1  N2  UNL     1      30.289  45.155  44.422  1.00  0.00     0.123 N 
HETATM    2  C9  UNL     1      30.662  45.025  43.000  1.00  0.00     0.288 C 
HETATM    3  C10 UNL     1      29.650  44.139  42.412  1.00  0.00     0.019 C 
HETATM    4  C11 UNL     1      28.478  44.889  41.987  1.00  0.00     0.020 C 
HETATM    5  C12 UNL     1      30.087  43.197  41.333  1.00  0.00     0.020 C 
HETATM    6  C13 UNL     1      29.641  41.852  41.802  1.00  0.00     0.008 C 
HETATM    7  C14 UNL     1      29.159  40.888  40.815  1.00  0.00    -0.017 C 
HETATM    8  C15 UNL     1      30.404  40.389  40.048  1.00  0.00     0.018 C 
HETATM    9  C16 UNL     1      28.223  41.375  39.768  1.00  0.00     0.018 C 
HETATM   10  C17 UNL     1      28.653  39.660  41.556  1.00  0.00     0.126 C 
HETATM   11  C18 UNL     1      29.110  39.570  42.969  1.00  0.00     0.033 C 
HETATM   12  C19 UNL     1      28.913  40.758  43.832  1.00  0.00     0.015 C 
HETATM   13  C20 UNL     1      28.788  42.071  43.052  1.00  0.00    -0.003 C 
HETATM   14  C21 UNL     1      27.334  42.250  42.809  1.00  0.00     0.019 C 
HETATM   15  C22 UNL     1      29.545  43.177  43.576  1.00  0.00     0.128 C 
HETATM   16  C23 UNL     1      29.338  44.036  44.674  1.00  0.00     0.393 C 
ENDROOT
BRANCH   1  17
HETATM   17  C8  UNL     1      29.686  46.411  44.683  1.00  0.00     0.310 C 
BRANCH  17  18
HETATM   18  C7  UNL     1      29.912  46.993  46.057  1.00  0.00     0.177 C 
BRANCH  18  19
HETATM   19  C6  UNL     1      30.519  48.384  46.026  1.00  0.00     0.172 C 
BRANCH  19  20
HETATM   20  C5  UNL     1      31.995  48.333  45.965  1.00  0.00     0.201 C 
BRANCH  20  21
HETATM   21  O1  UNL     1      32.527  47.774  47.101  1.00  0.00    -0.388 OA
BRANCH  21  22
HETATM   22  C4  UNL     1      33.520  46.887  46.809  1.00  0.00     0.169 C 
BRANCH  22  23
HETATM   23  C3  UNL     1      34.806  47.596  46.392  1.00  0.00     0.054 C 
BRANCH  23  24
HETATM   24  C2  UNL     1      35.665  47.661  47.652  1.00  0.00     0.234 C 
BRANCH  24  25
HETATM   25  N1  UNL     1      34.791  47.766  48.798  1.00  0.00    -0.079 N 
HETATM   26  C1  UNL     1      35.493  48.207  49.967  1.00  0.00     0.266 C 
ATOM     27  H12 UNL     1      34.299  46.889  48.970  1.00  0.00     0.276 HD
ATOM     28  H11 UNL     1      33.989  48.363  48.599  1.00  0.00     0.276 HD
ENDBRANCH  24  25
ENDBRANCH  23  24
ENDBRANCH  22  23
ENDBRANCH  21  22
ENDBRANCH  20  21
ENDBRANCH  19  20
BRANCH  19  29
HETATM   29  O2  UNL     1      29.940  49.134  44.976  1.00  0.00    -0.391 OA
ATOM     30  H2  UNL     1      29.025  49.342  45.123  1.00  0.00     0.210 HD
ENDBRANCH  19  29
ENDBRANCH  18  19
BRANCH  18  31
HETATM   31  O3  UNL     1      28.606  47.212  46.643  1.00  0.00    -0.391 OA
ATOM     32  H3  UNL     1      28.175  47.775  46.010  1.00  0.00     0.210 HD
ENDBRANCH  18  31
ENDBRANCH  17  18
ENDBRANCH   1  17
BRANCH  16  33
HETATM   33  O6  UNL     1      28.088  44.504  44.985  1.00  0.00    -0.365 OA
ATOM     34  H6  UNL     1      27.758  44.105  45.781  1.00  0.00     0.212 HD
ENDBRANCH  16  33
BRANCH  15  35
HETATM   35  O5  UNL     1      30.889  42.695  43.715  1.00  0.00    -0.384 OA
ATOM     36  H5  UNL     1      31.186  43.122  44.510  1.00  0.00     0.210 HD
ENDBRANCH  15  35
BRANCH  10  37
HETATM   37  O4  UNL     1      29.108  38.479  40.917  1.00  0.00    -0.395 OA
ATOM     38  H4  UNL     1      28.421  37.823  40.910  1.00  0.00     0.210 HD
ENDBRANCH  10  37
TORSDOF 14
ENDMDL
MODEL 3
REMARK VINA RESULT: -7.064732835      1.173      1.363
REMARK  14 active torsions:
REMARK  status: ('A' for Active; 'I' for Inactive)
REMARK    1  A    between atoms: N1_2  and  C2_5 
REMARK    2  A    between atoms: C2_5  and  C3_6 
REMARK    3  A    between atoms: C3_6  and  C4_7 
REMARK    4  A    between atoms: C4_7  and  O1_8 
REMARK    5  A    between atoms: O1_8  and  C5_9 
REMARK    6  A    between atoms: C5_9  and  C6_10 
REMARK    7  A    between atoms: C6_10  and  O2_11 
REMARK    8  A    between atoms: C6_10  and  C7_13 
REMARK    9  A    between atoms: C7_13  and  O3_14 
REMARK   10  A    between atoms: C7_13  and  C8_16 
REMARK   11  A    between atoms: C8_16  and  N2_17 
REMARK   12  A    between atoms: C17_26  and  O4_27 
REMARK   13  A    between atoms: C22_33  and  O5_34 
REMARK   14  A    between atoms: C23_36  and  O6_37 
ROOT
HETATM    1  N2  UNL     1      29.234  45.700  44.503  1.00  0.00     0.123 N 
HETATM    2  C9  UNL     1      28.412  44.499  44.748  1.00  0.00     0.288 C 
HETATM    3  C10 UNL     1      28.973  43.460  43.876  1.00  0.00     0.019 C 
HETATM    4  C11 UNL     1      30.083  42.776  44.522  1.00  0.00     0.020 C 
HETATM    5  C12 UNL     1      28.027  42.468  43.273  1.00  0.00     0.020 C 
HETATM    6  C13 UNL     1      28.300  42.530  41.807  1.00  0.00     0.008 C 
HETATM    7  C14 UNL     1      28.228  41.296  41.026  1.00  0.00    -0.017 C 
HETATM    8  C15 UNL     1      26.728  40.946  40.900  1.00  0.00     0.018 C 
HETATM    9  C16 UNL     1      28.867  40.079  41.591  1.00  0.00     0.018 C 
HETATM   10  C17 UNL     1      28.667  41.606  39.603  1.00  0.00     0.126 C 
HETATM   11  C18 UNL     1      28.670  43.056  39.270  1.00  0.00     0.033 C 
HETATM   12  C19 UNL     1      29.379  43.972  40.194  1.00  0.00     0.015 C 
HETATM   13  C20 UNL     1      29.528  43.418  41.614  1.00  0.00    -0.003 C 
HETATM   14  C21 UNL     1      30.834  42.711  41.627  1.00  0.00     0.019 C 
HETATM   15  C22 UNL     1      29.231  44.344  42.676  1.00  0.00     0.128 C 
HETATM   16  C23 UNL     1      29.952  45.421  43.228  1.00  0.00     0.393 C 
ENDROOT
BRANCH   1  17
HETATM   17  C8  UNL     1      30.142  45.929  45.566  1.00  0.00     0.310 C 
BRANCH  17  18
HETATM   18  C7  UNL     1      30.046  47.268  46.256  1.00  0.00     0.177 C 
BRANCH  18  19
HETATM   19  C6  UNL     1      31.399  47.873  46.582  1.00  0.00     0.172 C 
BRANCH  19  20
HETATM   20  C5  UNL     1      32.499  46.925  46.305  1.00  0.00     0.201 C 
BRANCH  20  21
HETATM   21  O1  UNL     1      33.573  47.555  45.724  1.00  0.00    -0.388 OA
BRANCH  21  22
HETATM   22  C4  UNL     1      34.663  47.552  46.541  1.00  0.00     0.169 C 
BRANCH  22  23
HETATM   23  C3  UNL     1      35.932  47.952  45.790  1.00  0.00     0.054 C 
BRANCH  23  24
HETATM   24  C2  UNL     1      37.046  47.935  46.833  1.00  0.00     0.234 C 
BRANCH  24  25
HETATM   25  N1  UNL     1      38.162  47.187  46.300  1.00  0.00    -0.079 N 
HETATM   26  C1  UNL     1      38.496  47.600  44.970  1.00  0.00     0.266 C 
ATOM     27  H12 UNL     1      37.989  46.182  46.344  1.00  0.00     0.276 HD
ATOM     28  H11 UNL     1      38.971  47.237  46.919  1.00  0.00     0.276 HD
ENDBRANCH  24  25
ENDBRANCH  23  24
ENDBRANCH  22  23
ENDBRANCH  21  22
ENDBRANCH  20  21
ENDBRANCH  19  20
BRANCH  19  29
HETATM   29  O2  UNL     1      31.544  49.110  45.911  1.00  0.00    -0.391 OA
ATOM     30  H2  UNL     1      31.347  49.860  46.460  1.00  0.00     0.210 HD
ENDBRANCH  19  29
ENDBRANCH  18  19
BRANCH  18  31
HETATM   31  O3  UNL     1      29.488  48.199  45.296  1.00  0.00    -0.391 OA
ATOM     32  H3  UNL     1      28.988  47.638  44.714  1.00  0.00     0.210 HD
ENDBRANCH  18  31
ENDBRANCH  17  18
ENDBRANCH   1  17
BRANCH  16  33
HETATM   33  O6  UNL     1      31.306  45.343  43.426  1.00  0.00    -0.365 OA
ATOM     34  H6  UNL     1      31.781  45.445  42.610  1.00  0.00     0.212 HD
ENDBRANCH  16  33
BRANCH  15  35
HETATM   35  O5  UNL     1      27.929  44.867  42.378  1.00  0.00    -0.384 OA
ATOM     36  H5  UNL     1      27.348  44.196  42.716  1.00  0.00     0.210 HD
ENDBRANCH  15  35
BRANCH  10  37
HETATM   37  O4  UNL     1      27.791  40.988  38.675  1.00  0.00    -0.395 OA
ATOM     38  H4  UNL     1      27.225  41.638  38.275  1.00  0.00     0.210 HD
ENDBRANCH  10  37
TORSDOF 14
ENDMDL
MODEL 4
REMARK VINA RESULT: -7.062479219      1.699      2.078
REMARK  14 active torsions:
REMARK  status: ('A' for Active; 'I' for Inactive)
REMARK    1  A    between atoms: N1_2  and  C2_5 
REMARK    2  A    between atoms: C2_5  and  C3_6 
REMARK    3  A    between atoms: C3_6  and  C4_7 
REMARK    4  A    between atoms: C4_7  and  O1_8 
REMARK    5  A    between atoms: O1_8  and  C5_9 
REMARK    6  A    between atoms: C5_9  and  C6_10 
REMARK    7  A    between atoms: C6_10  and  O2_11 
REMARK    8  A    between atoms: C6_10  and  C7_13 
REMARK    9  A    between atoms: C7_13  and  O3_14 
REMARK   10  A    between atoms: C7_13  and  C8_16 
REMARK   11  A    between atoms: C8_16  and  N2_17 
REMARK   12  A    between atoms: C17_26  and  O4_27 
REMARK   13  A    between atoms: C22_33  and  O5_34 
REMARK   14  A    between atoms: C23_36  and  O6_37 
ROOT
HETATM    1  N2  UNL     1      30.049  46.235  44.893  1.00  0.00     0.123 N 
HETATM    2  C9  UNL     1      29.061  45.262  45.397  1.00  0.00     0.288 C 
HETATM    3  C10 UNL     1      29.106  44.138  44.454  1.00  0.00     0.019 C 
HETATM    4  C11 UNL     1      30.151  43.192  44.815  1.00  0.00     0.020 C 
HETATM    5  C12 UNL     1      27.825  43.417  44.164  1.00  0.00     0.020 C 
HETATM    6  C13 UNL     1      27.706  43.444  42.677  1.00  0.00     0.008 C 
HETATM    7  C14 UNL     1      27.138  42.281  41.997  1.00  0.00    -0.017 C 
HETATM    8  C15 UNL     1      25.620  42.306  42.283  1.00  0.00     0.018 C 
HETATM    9  C16 UNL     1      27.595  40.934  42.426  1.00  0.00     0.018 C 
HETATM   10  C17 UNL     1      27.244  42.508  40.496  1.00  0.00     0.126 C 
HETATM   11  C18 UNL     1      27.504  43.921  40.111  1.00  0.00     0.033 C 
HETATM   12  C19 UNL     1      28.630  44.619  40.776  1.00  0.00     0.015 C 
HETATM   13  C20 UNL     1      29.014  44.013  42.130  1.00  0.00    -0.003 C 
HETATM   14  C21 UNL     1      30.069  43.012  41.829  1.00  0.00     0.019 C 
HETATM   15  C22 UNL     1      29.239  44.959  43.191  1.00  0.00     0.128 C 
HETATM   16  C23 UNL     1      30.316  45.819  43.488  1.00  0.00     0.393 C 
ENDROOT
BRANCH   1  17
HETATM   17  C8  UNL     1      31.234  46.215  45.669  1.00  0.00     0.310 C 
BRANCH  17  18
HETATM   18  C7  UNL     1      31.584  47.490  46.396  1.00  0.00     0.177 C 
BRANCH  18  19
HETATM   19  C6  UNL     1      33.077  47.672  46.603  1.00  0.00     0.172 C 
BRANCH  19  20
HETATM   20  C5  UNL     1      33.606  46.725  47.607  1.00  0.00     0.201 C 
BRANCH  20  21
HETATM   21  O1  UNL     1      33.614  47.276  48.865  1.00  0.00    -0.388 OA
BRANCH  21  22
HETATM   22  C4  UNL     1      34.778  47.937  49.120  1.00  0.00     0.169 C 
BRANCH  22  23
HETATM   23  C3  UNL     1      35.489  47.374  50.348  1.00  0.00     0.054 C 
BRANCH  23  24
HETATM   24  C2  UNL     1      35.349  48.443  51.428  1.00  0.00     0.234 C 
BRANCH  24  25
HETATM   25  N1  UNL     1      36.669  48.793  51.900  1.00  0.00    -0.079 N 
HETATM   26  C1  UNL     1      36.653  49.212  53.271  1.00  0.00     0.266 C 
ATOM     27  H12 UNL     1      37.102  49.497  51.303  1.00  0.00     0.276 HD
ATOM     28  H11 UNL     1      37.330  48.030  51.753  1.00  0.00     0.276 HD
ENDBRANCH  24  25
ENDBRANCH  23  24
ENDBRANCH  22  23
ENDBRANCH  21  22
ENDBRANCH  20  21
ENDBRANCH  19  20
BRANCH  19  29
HETATM   29  O2  UNL     1      33.744  47.600  45.358  1.00  0.00    -0.391 OA
ATOM     30  H2  UNL     1      34.290  48.356  45.180  1.00  0.00     0.210 HD
ENDBRANCH  19  29
ENDBRANCH  18  19
BRANCH  18  31
HETATM   31  O3  UNL     1      31.234  48.587  45.516  1.00  0.00    -0.391 OA
ATOM     32  H3  UNL     1      32.000  49.147  45.551  1.00  0.00     0.210 HD
ENDBRANCH  18  31
ENDBRANCH  17  18
ENDBRANCH   1  17
BRANCH  16  33
HETATM   33  O6  UNL     1      31.614  45.412  43.326  1.00  0.00    -0.365 OA
ATOM     34  H6  UNL     1      31.776  45.119  42.438  1.00  0.00     0.212 HD
ENDBRANCH  16  33
BRANCH  15  35
HETATM   35  O5  UNL     1      28.068  45.788  43.223  1.00  0.00    -0.384 OA
ATOM     36  H5  UNL     1      28.133  46.214  44.070  1.00  0.00     0.210 HD
ENDBRANCH  15  35
BRANCH  10  37
HETATM   37  O4  UNL     1      26.033  42.140  39.858  1.00  0.00    -0.395 OA
ATOM     38  H4  UNL     1      26.069  42.357  38.934  1.00  0.00     0.210 HD
ENDBRANCH  10  37
TORSDOF 14
ENDMDL
MODEL 5
REMARK VINA RESULT: -7.037563328      1.462      1.805
REMARK  14 active torsions:
REMARK  status: ('A' for Active; 'I' for Inactive)
REMARK    1  A    between atoms: N1_2  and  C2_5 
REMARK    2  A    between atoms: C2_5  and  C3_6 
REMARK    3  A    between atoms: C3_6  and  C4_7 
REMARK    4  A    between atoms: C4_7  and  O1_8 
REMARK    5  A    between atoms: O1_8  and  C5_9 
REMARK    6  A    between atoms: C5_9  and  C6_10 
REMARK    7  A    between atoms: C6_10  and  O2_11 
REMARK    8  A    between atoms: C6_10  and  C7_13 
REMARK    9  A    between atoms: C7_13  and  O3_14 
REMARK   10  A    between atoms: C7_13  and  C8_16 
REMARK   11  A    between atoms: C8_16  and  N2_17 
REMARK   12  A    between atoms: C17_26  and  O4_27 
REMARK   13  A    between atoms: C22_33  and  O5_34 
REMARK   14  A    between atoms: C23_36  and  O6_37 
ROOT
HETATM    1  N2  UNL     1      29.217  45.679  44.492  1.00  0.00     0.123 N 
HETATM    2  C9  UNL     1      28.405  44.474  44.752  1.00  0.00     0.288 C 
HETATM    3  C10 UNL     1      28.963  43.434  43.880  1.00  0.00     0.019 C 
HETATM    4  C11 UNL     1      30.084  42.760  44.517  1.00  0.00     0.020 C 
HETATM    5  C12 UNL     1      28.016  42.433  43.293  1.00  0.00     0.020 C 
HETATM    6  C13 UNL     1      28.272  42.488  41.823  1.00  0.00     0.008 C 
HETATM    7  C14 UNL     1      28.199  41.250  41.050  1.00  0.00    -0.017 C 
HETATM    8  C15 UNL     1      26.700  40.891  40.942  1.00  0.00     0.018 C 
HETATM    9  C16 UNL     1      28.851  40.040  41.615  1.00  0.00     0.018 C 
HETATM   10  C17 UNL     1      28.620  41.555  39.621  1.00  0.00     0.126 C 
HETATM   11  C18 UNL     1      28.611  43.002  39.280  1.00  0.00     0.033 C 
HETATM   12  C19 UNL     1      29.325  43.928  40.190  1.00  0.00     0.015 C 
HETATM   13  C20 UNL     1      29.493  43.382  41.612  1.00  0.00    -0.003 C 
HETATM   14  C21 UNL     1      30.804  42.683  41.614  1.00  0.00     0.019 C 
HETATM   15  C22 UNL     1      29.202  44.312  42.672  1.00  0.00     0.128 C 
HETATM   16  C23 UNL     1      29.923  45.397  43.211  1.00  0.00     0.393 C 
ENDROOT
BRANCH   1  17
HETATM   17  C8  UNL     1      30.135  45.920  45.543  1.00  0.00     0.310 C 
BRANCH  17  18
HETATM   18  C7  UNL     1      30.019  47.250  46.246  1.00  0.00     0.177 C 
BRANCH  18  19
HETATM   19  C6  UNL     1      31.364  47.876  46.570  1.00  0.00     0.172 C 
BRANCH  19  20
HETATM   20  C5  UNL     1      32.480  46.959  46.256  1.00  0.00     0.201 C 
BRANCH  20  21
HETATM   21  O1  UNL     1      33.332  46.818  47.325  1.00  0.00    -0.388 OA
BRANCH  21  22
HETATM   22  C4  UNL     1      34.595  47.227  47.021  1.00  0.00     0.169 C 
BRANCH  22  23
HETATM   23  C3  UNL     1      35.553  47.020  48.192  1.00  0.00     0.054 C 
BRANCH  23  24
HETATM   24  C2  UNL     1      34.852  46.036  49.125  1.00  0.00     0.234 C 
BRANCH  24  25
HETATM   25  N1  UNL     1      34.399  46.754  50.294  1.00  0.00    -0.079 N 
HETATM   26  C1  UNL     1      35.314  47.791  50.672  1.00  0.00     0.266 C 
ATOM     27  H12 UNL     1      34.216  46.120  51.071  1.00  0.00     0.276 HD
ATOM     28  H11 UNL     1      33.457  47.121  50.161  1.00  0.00     0.276 HD
ENDBRANCH  24  25
ENDBRANCH  23  24
ENDBRANCH  22  23
ENDBRANCH  21  22
ENDBRANCH  20  21
ENDBRANCH  19  20
BRANCH  19  29
HETATM   29  O2  UNL     1      31.473  49.131  45.929  1.00  0.00    -0.391 OA
ATOM     30  H2  UNL     1      30.983  49.819  46.364  1.00  0.00     0.210 HD
ENDBRANCH  19  29
ENDBRANCH  18  19
BRANCH  18  31
HETATM   31  O3  UNL     1      29.439  48.179  45.298  1.00  0.00    -0.391 OA
ATOM     32  H3  UNL     1      28.802  47.648  44.835  1.00  0.00     0.210 HD
ENDBRANCH  18  31
ENDBRANCH  17  18
ENDBRANCH   1  17
BRANCH  16  33
HETATM   33  O6  UNL     1      31.279  45.328  43.394  1.00  0.00    -0.365 OA
ATOM     34  H6  UNL     1      31.622  44.484  43.124  1.00  0.00     0.212 HD
ENDBRANCH  16  33
BRANCH  15  35
HETATM   35  O5  UNL     1      27.894  44.827  42.385  1.00  0.00    -0.384 OA
ATOM     36  H5  UNL     1      27.958  45.734  42.661  1.00  0.00     0.210 HD
ENDBRANCH  15  35
BRANCH  10  37
HETATM   37  O4  UNL     1      27.738  40.926  38.706  1.00  0.00    -0.395 OA
ATOM     38  H4  UNL     1      27.650  40.004  38.915  1.00  0.00     0.210 HD
ENDBRANCH  10  37
TORSDOF 14
ENDMDL
