MODEL 1
REMARK VINA RESULT: -8.779559525      0.000      0.000
REMARK  14 active torsions:
REMARK  status: ('A' for Active; 'I' for Inactive)
REMARK    1  A    between atoms: O1_2  and  C2_3 
REMARK    2  A    between atoms: C3_5  and  C4_6 
REMARK    3  A    between atoms: C4_6  and  O3_7 
REMARK    4  A    between atoms: C5_9  and  O4_10 
REMARK    5  A    between atoms: C6_12  and  S1_13 
REMARK    6  A    between atoms: S1_13  and  C7_14 
REMARK    7  A    between atoms: C9_17  and  O6_18 
REMARK    8  A    between atoms: C10_20  and  N1_21 
REMARK    9  A    between atoms: N1_21  and  C11_24 
REMARK   10  A    between atoms: C11_24  and  C12_25 
REMARK   11  A    between atoms: C12_25  and  C13_26 
REMARK   12  A    between atoms: C13_26  and  C14_27 
REMARK   13  A    between atoms: C14_27  and  C15_28 
REMARK   14  A    between atoms: C18_33  and  O7_34 
ROOT
HETATM    1  C15 UNL     1       8.919 -38.357   4.519  1.00  0.00     0.089 C 
HETATM    2  C16 UNL     1       7.575 -37.787   4.932  1.00  0.00     0.025 C 
HETATM    3  C17 UNL     1       9.708 -38.530   5.746  1.00  0.00     0.063 C 
HETATM    4  N2  UNL     1      10.319 -38.658   6.729  1.00  0.00    -0.197 NA
ENDROOT
BRANCH   1   5
HETATM    5  C14 UNL     1       9.676 -37.401   3.633  1.00  0.00     0.019 C 
BRANCH   5   6
HETATM    6  C13 UNL     1       9.744 -36.007   4.201  1.00  0.00     0.003 C 
BRANCH   6   7
HETATM    7  C12 UNL     1      10.213 -34.989   3.217  1.00  0.00     0.027 C 
BRANCH   7   8
HETATM    8  C11 UNL     1      11.701 -35.257   2.952  1.00  0.00     0.233 C 
BRANCH   8   9
HETATM    9  N1  UNL     1      11.926 -35.659   1.598  1.00  0.00    -0.059 N 
ATOM     10  H12 UNL     1      11.757 -34.895   0.945  1.00  0.00     0.278 HD
ATOM     11  H11 UNL     1      11.205 -36.303   1.272  1.00  0.00     0.278 HD
BRANCH   9  12
HETATM   12  C10 UNL     1      13.231 -36.207   1.441  1.00  0.00     0.280 C 
HETATM   13  C9  UNL     1      13.281 -37.715   1.337  1.00  0.00     0.182 C 
HETATM   14  C8  UNL     1      14.779 -38.044   1.270  1.00  0.00     0.205 C 
HETATM   15  O5  UNL     1      15.344 -38.265   2.494  1.00  0.00    -0.363 OA
HETATM   16  C7  UNL     1      15.229 -37.270   3.424  1.00  0.00     0.247 C 
HETATM   17  S2  UNL     1      14.354 -35.791   2.828  1.00  0.00    -0.091 SA
BRANCH  13  18
HETATM   18  O6  UNL     1      12.638 -38.193   0.216  1.00  0.00    -0.391 OA
ATOM     19  H6  UNL     1      12.500 -37.491  -0.409  1.00  0.00     0.210 HD
ENDBRANCH  13  18
BRANCH  16  20
HETATM   20  S1  UNL     1      16.782 -36.722   4.148  1.00  0.00    -0.117 SA
BRANCH  20  21
HETATM   21  C6  UNL     1      18.214 -37.657   3.548  1.00  0.00     0.115 C 
HETATM   22  C5  UNL     1      19.408 -36.767   3.594  1.00  0.00     0.165 C 
HETATM   23  C3  UNL     1      20.730 -37.440   3.576  1.00  0.00     0.178 C 
HETATM   24  O2  UNL     1      20.786 -38.741   3.971  1.00  0.00    -0.349 OA
HETATM   25  C2  UNL     1      19.789 -39.148   4.844  1.00  0.00     0.289 C 
HETATM   26  C18 UNL     1      18.408 -38.932   4.285  1.00  0.00     0.189 C 
BRANCH  22  27
HETATM   27  O4  UNL     1      19.312 -35.818   4.642  1.00  0.00    -0.392 OA
ATOM     28  H4  UNL     1      19.215 -34.933   4.311  1.00  0.00     0.210 HD
ENDBRANCH  22  27
BRANCH  23  29
HETATM   29  C4  UNL     1      21.289 -37.382   2.157  1.00  0.00     0.198 C 
BRANCH  29  30
HETATM   30  O3  UNL     1      22.403 -38.210   2.034  1.00  0.00    -0.398 OA
ATOM     31  H3  UNL     1      23.021 -37.849   1.409  1.00  0.00     0.209 HD
ENDBRANCH  29  30
ENDBRANCH  23  29
BRANCH  25  32
HETATM   32  O1  UNL     1      19.937 -38.601   6.112  1.00  0.00    -0.363 OA
HETATM   33  C1  UNL     1      20.819 -39.376   6.843  1.00  0.00     0.204 C 
ENDBRANCH  25  32
BRANCH  26  34
HETATM   34  O7  UNL     1      17.533 -38.915   5.392  1.00  0.00    -0.389 OA
ATOM     35  H7  UNL     1      16.942 -38.184   5.252  1.00  0.00     0.210 HD
ENDBRANCH  26  34
ENDBRANCH  20  21
ENDBRANCH  16  20
ENDBRANCH   9  12
ENDBRANCH   8   9
ENDBRANCH   7   8
ENDBRANCH   6   7
ENDBRANCH   5   6
ENDBRANCH   1   5
TORSDOF 14
ENDMDL
MODEL 2
REMARK VINA RESULT: -8.089101194      1.602      1.864
REMARK  14 active torsions:
REMARK  status: ('A' for Active; 'I' for Inactive)
REMARK    1  A    between atoms: O1_2  and  C2_3 
REMARK    2  A    between atoms: C3_5  and  C4_6 
REMARK    3  A    between atoms: C4_6  and  O3_7 
REMARK    4  A    between atoms: C5_9  and  O4_10 
REMARK    5  A    between atoms: C6_12  and  S1_13 
REMARK    6  A    between atoms: S1_13  and  C7_14 
REMARK    7  A    between atoms: C9_17  and  O6_18 
REMARK    8  A    between atoms: C10_20  and  N1_21 
REMARK    9  A    between atoms: N1_21  and  C11_24 
REMARK   10  A    between atoms: C11_24  and  C12_25 
REMARK   11  A    between atoms: C12_25  and  C13_26 
REMARK   12  A    between atoms: C13_26  and  C14_27 
REMARK   13  A    between atoms: C14_27  and  C15_28 
REMARK   14  A    between atoms: C18_33  and  O7_34 
ROOT
HETATM    1  C15 UNL     1       9.470 -37.934   4.580  1.00  0.00     0.089 C 
HETATM    2  C16 UNL     1       8.268 -38.800   4.254  1.00  0.00     0.025 C 
HETATM    3  C17 UNL     1       9.995 -38.395   5.872  1.00  0.00     0.063 C 
HETATM    4  N2  UNL     1      10.395 -38.773   6.899  1.00  0.00    -0.197 NA
ENDROOT
BRANCH   1   5
HETATM    5  C14 UNL     1       9.081 -36.488   4.747  1.00  0.00     0.019 C 
BRANCH   5   6
HETATM    6  C13 UNL     1       9.995 -35.547   4.005  1.00  0.00     0.003 C 
BRANCH   6   7
HETATM    7  C12 UNL     1      10.866 -36.232   3.006  1.00  0.00     0.027 C 
BRANCH   7   8
HETATM    8  C11 UNL     1      12.262 -35.601   3.103  1.00  0.00     0.233 C 
BRANCH   8   9
HETATM    9  N1  UNL     1      13.288 -36.596   3.067  1.00  0.00    -0.059 N 
ATOM     10  H12 UNL     1      13.056 -37.353   2.423  1.00  0.00     0.278 HD
ATOM     11  H11 UNL     1      13.320 -37.135   3.932  1.00  0.00     0.278 HD
BRANCH   9  12
HETATM   12  C10 UNL     1      14.550 -36.014   2.763  1.00  0.00     0.280 C 
HETATM   13  C9  UNL     1      15.094 -36.351   1.392  1.00  0.00     0.182 C 
HETATM   14  C8  UNL     1      16.478 -35.688   1.356  1.00  0.00     0.205 C 
HETATM   15  O5  UNL     1      17.485 -36.506   1.785  1.00  0.00    -0.363 OA
HETATM   16  C7  UNL     1      17.367 -37.037   3.038  1.00  0.00     0.247 C 
HETATM   17  S2  UNL     1      15.871 -36.515   3.931  1.00  0.00    -0.091 SA
BRANCH  13  18
HETATM   18  O6  UNL     1      14.306 -35.864   0.372  1.00  0.00    -0.391 OA
ATOM     19  H6  UNL     1      14.040 -34.971   0.560  1.00  0.00     0.210 HD
ENDBRANCH  13  18
BRANCH  16  20
HETATM   20  S1  UNL     1      18.771 -36.746   4.125  1.00  0.00    -0.117 SA
BRANCH  20  21
HETATM   21  C6  UNL     1      20.202 -37.785   3.728  1.00  0.00     0.115 C 
HETATM   22  C5  UNL     1      21.426 -36.936   3.776  1.00  0.00     0.165 C 
HETATM   23  C3  UNL     1      22.717 -37.652   3.922  1.00  0.00     0.178 C 
HETATM   24  O2  UNL     1      22.691 -38.908   4.445  1.00  0.00    -0.349 OA
HETATM   25  C2  UNL     1      21.618 -39.191   5.277  1.00  0.00     0.289 C 
HETATM   26  C18 UNL     1      20.290 -38.986   4.598  1.00  0.00     0.189 C 
BRANCH  22  27
HETATM   27  O4  UNL     1      21.295 -35.884   4.716  1.00  0.00    -0.392 OA
ATOM     28  H4  UNL     1      20.686 -35.218   4.419  1.00  0.00     0.210 HD
ENDBRANCH  22  27
BRANCH  23  29
HETATM   29  C4  UNL     1      23.377 -37.756   2.551  1.00  0.00     0.198 C 
BRANCH  29  30
HETATM   30  O3  UNL     1      22.653 -38.607   1.720  1.00  0.00    -0.398 OA
ATOM     31  H3  UNL     1      23.157 -39.387   1.517  1.00  0.00     0.209 HD
ENDBRANCH  29  30
ENDBRANCH  23  29
BRANCH  25  32
HETATM   32  O1  UNL     1      21.699 -38.525   6.493  1.00  0.00    -0.363 OA
HETATM   33  C1  UNL     1      22.417 -39.295   7.389  1.00  0.00     0.204 C 
ENDBRANCH  25  32
BRANCH  26  34
HETATM   34  O7  UNL     1      19.341 -38.828   5.630  1.00  0.00    -0.389 OA
ATOM     35  H7  UNL     1      19.009 -37.941   5.552  1.00  0.00     0.210 HD
ENDBRANCH  26  34
ENDBRANCH  20  21
ENDBRANCH  16  20
ENDBRANCH   9  12
ENDBRANCH   8   9
ENDBRANCH   7   8
ENDBRANCH   6   7
ENDBRANCH   5   6
ENDBRANCH   1   5
TORSDOF 14
ENDMDL
MODEL 3
REMARK VINA RESULT: -8.072112414      2.244      3.011
REMARK  14 active torsions:
REMARK  status: ('A' for Active; 'I' for Inactive)
REMARK    1  A    between atoms: O1_2  and  C2_3 
REMARK    2  A    between atoms: C3_5  and  C4_6 
REMARK    3  A    between atoms: C4_6  and  O3_7 
REMARK    4  A    between atoms: C5_9  and  O4_10 
REMARK    5  A    between atoms: C6_12  and  S1_13 
REMARK    6  A    between atoms: S1_13  and  C7_14 
REMARK    7  A    between atoms: C9_17  and  O6_18 
REMARK    8  A    between atoms: C10_20  and  N1_21 
REMARK    9  A    between atoms: N1_21  and  C11_24 
REMARK   10  A    between atoms: C11_24  and  C12_25 
REMARK   11  A    between atoms: C12_25  and  C13_26 
REMARK   12  A    between atoms: C13_26  and  C14_27 
REMARK   13  A    between atoms: C14_27  and  C15_28 
REMARK   14  A    between atoms: C18_33  and  O7_34 
ROOT
HETATM    1  C15 UNL     1      11.102 -36.060   1.289  1.00  0.00     0.089 C 
HETATM    2  C16 UNL     1      10.492 -37.423   1.563  1.00  0.00     0.025 C 
HETATM    3  C17 UNL     1      10.322 -35.078   2.052  1.00  0.00     0.063 C 
HETATM    4  N2  UNL     1       9.690 -34.313   2.663  1.00  0.00    -0.197 NA
ENDROOT
BRANCH   1   5
HETATM    5  C14 UNL     1      10.986 -35.688  -0.167  1.00  0.00     0.019 C 
BRANCH   5   6
HETATM    6  C13 UNL     1      11.763 -36.611  -1.070  1.00  0.00     0.003 C 
BRANCH   6   7
HETATM    7  C12 UNL     1      12.855 -35.924  -1.820  1.00  0.00     0.027 C 
BRANCH   7   8
HETATM    8  C11 UNL     1      14.190 -36.437  -1.261  1.00  0.00     0.233 C 
BRANCH   8   9
HETATM    9  N1  UNL     1      14.459 -35.889   0.032  1.00  0.00    -0.059 N 
ATOM     10  H12 UNL     1      13.599 -35.667   0.533  1.00  0.00     0.278 HD
ATOM     11  H11 UNL     1      14.848 -34.948  -0.031  1.00  0.00     0.278 HD
BRANCH   9  12
HETATM   12  C10 UNL     1      15.299 -36.756   0.787  1.00  0.00     0.280 C 
HETATM   13  C9  UNL     1      14.574 -37.652   1.766  1.00  0.00     0.182 C 
HETATM   14  C8  UNL     1      15.695 -38.400   2.501  1.00  0.00     0.205 C 
HETATM   15  O5  UNL     1      16.121 -37.767   3.635  1.00  0.00    -0.363 OA
HETATM   16  C7  UNL     1      16.565 -36.482   3.503  1.00  0.00     0.247 C 
HETATM   17  S2  UNL     1      16.536 -35.855   1.796  1.00  0.00    -0.091 SA
BRANCH  13  18
HETATM   18  O6  UNL     1      13.731 -38.547   1.146  1.00  0.00    -0.391 OA
ATOM     19  H6  UNL     1      12.871 -38.524   1.551  1.00  0.00     0.210 HD
ENDBRANCH  13  18
BRANCH  16  20
HETATM   20  S1  UNL     1      18.211 -36.174   4.161  1.00  0.00    -0.117 SA
BRANCH  20  21
HETATM   21  C6  UNL     1      19.437 -37.387   3.603  1.00  0.00     0.115 C 
HETATM   22  C5  UNL     1      20.781 -36.744   3.636  1.00  0.00     0.165 C 
HETATM   23  C3  UNL     1      21.947 -37.660   3.650  1.00  0.00     0.178 C 
HETATM   24  O2  UNL     1      21.748 -38.935   4.082  1.00  0.00    -0.349 OA
HETATM   25  C2  UNL     1      20.687 -39.115   4.956  1.00  0.00     0.289 C 
HETATM   26  C18 UNL     1      19.376 -38.652   4.377  1.00  0.00     0.189 C 
BRANCH  22  27
HETATM   27  O4  UNL     1      20.866 -35.763   4.655  1.00  0.00    -0.392 OA
ATOM     28  H4  UNL     1      20.775 -34.883   4.309  1.00  0.00     0.210 HD
ENDBRANCH  22  27
BRANCH  23  29
HETATM   29  C4  UNL     1      22.513 -37.754   2.236  1.00  0.00     0.198 C 
BRANCH  29  30
HETATM   30  O3  UNL     1      22.048 -36.703   1.450  1.00  0.00    -0.398 OA
ATOM     31  H3  UNL     1      21.158 -36.869   1.160  1.00  0.00     0.209 HD
ENDBRANCH  29  30
ENDBRANCH  23  29
BRANCH  25  32
HETATM   32  O1  UNL     1      20.933 -38.569   6.210  1.00  0.00    -0.363 OA
HETATM   33  C1  UNL     1      21.661 -39.470   6.964  1.00  0.00     0.204 C 
ENDBRANCH  25  32
BRANCH  26  34
HETATM   34  O7  UNL     1      18.516 -38.433   5.475  1.00  0.00    -0.389 OA
ATOM     35  H7  UNL     1      18.553 -37.502   5.658  1.00  0.00     0.210 HD
ENDBRANCH  26  34
ENDBRANCH  20  21
ENDBRANCH  16  20
ENDBRANCH   9  12
ENDBRANCH   8   9
ENDBRANCH   7   8
ENDBRANCH   6   7
ENDBRANCH   5   6
ENDBRANCH   1   5
TORSDOF 14
ENDMDL
MODEL 4
REMARK VINA RESULT: -8.023271720      3.302      4.852
REMARK  14 active torsions:
REMARK  status: ('A' for Active; 'I' for Inactive)
REMARK    1  A    between atoms: O1_2  and  C2_3 
REMARK    2  A    between atoms: C3_5  and  C4_6 
REMARK    3  A    between atoms: C4_6  and  O3_7 
REMARK    4  A    between atoms: C5_9  and  O4_10 
REMARK    5  A    between atoms: C6_12  and  S1_13 
REMARK    6  A    between atoms: S1_13  and  C7_14 
REMARK    7  A    between atoms: C9_17  and  O6_18 
REMARK    8  A    between atoms: C10_20  and  N1_21 
REMARK    9  A    between atoms: N1_21  and  C11_24 
REMARK   10  A    between atoms: C11_24  and  C12_25 
REMARK   11  A    between atoms: C12_25  and  C13_26 
REMARK   12  A    between atoms: C13_26  and  C14_27 
REMARK   13  A    between atoms: C14_27  and  C15_28 
REMARK   14  A    between atoms: C18_33  and  O7_34 
ROOT
HETATM    1  C15 UNL     1      13.188 -36.380  -1.484  1.00  0.00     0.089 C 
HETATM    2  C16 UNL     1      14.445 -35.926  -2.202  1.00  0.00     0.025 C 
HETATM    3  C17 UNL     1      12.054 -35.712  -2.136  1.00  0.00     0.063 C 
HETATM    4  N2  UNL     1      11.168 -35.171  -2.664  1.00  0.00    -0.197 NA
ENDROOT
BRANCH   1   5
HETATM    5  C14 UNL     1      13.191 -35.947  -0.040  1.00  0.00     0.019 C 
BRANCH   5   6
HETATM    6  C13 UNL     1      12.888 -37.078   0.910  1.00  0.00     0.003 C 
BRANCH   6   7
HETATM    7  C12 UNL     1      13.803 -38.245   0.752  1.00  0.00     0.027 C 
BRANCH   7   8
HETATM    8  C11 UNL     1      14.793 -38.216   1.925  1.00  0.00     0.233 C 
BRANCH   8   9
HETATM    9  N1  UNL     1      14.261 -37.495   3.039  1.00  0.00    -0.059 N 
ATOM     10  H12 UNL     1      13.631 -38.072   3.595  1.00  0.00     0.278 HD
ATOM     11  H11 UNL     1      13.594 -36.782   2.742  1.00  0.00     0.278 HD
BRANCH   9  12
HETATM   12  C10 UNL     1      15.305 -36.940   3.831  1.00  0.00     0.280 C 
HETATM   13  C9  UNL     1      15.991 -35.734   3.229  1.00  0.00     0.182 C 
HETATM   14  C8  UNL     1      17.114 -35.398   4.220  1.00  0.00     0.205 C 
HETATM   15  O5  UNL     1      18.297 -36.020   3.934  1.00  0.00    -0.363 OA
HETATM   16  C7  UNL     1      18.282 -37.383   3.848  1.00  0.00     0.247 C 
HETATM   17  S2  UNL     1      16.656 -38.132   4.171  1.00  0.00    -0.091 SA
BRANCH  13  18
HETATM   18  O6  UNL     1      15.145 -34.657   3.085  1.00  0.00    -0.391 OA
ATOM     19  H6  UNL     1      15.640 -33.880   2.849  1.00  0.00     0.210 HD
ENDBRANCH  13  18
BRANCH  16  20
HETATM   20  S1  UNL     1      19.480 -38.226   4.893  1.00  0.00    -0.117 SA
BRANCH  20  21
HETATM   21  C6  UNL     1      21.109 -38.385   4.116  1.00  0.00     0.115 C 
HETATM   22  C5  UNL     1      21.574 -37.026   3.719  1.00  0.00     0.165 C 
HETATM   23  C3  UNL     1      23.030 -36.873   3.482  1.00  0.00     0.178 C 
HETATM   24  O2  UNL     1      23.866 -37.780   4.057  1.00  0.00    -0.349 OA
HETATM   25  C2  UNL     1      23.390 -38.394   5.205  1.00  0.00     0.289 C 
HETATM   26  C18 UNL     1      22.081 -39.105   4.979  1.00  0.00     0.189 C 
BRANCH  22  27
HETATM   27  O4  UNL     1      21.071 -36.027   4.588  1.00  0.00    -0.392 OA
ATOM     28  H4  UNL     1      21.149 -35.158   4.213  1.00  0.00     0.210 HD
ENDBRANCH  22  27
BRANCH  23  29
HETATM   29  C4  UNL     1      23.290 -36.920   1.979  1.00  0.00     0.198 C 
BRANCH  29  30
HETATM   30  O3  UNL     1      22.143 -36.568   1.271  1.00  0.00    -0.398 OA
ATOM     31  H3  UNL     1      22.305 -35.805   0.729  1.00  0.00     0.209 HD
ENDBRANCH  29  30
ENDBRANCH  23  29
BRANCH  25  32
HETATM   32  O1  UNL     1      23.340 -37.528   6.290  1.00  0.00    -0.363 OA
HETATM   33  C1  UNL     1      24.551 -37.563   6.956  1.00  0.00     0.204 C 
ENDBRANCH  25  32
BRANCH  26  34
HETATM   34  O7  UNL     1      21.487 -39.250   6.251  1.00  0.00    -0.389 OA
ATOM     35  H7  UNL     1      21.133 -38.397   6.477  1.00  0.00     0.210 HD
ENDBRANCH  26  34
ENDBRANCH  20  21
ENDBRANCH  16  20
ENDBRANCH   9  12
ENDBRANCH   8   9
ENDBRANCH   7   8
ENDBRANCH   6   7
ENDBRANCH   5   6
ENDBRANCH   1   5
TORSDOF 14
ENDMDL
MODEL 5
REMARK VINA RESULT: -7.929149724      1.245      2.609
REMARK  14 active torsions:
REMARK  status: ('A' for Active; 'I' for Inactive)
REMARK    1  A    between atoms: O1_2  and  C2_3 
REMARK    2  A    between atoms: C3_5  and  C4_6 
REMARK    3  A    between atoms: C4_6  and  O3_7 
REMARK    4  A    between atoms: C5_9  and  O4_10 
REMARK    5  A    between atoms: C6_12  and  S1_13 
REMARK    6  A    between atoms: S1_13  and  C7_14 
REMARK    7  A    between atoms: C9_17  and  O6_18 
REMARK    8  A    between atoms: C10_20  and  N1_21 
REMARK    9  A    between atoms: N1_21  and  C11_24 
REMARK   10  A    between atoms: C11_24  and  C12_25 
REMARK   11  A    between atoms: C12_25  and  C13_26 
REMARK   12  A    between atoms: C13_26  and  C14_27 
REMARK   13  A    between atoms: C14_27  and  C15_28 
REMARK   14  A    between atoms: C18_33  and  O7_34 
ROOT
HETATM    1  C15 UNL     1       8.906 -38.366   4.597  1.00  0.00     0.089 C 
HETATM    2  C16 UNL     1       7.578 -37.764   5.017  1.00  0.00     0.025 C 
HETATM    3  C17 UNL     1       9.710 -38.529   5.815  1.00  0.00     0.063 C 
HETATM    4  N2  UNL     1      10.332 -38.649   6.792  1.00  0.00    -0.197 NA
ENDROOT
BRANCH   1   5
HETATM    5  C14 UNL     1       9.665 -37.440   3.682  1.00  0.00     0.019 C 
BRANCH   5   6
HETATM    6  C13 UNL     1       9.775 -36.039   4.227  1.00  0.00     0.003 C 
BRANCH   6   7
HETATM    7  C12 UNL     1      10.201 -35.038   3.206  1.00  0.00     0.027 C 
BRANCH   7   8
HETATM    8  C11 UNL     1      11.628 -35.401   2.772  1.00  0.00     0.233 C 
BRANCH   8   9
HETATM    9  N1  UNL     1      11.734 -35.489   1.349  1.00  0.00    -0.059 N 
ATOM     10  H12 UNL     1      11.754 -34.566   0.915  1.00  0.00     0.278 HD
ATOM     11  H11 UNL     1      10.873 -35.838   0.928  1.00  0.00     0.278 HD
BRANCH   9  12
HETATM   12  C10 UNL     1      12.860 -36.273   0.971  1.00  0.00     0.280 C 
HETATM   13  C9  UNL     1      12.669 -37.768   1.099  1.00  0.00     0.182 C 
HETATM   14  C8  UNL     1      14.034 -38.362   0.726  1.00  0.00     0.205 C 
HETATM   15  O5  UNL     1      14.865 -38.533   1.798  1.00  0.00    -0.363 OA
HETATM   16  C7  UNL     1      15.141 -37.431   2.556  1.00  0.00     0.247 C 
HETATM   17  S2  UNL     1      14.357 -35.902   1.962  1.00  0.00    -0.091 SA
BRANCH  13  18
HETATM   18  O6  UNL     1      11.692 -38.254   0.258  1.00  0.00    -0.391 OA
ATOM     19  H6  UNL     1      11.555 -39.181   0.414  1.00  0.00     0.210 HD
ENDBRANCH  13  18
BRANCH  16  20
HETATM   20  S1  UNL     1      16.891 -37.084   2.788  1.00  0.00    -0.117 SA
BRANCH  20  21
HETATM   21  C6  UNL     1      17.497 -37.562   4.428  1.00  0.00     0.115 C 
HETATM   22  C5  UNL     1      17.257 -39.022   4.609  1.00  0.00     0.165 C 
HETATM   23  C3  UNL     1      18.057 -39.694   5.662  1.00  0.00     0.178 C 
HETATM   24  O2  UNL     1      19.219 -39.101   6.052  1.00  0.00    -0.349 OA
HETATM   25  C2  UNL     1      19.821 -38.281   5.110  1.00  0.00     0.289 C 
HETATM   26  C18 UNL     1      18.914 -37.173   4.644  1.00  0.00     0.189 C 
BRANCH  22  27
HETATM   27  O4  UNL     1      17.314 -39.718   3.376  1.00  0.00    -0.392 OA
ATOM     28  H4  UNL     1      16.792 -39.295   2.706  1.00  0.00     0.210 HD
ENDBRANCH  22  27
BRANCH  23  29
HETATM   29  C4  UNL     1      17.195 -39.844   6.911  1.00  0.00     0.198 C 
BRANCH  29  30
HETATM   30  O3  UNL     1      17.976 -40.199   8.008  1.00  0.00    -0.398 OA
ATOM     31  H3  UNL     1      18.679 -40.782   7.745  1.00  0.00     0.209 HD
ENDBRANCH  29  30
ENDBRANCH  23  29
BRANCH  25  32
HETATM   32  O1  UNL     1      20.367 -38.997   4.053  1.00  0.00    -0.363 OA
HETATM   33  C1  UNL     1      21.741 -39.049   4.198  1.00  0.00     0.204 C 
ENDBRANCH  25  32
BRANCH  26  34
HETATM   34  O7  UNL     1      19.427 -36.741   3.402  1.00  0.00    -0.389 OA
ATOM     35  H7  UNL     1      18.722 -36.847   2.773  1.00  0.00     0.210 HD
ENDBRANCH  26  34
ENDBRANCH  20  21
ENDBRANCH  16  20
ENDBRANCH   9  12
ENDBRANCH   8   9
ENDBRANCH   7   8
ENDBRANCH   6   7
ENDBRANCH   5   6
ENDBRANCH   1   5
TORSDOF 14
ENDMDL
