MODEL 1
REMARK VINA RESULT: -10.021104235      0.000      0.000
REMARK  13 active torsions:
REMARK  status: ('A' for Active; 'I' for Inactive)
REMARK    1  A    between atoms: N1_1  and  C1_4 
REMARK    2  A    between atoms: C2_7  and  N3_8 
REMARK    3  A    between atoms: N3_8  and  C3_10 
REMARK    4  A    between atoms: C5_14  and  O1_15 
REMARK    5  A    between atoms: N7_20  and  C7_21 
REMARK    6  A    between atoms: C7_21  and  C8_22 
REMARK    7  A    between atoms: C8_22  and  C9_23 
REMARK    8  A    between atoms: C9_23  and  C10_24 
REMARK    9  A    between atoms: C10_24  and  C11_25 
REMARK   10  A    between atoms: C11_25  and  C12_26 
REMARK   11  A    between atoms: C12_26  and  C13_27 
REMARK   12  A    between atoms: C13_27  and  S1_28 
REMARK   13  A    between atoms: S1_28  and  C14_29 
ROOT
HETATM    1  C1  UNL     1      10.388 -35.447   0.685  1.00  0.00     0.693 A 
HETATM    2  N2  UNL     1       9.769 -35.362   1.910  1.00  0.00    -0.022 N 
ATOM      3  H2  UNL     1       8.781 -35.111   1.930  1.00  0.00     0.203 HD
HETATM    4  C2  UNL     1      10.376 -35.587   3.068  1.00  0.00     0.695 A 
HETATM    5  N6  UNL     1      11.682 -35.918   3.045  1.00  0.00    -0.187 N 
ATOM      6  H6  UNL     1      12.183 -36.096   3.916  1.00  0.00     0.185 HD
HETATM    7  C6  UNL     1      12.312 -36.010   1.876  1.00  0.00     0.218 A 
HETATM    8  N7  UNL     1      11.680 -35.778   0.676  1.00  0.00    -0.179 N 
ENDROOT
BRANCH   8   9
HETATM    9  C7  UNL     1      12.409 -35.943  -0.548  1.00  0.00     0.148 C 
BRANCH   9  10
HETATM   10  C8  UNL     1      12.893 -37.338  -0.816  1.00  0.00     0.021 C 
BRANCH  10  11
HETATM   11  C9  UNL     1      14.383 -37.454  -0.845  1.00  0.00     0.002 C 
BRANCH  11  12
HETATM   12  C10 UNL     1      14.933 -36.090  -1.236  1.00  0.00     0.000 C 
BRANCH  12  13
HETATM   13  C11 UNL     1      16.188 -35.747  -0.448  1.00  0.00     0.001 C 
BRANCH  13  14
HETATM   14  C12 UNL     1      16.046 -35.995   0.995  1.00  0.00     0.010 C 
BRANCH  14  15
HETATM   15  C13 UNL     1      16.888 -35.259   1.966  1.00  0.00     0.082 C 
BRANCH  15  16
HETATM   16  S1  UNL     1      17.043 -35.799   3.602  1.00  0.00    -0.095 SA
BRANCH  16  17
HETATM   17  C14 UNL     1      17.423 -37.442   4.035  1.00  0.00     0.136 C 
HETATM   18  N8  UNL     1      18.593 -37.679   4.649  1.00  0.00    -0.364 N 
HETATM   19  C15 UNL     1      18.728 -39.057   4.921  1.00  0.00     0.106 C 
ATOM     20  H8  UNL     1      19.284 -36.967   4.885  1.00  0.00     0.162 HD
HETATM   21  C16 UNL     1      19.366 -39.388   6.235  1.00  0.00     0.027 C 
HETATM   22  C20 UNL     1      17.252 -39.478   5.032  1.00  0.00     0.106 C 
HETATM   23  C17 UNL     1      18.651 -40.598   6.810  1.00  0.00     0.002 C 
HETATM   24  C18 UNL     1      18.254 -41.576   5.718  1.00  0.00     0.002 C 
HETATM   25  C19 UNL     1      17.198 -40.946   4.802  1.00  0.00     0.027 C 
HETATM   26  N9  UNL     1      16.766 -38.694   3.896  1.00  0.00    -0.364 N 
ATOM     27  H9  UNL     1      16.107 -38.980   3.171  1.00  0.00     0.162 HD
ENDBRANCH  16  17
ENDBRANCH  15  16
ENDBRANCH  14  15
ENDBRANCH  13  14
ENDBRANCH  12  13
ENDBRANCH  11  12
ENDBRANCH  10  11
ENDBRANCH   9  10
ENDBRANCH   8   9
BRANCH   1  28
HETATM   28  N1  UNL     1       9.683 -35.173  -0.351  1.00  0.00    -0.234 N 
ATOM     29  H12 UNL     1       9.798 -35.592  -1.274  1.00  0.00     0.174 HD
ATOM     30  H11 UNL     1       8.962 -34.460  -0.250  1.00  0.00     0.174 HD
ENDBRANCH   1  28
BRANCH   4  31
HETATM   31  N3  UNL     1       9.773 -35.499   4.208  1.00  0.00    -0.203 N 
ATOM     32  H3  UNL     1       9.363 -34.607   4.485  1.00  0.00     0.179 HD
BRANCH  31  33
HETATM   33  C3  UNL     1       9.666 -36.619   5.093  1.00  0.00     0.239 C 
HETATM   34  N4  UNL     1       9.240 -37.765   4.345  1.00  0.00    -0.120 NA
HETATM   35  N5  UNL     1       7.961 -38.110   4.708  1.00  0.00    -0.144 NA
HETATM   36  C4  UNL     1       7.393 -37.037   5.481  1.00  0.00     0.165 C 
HETATM   37  C5  UNL     1       8.595 -36.400   6.147  1.00  0.00     0.174 C 
BRANCH  37  38
HETATM   38  O1  UNL     1       8.869 -37.040   7.335  1.00  0.00    -0.391 OA
ATOM     39  H1  UNL     1       8.991 -36.441   8.061  1.00  0.00     0.210 HD
ENDBRANCH  37  38
ENDBRANCH  31  33
ENDBRANCH   4  31
TORSDOF 13
ENDMDL
MODEL 2
REMARK VINA RESULT: -9.788522872      1.250      1.959
REMARK  13 active torsions:
REMARK  status: ('A' for Active; 'I' for Inactive)
REMARK    1  A    between atoms: N1_1  and  C1_4 
REMARK    2  A    between atoms: C2_7  and  N3_8 
REMARK    3  A    between atoms: N3_8  and  C3_10 
REMARK    4  A    between atoms: C5_14  and  O1_15 
REMARK    5  A    between atoms: N7_20  and  C7_21 
REMARK    6  A    between atoms: C7_21  and  C8_22 
REMARK    7  A    between atoms: C8_22  and  C9_23 
REMARK    8  A    between atoms: C9_23  and  C10_24 
REMARK    9  A    between atoms: C10_24  and  C11_25 
REMARK   10  A    between atoms: C11_25  and  C12_26 
REMARK   11  A    between atoms: C12_26  and  C13_27 
REMARK   12  A    between atoms: C13_27  and  S1_28 
REMARK   13  A    between atoms: S1_28  and  C14_29 
ROOT
HETATM    1  C1  UNL     1      10.136 -37.103   0.968  1.00  0.00     0.693 A 
HETATM    2  N2  UNL     1       9.854 -36.994   2.310  1.00  0.00    -0.022 N 
ATOM      3  H2  UNL     1       9.696 -37.854   2.836  1.00  0.00     0.203 HD
HETATM    4  C2  UNL     1       9.772 -35.843   2.964  1.00  0.00     0.695 A 
HETATM    5  N6  UNL     1       9.978 -34.706   2.271  1.00  0.00    -0.187 N 
ATOM      6  H6  UNL     1       9.922 -33.801   2.738  1.00  0.00     0.185 HD
HETATM    7  C6  UNL     1      10.255 -34.774   0.970  1.00  0.00     0.218 A 
HETATM    8  N7  UNL     1      10.340 -35.970   0.295  1.00  0.00    -0.179 N 
ENDROOT
BRANCH   8   9
HETATM    9  C7  UNL     1      10.690 -35.971  -1.096  1.00  0.00     0.148 C 
BRANCH   9  10
HETATM   10  C8  UNL     1      12.109 -35.584  -1.394  1.00  0.00     0.021 C 
BRANCH  10  11
HETATM   11  C9  UNL     1      13.079 -36.709  -1.223  1.00  0.00     0.002 C 
BRANCH  11  12
HETATM   12  C10 UNL     1      13.971 -36.358  -0.040  1.00  0.00     0.000 C 
BRANCH  12  13
HETATM   13  C11 UNL     1      13.738 -37.298   1.132  1.00  0.00     0.001 C 
BRANCH  13  14
HETATM   14  C12 UNL     1      13.536 -36.590   2.406  1.00  0.00     0.010 C 
BRANCH  14  15
HETATM   15  C13 UNL     1      14.587 -35.691   2.937  1.00  0.00     0.082 C 
BRANCH  15  16
HETATM   16  S1  UNL     1      16.264 -36.076   2.763  1.00  0.00    -0.095 SA
BRANCH  16  17
HETATM   17  C14 UNL     1      17.128 -37.105   3.871  1.00  0.00     0.136 C 
HETATM   18  N8  UNL     1      16.492 -38.180   4.362  1.00  0.00    -0.364 N 
HETATM   19  C15 UNL     1      17.342 -38.890   5.236  1.00  0.00     0.106 C 
ATOM     20  H8  UNL     1      15.533 -38.446   4.136  1.00  0.00     0.162 HD
HETATM   21  C16 UNL     1      17.236 -40.382   5.156  1.00  0.00     0.027 C 
HETATM   22  C20 UNL     1      18.721 -38.517   4.668  1.00  0.00     0.106 C 
HETATM   23  C17 UNL     1      18.632 -40.958   5.306  1.00  0.00     0.002 C 
HETATM   24  C18 UNL     1      19.459 -40.155   6.296  1.00  0.00     0.002 C 
HETATM   25  C19 UNL     1      19.716 -38.746   5.750  1.00  0.00     0.027 C 
HETATM   26  N9  UNL     1      18.432 -37.101   4.434  1.00  0.00    -0.364 N 
ATOM     27  H9  UNL     1      19.030 -36.298   4.630  1.00  0.00     0.162 HD
ENDBRANCH  16  17
ENDBRANCH  15  16
ENDBRANCH  14  15
ENDBRANCH  13  14
ENDBRANCH  12  13
ENDBRANCH  11  12
ENDBRANCH  10  11
ENDBRANCH   9  10
ENDBRANCH   8   9
BRANCH   1  28
HETATM   28  N1  UNL     1      10.153 -38.282   0.464  1.00  0.00    -0.234 N 
ATOM     29  H12 UNL     1       9.646 -39.089   0.828  1.00  0.00     0.174 HD
ATOM     30  H11 UNL     1      10.740 -38.432  -0.356  1.00  0.00     0.174 HD
ENDBRANCH   1  28
BRANCH   4  31
HETATM   31  N3  UNL     1       9.503 -35.766   4.226  1.00  0.00    -0.203 N 
ATOM     32  H3  UNL     1       9.477 -34.849   4.672  1.00  0.00     0.179 HD
BRANCH  31  33
HETATM   33  C3  UNL     1       9.241 -36.931   5.013  1.00  0.00     0.239 C 
HETATM   34  N4  UNL     1       7.936 -37.431   4.689  1.00  0.00    -0.120 NA
HETATM   35  N5  UNL     1       7.089 -37.245   5.754  1.00  0.00    -0.144 NA
HETATM   36  C4  UNL     1       7.716 -36.357   6.697  1.00  0.00     0.165 C 
HETATM   37  C5  UNL     1       9.196 -36.608   6.496  1.00  0.00     0.174 C 
BRANCH  37  38
HETATM   38  O1  UNL     1       9.607 -37.655   7.290  1.00  0.00    -0.391 OA
ATOM     39  H1  UNL     1       9.701 -37.414   8.204  1.00  0.00     0.210 HD
ENDBRANCH  37  38
ENDBRANCH  31  33
ENDBRANCH   4  31
TORSDOF 13
ENDMDL
MODEL 3
REMARK VINA RESULT: -9.763808051      0.700      1.264
REMARK  13 active torsions:
REMARK  status: ('A' for Active; 'I' for Inactive)
REMARK    1  A    between atoms: N1_1  and  C1_4 
REMARK    2  A    between atoms: C2_7  and  N3_8 
REMARK    3  A    between atoms: N3_8  and  C3_10 
REMARK    4  A    between atoms: C5_14  and  O1_15 
REMARK    5  A    between atoms: N7_20  and  C7_21 
REMARK    6  A    between atoms: C7_21  and  C8_22 
REMARK    7  A    between atoms: C8_22  and  C9_23 
REMARK    8  A    between atoms: C9_23  and  C10_24 
REMARK    9  A    between atoms: C10_24  and  C11_25 
REMARK   10  A    between atoms: C11_25  and  C12_26 
REMARK   11  A    between atoms: C12_26  and  C13_27 
REMARK   12  A    between atoms: C13_27  and  S1_28 
REMARK   13  A    between atoms: S1_28  and  C14_29 
ROOT
HETATM    1  C1  UNL     1      10.364 -35.459   0.486  1.00  0.00     0.693 A 
HETATM    2  N2  UNL     1       9.825 -35.372   1.750  1.00  0.00    -0.022 N 
ATOM      3  H2  UNL     1       8.875 -35.012   1.840  1.00  0.00     0.203 HD
HETATM    4  C2  UNL     1      10.463 -35.725   2.857  1.00  0.00     0.695 A 
HETATM    5  N6  UNL     1      11.719 -36.200   2.740  1.00  0.00    -0.187 N 
ATOM      6  H6  UNL     1      12.243 -36.480   3.570  1.00  0.00     0.185 HD
HETATM    7  C6  UNL     1      12.271 -36.299   1.532  1.00  0.00     0.218 A 
HETATM    8  N7  UNL     1      11.606 -35.932   0.385  1.00  0.00    -0.179 N 
ENDROOT
BRANCH   8   9
HETATM    9  C7  UNL     1      12.244 -36.111  -0.887  1.00  0.00     0.148 C 
BRANCH   9  10
HETATM   10  C8  UNL     1      13.631 -36.682  -0.827  1.00  0.00     0.021 C 
BRANCH  10  11
HETATM   11  C9  UNL     1      14.617 -35.933  -1.663  1.00  0.00     0.002 C 
BRANCH  11  12
HETATM   12  C10 UNL     1      15.935 -35.919  -0.900  1.00  0.00     0.000 C 
BRANCH  12  13
HETATM   13  C11 UNL     1      15.713 -36.047   0.599  1.00  0.00     0.001 C 
BRANCH  13  14
HETATM   14  C12 UNL     1      16.845 -35.545   1.393  1.00  0.00     0.010 C 
BRANCH  14  15
HETATM   15  C13 UNL     1      16.716 -35.382   2.859  1.00  0.00     0.082 C 
BRANCH  15  16
HETATM   16  S1  UNL     1      16.043 -36.635   3.842  1.00  0.00    -0.095 SA
BRANCH  16  17
HETATM   17  C14 UNL     1      17.002 -37.879   4.594  1.00  0.00     0.136 C 
HETATM   18  N8  UNL     1      16.366 -38.826   5.302  1.00  0.00    -0.364 N 
HETATM   19  C15 UNL     1      17.298 -39.742   5.834  1.00  0.00     0.106 C 
ATOM     20  H8  UNL     1      15.356 -38.876   5.436  1.00  0.00     0.162 HD
HETATM   21  C16 UNL     1      16.857 -41.174   5.829  1.00  0.00     0.027 C 
HETATM   22  C20 UNL     1      18.436 -39.631   4.805  1.00  0.00     0.106 C 
HETATM   23  C17 UNL     1      18.062 -42.032   5.487  1.00  0.00     0.002 C 
HETATM   24  C18 UNL     1      19.332 -41.472   6.103  1.00  0.00     0.002 C 
HETATM   25  C19 UNL     1      19.674 -40.118   5.470  1.00  0.00     0.027 C 
HETATM   26  N9  UNL     1      18.390 -38.175   4.659  1.00  0.00    -0.364 N 
ATOM     27  H9  UNL     1      19.174 -37.523   4.613  1.00  0.00     0.162 HD
ENDBRANCH  16  17
ENDBRANCH  15  16
ENDBRANCH  14  15
ENDBRANCH  13  14
ENDBRANCH  12  13
ENDBRANCH  11  12
ENDBRANCH  10  11
ENDBRANCH   9  10
ENDBRANCH   8   9
BRANCH   1  28
HETATM   28  N1  UNL     1       9.640 -35.052  -0.491  1.00  0.00    -0.234 N 
ATOM     29  H12 UNL     1       9.296 -35.632  -1.256  1.00  0.00     0.174 HD
ATOM     30  H11 UNL     1       9.406 -34.060  -0.518  1.00  0.00     0.174 HD
ENDBRANCH   1  28
BRANCH   4  31
HETATM   31  N3  UNL     1       9.937 -35.633   4.034  1.00  0.00    -0.203 N 
ATOM     32  H3  UNL     1       9.605 -34.724   4.359  1.00  0.00     0.179 HD
BRANCH  31  33
HETATM   33  C3  UNL     1       9.808 -36.769   4.894  1.00  0.00     0.239 C 
HETATM   34  N4  UNL     1       9.236 -37.854   4.152  1.00  0.00    -0.120 NA
HETATM   35  N5  UNL     1       7.965 -38.109   4.604  1.00  0.00    -0.144 NA
HETATM   36  C4  UNL     1       7.545 -37.021   5.448  1.00  0.00     0.165 C 
HETATM   37  C5  UNL     1       8.842 -36.502   6.034  1.00  0.00     0.174 C 
BRANCH  37  38
HETATM   38  O1  UNL     1       9.152 -37.200   7.179  1.00  0.00    -0.391 OA
ATOM     39  H1  UNL     1       8.385 -37.484   7.662  1.00  0.00     0.210 HD
ENDBRANCH  37  38
ENDBRANCH  31  33
ENDBRANCH   4  31
TORSDOF 13
ENDMDL
MODEL 4
REMARK VINA RESULT: -9.722725827      1.118      2.134
REMARK  13 active torsions:
REMARK  status: ('A' for Active; 'I' for Inactive)
REMARK    1  A    between atoms: N1_1  and  C1_4 
REMARK    2  A    between atoms: C2_7  and  N3_8 
REMARK    3  A    between atoms: N3_8  and  C3_10 
REMARK    4  A    between atoms: C5_14  and  O1_15 
REMARK    5  A    between atoms: N7_20  and  C7_21 
REMARK    6  A    between atoms: C7_21  and  C8_22 
REMARK    7  A    between atoms: C8_22  and  C9_23 
REMARK    8  A    between atoms: C9_23  and  C10_24 
REMARK    9  A    between atoms: C10_24  and  C11_25 
REMARK   10  A    between atoms: C11_25  and  C12_26 
REMARK   11  A    between atoms: C12_26  and  C13_27 
REMARK   12  A    between atoms: C13_27  and  S1_28 
REMARK   13  A    between atoms: S1_28  and  C14_29 
ROOT
HETATM    1  C1  UNL     1      12.327 -36.635   1.902  1.00  0.00     0.693 A 
HETATM    2  N2  UNL     1      11.742 -36.315   3.105  1.00  0.00    -0.022 N 
ATOM      3  H2  UNL     1      12.315 -36.380   3.947  1.00  0.00     0.203 HD
HETATM    4  C2  UNL     1      10.481 -35.928   3.241  1.00  0.00     0.695 A 
HETATM    5  N6  UNL     1       9.723 -35.842   2.130  1.00  0.00    -0.187 N 
ATOM      6  H6  UNL     1       8.747 -35.549   2.194  1.00  0.00     0.185 HD
HETATM    7  C6  UNL     1      10.257 -36.143   0.948  1.00  0.00     0.218 A 
HETATM    8  N7  UNL     1      11.566 -36.544   0.810  1.00  0.00    -0.179 N 
ENDROOT
BRANCH   8   9
HETATM    9  C7  UNL     1      12.089 -36.807  -0.498  1.00  0.00     0.148 C 
BRANCH   9  10
HETATM   10  C8  UNL     1      11.829 -35.732  -1.513  1.00  0.00     0.021 C 
BRANCH  10  11
HETATM   11  C9  UNL     1      12.978 -35.500  -2.440  1.00  0.00     0.002 C 
BRANCH  11  12
HETATM   12  C10 UNL     1      14.183 -36.223  -1.853  1.00  0.00     0.000 C 
BRANCH  12  13
HETATM   13  C11 UNL     1      15.487 -35.564  -2.270  1.00  0.00     0.001 C 
BRANCH  13  14
HETATM   14  C12 UNL     1      16.366 -35.256  -1.131  1.00  0.00     0.010 C 
BRANCH  14  15
HETATM   15  C13 UNL     1      16.218 -35.987   0.148  1.00  0.00     0.082 C 
BRANCH  15  16
HETATM   16  S1  UNL     1      16.777 -35.307   1.636  1.00  0.00    -0.095 SA
BRANCH  16  17
HETATM   17  C14 UNL     1      17.472 -36.256   2.920  1.00  0.00     0.136 C 
HETATM   18  N8  UNL     1      16.685 -37.142   3.549  1.00  0.00    -0.364 N 
HETATM   19  C15 UNL     1      17.414 -37.814   4.552  1.00  0.00     0.106 C 
ATOM     20  H8  UNL     1      15.701 -37.305   3.333  1.00  0.00     0.162 HD
HETATM   21  C16 UNL     1      17.099 -39.271   4.700  1.00  0.00     0.027 C 
HETATM   22  C20 UNL     1      18.840 -37.730   3.981  1.00  0.00     0.106 C 
HETATM   23  C17 UNL     1      18.398 -40.003   4.987  1.00  0.00     0.002 C 
HETATM   24  C18 UNL     1      19.317 -39.175   5.868  1.00  0.00     0.002 C 
HETATM   25  C19 UNL     1      19.778 -37.918   5.120  1.00  0.00     0.027 C 
HETATM   26  N9  UNL     1      18.757 -36.343   3.521  1.00  0.00    -0.364 N 
ATOM     27  H9  UNL     1      19.459 -35.608   3.611  1.00  0.00     0.162 HD
ENDBRANCH  16  17
ENDBRANCH  15  16
ENDBRANCH  14  15
ENDBRANCH  13  14
ENDBRANCH  12  13
ENDBRANCH  11  12
ENDBRANCH  10  11
ENDBRANCH   9  10
ENDBRANCH   8   9
BRANCH   1  28
HETATM   28  N1  UNL     1      13.550 -37.024   1.927  1.00  0.00    -0.234 N 
ATOM     29  H12 UNL     1      13.865 -37.992   1.868  1.00  0.00     0.174 HD
ATOM     30  H11 UNL     1      14.266 -36.307   2.038  1.00  0.00     0.174 HD
ENDBRANCH   1  28
BRANCH   4  31
HETATM   31  N3  UNL     1       9.953 -35.634   4.383  1.00  0.00    -0.203 N 
ATOM     32  H3  UNL     1       9.715 -34.662   4.584  1.00  0.00     0.179 HD
BRANCH  31  33
HETATM   33  C3  UNL     1       9.691 -36.633   5.373  1.00  0.00     0.239 C 
HETATM   34  N4  UNL     1       9.483 -37.893   4.720  1.00  0.00    -0.120 NA
HETATM   35  N5  UNL     1       8.168 -38.270   4.845  1.00  0.00    -0.144 NA
HETATM   36  C4  UNL     1       7.405 -37.145   5.319  1.00  0.00     0.165 C 
HETATM   37  C5  UNL     1       8.407 -36.350   6.130  1.00  0.00     0.174 C 
BRANCH  37  38
HETATM   38  O1  UNL     1       8.433 -36.811   7.427  1.00  0.00    -0.391 OA
ATOM     39  H1  UNL     1       8.083 -36.185   8.051  1.00  0.00     0.210 HD
ENDBRANCH  37  38
ENDBRANCH  31  33
ENDBRANCH   4  31
TORSDOF 13
ENDMDL
MODEL 5
REMARK VINA RESULT: -9.658644530      4.032      9.585
REMARK  13 active torsions:
REMARK  status: ('A' for Active; 'I' for Inactive)
REMARK    1  A    between atoms: N1_1  and  C1_4 
REMARK    2  A    between atoms: C2_7  and  N3_8 
REMARK    3  A    between atoms: N3_8  and  C3_10 
REMARK    4  A    between atoms: C5_14  and  O1_15 
REMARK    5  A    between atoms: N7_20  and  C7_21 
REMARK    6  A    between atoms: C7_21  and  C8_22 
REMARK    7  A    between atoms: C8_22  and  C9_23 
REMARK    8  A    between atoms: C9_23  and  C10_24 
REMARK    9  A    between atoms: C10_24  and  C11_25 
REMARK   10  A    between atoms: C11_25  and  C12_26 
REMARK   11  A    between atoms: C12_26  and  C13_27 
REMARK   12  A    between atoms: C13_27  and  S1_28 
REMARK   13  A    between atoms: S1_28  and  C14_29 
ROOT
HETATM    1  C1  UNL     1      17.951 -35.923   3.816  1.00  0.00     0.693 A 
HETATM    2  N2  UNL     1      19.323 -35.976   3.907  1.00  0.00    -0.022 N 
ATOM      3  H2  UNL     1      19.847 -35.124   3.707  1.00  0.00     0.203 HD
HETATM    4  C2  UNL     1      20.006 -37.063   4.239  1.00  0.00     0.695 A 
HETATM    5  N6  UNL     1      19.315 -38.189   4.502  1.00  0.00    -0.187 N 
ATOM      6  H6  UNL     1      19.806 -39.046   4.759  1.00  0.00     0.185 HD
HETATM    7  C6  UNL     1      17.986 -38.173   4.425  1.00  0.00     0.218 A 
HETATM    8  N7  UNL     1      17.279 -37.044   4.081  1.00  0.00    -0.179 N 
ENDROOT
BRANCH   8   9
HETATM    9  C7  UNL     1      15.846 -37.087   4.064  1.00  0.00     0.148 C 
BRANCH   9  10
HETATM   10  C8  UNL     1      15.245 -37.738   2.852  1.00  0.00     0.021 C 
BRANCH  10  11
HETATM   11  C9  UNL     1      14.236 -36.881   2.158  1.00  0.00     0.002 C 
BRANCH  11  12
HETATM   12  C10 UNL     1      14.904 -36.321   0.910  1.00  0.00     0.000 C 
BRANCH  12  13
HETATM   13  C11 UNL     1      14.370 -36.980  -0.352  1.00  0.00     0.001 C 
BRANCH  13  14
HETATM   14  C12 UNL     1      13.698 -36.033  -1.256  1.00  0.00     0.010 C 
BRANCH  14  15
HETATM   15  C13 UNL     1      12.221 -35.932  -1.270  1.00  0.00     0.082 C 
BRANCH  15  16
HETATM   16  S1  UNL     1      11.241 -37.033  -0.365  1.00  0.00    -0.095 SA
BRANCH  16  17
HETATM   17  C14 UNL     1      10.565 -36.652   1.193  1.00  0.00     0.136 C 
HETATM   18  N8  UNL     1       9.672 -37.503   1.720  1.00  0.00    -0.364 N 
HETATM   19  C15 UNL     1       9.236 -37.034   2.978  1.00  0.00     0.106 C 
ATOM     20  H8  UNL     1       9.354 -38.365   1.276  1.00  0.00     0.162 HD
HETATM   21  C16 UNL     1       9.032 -38.093   4.017  1.00  0.00     0.027 C 
HETATM   22  C20 UNL     1      10.458 -36.214   3.422  1.00  0.00     0.106 C 
HETATM   23  C17 UNL     1       9.506 -37.538   5.348  1.00  0.00     0.002 C 
HETATM   24  C18 UNL     1       9.183 -36.059   5.478  1.00  0.00     0.002 C 
HETATM   25  C19 UNL     1       9.987 -35.250   4.453  1.00  0.00     0.027 C 
HETATM   26  N9  UNL     1      10.726 -35.590   2.124  1.00  0.00    -0.364 N 
ATOM     27  H9  UNL     1      10.971 -34.619   1.933  1.00  0.00     0.162 HD
ENDBRANCH  16  17
ENDBRANCH  15  16
ENDBRANCH  14  15
ENDBRANCH  13  14
ENDBRANCH  12  13
ENDBRANCH  11  12
ENDBRANCH  10  11
ENDBRANCH   9  10
ENDBRANCH   8   9
BRANCH   1  28
HETATM   28  N1  UNL     1      17.428 -34.809   3.454  1.00  0.00    -0.234 N 
ATOM     29  H12 UNL     1      16.616 -34.367   3.886  1.00  0.00     0.174 HD
ATOM     30  H11 UNL     1      17.843 -34.336   2.652  1.00  0.00     0.174 HD
ENDBRANCH   1  28
BRANCH   4  31
HETATM   31  N3  UNL     1      21.296 -37.088   4.317  1.00  0.00    -0.203 N 
ATOM     32  H3  UNL     1      21.735 -37.309   5.211  1.00  0.00     0.179 HD
BRANCH  31  33
HETATM   33  C3  UNL     1      22.126 -36.816   3.183  1.00  0.00     0.239 C 
HETATM   34  N4  UNL     1      21.616 -37.531   2.049  1.00  0.00    -0.120 NA
HETATM   35  N5  UNL     1      22.487 -38.533   1.701  1.00  0.00    -0.144 NA
HETATM   36  C4  UNL     1      23.444 -38.707   2.762  1.00  0.00     0.165 C 
HETATM   37  C5  UNL     1      23.540 -37.330   3.386  1.00  0.00     0.174 C 
BRANCH  37  38
HETATM   38  O1  UNL     1      24.486 -36.579   2.726  1.00  0.00    -0.391 OA
ATOM     39  H1  UNL     1      25.240 -37.088   2.452  1.00  0.00     0.210 HD
ENDBRANCH  37  38
ENDBRANCH  31  33
ENDBRANCH   4  31
TORSDOF 13
ENDMDL
