MODEL 1
REMARK VINA RESULT: -8.468916181      0.000      0.000
REMARK  15 active torsions:
REMARK  status: ('A' for Active; 'I' for Inactive)
REMARK    1  A    between atoms: O1_2  and  C2_3 
REMARK    2  A    between atoms: C2_3  and  C3_4 
REMARK    3  A    between atoms: C3_4  and  O2_5 
REMARK    4  A    between atoms: O2_5  and  C4_6 
REMARK    5  A    between atoms: C4_6  and  C5_7 
REMARK    6  A    between atoms: C6_9  and  C7_10 
REMARK    7  A    between atoms: C7_10  and  C8_11 
REMARK    8  A    between atoms: C8_11  and  C9_12 
REMARK    9  A    between atoms: C9_12  and  O4_13 
REMARK   10  A    between atoms: C12_17  and  C13_18 
REMARK   11  A    between atoms: C15_20  and  O5_21 
REMARK   12  A    between atoms: C16_23  and  O6_24 
REMARK   13  A    between atoms: C17_27  and  O7_28 
REMARK   14  A    between atoms: C18_30  and  O8_31 
REMARK   15  A    between atoms: C19_33  and  O9_34 
ROOT
HETATM    1  C5  UNL     1      11.254 -35.956   1.119  1.00  0.00     0.177 C 
HETATM    2  O3  UNL     1      12.549 -36.001   1.590  1.00  0.00    -0.373 OA
HETATM    3  C6  UNL     1      13.179 -37.213   1.352  1.00  0.00     0.153 C 
HETATM    4  C17 UNL     1      13.458 -37.284  -0.136  1.00  0.00     0.178 C 
HETATM    5  C18 UNL     1      12.267 -36.825  -0.949  1.00  0.00     0.180 C 
HETATM    6  C19 UNL     1      11.057 -36.921  -0.061  1.00  0.00     0.180 C 
ENDROOT
BRANCH   3   7
HETATM    7  C7  UNL     1      14.509 -37.318   2.060  1.00  0.00     0.037 C 
BRANCH   7   8
HETATM    8  C8  UNL     1      15.501 -36.291   1.583  1.00  0.00     0.041 C 
BRANCH   8   9
HETATM    9  C9  UNL     1      16.597 -36.023   2.562  1.00  0.00     0.066 C 
HETATM   10  C10 UNL     1      16.676 -34.642   3.138  1.00  0.00     0.039 C 
HETATM   11  C11 UNL     1      17.156 -35.284   4.428  1.00  0.00     0.016 C 
HETATM   12  C12 UNL     1      16.419 -36.536   3.943  1.00  0.00     0.060 C 
BRANCH   9  13
HETATM   13  O4  UNL     1      17.857 -36.403   2.065  1.00  0.00    -0.389 OA
ATOM     14  H4  UNL     1      18.566 -36.116   2.628  1.00  0.00     0.210 HD
ENDBRANCH   9  13
BRANCH  12  15
HETATM   15  C13 UNL     1      17.274 -37.722   4.283  1.00  0.00    -0.005 A 
HETATM   16  C14 UNL     1      16.875 -39.032   4.358  1.00  0.00     0.055 A 
HETATM   17  C15 UNL     1      17.813 -39.941   4.682  1.00  0.00     0.107 A 
HETATM   18  C16 UNL     1      19.082 -39.481   4.909  1.00  0.00     0.141 A 
HETATM   19  S1  UNL     1      18.929 -37.802   4.665  1.00  0.00    -0.067 SA
BRANCH  17  20
HETATM   20  O5  UNL     1      17.564 -41.334   4.800  1.00  0.00    -0.357 OA
ATOM     21  H5  UNL     1      17.656 -41.825   5.608  1.00  0.00     0.217 HD
ENDBRANCH  17  20
BRANCH  18  22
HETATM   22  O6  UNL     1      20.226 -40.234   5.260  1.00  0.00    -0.352 OA
ATOM     23  H6  UNL     1      20.834 -40.673   4.677  1.00  0.00     0.218 HD
ENDBRANCH  18  22
ENDBRANCH  12  15
ENDBRANCH   8   9
ENDBRANCH   7   8
ENDBRANCH   3   7
BRANCH   4  24
HETATM   24  O7  UNL     1      13.771 -38.590  -0.495  1.00  0.00    -0.390 OA
ATOM     25  H7  UNL     1      14.553 -38.597  -1.035  1.00  0.00     0.210 HD
ENDBRANCH   4  24
BRANCH   1  26
HETATM   26  C4  UNL     1      10.320 -36.468   2.190  1.00  0.00     0.202 C 
BRANCH  26  27
HETATM   27  O2  UNL     1       9.580 -35.526   2.838  1.00  0.00    -0.386 OA
BRANCH  27  28
HETATM   28  C3  UNL     1       9.611 -35.655   4.215  1.00  0.00     0.193 C 
BRANCH  28  29
HETATM   29  C2  UNL     1       9.589 -37.107   4.622  1.00  0.00     0.193 C 
BRANCH  29  30
HETATM   30  O1  UNL     1       8.477 -37.482   5.338  1.00  0.00    -0.394 OA
HETATM   31  C1  UNL     1       7.336 -37.525   4.549  1.00  0.00     0.201 C 
ENDBRANCH  29  30
ENDBRANCH  28  29
ENDBRANCH  27  28
ENDBRANCH  26  27
ENDBRANCH   1  26
BRANCH   5  32
HETATM   32  O8  UNL     1      12.521 -35.549  -1.388  1.00  0.00    -0.390 OA
ATOM     33  H8  UNL     1      11.799 -35.282  -1.945  1.00  0.00     0.210 HD
ENDBRANCH   5  32
BRANCH   6  34
HETATM   34  O9  UNL     1       9.959 -36.464  -0.775  1.00  0.00    -0.390 OA
ATOM     35  H9  UNL     1       9.194 -36.619  -0.233  1.00  0.00     0.210 HD
ENDBRANCH   6  34
TORSDOF 15
ENDMDL
MODEL 2
REMARK VINA RESULT: -8.294318399      2.220      4.977
REMARK  15 active torsions:
REMARK  status: ('A' for Active; 'I' for Inactive)
REMARK    1  A    between atoms: O1_2  and  C2_3 
REMARK    2  A    between atoms: C2_3  and  C3_4 
REMARK    3  A    between atoms: C3_4  and  O2_5 
REMARK    4  A    between atoms: O2_5  and  C4_6 
REMARK    5  A    between atoms: C4_6  and  C5_7 
REMARK    6  A    between atoms: C6_9  and  C7_10 
REMARK    7  A    between atoms: C7_10  and  C8_11 
REMARK    8  A    between atoms: C8_11  and  C9_12 
REMARK    9  A    between atoms: C9_12  and  O4_13 
REMARK   10  A    between atoms: C12_17  and  C13_18 
REMARK   11  A    between atoms: C15_20  and  O5_21 
REMARK   12  A    between atoms: C16_23  and  O6_24 
REMARK   13  A    between atoms: C17_27  and  O7_28 
REMARK   14  A    between atoms: C18_30  and  O8_31 
REMARK   15  A    between atoms: C19_33  and  O9_34 
ROOT
HETATM    1  C5  UNL     1      12.655 -36.657  -0.757  1.00  0.00     0.177 C 
HETATM    2  O3  UNL     1      12.866 -37.139   0.517  1.00  0.00    -0.373 OA
HETATM    3  C6  UNL     1      12.521 -36.236   1.511  1.00  0.00     0.153 C 
HETATM    4  C17 UNL     1      11.008 -36.152   1.529  1.00  0.00     0.178 C 
HETATM    5  C18 UNL     1      10.437 -36.062   0.131  1.00  0.00     0.180 C 
HETATM    6  C19 UNL     1      11.545 -35.594  -0.774  1.00  0.00     0.180 C 
ENDROOT
BRANCH   3   7
HETATM    7  C7  UNL     1      12.958 -36.696   2.881  1.00  0.00     0.037 C 
BRANCH   7   8
HETATM    8  C8  UNL     1      14.135 -35.918   3.404  1.00  0.00     0.041 C 
BRANCH   8   9
HETATM    9  C9  UNL     1      15.446 -36.384   2.860  1.00  0.00     0.066 C 
HETATM   10  C10 UNL     1      16.082 -35.541   1.796  1.00  0.00     0.039 C 
HETATM   11  C11 UNL     1      17.425 -35.930   2.391  1.00  0.00     0.016 C 
HETATM   12  C12 UNL     1      16.651 -36.155   3.694  1.00  0.00     0.060 C 
BRANCH   9  13
HETATM   13  O4  UNL     1      15.399 -37.725   2.438  1.00  0.00    -0.389 OA
ATOM     14  H4  UNL     1      15.237 -37.802   1.505  1.00  0.00     0.210 HD
ENDBRANCH   9  13
BRANCH  12  15
HETATM   15  C13 UNL     1      17.207 -37.391   4.340  1.00  0.00    -0.005 A 
HETATM   16  C14 UNL     1      16.514 -38.324   5.068  1.00  0.00     0.055 A 
HETATM   17  C15 UNL     1      17.215 -39.362   5.561  1.00  0.00     0.107 A 
HETATM   18  C16 UNL     1      18.557 -39.397   5.293  1.00  0.00     0.141 A 
HETATM   19  S1  UNL     1      18.799 -37.988   4.368  1.00  0.00    -0.067 SA
BRANCH  17  20
HETATM   20  O5  UNL     1      16.648 -40.410   6.332  1.00  0.00    -0.357 OA
ATOM     21  H5  UNL     1      16.933 -41.315   6.291  1.00  0.00     0.217 HD
ENDBRANCH  17  20
BRANCH  18  22
HETATM   22  O6  UNL     1      19.495 -40.374   5.698  1.00  0.00    -0.352 OA
ATOM     23  H6  UNL     1      20.065 -40.353   6.458  1.00  0.00     0.218 HD
ENDBRANCH  18  22
ENDBRANCH  12  15
ENDBRANCH   8   9
ENDBRANCH   7   8
ENDBRANCH   3   7
BRANCH   4  24
HETATM   24  O7  UNL     1      10.607 -35.033   2.251  1.00  0.00    -0.390 OA
ATOM     25  H7  UNL     1      10.038 -35.297   2.965  1.00  0.00     0.210 HD
ENDBRANCH   4  24
BRANCH   1  26
HETATM   26  C4  UNL     1      13.891 -35.922  -1.220  1.00  0.00     0.202 C 
BRANCH  26  27
HETATM   27  O2  UNL     1      14.489 -36.407  -2.343  1.00  0.00    -0.386 OA
BRANCH  27  28
HETATM   28  C3  UNL     1      14.310 -35.600  -3.452  1.00  0.00     0.193 C 
BRANCH  28  29
HETATM   29  C2  UNL     1      15.616 -35.374  -4.172  1.00  0.00     0.193 C 
BRANCH  29  30
HETATM   30  O1  UNL     1      15.935 -36.344  -5.092  1.00  0.00    -0.394 OA
HETATM   31  C1  UNL     1      14.959 -36.483  -6.068  1.00  0.00     0.201 C 
ENDBRANCH  29  30
ENDBRANCH  28  29
ENDBRANCH  27  28
ENDBRANCH  26  27
ENDBRANCH   1  26
BRANCH   5  32
HETATM   32  O8  UNL     1       9.946 -37.300  -0.205  1.00  0.00    -0.390 OA
ATOM     33  H8  UNL     1      10.054 -37.413  -1.143  1.00  0.00     0.210 HD
ENDBRANCH   5  32
BRANCH   6  34
HETATM   34  O9  UNL     1      11.053 -35.546  -2.070  1.00  0.00    -0.390 OA
ATOM     35  H9  UNL     1      10.876 -34.633  -2.264  1.00  0.00     0.210 HD
ENDBRANCH   6  34
TORSDOF 15
ENDMDL
MODEL 3
REMARK VINA RESULT: -8.269558416      3.225      7.961
REMARK  15 active torsions:
REMARK  status: ('A' for Active; 'I' for Inactive)
REMARK    1  A    between atoms: O1_2  and  C2_3 
REMARK    2  A    between atoms: C2_3  and  C3_4 
REMARK    3  A    between atoms: C3_4  and  O2_5 
REMARK    4  A    between atoms: O2_5  and  C4_6 
REMARK    5  A    between atoms: C4_6  and  C5_7 
REMARK    6  A    between atoms: C6_9  and  C7_10 
REMARK    7  A    between atoms: C7_10  and  C8_11 
REMARK    8  A    between atoms: C8_11  and  C9_12 
REMARK    9  A    between atoms: C9_12  and  O4_13 
REMARK   10  A    between atoms: C12_17  and  C13_18 
REMARK   11  A    between atoms: C15_20  and  O5_21 
REMARK   12  A    between atoms: C16_23  and  O6_24 
REMARK   13  A    between atoms: C17_27  and  O7_28 
REMARK   14  A    between atoms: C18_30  and  O8_31 
REMARK   15  A    between atoms: C19_33  and  O9_34 
ROOT
HETATM    1  C5  UNL     1      16.507 -35.501   1.685  1.00  0.00     0.177 C 
HETATM    2  O3  UNL     1      15.248 -35.442   2.241  1.00  0.00    -0.373 OA
HETATM    3  C6  UNL     1      14.953 -36.526   3.054  1.00  0.00     0.153 C 
HETATM    4  C17 UNL     1      15.783 -36.376   4.313  1.00  0.00     0.178 C 
HETATM    5  C18 UNL     1      17.207 -35.972   3.998  1.00  0.00     0.180 C 
HETATM    6  C19 UNL     1      17.463 -36.328   2.559  1.00  0.00     0.180 C 
ENDROOT
BRANCH   3   7
HETATM    7  C7  UNL     1      13.504 -36.550   3.476  1.00  0.00     0.037 C 
BRANCH   7   8
HETATM    8  C8  UNL     1      12.773 -35.286   3.112  1.00  0.00     0.041 C 
BRANCH   8   9
HETATM    9  C9  UNL     1      11.352 -35.513   2.714  1.00  0.00     0.066 C 
HETATM   10  C10 UNL     1      11.076 -35.721   1.255  1.00  0.00     0.039 C 
HETATM   11  C11 UNL     1       9.975 -36.680   1.673  1.00  0.00     0.016 C 
HETATM   12  C12 UNL     1      10.780 -36.859   2.963  1.00  0.00     0.060 C 
BRANCH   9  13
HETATM   13  O4  UNL     1      10.493 -34.522   3.223  1.00  0.00    -0.389 OA
ATOM     14  H4  UNL     1      10.370 -34.603   4.162  1.00  0.00     0.210 HD
ENDBRANCH   9  13
BRANCH  12  15
HETATM   15  C13 UNL     1       9.801 -36.921   4.101  1.00  0.00    -0.005 A 
HETATM   16  C14 UNL     1      10.093 -37.049   5.434  1.00  0.00     0.055 A 
HETATM   17  C15 UNL     1       9.054 -37.084   6.289  1.00  0.00     0.107 A 
HETATM   18  C16 UNL     1       7.798 -36.989   5.754  1.00  0.00     0.141 A 
HETATM   19  S1  UNL     1       8.102 -36.855   4.084  1.00  0.00    -0.067 SA
BRANCH  17  20
HETATM   20  O5  UNL     1       9.186 -37.211   7.696  1.00  0.00    -0.357 OA
ATOM     21  H5  UNL     1       9.122 -38.035   8.165  1.00  0.00     0.217 HD
ENDBRANCH  17  20
BRANCH  18  22
HETATM   22  O6  UNL     1       6.562 -37.002   6.441  1.00  0.00    -0.352 OA
ATOM     23  H6  UNL     1       5.803 -37.545   6.262  1.00  0.00     0.218 HD
ENDBRANCH  18  22
ENDBRANCH  12  15
ENDBRANCH   8   9
ENDBRANCH   7   8
ENDBRANCH   3   7
BRANCH   4  24
HETATM   24  O7  UNL     1      15.800 -37.578   5.012  1.00  0.00    -0.390 OA
ATOM     25  H7  UNL     1      15.398 -37.460   5.865  1.00  0.00     0.210 HD
ENDBRANCH   4  24
BRANCH   1  26
HETATM   26  C4  UNL     1      16.437 -36.256   0.378  1.00  0.00     0.202 C 
BRANCH  26  27
HETATM   27  O2  UNL     1      15.947 -35.562  -0.686  1.00  0.00    -0.386 OA
BRANCH  27  28
HETATM   28  C3  UNL     1      14.779 -36.098  -1.200  1.00  0.00     0.193 C 
BRANCH  28  29
HETATM   29  C2  UNL     1      14.612 -35.733  -2.654  1.00  0.00     0.193 C 
BRANCH  29  30
HETATM   30  O1  UNL     1      15.790 -35.617  -3.352  1.00  0.00    -0.394 OA
HETATM   31  C1  UNL     1      15.584 -35.576  -4.724  1.00  0.00     0.201 C 
ENDBRANCH  29  30
ENDBRANCH  28  29
ENDBRANCH  27  28
ENDBRANCH  26  27
ENDBRANCH   1  26
BRANCH   5  32
HETATM   32  O8  UNL     1      17.333 -34.629   4.257  1.00  0.00    -0.390 OA
ATOM     33  H8  UNL     1      16.496 -34.314   4.579  1.00  0.00     0.210 HD
ENDBRANCH   5  32
BRANCH   6  34
HETATM   34  O9  UNL     1      18.752 -35.928   2.237  1.00  0.00    -0.390 OA
ATOM     35  H9  UNL     1      19.153 -35.617   3.040  1.00  0.00     0.210 HD
ENDBRANCH   6  34
TORSDOF 15
ENDMDL
MODEL 4
REMARK VINA RESULT: -8.192336676      3.381      8.095
REMARK  15 active torsions:
REMARK  status: ('A' for Active; 'I' for Inactive)
REMARK    1  A    between atoms: O1_2  and  C2_3 
REMARK    2  A    between atoms: C2_3  and  C3_4 
REMARK    3  A    between atoms: C3_4  and  O2_5 
REMARK    4  A    between atoms: O2_5  and  C4_6 
REMARK    5  A    between atoms: C4_6  and  C5_7 
REMARK    6  A    between atoms: C6_9  and  C7_10 
REMARK    7  A    between atoms: C7_10  and  C8_11 
REMARK    8  A    between atoms: C8_11  and  C9_12 
REMARK    9  A    between atoms: C9_12  and  O4_13 
REMARK   10  A    between atoms: C12_17  and  C13_18 
REMARK   11  A    between atoms: C15_20  and  O5_21 
REMARK   12  A    between atoms: C16_23  and  O6_24 
REMARK   13  A    between atoms: C17_27  and  O7_28 
REMARK   14  A    between atoms: C18_30  and  O8_31 
REMARK   15  A    between atoms: C19_33  and  O9_34 
ROOT
HETATM    1  C5  UNL     1      17.345 -38.028   3.952  1.00  0.00     0.177 C 
HETATM    2  O3  UNL     1      16.278 -37.913   3.088  1.00  0.00    -0.373 OA
HETATM    3  C6  UNL     1      15.574 -36.727   3.237  1.00  0.00     0.153 C 
HETATM    4  C17 UNL     1      16.451 -35.618   2.692  1.00  0.00     0.178 C 
HETATM    5  C18 UNL     1      17.885 -35.764   3.152  1.00  0.00     0.180 C 
HETATM    6  C19 UNL     1      17.875 -36.648   4.370  1.00  0.00     0.180 C 
ENDROOT
BRANCH   3   7
HETATM    7  C7  UNL     1      14.292 -36.715   2.438  1.00  0.00     0.037 C 
BRANCH   7   8
HETATM    8  C8  UNL     1      14.144 -37.931   1.563  1.00  0.00     0.041 C 
BRANCH   8   9
HETATM    9  C9  UNL     1      13.537 -37.635   0.232  1.00  0.00     0.066 C 
HETATM   10  C10 UNL     1      12.041 -37.665   0.141  1.00  0.00     0.039 C 
HETATM   11  C11 UNL     1      12.151 -36.539  -0.873  1.00  0.00     0.016 C 
HETATM   12  C12 UNL     1      13.485 -36.215  -0.195  1.00  0.00     0.060 C 
BRANCH   9  13
HETATM   13  O4  UNL     1      14.090 -38.426  -0.792  1.00  0.00    -0.389 OA
ATOM     14  H4  UNL     1      13.605 -39.231  -0.925  1.00  0.00     0.210 HD
ENDBRANCH   9  13
BRANCH  12  15
HETATM   15  C13 UNL     1      14.463 -35.851  -1.275  1.00  0.00    -0.005 A 
HETATM   16  C14 UNL     1      14.221 -35.801  -2.623  1.00  0.00     0.055 A 
HETATM   17  C15 UNL     1      15.249 -35.449  -3.418  1.00  0.00     0.107 A 
HETATM   18  C16 UNL     1      16.444 -35.172  -2.812  1.00  0.00     0.141 A 
HETATM   19  S1  UNL     1      16.102 -35.411  -1.161  1.00  0.00    -0.067 SA
BRANCH  17  20
HETATM   20  O5  UNL     1      15.164 -35.349  -4.831  1.00  0.00    -0.357 OA
ATOM     21  H5  UNL     1      15.144 -34.527  -5.307  1.00  0.00     0.217 HD
ENDBRANCH  17  20
BRANCH  18  22
HETATM   22  O6  UNL     1      17.657 -34.785  -3.428  1.00  0.00    -0.352 OA
ATOM     23  H6  UNL     1      18.532 -35.107  -3.243  1.00  0.00     0.218 HD
ENDBRANCH  18  22
ENDBRANCH  12  15
ENDBRANCH   8   9
ENDBRANCH   7   8
ENDBRANCH   3   7
BRANCH   4  24
HETATM   24  O7  UNL     1      15.966 -34.385   3.113  1.00  0.00    -0.390 OA
ATOM     25  H7  UNL     1      16.687 -33.775   3.218  1.00  0.00     0.210 HD
ENDBRANCH   4  24
BRANCH   1  26
HETATM   26  C4  UNL     1      16.872 -38.660   5.241  1.00  0.00     0.202 C 
BRANCH  26  27
HETATM   27  O2  UNL     1      17.828 -39.273   5.991  1.00  0.00    -0.386 OA
BRANCH  27  28
HETATM   28  C3  UNL     1      18.483 -40.291   5.321  1.00  0.00     0.193 C 
BRANCH  28  29
HETATM   29  C2  UNL     1      19.973 -40.211   5.540  1.00  0.00     0.193 C 
BRANCH  29  30
HETATM   30  O1  UNL     1      20.618 -39.291   4.748  1.00  0.00    -0.394 OA
HETATM   31  C1  UNL     1      21.928 -39.078   5.153  1.00  0.00     0.201 C 
ENDBRANCH  29  30
ENDBRANCH  28  29
ENDBRANCH  27  28
ENDBRANCH  26  27
ENDBRANCH   1  26
BRANCH   5  32
HETATM   32  O8  UNL     1      18.613 -36.281   2.109  1.00  0.00    -0.390 OA
ATOM     33  H8  UNL     1      19.533 -36.238   2.345  1.00  0.00     0.210 HD
ENDBRANCH   5  32
BRANCH   6  34
HETATM   34  O9  UNL     1      19.187 -36.828   4.784  1.00  0.00    -0.390 OA
ATOM     35  H9  UNL     1      19.264 -37.731   5.067  1.00  0.00     0.210 HD
ENDBRANCH   6  34
TORSDOF 15
ENDMDL
MODEL 5
REMARK VINA RESULT: -8.124431044      1.861      4.657
REMARK  15 active torsions:
REMARK  status: ('A' for Active; 'I' for Inactive)
REMARK    1  A    between atoms: O1_2  and  C2_3 
REMARK    2  A    between atoms: C2_3  and  C3_4 
REMARK    3  A    between atoms: C3_4  and  O2_5 
REMARK    4  A    between atoms: O2_5  and  C4_6 
REMARK    5  A    between atoms: C4_6  and  C5_7 
REMARK    6  A    between atoms: C6_9  and  C7_10 
REMARK    7  A    between atoms: C7_10  and  C8_11 
REMARK    8  A    between atoms: C8_11  and  C9_12 
REMARK    9  A    between atoms: C9_12  and  O4_13 
REMARK   10  A    between atoms: C12_17  and  C13_18 
REMARK   11  A    between atoms: C15_20  and  O5_21 
REMARK   12  A    between atoms: C16_23  and  O6_24 
REMARK   13  A    between atoms: C17_27  and  O7_28 
REMARK   14  A    between atoms: C18_30  and  O8_31 
REMARK   15  A    between atoms: C19_33  and  O9_34 
ROOT
HETATM    1  C5  UNL     1      11.704 -36.564  -0.576  1.00  0.00     0.177 C 
HETATM    2  O3  UNL     1      12.679 -37.130   0.218  1.00  0.00    -0.373 OA
HETATM    3  C6  UNL     1      13.082 -36.313   1.262  1.00  0.00     0.153 C 
HETATM    4  C17 UNL     1      11.944 -36.275   2.262  1.00  0.00     0.178 C 
HETATM    5  C18 UNL     1      10.606 -36.102   1.578  1.00  0.00     0.180 C 
HETATM    6  C19 UNL     1      10.874 -35.537   0.210  1.00  0.00     0.180 C 
ENDROOT
BRANCH   3   7
HETATM    7  C7  UNL     1      14.291 -36.857   1.984  1.00  0.00     0.037 C 
BRANCH   7   8
HETATM    8  C8  UNL     1      15.585 -36.320   1.433  1.00  0.00     0.041 C 
BRANCH   8   9
HETATM    9  C9  UNL     1      16.612 -36.048   2.482  1.00  0.00     0.066 C 
HETATM   10  C10 UNL     1      16.627 -34.675   3.083  1.00  0.00     0.039 C 
HETATM   11  C11 UNL     1      17.039 -35.330   4.390  1.00  0.00     0.016 C 
HETATM   12  C12 UNL     1      16.359 -36.587   3.841  1.00  0.00     0.060 C 
BRANCH   9  13
HETATM   13  O4  UNL     1      17.908 -36.395   2.059  1.00  0.00    -0.389 OA
ATOM     14  H4  UNL     1      17.941 -37.267   1.683  1.00  0.00     0.210 HD
ENDBRANCH   9  13
BRANCH  12  15
HETATM   15  C13 UNL     1      17.215 -37.762   4.215  1.00  0.00    -0.005 A 
HETATM   16  C14 UNL     1      16.825 -39.074   4.296  1.00  0.00     0.055 A 
HETATM   17  C15 UNL     1      17.762 -39.972   4.653  1.00  0.00     0.107 A 
HETATM   18  C16 UNL     1      19.021 -39.498   4.905  1.00  0.00     0.141 A 
HETATM   19  S1  UNL     1      18.861 -37.824   4.637  1.00  0.00    -0.067 SA
BRANCH  17  20
HETATM   20  O5  UNL     1      17.521 -41.365   4.782  1.00  0.00    -0.357 OA
ATOM     21  H5  UNL     1      17.195 -41.778   5.573  1.00  0.00     0.217 HD
ENDBRANCH  17  20
BRANCH  18  22
HETATM   22  O6  UNL     1      20.162 -40.238   5.292  1.00  0.00    -0.352 OA
ATOM     23  H6  UNL     1      20.487 -41.047   4.913  1.00  0.00     0.218 HD
ENDBRANCH  18  22
ENDBRANCH  12  15
ENDBRANCH   8   9
ENDBRANCH   7   8
ENDBRANCH   3   7
BRANCH   4  24
HETATM   24  O7  UNL     1      12.133 -35.224   3.153  1.00  0.00    -0.390 OA
ATOM     25  H7  UNL     1      11.550 -34.507   2.933  1.00  0.00     0.210 HD
ENDBRANCH   4  24
BRANCH   1  26
HETATM   26  C4  UNL     1      12.364 -35.761  -1.672  1.00  0.00     0.202 C 
BRANCH  26  27
HETATM   27  O2  UNL     1      13.678 -36.033  -1.904  1.00  0.00    -0.386 OA
BRANCH  27  28
HETATM   28  C3  UNL     1      14.114 -35.617  -3.149  1.00  0.00     0.193 C 
BRANCH  28  29
HETATM   29  C2  UNL     1      15.593 -35.325  -3.134  1.00  0.00     0.193 C 
BRANCH  29  30
HETATM   30  O1  UNL     1      16.255 -35.665  -4.289  1.00  0.00    -0.394 OA
HETATM   31  C1  UNL     1      15.382 -36.029  -5.305  1.00  0.00     0.201 C 
ENDBRANCH  29  30
ENDBRANCH  28  29
ENDBRANCH  27  28
ENDBRANCH  26  27
ENDBRANCH   1  26
BRANCH   5  32
HETATM   32  O8  UNL     1       9.984 -37.326   1.549  1.00  0.00    -0.390 OA
ATOM     33  H8  UNL     1       9.365 -37.323   0.828  1.00  0.00     0.210 HD
ENDBRANCH   5  32
BRANCH   6  34
HETATM   34  O9  UNL     1       9.661 -35.409  -0.451  1.00  0.00    -0.390 OA
ATOM     35  H9  UNL     1       9.537 -36.204  -0.956  1.00  0.00     0.210 HD
ENDBRANCH   6  34
TORSDOF 15
ENDMDL
