MODEL 1
REMARK VINA RESULT: -8.225475165      0.000      0.000
REMARK  13 active torsions:
REMARK  status: ('A' for Active; 'I' for Inactive)
REMARK    1  A    between atoms: N3_8  and  C4_9 
REMARK    2  A    between atoms: C6_11  and  C7_12 
REMARK    3  A    between atoms: C7_12  and  S2_13 
REMARK    4  A    between atoms: S2_13  and  C8_14 
REMARK    5  A    between atoms: C8_14  and  C9_15 
REMARK    6  A    between atoms: C9_15  and  C10_16 
REMARK    7  A    between atoms: C10_16  and  C11_17 
REMARK    8  A    between atoms: C11_17  and  S3_18 
REMARK    9  A    between atoms: S3_18  and  C12_19 
REMARK   10  A    between atoms: C13_21  and  C14_22 
REMARK   11  A    between atoms: C14_22  and  O2_23 
REMARK   12  A    between atoms: C15_25  and  O3_26 
REMARK   13  A    between atoms: C16_28  and  O4_29 
ROOT
HETATM    1  C9  UNL     1      16.527 -38.520   3.936  1.00  0.00     0.011 C 
ENDROOT
BRANCH   1   2
HETATM    2  C8  UNL     1      16.419 -37.107   4.475  1.00  0.00     0.074 C 
BRANCH   2   3
HETATM    3  S2  UNL     1      15.753 -35.953   3.278  1.00  0.00    -0.167 SA
BRANCH   3   4
HETATM    4  C7  UNL     1      13.974 -36.023   3.082  1.00  0.00     0.106 C 
BRANCH   4   5
HETATM    5  C6  UNL     1      13.551 -36.298   1.681  1.00  0.00     0.137 C 
HETATM    6  C5  UNL     1      13.884 -37.684   1.162  1.00  0.00     0.087 C 
HETATM    7  C4  UNL     1      12.648 -37.402   0.377  1.00  0.00     0.234 C 
HETATM    8  O5  UNL     1      12.212 -36.598   1.458  1.00  0.00    -0.360 OA
BRANCH   7   9
HETATM    9  N3  UNL     1      12.750 -36.592  -0.795  1.00  0.00    -0.283 N 
HETATM   10  C1  UNL     1      13.833 -36.323  -1.530  1.00  0.00     0.138 A 
HETATM   11  N1  UNL     1      15.150 -36.758  -1.355  1.00  0.00    -0.081 NA
HETATM   12  C2  UNL     1      13.415 -35.486  -2.565  1.00  0.00     0.136 A 
HETATM   13  N2  UNL     1      12.101 -35.280  -2.422  1.00  0.00    -0.340 N 
HETATM   14  C3  UNL     1      11.686 -35.944  -1.353  1.00  0.00     0.181 A 
ATOM     15  H2  UNL     1      11.517 -34.708  -3.033  1.00  0.00     0.167 HD
HETATM   16  S1  UNL     1      10.139 -35.976  -0.800  1.00  0.00    -0.040 SA
ENDBRANCH   7   9
ENDBRANCH   4   5
ENDBRANCH   3   4
ENDBRANCH   2   3
ENDBRANCH   1   2
BRANCH   1  17
HETATM   17  C10 UNL     1      17.836 -39.080   4.474  1.00  0.00     0.011 C 
BRANCH  17  18
HETATM   18  C11 UNL     1      18.854 -37.995   4.681  1.00  0.00     0.076 C 
BRANCH  18  19
HETATM   19  S3  UNL     1      20.457 -38.770   5.001  1.00  0.00    -0.135 SA
BRANCH  19  20
HETATM   20  C12 UNL     1      21.817 -37.563   4.942  1.00  0.00     0.214 C 
HETATM   21  O1  UNL     1      21.354 -36.295   5.079  1.00  0.00    -0.363 OA
HETATM   22  C13 UNL     1      22.100 -35.465   4.288  1.00  0.00     0.178 C 
HETATM   23  C15 UNL     1      23.012 -36.268   3.413  1.00  0.00     0.181 C 
HETATM   24  C16 UNL     1      22.532 -37.668   3.626  1.00  0.00     0.188 C 
BRANCH  22  25
HETATM   25  C14 UNL     1      22.928 -34.465   5.107  1.00  0.00     0.198 C 
BRANCH  25  26
HETATM   26  O2  UNL     1      22.049 -33.677   5.843  1.00  0.00    -0.398 OA
ATOM     27  H2  UNL     1      22.068 -32.798   5.482  1.00  0.00     0.209 HD
ENDBRANCH  25  26
ENDBRANCH  22  25
BRANCH  23  28
HETATM   28  O3  UNL     1      22.867 -35.885   2.080  1.00  0.00    -0.390 OA
ATOM     29  H3  UNL     1      23.650 -36.098   1.587  1.00  0.00     0.210 HD
ENDBRANCH  23  28
BRANCH  24  30
HETATM   30  O4  UNL     1      21.663 -38.133   2.659  1.00  0.00    -0.389 OA
ATOM     31  H4  UNL     1      20.986 -37.486   2.497  1.00  0.00     0.210 HD
ENDBRANCH  24  30
ENDBRANCH  19  20
ENDBRANCH  18  19
ENDBRANCH  17  18
ENDBRANCH   1  17
TORSDOF 13
ENDMDL
MODEL 2
REMARK VINA RESULT: -7.907963049      1.480      1.790
REMARK  13 active torsions:
REMARK  status: ('A' for Active; 'I' for Inactive)
REMARK    1  A    between atoms: N3_8  and  C4_9 
REMARK    2  A    between atoms: C6_11  and  C7_12 
REMARK    3  A    between atoms: C7_12  and  S2_13 
REMARK    4  A    between atoms: S2_13  and  C8_14 
REMARK    5  A    between atoms: C8_14  and  C9_15 
REMARK    6  A    between atoms: C9_15  and  C10_16 
REMARK    7  A    between atoms: C10_16  and  C11_17 
REMARK    8  A    between atoms: C11_17  and  S3_18 
REMARK    9  A    between atoms: S3_18  and  C12_19 
REMARK   10  A    between atoms: C13_21  and  C14_22 
REMARK   11  A    between atoms: C14_22  and  O2_23 
REMARK   12  A    between atoms: C15_25  and  O3_26 
REMARK   13  A    between atoms: C16_28  and  O4_29 
ROOT
HETATM    1  C9  UNL     1      16.404 -38.079   3.770  1.00  0.00     0.011 C 
ENDROOT
BRANCH   1   2
HETATM    2  C8  UNL     1      16.424 -36.658   4.299  1.00  0.00     0.074 C 
BRANCH   2   3
HETATM    3  S2  UNL     1      16.284 -35.430   3.003  1.00  0.00    -0.167 SA
BRANCH   3   4
HETATM    4  C7  UNL     1      15.742 -36.070   1.421  1.00  0.00     0.106 C 
BRANCH   4   5
HETATM    5  C6  UNL     1      14.262 -36.199   1.318  1.00  0.00     0.137 C 
HETATM    6  C5  UNL     1      13.733 -37.620   1.318  1.00  0.00     0.087 C 
HETATM    7  C4  UNL     1      12.583 -36.915   1.954  1.00  0.00     0.234 C 
HETATM    8  O5  UNL     1      13.514 -35.980   2.470  1.00  0.00    -0.360 OA
BRANCH   7   9
HETATM    9  N3  UNL     1      11.651 -36.229   1.116  1.00  0.00    -0.283 N 
HETATM   10  C1  UNL     1      11.588 -36.212  -0.219  1.00  0.00     0.138 A 
HETATM   11  N1  UNL     1      12.408 -36.855  -1.152  1.00  0.00    -0.081 NA
HETATM   12  C2  UNL     1      10.505 -35.399  -0.557  1.00  0.00     0.136 A 
HETATM   13  N2  UNL     1       9.954 -34.956   0.579  1.00  0.00    -0.340 N 
HETATM   14  C3  UNL     1      10.640 -35.451   1.599  1.00  0.00     0.181 A 
ATOM     15  H2  UNL     1       9.143 -34.341   0.648  1.00  0.00     0.167 HD
HETATM   16  S1  UNL     1      10.313 -35.169   3.185  1.00  0.00    -0.040 SA
ENDBRANCH   7   9
ENDBRANCH   4   5
ENDBRANCH   3   4
ENDBRANCH   2   3
ENDBRANCH   1   2
BRANCH   1  17
HETATM   17  C10 UNL     1      17.633 -38.764   4.349  1.00  0.00     0.011 C 
BRANCH  17  18
HETATM   18  C11 UNL     1      18.718 -37.774   4.661  1.00  0.00     0.076 C 
BRANCH  18  19
HETATM   19  S3  UNL     1      20.243 -38.686   5.003  1.00  0.00    -0.135 SA
BRANCH  19  20
HETATM   20  C12 UNL     1      21.691 -37.587   5.066  1.00  0.00     0.214 C 
HETATM   21  O1  UNL     1      21.316 -36.283   5.107  1.00  0.00    -0.363 OA
HETATM   22  C13 UNL     1      22.211 -35.544   4.384  1.00  0.00     0.178 C 
HETATM   23  C15 UNL     1      23.152 -36.448   3.648  1.00  0.00     0.181 C 
HETATM   24  C16 UNL     1      22.542 -37.798   3.848  1.00  0.00     0.188 C 
BRANCH  22  25
HETATM   25  C14 UNL     1      23.015 -34.576   5.262  1.00  0.00     0.198 C 
BRANCH  25  26
HETATM   26  O2  UNL     1      22.126 -33.666   5.828  1.00  0.00    -0.398 OA
ATOM     27  H2  UNL     1      22.456 -32.791   5.663  1.00  0.00     0.209 HD
ENDBRANCH  25  26
ENDBRANCH  22  25
BRANCH  23  28
HETATM   28  O3  UNL     1      23.192 -36.109   2.296  1.00  0.00    -0.390 OA
ATOM     29  H3  UNL     1      22.981 -36.864   1.760  1.00  0.00     0.210 HD
ENDBRANCH  23  28
BRANCH  24  30
HETATM   30  O4  UNL     1      21.757 -38.237   2.800  1.00  0.00    -0.389 OA
ATOM     31  H4  UNL     1      22.300 -38.402   2.039  1.00  0.00     0.210 HD
ENDBRANCH  24  30
ENDBRANCH  19  20
ENDBRANCH  18  19
ENDBRANCH  17  18
ENDBRANCH   1  17
TORSDOF 13
ENDMDL
MODEL 3
REMARK VINA RESULT: -7.862287390      4.096      9.695
REMARK  13 active torsions:
REMARK  status: ('A' for Active; 'I' for Inactive)
REMARK    1  A    between atoms: N3_8  and  C4_9 
REMARK    2  A    between atoms: C6_11  and  C7_12 
REMARK    3  A    between atoms: C7_12  and  S2_13 
REMARK    4  A    between atoms: S2_13  and  C8_14 
REMARK    5  A    between atoms: C8_14  and  C9_15 
REMARK    6  A    between atoms: C9_15  and  C10_16 
REMARK    7  A    between atoms: C10_16  and  C11_17 
REMARK    8  A    between atoms: C11_17  and  S3_18 
REMARK    9  A    between atoms: S3_18  and  C12_19 
REMARK   10  A    between atoms: C13_21  and  C14_22 
REMARK   11  A    between atoms: C14_22  and  O2_23 
REMARK   12  A    between atoms: C15_25  and  O3_26 
REMARK   13  A    between atoms: C16_28  and  O4_29 
ROOT
HETATM    1  C9  UNL     1      12.917 -36.894  -0.845  1.00  0.00     0.011 C 
ENDROOT
BRANCH   1   2
HETATM    2  C8  UNL     1      14.249 -36.276  -1.222  1.00  0.00     0.074 C 
BRANCH   2   3
HETATM    3  S2  UNL     1      15.420 -36.263   0.133  1.00  0.00    -0.167 SA
BRANCH   3   4
HETATM    4  C7  UNL     1      14.723 -36.680   1.729  1.00  0.00     0.106 C 
BRANCH   4   5
HETATM    5  C6  UNL     1      15.757 -36.983   2.757  1.00  0.00     0.137 C 
HETATM    6  C5  UNL     1      15.416 -36.548   4.169  1.00  0.00     0.087 C 
HETATM    7  C4  UNL     1      16.274 -37.733   4.461  1.00  0.00     0.234 C 
HETATM    8  O5  UNL     1      15.830 -38.287   3.235  1.00  0.00    -0.360 OA
BRANCH   7   9
HETATM    9  N3  UNL     1      17.693 -37.580   4.416  1.00  0.00    -0.283 N 
HETATM   10  C1  UNL     1      18.404 -36.476   4.168  1.00  0.00     0.138 A 
HETATM   11  N1  UNL     1      17.958 -35.181   3.888  1.00  0.00    -0.081 NA
HETATM   12  C2  UNL     1      19.749 -36.843   4.237  1.00  0.00     0.136 A 
HETATM   13  N2  UNL     1      19.804 -38.149   4.523  1.00  0.00    -0.340 N 
HETATM   14  C3  UNL     1      18.565 -38.607   4.634  1.00  0.00     0.181 A 
ATOM     15  H2  UNL     1      20.655 -38.699   4.637  1.00  0.00     0.167 HD
HETATM   16  S1  UNL     1      18.158 -40.161   4.979  1.00  0.00    -0.040 SA
ENDBRANCH   7   9
ENDBRANCH   4   5
ENDBRANCH   3   4
ENDBRANCH   2   3
ENDBRANCH   1   2
BRANCH   1  17
HETATM   17  C10 UNL     1      11.847 -35.952  -1.378  1.00  0.00     0.011 C 
BRANCH  17  18
HETATM   18  C11 UNL     1      10.508 -36.235  -0.758  1.00  0.00     0.076 C 
BRANCH  18  19
HETATM   19  S3  UNL     1      10.340 -35.216   0.727  1.00  0.00    -0.135 SA
BRANCH  19  20
HETATM   20  C12 UNL     1      10.392 -36.217   2.246  1.00  0.00     0.214 C 
HETATM   21  O1  UNL     1       9.197 -36.816   2.480  1.00  0.00    -0.363 OA
HETATM   22  C13 UNL     1       8.974 -36.842   3.828  1.00  0.00     0.178 C 
HETATM   23  C15 UNL     1      10.013 -36.031   4.540  1.00  0.00     0.181 C 
HETATM   24  C16 UNL     1      10.723 -35.342   3.419  1.00  0.00     0.188 C 
BRANCH  22  25
HETATM   25  C14 UNL     1       8.966 -38.269   4.393  1.00  0.00     0.198 C 
BRANCH  25  26
HETATM   26  O2  UNL     1       9.475 -38.224   5.687  1.00  0.00    -0.398 OA
ATOM     27  H2  UNL     1       9.763 -39.098   5.921  1.00  0.00     0.209 HD
ENDBRANCH  25  26
ENDBRANCH  22  25
BRANCH  23  28
HETATM   28  O3  UNL     1       9.408 -35.110   5.395  1.00  0.00    -0.390 OA
ATOM     29  H3  UNL     1       9.997 -34.883   6.105  1.00  0.00     0.210 HD
ENDBRANCH  23  28
BRANCH  24  30
HETATM   30  O4  UNL     1      10.296 -34.051   3.174  1.00  0.00    -0.389 OA
ATOM     31  H4  UNL     1       9.353 -34.040   3.062  1.00  0.00     0.210 HD
ENDBRANCH  24  30
ENDBRANCH  19  20
ENDBRANCH  18  19
ENDBRANCH  17  18
ENDBRANCH   1  17
TORSDOF 13
ENDMDL
MODEL 4
REMARK VINA RESULT: -7.838134617      3.858      5.508
REMARK  13 active torsions:
REMARK  status: ('A' for Active; 'I' for Inactive)
REMARK    1  A    between atoms: N3_8  and  C4_9 
REMARK    2  A    between atoms: C6_11  and  C7_12 
REMARK    3  A    between atoms: C7_12  and  S2_13 
REMARK    4  A    between atoms: S2_13  and  C8_14 
REMARK    5  A    between atoms: C8_14  and  C9_15 
REMARK    6  A    between atoms: C9_15  and  C10_16 
REMARK    7  A    between atoms: C10_16  and  C11_17 
REMARK    8  A    between atoms: C11_17  and  S3_18 
REMARK    9  A    between atoms: S3_18  and  C12_19 
REMARK   10  A    between atoms: C13_21  and  C14_22 
REMARK   11  A    between atoms: C14_22  and  O2_23 
REMARK   12  A    between atoms: C15_25  and  O3_26 
REMARK   13  A    between atoms: C16_28  and  O4_29 
ROOT
HETATM    1  C9  UNL     1      16.658 -38.091   3.987  1.00  0.00     0.011 C 
ENDROOT
BRANCH   1   2
HETATM    2  C8  UNL     1      17.141 -36.655   3.938  1.00  0.00     0.074 C 
BRANCH   2   3
HETATM    3  S2  UNL     1      16.025 -35.574   3.048  1.00  0.00    -0.167 SA
BRANCH   3   4
HETATM    4  C7  UNL     1      14.312 -36.095   3.056  1.00  0.00     0.106 C 
BRANCH   4   5
HETATM    5  C6  UNL     1      13.774 -36.358   1.692  1.00  0.00     0.137 C 
HETATM    6  C5  UNL     1      14.046 -37.745   1.143  1.00  0.00     0.087 C 
HETATM    7  C4  UNL     1      12.754 -37.443   0.460  1.00  0.00     0.234 C 
HETATM    8  O5  UNL     1      12.417 -36.639   1.576  1.00  0.00    -0.360 OA
BRANCH   7   9
HETATM    9  N3  UNL     1      12.773 -36.628  -0.712  1.00  0.00    -0.283 N 
HETATM   10  C1  UNL     1      13.811 -36.322  -1.497  1.00  0.00     0.138 A 
HETATM   11  N1  UNL     1      15.149 -36.712  -1.386  1.00  0.00    -0.081 NA
HETATM   12  C2  UNL     1      13.316 -35.499  -2.509  1.00  0.00     0.136 A 
HETATM   13  N2  UNL     1      12.005 -35.337  -2.303  1.00  0.00    -0.340 N 
HETATM   14  C3  UNL     1      11.663 -36.016  -1.217  1.00  0.00     0.181 A 
ATOM     15  H2  UNL     1      11.373 -34.785  -2.884  1.00  0.00     0.167 HD
HETATM   16  S1  UNL     1      10.146 -36.101  -0.592  1.00  0.00    -0.040 SA
ENDBRANCH   7   9
ENDBRANCH   4   5
ENDBRANCH   3   4
ENDBRANCH   2   3
ENDBRANCH   1   2
BRANCH   1  17
HETATM   17  C10 UNL     1      17.797 -38.901   4.588  1.00  0.00     0.011 C 
BRANCH  17  18
HETATM   18  C11 UNL     1      17.409 -40.341   4.773  1.00  0.00     0.076 C 
BRANCH  18  19
HETATM   19  S3  UNL     1      18.771 -41.198   5.600  1.00  0.00    -0.135 SA
BRANCH  19  20
HETATM   20  C12 UNL     1      18.217 -42.053   7.107  1.00  0.00     0.214 C 
HETATM   21  O1  UNL     1      16.878 -42.269   7.086  1.00  0.00    -0.363 OA
HETATM   22  C13 UNL     1      16.388 -42.128   8.354  1.00  0.00     0.178 C 
HETATM   23  C15 UNL     1      17.453 -41.594   9.263  1.00  0.00     0.181 C 
HETATM   24  C16 UNL     1      18.545 -41.222   8.312  1.00  0.00     0.188 C 
BRANCH  22  25
HETATM   25  C14 UNL     1      15.847 -43.447   8.923  1.00  0.00     0.198 C 
BRANCH  25  26
HETATM   26  O2  UNL     1      14.460 -43.434   8.798  1.00  0.00    -0.398 OA
ATOM     27  H2  UNL     1      14.095 -43.934   9.518  1.00  0.00     0.209 HD
ENDBRANCH  25  26
ENDBRANCH  22  25
BRANCH  23  28
HETATM   28  O3  UNL     1      16.985 -40.476   9.954  1.00  0.00    -0.390 OA
ATOM     29  H3  UNL     1      17.232 -40.527  10.869  1.00  0.00     0.210 HD
ENDBRANCH  23  28
BRANCH  24  30
HETATM   30  O4  UNL     1      18.575 -39.885   7.963  1.00  0.00    -0.389 OA
ATOM     31  H4  UNL     1      18.547 -39.348   8.746  1.00  0.00     0.210 HD
ENDBRANCH  24  30
ENDBRANCH  19  20
ENDBRANCH  18  19
ENDBRANCH  17  18
ENDBRANCH   1  17
TORSDOF 13
ENDMDL
MODEL 5
REMARK VINA RESULT: -7.794820030      1.215      1.961
REMARK  13 active torsions:
REMARK  status: ('A' for Active; 'I' for Inactive)
REMARK    1  A    between atoms: N3_8  and  C4_9 
REMARK    2  A    between atoms: C6_11  and  C7_12 
REMARK    3  A    between atoms: C7_12  and  S2_13 
REMARK    4  A    between atoms: S2_13  and  C8_14 
REMARK    5  A    between atoms: C8_14  and  C9_15 
REMARK    6  A    between atoms: C9_15  and  C10_16 
REMARK    7  A    between atoms: C10_16  and  C11_17 
REMARK    8  A    between atoms: C11_17  and  S3_18 
REMARK    9  A    between atoms: S3_18  and  C12_19 
REMARK   10  A    between atoms: C13_21  and  C14_22 
REMARK   11  A    between atoms: C14_22  and  O2_23 
REMARK   12  A    between atoms: C15_25  and  O3_26 
REMARK   13  A    between atoms: C16_28  and  O4_29 
ROOT
HETATM    1  C9  UNL     1      16.734 -38.200   3.923  1.00  0.00     0.011 C 
ENDROOT
BRANCH   1   2
HETATM    2  C8  UNL     1      16.833 -36.723   4.250  1.00  0.00     0.074 C 
BRANCH   2   3
HETATM    3  S2  UNL     1      15.897 -35.695   3.122  1.00  0.00    -0.167 SA
BRANCH   3   4
HETATM    4  C7  UNL     1      14.145 -36.060   3.055  1.00  0.00     0.106 C 
BRANCH   4   5
HETATM    5  C6  UNL     1      13.658 -36.333   1.674  1.00  0.00     0.137 C 
HETATM    6  C5  UNL     1      13.993 -37.707   1.127  1.00  0.00     0.087 C 
HETATM    7  C4  UNL     1      12.712 -37.445   0.407  1.00  0.00     0.234 C 
HETATM    8  O5  UNL     1      12.315 -36.659   1.516  1.00  0.00    -0.360 OA
BRANCH   7   9
HETATM    9  N3  UNL     1      12.738 -36.623  -0.761  1.00  0.00    -0.283 N 
HETATM   10  C1  UNL     1      13.781 -36.310  -1.536  1.00  0.00     0.138 A 
HETATM   11  N1  UNL     1      15.119 -36.698  -1.417  1.00  0.00    -0.081 NA
HETATM   12  C2  UNL     1      13.292 -35.482  -2.547  1.00  0.00     0.136 A 
HETATM   13  N2  UNL     1      11.979 -35.324  -2.349  1.00  0.00    -0.340 N 
HETATM   14  C3  UNL     1      11.631 -36.010  -1.270  1.00  0.00     0.181 A 
ATOM     15  H2  UNL     1      11.351 -34.769  -2.931  1.00  0.00     0.167 HD
HETATM   16  S1  UNL     1      10.109 -36.102  -0.656  1.00  0.00    -0.040 SA
ENDBRANCH   7   9
ENDBRANCH   4   5
ENDBRANCH   3   4
ENDBRANCH   2   3
ENDBRANCH   1   2
BRANCH   1  17
HETATM   17  C10 UNL     1      16.976 -38.941   5.230  1.00  0.00     0.011 C 
BRANCH  17  18
HETATM   18  C11 UNL     1      18.212 -39.791   5.159  1.00  0.00     0.076 C 
BRANCH  18  19
HETATM   19  S3  UNL     1      19.643 -38.749   5.532  1.00  0.00    -0.135 SA
BRANCH  19  20
HETATM   20  C12 UNL     1      20.650 -38.425   4.052  1.00  0.00     0.214 C 
HETATM   21  O1  UNL     1      21.947 -38.767   4.256  1.00  0.00    -0.363 OA
HETATM   22  C13 UNL     1      22.747 -37.870   3.603  1.00  0.00     0.178 C 
HETATM   23  C15 UNL     1      21.926 -36.733   3.076  1.00  0.00     0.181 C 
HETATM   24  C16 UNL     1      20.591 -36.965   3.708  1.00  0.00     0.188 C 
BRANCH  22  25
HETATM   25  C14 UNL     1      23.528 -38.514   2.449  1.00  0.00     0.198 C 
BRANCH  25  26
HETATM   26  O2  UNL     1      23.424 -37.680   1.339  1.00  0.00    -0.398 OA
ATOM     27  H2  UNL     1      23.992 -38.021   0.660  1.00  0.00     0.209 HD
ENDBRANCH  25  26
ENDBRANCH  22  25
BRANCH  23  28
HETATM   28  O3  UNL     1      22.470 -35.514   3.480  1.00  0.00    -0.390 OA
ATOM     29  H3  UNL     1      22.275 -34.838   2.842  1.00  0.00     0.210 HD
ENDBRANCH  23  28
BRANCH  24  30
HETATM   30  O4  UNL     1      20.359 -36.226   4.852  1.00  0.00    -0.389 OA
ATOM     31  H4  UNL     1      19.424 -36.129   4.988  1.00  0.00     0.210 HD
ENDBRANCH  24  30
ENDBRANCH  19  20
ENDBRANCH  18  19
ENDBRANCH  17  18
ENDBRANCH   1  17
TORSDOF 13
ENDMDL
