MODEL 1
REMARK VINA RESULT: -9.203761620      0.000      0.000
REMARK  15 active torsions:
REMARK  status: ('A' for Active; 'I' for Inactive)
REMARK    1  A    between atoms: C2_2  and  C3_3 
REMARK    2  A    between atoms: C3_3  and  C4_4 
REMARK    3  A    between atoms: C4_4  and  C5_5 
REMARK    4  A    between atoms: C5_5  and  C6_6 
REMARK    5  A    between atoms: C6_6  and  C7_7 
REMARK    6  A    between atoms: C7_7  and  O1_8 
REMARK    7  A    between atoms: O1_8  and  C8_9 
REMARK    8  A    between atoms: C10_11  and  O2_12 
REMARK    9  A    between atoms: O2_12  and  C11_13 
REMARK   10  A    between atoms: C12_15  and  O4_16 
REMARK   11  A    between atoms: C13_18  and  O5_19 
REMARK   12  A    between atoms: C14_21  and  O6_22 
REMARK   13  A    between atoms: C15_24  and  O7_25 
REMARK   14  A    between atoms: C16_28  and  O9_29 
REMARK   15  A    between atoms: C19_33  and  O10_34 
ROOT
HETATM    1  C11 UNL     1      13.588 -36.334   1.895  1.00  0.00     0.281 C 
HETATM    2  O3  UNL     1      14.256 -36.717   0.718  1.00  0.00    -0.328 OA
HETATM    3  C12 UNL     1      13.815 -35.983  -0.372  1.00  0.00     0.291 C 
HETATM    4  C13 UNL     1      12.335 -35.828  -0.473  1.00  0.00     0.213 C 
HETATM    5  C14 UNL     1      11.648 -36.816   0.405  1.00  0.00     0.150 C 
HETATM    6  C15 UNL     1      10.172 -36.423   0.594  1.00  0.00     0.297 C 
HETATM    7  O8  UNL     1      10.320 -35.248   1.322  1.00  0.00    -0.328 OA
HETATM    8  C16 UNL     1      11.318 -35.447   2.265  1.00  0.00     0.272 C 
HETATM    9  C17 UNL     1      12.129 -36.632   1.827  1.00  0.00     0.139 C 
ENDROOT
BRANCH   1  10
HETATM   10  O2  UNL     1      14.217 -36.981   2.957  1.00  0.00    -0.320 OA
BRANCH  10  11
HETATM   11  C10 UNL     1      15.523 -36.908   3.345  1.00  0.00     0.077 A 
HETATM   12  C9  UNL     1      16.131 -38.134   3.652  1.00  0.00     0.074 A 
HETATM   13  C8  UNL     1      17.458 -38.188   4.058  1.00  0.00     0.080 A 
HETATM   14  C20 UNL     1      18.135 -37.003   4.143  1.00  0.00     0.005 A 
HETATM   15  C19 UNL     1      17.579 -35.768   3.850  1.00  0.00     0.077 A 
HETATM   16  C21 UNL     1      19.557 -36.996   4.583  1.00  0.00     0.054 C 
HETATM   17  C18 UNL     1      16.258 -35.756   3.451  1.00  0.00     0.074 A 
BRANCH  13  18
HETATM   18  O1  UNL     1      18.078 -39.396   4.363  1.00  0.00    -0.350 OA
BRANCH  18  19
HETATM   19  C7  UNL     1      17.253 -40.507   4.633  1.00  0.00     0.175 C 
BRANCH  19  20
HETATM   20  C6  UNL     1      17.779 -41.277   5.862  1.00  0.00     0.027 C 
BRANCH  20  21
HETATM   21  C5  UNL     1      17.593 -40.404   7.029  1.00  0.00     0.002 C 
BRANCH  21  22
HETATM   22  C4  UNL     1      18.698 -40.008   7.896  1.00  0.00     0.000 C 
BRANCH  22  23
HETATM   23  C3  UNL     1      19.943 -39.444   7.351  1.00  0.00    -0.000 C 
BRANCH  23  24
HETATM   24  C2  UNL     1      21.148 -39.621   8.219  1.00  0.00    -0.005 C 
HETATM   25  C1  UNL     1      20.609 -40.114   9.583  1.00  0.00     0.005 C 
ENDBRANCH  23  24
ENDBRANCH  22  23
ENDBRANCH  21  22
ENDBRANCH  20  21
ENDBRANCH  19  20
ENDBRANCH  18  19
ENDBRANCH  13  18
BRANCH  15  26
HETATM   26  O10 UNL     1      18.315 -34.592   3.955  1.00  0.00    -0.360 OA
ATOM     27  H10 UNL     1      18.966 -34.476   4.637  1.00  0.00     0.217 HD
ENDBRANCH  15  26
ENDBRANCH  10  11
ENDBRANCH   1  10
BRANCH   3  28
HETATM   28  O4  UNL     1      14.277 -36.625  -1.521  1.00  0.00    -0.368 OA
ATOM     29  H4  UNL     1      13.816 -37.453  -1.589  1.00  0.00     0.212 HD
ENDBRANCH   3  28
BRANCH   5  30
HETATM   30  O6  UNL     1      11.765 -38.106  -0.054  1.00  0.00    -0.381 OA
ATOM     31  H6  UNL     1      11.302 -38.249  -0.871  1.00  0.00     0.211 HD
ENDBRANCH   5  30
BRANCH   8  32
HETATM   32  O9  UNL     1      10.765 -35.622   3.535  1.00  0.00    -0.370 OA
ATOM     33  H9  UNL     1      10.562 -36.537   3.688  1.00  0.00     0.212 HD
ENDBRANCH   8  32
BRANCH   4  34
HETATM   34  O5  UNL     1      11.949 -36.001  -1.806  1.00  0.00    -0.387 OA
ATOM     35  H5  UNL     1      12.099 -35.190  -2.279  1.00  0.00     0.210 HD
ENDBRANCH   4  34
BRANCH   6  36
HETATM   36  O7  UNL     1       9.584 -36.139  -0.637  1.00  0.00    -0.368 OA
ATOM     37  H7  UNL     1       8.638 -36.130  -0.558  1.00  0.00     0.212 HD
ENDBRANCH   6  36
TORSDOF 15
ENDMDL
MODEL 2
REMARK VINA RESULT: -8.729135899      3.547      9.853
REMARK  15 active torsions:
REMARK  status: ('A' for Active; 'I' for Inactive)
REMARK    1  A    between atoms: C2_2  and  C3_3 
REMARK    2  A    between atoms: C3_3  and  C4_4 
REMARK    3  A    between atoms: C4_4  and  C5_5 
REMARK    4  A    between atoms: C5_5  and  C6_6 
REMARK    5  A    between atoms: C6_6  and  C7_7 
REMARK    6  A    between atoms: C7_7  and  O1_8 
REMARK    7  A    between atoms: O1_8  and  C8_9 
REMARK    8  A    between atoms: C10_11  and  O2_12 
REMARK    9  A    between atoms: O2_12  and  C11_13 
REMARK   10  A    between atoms: C12_15  and  O4_16 
REMARK   11  A    between atoms: C13_18  and  O5_19 
REMARK   12  A    between atoms: C14_21  and  O6_22 
REMARK   13  A    between atoms: C15_24  and  O7_25 
REMARK   14  A    between atoms: C16_28  and  O9_29 
REMARK   15  A    between atoms: C19_33  and  O10_34 
ROOT
HETATM    1  C11 UNL     1      21.385 -36.451   4.467  1.00  0.00     0.281 C 
HETATM    2  O3  UNL     1      21.342 -37.377   3.409  1.00  0.00    -0.328 OA
HETATM    3  C12 UNL     1      22.569 -37.997   3.233  1.00  0.00     0.291 C 
HETATM    4  C13 UNL     1      23.749 -37.085   3.265  1.00  0.00     0.213 C 
HETATM    5  C14 UNL     1      23.315 -35.669   3.096  1.00  0.00     0.150 C 
HETATM    6  C15 UNL     1      24.453 -34.714   3.499  1.00  0.00     0.297 C 
HETATM    7  O8  UNL     1      24.521 -34.971   4.863  1.00  0.00    -0.328 OA
HETATM    8  C16 UNL     1      23.226 -35.070   5.350  1.00  0.00     0.272 C 
HETATM    9  C17 UNL     1      22.319 -35.325   4.181  1.00  0.00     0.139 C 
ENDROOT
BRANCH   1  10
HETATM   10  O2  UNL     1      20.079 -36.019   4.692  1.00  0.00    -0.320 OA
BRANCH  10  11
HETATM   11  C10 UNL     1      18.909 -36.611   4.313  1.00  0.00     0.077 A 
HETATM   12  C9  UNL     1      18.153 -35.902   3.368  1.00  0.00     0.074 A 
HETATM   13  C8  UNL     1      16.944 -36.403   2.904  1.00  0.00     0.080 A 
HETATM   14  C20 UNL     1      16.531 -37.606   3.407  1.00  0.00     0.005 A 
HETATM   15  C19 UNL     1      17.242 -38.344   4.340  1.00  0.00     0.077 A 
HETATM   16  C21 UNL     1      15.238 -38.189   2.956  1.00  0.00     0.054 C 
HETATM   17  C18 UNL     1      18.439 -37.812   4.777  1.00  0.00     0.074 A 
BRANCH  13  18
HETATM   18  O1  UNL     1      16.182 -35.715   1.965  1.00  0.00    -0.350 OA
BRANCH  18  19
HETATM   19  C7  UNL     1      16.787 -35.401   0.731  1.00  0.00     0.175 C 
BRANCH  19  20
HETATM   20  C6  UNL     1      16.016 -36.067  -0.427  1.00  0.00     0.027 C 
BRANCH  20  21
HETATM   21  C5  UNL     1      14.634 -36.262   0.032  1.00  0.00     0.002 C 
BRANCH  21  22
HETATM   22  C4  UNL     1      13.799 -37.362  -0.440  1.00  0.00     0.000 C 
BRANCH  22  23
HETATM   23  C3  UNL     1      12.333 -37.248  -0.498  1.00  0.00    -0.000 C 
BRANCH  23  24
HETATM   24  C2  UNL     1      11.809 -35.848  -0.480  1.00  0.00    -0.005 C 
HETATM   25  C1  UNL     1      11.685 -35.431  -1.965  1.00  0.00     0.005 C 
ENDBRANCH  23  24
ENDBRANCH  22  23
ENDBRANCH  21  22
ENDBRANCH  20  21
ENDBRANCH  19  20
ENDBRANCH  18  19
ENDBRANCH  13  18
BRANCH  15  26
HETATM   26  O10 UNL     1      16.774 -39.562   4.818  1.00  0.00    -0.360 OA
ATOM     27  H10 UNL     1      16.007 -39.979   4.444  1.00  0.00     0.217 HD
ENDBRANCH  15  26
ENDBRANCH  10  11
ENDBRANCH   1  10
BRANCH   3  28
HETATM   28  O4  UNL     1      22.536 -38.643   1.997  1.00  0.00    -0.368 OA
ATOM     29  H4  UNL     1      22.250 -38.007   1.352  1.00  0.00     0.212 HD
ENDBRANCH   3  28
BRANCH   5  30
HETATM   30  O6  UNL     1      22.863 -35.400   1.827  1.00  0.00    -0.381 OA
ATOM     31  H6  UNL     1      23.388 -34.745   1.382  1.00  0.00     0.211 HD
ENDBRANCH   5  30
BRANCH   8  32
HETATM   32  O9  UNL     1      22.876 -33.916   6.052  1.00  0.00    -0.370 OA
ATOM     33  H9  UNL     1      23.613 -33.595   6.559  1.00  0.00     0.212 HD
ENDBRANCH   8  32
BRANCH   4  34
HETATM   34  O5  UNL     1      24.636 -37.452   2.249  1.00  0.00    -0.387 OA
ATOM     35  H5  UNL     1      24.159 -37.924   1.577  1.00  0.00     0.210 HD
ENDBRANCH   4  34
BRANCH   6  36
HETATM   36  O7  UNL     1      25.646 -35.097   2.891  1.00  0.00    -0.368 OA
ATOM     37  H7  UNL     1      25.788 -34.598   2.096  1.00  0.00     0.212 HD
ENDBRANCH   6  36
TORSDOF 15
ENDMDL
MODEL 3
REMARK VINA RESULT: -8.681918082      3.729      9.722
REMARK  15 active torsions:
REMARK  status: ('A' for Active; 'I' for Inactive)
REMARK    1  A    between atoms: C2_2  and  C3_3 
REMARK    2  A    between atoms: C3_3  and  C4_4 
REMARK    3  A    between atoms: C4_4  and  C5_5 
REMARK    4  A    between atoms: C5_5  and  C6_6 
REMARK    5  A    between atoms: C6_6  and  C7_7 
REMARK    6  A    between atoms: C7_7  and  O1_8 
REMARK    7  A    between atoms: O1_8  and  C8_9 
REMARK    8  A    between atoms: C10_11  and  O2_12 
REMARK    9  A    between atoms: O2_12  and  C11_13 
REMARK   10  A    between atoms: C12_15  and  O4_16 
REMARK   11  A    between atoms: C13_18  and  O5_19 
REMARK   12  A    between atoms: C14_21  and  O6_22 
REMARK   13  A    between atoms: C15_24  and  O7_25 
REMARK   14  A    between atoms: C16_28  and  O9_29 
REMARK   15  A    between atoms: C19_33  and  O10_34 
ROOT
HETATM    1  C11 UNL     1      21.912 -37.035   4.805  1.00  0.00     0.281 C 
HETATM    2  O3  UNL     1      22.205 -38.108   3.944  1.00  0.00    -0.328 OA
HETATM    3  C12 UNL     1      23.572 -38.274   3.793  1.00  0.00     0.291 C 
HETATM    4  C13 UNL     1      24.341 -37.016   3.565  1.00  0.00     0.213 C 
HETATM    5  C14 UNL     1      23.423 -35.911   3.170  1.00  0.00     0.150 C 
HETATM    6  C15 UNL     1      24.138 -34.554   3.301  1.00  0.00     0.297 C 
HETATM    7  O8  UNL     1      24.300 -34.492   4.681  1.00  0.00    -0.328 OA
HETATM    8  C16 UNL     1      23.130 -34.944   5.274  1.00  0.00     0.272 C 
HETATM    9  C17 UNL     1      22.373 -35.733   4.245  1.00  0.00     0.139 C 
ENDROOT
BRANCH   1  10
HETATM   10  O2  UNL     1      20.539 -37.059   5.044  1.00  0.00    -0.320 OA
BRANCH  10  11
HETATM   11  C10 UNL     1      19.687 -38.124   5.006  1.00  0.00     0.077 A 
HETATM   12  C9  UNL     1      18.442 -37.879   4.407  1.00  0.00     0.074 A 
HETATM   13  C8  UNL     1      17.490 -38.885   4.309  1.00  0.00     0.080 A 
HETATM   14  C20 UNL     1      17.821 -40.111   4.818  1.00  0.00     0.005 A 
HETATM   15  C19 UNL     1      19.035 -40.401   5.418  1.00  0.00     0.077 A 
HETATM   16  C21 UNL     1      16.837 -41.226   4.752  1.00  0.00     0.054 C 
HETATM   17  C18 UNL     1      19.955 -39.375   5.497  1.00  0.00     0.074 A 
BRANCH  13  18
HETATM   18  O1  UNL     1      16.252 -38.661   3.715  1.00  0.00    -0.350 OA
BRANCH  18  19
HETATM   19  C7  UNL     1      15.891 -37.328   3.433  1.00  0.00     0.175 C 
BRANCH  19  20
HETATM   20  C6  UNL     1      14.613 -37.292   2.570  1.00  0.00     0.027 C 
BRANCH  20  21
HETATM   21  C5  UNL     1      13.773 -36.205   3.090  1.00  0.00     0.002 C 
BRANCH  21  22
HETATM   22  C4  UNL     1      12.321 -36.314   3.187  1.00  0.00     0.000 C 
BRANCH  22  23
HETATM   23  C3  UNL     1      11.452 -35.129   3.127  1.00  0.00    -0.000 C 
BRANCH  23  24
HETATM   24  C2  UNL     1      10.013 -35.385   3.443  1.00  0.00    -0.005 C 
HETATM   25  C1  UNL     1       9.997 -36.690   4.275  1.00  0.00     0.005 C 
ENDBRANCH  23  24
ENDBRANCH  22  23
ENDBRANCH  21  22
ENDBRANCH  20  21
ENDBRANCH  19  20
ENDBRANCH  18  19
ENDBRANCH  13  18
BRANCH  15  26
HETATM   26  O10 UNL     1      19.318 -41.667   5.921  1.00  0.00    -0.360 OA
ATOM     27  H10 UNL     1      20.196 -42.028   5.885  1.00  0.00     0.217 HD
ENDBRANCH  15  26
ENDBRANCH  10  11
ENDBRANCH   1  10
BRANCH   3  28
HETATM   28  O4  UNL     1      23.771 -39.123   2.705  1.00  0.00    -0.368 OA
ATOM     29  H4  UNL     1      24.111 -39.944   3.043  1.00  0.00     0.212 HD
ENDBRANCH   3  28
BRANCH   5  30
HETATM   30  O6  UNL     1      22.900 -36.080   1.911  1.00  0.00    -0.381 OA
ATOM     31  H6  UNL     1      22.062 -36.527   1.918  1.00  0.00     0.211 HD
ENDBRANCH   5  30
BRANCH   8  32
HETATM   32  O9  UNL     1      22.387 -33.873   5.775  1.00  0.00    -0.370 OA
ATOM     33  H9  UNL     1      21.579 -33.770   5.286  1.00  0.00     0.212 HD
ENDBRANCH   8  32
BRANCH   4  34
HETATM   34  O5  UNL     1      25.298 -37.241   2.571  1.00  0.00    -0.387 OA
ATOM     35  H5  UNL     1      26.162 -37.230   2.966  1.00  0.00     0.210 HD
ENDBRANCH   4  34
BRANCH   6  36
HETATM   36  O7  UNL     1      25.387 -34.603   2.687  1.00  0.00    -0.368 OA
ATOM     37  H7  UNL     1      26.064 -34.321   3.290  1.00  0.00     0.212 HD
ENDBRANCH   6  36
TORSDOF 15
ENDMDL
MODEL 4
REMARK VINA RESULT: -8.630048184      3.690      9.896
REMARK  15 active torsions:
REMARK  status: ('A' for Active; 'I' for Inactive)
REMARK    1  A    between atoms: C2_2  and  C3_3 
REMARK    2  A    between atoms: C3_3  and  C4_4 
REMARK    3  A    between atoms: C4_4  and  C5_5 
REMARK    4  A    between atoms: C5_5  and  C6_6 
REMARK    5  A    between atoms: C6_6  and  C7_7 
REMARK    6  A    between atoms: C7_7  and  O1_8 
REMARK    7  A    between atoms: O1_8  and  C8_9 
REMARK    8  A    between atoms: C10_11  and  O2_12 
REMARK    9  A    between atoms: O2_12  and  C11_13 
REMARK   10  A    between atoms: C12_15  and  O4_16 
REMARK   11  A    between atoms: C13_18  and  O5_19 
REMARK   12  A    between atoms: C14_21  and  O6_22 
REMARK   13  A    between atoms: C15_24  and  O7_25 
REMARK   14  A    between atoms: C16_28  and  O9_29 
REMARK   15  A    between atoms: C19_33  and  O10_34 
ROOT
HETATM    1  C11 UNL     1      21.969 -37.037   4.788  1.00  0.00     0.281 C 
HETATM    2  O3  UNL     1      22.190 -38.038   3.825  1.00  0.00    -0.328 OA
HETATM    3  C12 UNL     1      23.544 -38.247   3.618  1.00  0.00     0.291 C 
HETATM    4  C13 UNL     1      24.362 -37.007   3.481  1.00  0.00     0.213 C 
HETATM    5  C14 UNL     1      23.484 -35.833   3.216  1.00  0.00     0.150 C 
HETATM    6  C15 UNL     1      24.262 -34.525   3.447  1.00  0.00     0.297 C 
HETATM    7  O8  UNL     1      24.463 -34.595   4.820  1.00  0.00    -0.328 OA
HETATM    8  C16 UNL     1      23.291 -35.051   5.406  1.00  0.00     0.272 C 
HETATM    9  C17 UNL     1      22.472 -35.709   4.334  1.00  0.00     0.139 C 
ENDROOT
BRANCH   1  10
HETATM   10  O2  UNL     1      20.603 -37.025   5.066  1.00  0.00    -0.320 OA
BRANCH  10  11
HETATM   11  C10 UNL     1      19.716 -38.061   5.024  1.00  0.00     0.077 A 
HETATM   12  C9  UNL     1      18.488 -37.778   4.408  1.00  0.00     0.074 A 
HETATM   13  C8  UNL     1      17.504 -38.753   4.304  1.00  0.00     0.080 A 
HETATM   14  C20 UNL     1      17.788 -39.986   4.823  1.00  0.00     0.005 A 
HETATM   15  C19 UNL     1      18.985 -40.313   5.439  1.00  0.00     0.077 A 
HETATM   16  C21 UNL     1      16.769 -41.068   4.751  1.00  0.00     0.054 C 
HETATM   17  C18 UNL     1      19.937 -39.317   5.524  1.00  0.00     0.074 A 
BRANCH  13  18
HETATM   18  O1  UNL     1      16.281 -38.491   3.694  1.00  0.00    -0.350 OA
BRANCH  18  19
HETATM   19  C7  UNL     1      16.033 -37.174   3.258  1.00  0.00     0.175 C 
BRANCH  19  20
HETATM   20  C6  UNL     1      14.523 -36.962   3.028  1.00  0.00     0.027 C 
BRANCH  20  21
HETATM   21  C5  UNL     1      14.223 -37.442   1.672  1.00  0.00     0.002 C 
BRANCH  21  22
HETATM   22  C4  UNL     1      13.780 -36.550   0.605  1.00  0.00     0.000 C 
BRANCH  22  23
HETATM   23  C3  UNL     1      13.949 -36.901  -0.814  1.00  0.00    -0.000 C 
BRANCH  23  24
HETATM   24  C2  UNL     1      13.347 -35.931  -1.779  1.00  0.00    -0.005 C 
HETATM   25  C1  UNL     1      11.883 -35.738  -1.315  1.00  0.00     0.005 C 
ENDBRANCH  23  24
ENDBRANCH  22  23
ENDBRANCH  21  22
ENDBRANCH  20  21
ENDBRANCH  19  20
ENDBRANCH  18  19
ENDBRANCH  13  18
BRANCH  15  26
HETATM   26  O10 UNL     1      19.219 -41.584   5.951  1.00  0.00    -0.360 OA
ATOM     27  H10 UNL     1      19.020 -42.365   5.447  1.00  0.00     0.217 HD
ENDBRANCH  15  26
ENDBRANCH  10  11
ENDBRANCH   1  10
BRANCH   3  28
HETATM   28  O4  UNL     1      23.676 -39.001   2.452  1.00  0.00    -0.368 OA
ATOM     29  H4  UNL     1      24.496 -38.751   2.044  1.00  0.00     0.212 HD
ENDBRANCH   3  28
BRANCH   5  30
HETATM   30  O6  UNL     1      22.920 -35.863   1.963  1.00  0.00    -0.381 OA
ATOM     31  H6  UNL     1      22.545 -36.709   1.750  1.00  0.00     0.211 HD
ENDBRANCH   5  30
BRANCH   8  32
HETATM   32  O9  UNL     1      22.610 -33.999   6.024  1.00  0.00    -0.370 OA
ATOM     33  H9  UNL     1      21.761 -33.867   5.619  1.00  0.00     0.212 HD
ENDBRANCH   8  32
BRANCH   4  34
HETATM   34  O5  UNL     1      25.281 -37.180   2.442  1.00  0.00    -0.387 OA
ATOM     35  H5  UNL     1      25.739 -36.360   2.295  1.00  0.00     0.210 HD
ENDBRANCH   4  34
BRANCH   6  36
HETATM   36  O7  UNL     1      25.491 -34.570   2.792  1.00  0.00    -0.368 OA
ATOM     37  H7  UNL     1      25.672 -33.738   2.371  1.00  0.00     0.212 HD
ENDBRANCH   6  36
TORSDOF 15
ENDMDL
MODEL 5
REMARK VINA RESULT: -8.620179533      2.729      9.775
REMARK  15 active torsions:
REMARK  status: ('A' for Active; 'I' for Inactive)
REMARK    1  A    between atoms: C2_2  and  C3_3 
REMARK    2  A    between atoms: C3_3  and  C4_4 
REMARK    3  A    between atoms: C4_4  and  C5_5 
REMARK    4  A    between atoms: C5_5  and  C6_6 
REMARK    5  A    between atoms: C6_6  and  C7_7 
REMARK    6  A    between atoms: C7_7  and  O1_8 
REMARK    7  A    between atoms: O1_8  and  C8_9 
REMARK    8  A    between atoms: C10_11  and  O2_12 
REMARK    9  A    between atoms: O2_12  and  C11_13 
REMARK   10  A    between atoms: C12_15  and  O4_16 
REMARK   11  A    between atoms: C13_18  and  O5_19 
REMARK   12  A    between atoms: C14_21  and  O6_22 
REMARK   13  A    between atoms: C15_24  and  O7_25 
REMARK   14  A    between atoms: C16_28  and  O9_29 
REMARK   15  A    between atoms: C19_33  and  O10_34 
ROOT
HETATM    1  C11 UNL     1      16.214 -37.790   3.537  1.00  0.00     0.281 C 
HETATM    2  O3  UNL     1      16.893 -38.989   3.820  1.00  0.00    -0.328 OA
HETATM    3  C12 UNL     1      17.646 -38.879   4.978  1.00  0.00     0.291 C 
HETATM    4  C13 UNL     1      18.444 -37.624   5.097  1.00  0.00     0.213 C 
HETATM    5  C14 UNL     1      18.549 -36.948   3.773  1.00  0.00     0.150 C 
HETATM    6  C15 UNL     1      19.032 -35.497   3.955  1.00  0.00     0.297 C 
HETATM    7  O8  UNL     1      17.937 -34.953   4.618  1.00  0.00    -0.328 OA
HETATM    8  C16 UNL     1      16.784 -35.441   4.021  1.00  0.00     0.272 C 
HETATM    9  C17 UNL     1      17.157 -36.672   3.248  1.00  0.00     0.139 C 
ENDROOT
BRANCH   1  10
HETATM   10  O2  UNL     1      15.347 -38.046   2.476  1.00  0.00    -0.320 OA
BRANCH  10  11
HETATM   11  C10 UNL     1      14.201 -37.388   2.136  1.00  0.00     0.077 A 
HETATM   12  C9  UNL     1      13.877 -37.407   0.771  1.00  0.00     0.074 A 
HETATM   13  C8  UNL     1      12.734 -36.772   0.302  1.00  0.00     0.080 A 
HETATM   14  C20 UNL     1      11.949 -36.137   1.224  1.00  0.00     0.005 A 
HETATM   15  C19 UNL     1      12.226 -36.090   2.581  1.00  0.00     0.077 A 
HETATM   16  C21 UNL     1      10.716 -35.430   0.781  1.00  0.00     0.054 C 
HETATM   17  C18 UNL     1      13.371 -36.732   3.008  1.00  0.00     0.074 A 
BRANCH  13  18
HETATM   18  O1  UNL     1      12.396 -36.784  -1.048  1.00  0.00    -0.350 OA
BRANCH  18  19
HETATM   19  C7  UNL     1      12.945 -35.780  -1.871  1.00  0.00     0.175 C 
BRANCH  19  20
HETATM   20  C6  UNL     1      11.858 -35.192  -2.793  1.00  0.00     0.027 C 
BRANCH  20  21
HETATM   21  C5  UNL     1      12.438 -35.104  -4.140  1.00  0.00     0.002 C 
BRANCH  21  22
HETATM   22  C4  UNL     1      11.717 -34.523  -5.268  1.00  0.00     0.000 C 
BRANCH  22  23
HETATM   23  C3  UNL     1      10.311 -34.862  -5.542  1.00  0.00    -0.000 C 
BRANCH  23  24
HETATM   24  C2  UNL     1      10.020 -35.247  -6.957  1.00  0.00    -0.005 C 
HETATM   25  C1  UNL     1      11.102 -34.543  -7.810  1.00  0.00     0.005 C 
ENDBRANCH  23  24
ENDBRANCH  22  23
ENDBRANCH  21  22
ENDBRANCH  20  21
ENDBRANCH  19  20
ENDBRANCH  18  19
ENDBRANCH  13  18
BRANCH  15  26
HETATM   26  O10 UNL     1      11.392 -35.427   3.475  1.00  0.00    -0.360 OA
ATOM     27  H10 UNL     1      10.453 -35.387   3.338  1.00  0.00     0.217 HD
ENDBRANCH  15  26
ENDBRANCH  10  11
ENDBRANCH   1  10
BRANCH   3  28
HETATM   28  O4  UNL     1      18.517 -39.968   5.012  1.00  0.00    -0.368 OA
ATOM     29  H4  UNL     1      19.391 -39.628   5.164  1.00  0.00     0.212 HD
ENDBRANCH   3  28
BRANCH   5  30
HETATM   30  O6  UNL     1      19.347 -37.632   2.889  1.00  0.00    -0.381 OA
ATOM     31  H6  UNL     1      19.167 -38.564   2.878  1.00  0.00     0.211 HD
ENDBRANCH   5  30
BRANCH   8  32
HETATM   32  O9  UNL     1      16.198 -34.464   3.214  1.00  0.00    -0.370 OA
ATOM     33  H9  UNL     1      15.631 -33.901   3.728  1.00  0.00     0.212 HD
ENDBRANCH   8  32
BRANCH   4  34
HETATM   34  O5  UNL     1      19.713 -37.937   5.592  1.00  0.00    -0.387 OA
ATOM     35  H5  UNL     1      20.206 -38.388   4.917  1.00  0.00     0.210 HD
ENDBRANCH   4  34
BRANCH   6  36
HETATM   36  O7  UNL     1      20.148 -35.458   4.787  1.00  0.00    -0.368 OA
ATOM     37  H7  UNL     1      20.647 -34.666   4.634  1.00  0.00     0.212 HD
ENDBRANCH   6  36
TORSDOF 15
ENDMDL
