MODEL 1
REMARK VINA RESULT: -8.559508960      0.000      0.000
REMARK  5 active torsions:
REMARK  status: ('A' for Active; 'I' for Inactive)
REMARK    1  A    between atoms: C3_4  and  C4_5 
REMARK    2  A    between atoms: C4_5  and  N1_6 
REMARK    3  A    between atoms: N1_6  and  C5_9 
REMARK    4  A    between atoms: C5_9  and  C6_10 
REMARK    5  A    between atoms: C6_10  and  N2_11 
ROOT
HETATM    1  O1  UNL     1      -5.473   1.162  18.089  1.00  0.00    -0.260 OA
HETATM    2  C1  UNL     1      -5.054   1.257  16.920  1.00  0.00     0.290 A 
HETATM    3  C2  UNL     1      -4.680   2.465  16.402  1.00  0.00     0.092 A 
HETATM    4  C3  UNL     1      -4.204   2.610  15.099  1.00  0.00    -0.011 A 
HETATM    5  C11 UNL     1      -4.115   1.460  14.313  1.00  0.00     0.041 A 
HETATM    6  C12 UNL     1      -3.724   1.149  13.026  1.00  0.00     0.007 A 
HETATM    7  C13 UNL     1      -3.916  -0.243  12.923  1.00  0.00     0.065 A 
HETATM    8  O3  UNL     1      -4.377  -0.652  14.073  1.00  0.00    -0.291 OA
HETATM    9  C14 UNL     1      -4.519   0.267  14.922  1.00  0.00     0.205 A 
HETATM   10  O4  UNL     1      -4.960   0.206  16.166  1.00  0.00    -0.250 OA
HETATM   11  C15 UNL     1      -3.731  -1.244  11.898  1.00  0.00     0.077 C 
HETATM   12  C16 UNL     1      -2.551  -1.042  10.910  1.00  0.00     0.086 C 
HETATM   13  C17 UNL     1      -2.364   0.351  10.983  1.00  0.00    -0.181 C 
HETATM   14  C18 UNL     1      -2.196   1.714  11.050  1.00  0.00     0.105 C 
HETATM   15  C19 UNL     1      -3.258   2.161  12.124  1.00  0.00     0.129 C 
HETATM   16 CL1  UNL     1      -4.696   2.561  11.076  1.00  0.00    -0.119 Cl
ENDROOT
BRANCH   4  17
HETATM   17  C4  UNL     1      -3.810   3.895  14.559  1.00  0.00     0.272 C 
BRANCH  17  18
HETATM   18  N1  UNL     1      -4.990   4.792  14.650  1.00  0.00    -0.070 N 
ATOM     19  H12 UNL     1      -5.781   4.369  15.136  1.00  0.00     0.277 HD
ATOM     20  H11 UNL     1      -4.851   5.576  15.289  1.00  0.00     0.277 HD
BRANCH  18  21
HETATM   21  C5  UNL     1      -5.309   5.209  13.289  1.00  0.00     0.262 C 
BRANCH  21  22
HETATM   22  C6  UNL     1      -4.141   5.788  12.581  1.00  0.00     0.300 C 
BRANCH  22  23
HETATM   23  N2  UNL     1      -4.630   6.770  11.644  1.00  0.00     0.094 N 
HETATM   24  C7  UNL     1      -6.047   6.847  11.528  1.00  0.00     0.298 C 
HETATM   25  C8  UNL     1      -6.446   6.968  10.059  1.00  0.00     0.198 C 
HETATM   26  O2  UNL     1      -5.982   5.824   9.432  1.00  0.00    -0.388 OA
HETATM   27  C9  UNL     1      -4.613   5.825   9.390  1.00  0.00     0.198 C 
HETATM   28  C10 UNL     1      -3.942   6.736  10.378  1.00  0.00     0.298 C 
ENDBRANCH  22  23
ENDBRANCH  21  22
ENDBRANCH  18  21
ENDBRANCH  17  18
ENDBRANCH   4  17
TORSDOF 5
ENDMDL
MODEL 2
REMARK VINA RESULT: -8.477479655      1.931      4.296
REMARK  5 active torsions:
REMARK  status: ('A' for Active; 'I' for Inactive)
REMARK    1  A    between atoms: C3_4  and  C4_5 
REMARK    2  A    between atoms: C4_5  and  N1_6 
REMARK    3  A    between atoms: N1_6  and  C5_9 
REMARK    4  A    between atoms: C5_9  and  C6_10 
REMARK    5  A    between atoms: C6_10  and  N2_11 
ROOT
HETATM    1  O1  UNL     1      -3.516  -1.720  11.267  1.00  0.00    -0.260 OA
HETATM    2  C1  UNL     1      -3.784  -0.643  11.829  1.00  0.00     0.290 A 
HETATM    3  C2  UNL     1      -3.879   0.519  11.116  1.00  0.00     0.092 A 
HETATM    4  C3  UNL     1      -4.180   1.745  11.711  1.00  0.00    -0.011 A 
HETATM    5  C11 UNL     1      -4.389   1.758  13.090  1.00  0.00     0.041 A 
HETATM    6  C12 UNL     1      -4.689   2.700  14.053  1.00  0.00     0.007 A 
HETATM    7  C13 UNL     1      -4.738   1.974  15.259  1.00  0.00     0.065 A 
HETATM    8  O3  UNL     1      -4.483   0.729  14.966  1.00  0.00    -0.291 OA
HETATM    9  C14 UNL     1      -4.271   0.525  13.742  1.00  0.00     0.205 A 
HETATM   10  O4  UNL     1      -3.983  -0.599  13.111  1.00  0.00    -0.250 OA
HETATM   11  C15 UNL     1      -4.988   2.282  16.648  1.00  0.00     0.077 C 
HETATM   12  C16 UNL     1      -6.001   3.418  16.955  1.00  0.00     0.086 C 
HETATM   13  C17 UNL     1      -5.944   4.169  15.766  1.00  0.00    -0.181 C 
HETATM   14  C18 UNL     1      -5.872   4.904  14.606  1.00  0.00     0.105 C 
HETATM   15  C19 UNL     1      -4.868   4.082  13.713  1.00  0.00     0.129 C 
HETATM   16 CL1  UNL     1      -3.279   4.879  14.116  1.00  0.00    -0.119 Cl
ENDROOT
BRANCH   4  17
HETATM   17  C4  UNL     1      -4.279   2.971  10.946  1.00  0.00     0.272 C 
BRANCH  17  18
HETATM   18  N1  UNL     1      -2.907   3.527  10.826  1.00  0.00    -0.070 N 
ATOM     19  H12 UNL     1      -2.412   3.574  11.716  1.00  0.00     0.277 HD
ATOM     20  H11 UNL     1      -2.258   2.898  10.352  1.00  0.00     0.277 HD
BRANCH  18  21
HETATM   21  C5  UNL     1      -3.034   4.824  10.169  1.00  0.00     0.262 C 
BRANCH  21  22
HETATM   22  C6  UNL     1      -3.908   4.775   8.972  1.00  0.00     0.300 C 
BRANCH  22  23
HETATM   23  N2  UNL     1      -4.542   6.063   8.830  1.00  0.00     0.094 N 
HETATM   24  C7  UNL     1      -5.448   6.412   9.871  1.00  0.00     0.298 C 
HETATM   25  C8  UNL     1      -6.708   7.039   9.279  1.00  0.00     0.198 C 
HETATM   26  O2  UNL     1      -7.277   6.077   8.462  1.00  0.00    -0.388 OA
HETATM   27  C9  UNL     1      -6.487   5.856   7.364  1.00  0.00     0.198 C 
HETATM   28  C10 UNL     1      -5.058   6.296   7.505  1.00  0.00     0.298 C 
ENDBRANCH  22  23
ENDBRANCH  21  22
ENDBRANCH  18  21
ENDBRANCH  17  18
ENDBRANCH   4  17
TORSDOF 5
ENDMDL
MODEL 3
REMARK VINA RESULT: -8.236789508      1.809      2.101
REMARK  5 active torsions:
REMARK  status: ('A' for Active; 'I' for Inactive)
REMARK    1  A    between atoms: C3_4  and  C4_5 
REMARK    2  A    between atoms: C4_5  and  N1_6 
REMARK    3  A    between atoms: N1_6  and  C5_9 
REMARK    4  A    between atoms: C5_9  and  C6_10 
REMARK    5  A    between atoms: C6_10  and  N2_11 
ROOT
HETATM    1  O1  UNL     1      -5.381   1.306  18.008  1.00  0.00    -0.260 OA
HETATM    2  C1  UNL     1      -4.979   1.328  16.831  1.00  0.00     0.290 A 
HETATM    3  C2  UNL     1      -4.586   2.497  16.243  1.00  0.00     0.092 A 
HETATM    4  C3  UNL     1      -4.127   2.560  14.927  1.00  0.00    -0.011 A 
HETATM    5  C11 UNL     1      -4.076   1.368  14.203  1.00  0.00     0.041 A 
HETATM    6  C12 UNL     1      -3.712   0.978  12.930  1.00  0.00     0.007 A 
HETATM    7  C13 UNL     1      -3.938  -0.412  12.905  1.00  0.00     0.065 A 
HETATM    8  O3  UNL     1      -4.389  -0.748  14.082  1.00  0.00    -0.291 OA
HETATM    9  C14 UNL     1      -4.498   0.219  14.882  1.00  0.00     0.205 A 
HETATM   10  O4  UNL     1      -4.921   0.235  16.133  1.00  0.00    -0.250 OA
HETATM   11  C15 UNL     1      -3.791  -1.471  11.933  1.00  0.00     0.077 C 
HETATM   12  C16 UNL     1      -2.622  -1.350  10.918  1.00  0.00     0.086 C 
HETATM   13  C17 UNL     1      -2.403   0.040  10.913  1.00  0.00    -0.181 C 
HETATM   14  C18 UNL     1      -2.204   1.400  10.903  1.00  0.00     0.105 C 
HETATM   15  C19 UNL     1      -3.238   1.929  11.967  1.00  0.00     0.129 C 
HETATM   16 CL1  UNL     1      -4.682   2.306  10.920  1.00  0.00    -0.119 Cl
ENDROOT
BRANCH   4  17
HETATM   17  C4  UNL     1      -3.712   3.804  14.312  1.00  0.00     0.272 C 
BRANCH  17  18
HETATM   18  N1  UNL     1      -2.232   3.874  14.413  1.00  0.00    -0.070 N 
ATOM     19  H12 UNL     1      -1.894   3.870  15.375  1.00  0.00     0.277 HD
ATOM     20  H11 UNL     1      -1.767   3.018  14.109  1.00  0.00     0.277 HD
BRANCH  18  21
HETATM   21  C5  UNL     1      -1.814   5.053  13.662  1.00  0.00     0.262 C 
BRANCH  21  22
HETATM   22  C6  UNL     1      -1.016   4.712  12.460  1.00  0.00     0.300 C 
BRANCH  22  23
HETATM   23  N2  UNL     1      -1.444   5.571  11.382  1.00  0.00     0.094 N 
HETATM   24  C7  UNL     1      -2.825   5.486  11.049  1.00  0.00     0.298 C 
HETATM   25  C8  UNL     1      -2.996   5.465   9.532  1.00  0.00     0.198 C 
HETATM   26  O2  UNL     1      -2.331   4.339   9.078  1.00  0.00    -0.388 OA
HETATM   27  C9  UNL     1      -0.979   4.486   9.242  1.00  0.00     0.198 C 
HETATM   28  C10 UNL     1      -0.564   5.528  10.242  1.00  0.00     0.298 C 
ENDBRANCH  22  23
ENDBRANCH  21  22
ENDBRANCH  18  21
ENDBRANCH  17  18
ENDBRANCH   4  17
TORSDOF 5
ENDMDL
MODEL 4
REMARK VINA RESULT: -8.224865825      0.962      1.171
REMARK  5 active torsions:
REMARK  status: ('A' for Active; 'I' for Inactive)
REMARK    1  A    between atoms: C3_4  and  C4_5 
REMARK    2  A    between atoms: C4_5  and  N1_6 
REMARK    3  A    between atoms: N1_6  and  C5_9 
REMARK    4  A    between atoms: C5_9  and  C6_10 
REMARK    5  A    between atoms: C6_10  and  N2_11 
ROOT
HETATM    1  O1  UNL     1      -5.447   1.260  18.063  1.00  0.00    -0.260 OA
HETATM    2  C1  UNL     1      -5.041   1.303  16.888  1.00  0.00     0.290 A 
HETATM    3  C2  UNL     1      -4.683   2.489  16.309  1.00  0.00     0.092 A 
HETATM    4  C3  UNL     1      -4.221   2.575  14.995  1.00  0.00    -0.011 A 
HETATM    5  C11 UNL     1      -4.128   1.391  14.264  1.00  0.00     0.041 A 
HETATM    6  C12 UNL     1      -3.747   1.022  12.990  1.00  0.00     0.007 A 
HETATM    7  C13 UNL     1      -3.927  -0.374  12.954  1.00  0.00     0.065 A 
HETATM    8  O3  UNL     1      -4.373  -0.733  14.127  1.00  0.00    -0.291 OA
HETATM    9  C14 UNL     1      -4.516   0.224  14.933  1.00  0.00     0.205 A 
HETATM   10  O4  UNL     1      -4.944   0.218  16.183  1.00  0.00    -0.250 OA
HETATM   11  C15 UNL     1      -3.743  -1.422  11.976  1.00  0.00     0.077 C 
HETATM   12  C16 UNL     1      -2.574  -1.256  10.968  1.00  0.00     0.086 C 
HETATM   13  C17 UNL     1      -2.400   0.141  10.973  1.00  0.00    -0.181 C 
HETATM   14  C18 UNL     1      -2.245   1.506  10.973  1.00  0.00     0.105 C 
HETATM   15  C19 UNL     1      -3.300   1.994  12.036  1.00  0.00     0.129 C 
HETATM   16 CL1  UNL     1      -4.751   2.331  10.985  1.00  0.00    -0.119 Cl
ENDROOT
BRANCH   4  17
HETATM   17  C4  UNL     1      -3.844   3.837  14.391  1.00  0.00     0.272 C 
BRANCH  17  18
HETATM   18  N1  UNL     1      -5.086   4.635  14.227  1.00  0.00    -0.070 N 
ATOM     19  H12 UNL     1      -5.936   4.077  14.302  1.00  0.00     0.277 HD
ATOM     20  H11 UNL     1      -5.271   5.258  15.014  1.00  0.00     0.277 HD
BRANCH  18  21
HETATM   21  C5  UNL     1      -4.971   5.337  12.953  1.00  0.00     0.262 C 
BRANCH  21  22
HETATM   22  C6  UNL     1      -3.563   5.620  12.583  1.00  0.00     0.300 C 
BRANCH  22  23
HETATM   23  N2  UNL     1      -3.559   6.221  11.270  1.00  0.00     0.094 N 
HETATM   24  C7  UNL     1      -4.633   5.830  10.421  1.00  0.00     0.298 C 
HETATM   25  C8  UNL     1      -4.111   5.561   9.011  1.00  0.00     0.198 C 
HETATM   26  O2  UNL     1      -3.197   4.528   9.122  1.00  0.00    -0.388 OA
HETATM   27  C9  UNL     1      -2.081   4.949   9.797  1.00  0.00     0.198 C 
HETATM   28  C10 UNL     1      -2.267   6.182  10.635  1.00  0.00     0.298 C 
ENDBRANCH  22  23
ENDBRANCH  21  22
ENDBRANCH  18  21
ENDBRANCH  17  18
ENDBRANCH   4  17
TORSDOF 5
ENDMDL
MODEL 5
REMARK VINA RESULT: -8.214444831      2.583      4.984
REMARK  5 active torsions:
REMARK  status: ('A' for Active; 'I' for Inactive)
REMARK    1  A    between atoms: C3_4  and  C4_5 
REMARK    2  A    between atoms: C4_5  and  N1_6 
REMARK    3  A    between atoms: N1_6  and  C5_9 
REMARK    4  A    between atoms: C5_9  and  C6_10 
REMARK    5  A    between atoms: C6_10  and  N2_11 
ROOT
HETATM    1  O1  UNL     1      -3.626  -1.049  10.890  1.00  0.00    -0.260 OA
HETATM    2  C1  UNL     1      -3.908  -0.102  11.647  1.00  0.00     0.290 A 
HETATM    3  C2  UNL     1      -4.073   1.164  11.160  1.00  0.00     0.092 A 
HETATM    4  C3  UNL     1      -4.391   2.249  11.978  1.00  0.00    -0.011 A 
HETATM    5  C11 UNL     1      -4.542   2.005  13.344  1.00  0.00     0.041 A 
HETATM    6  C12 UNL     1      -4.834   2.746  14.471  1.00  0.00     0.007 A 
HETATM    7  C13 UNL     1      -4.807   1.813  15.526  1.00  0.00     0.065 A 
HETATM    8  O3  UNL     1      -4.521   0.652  15.004  1.00  0.00    -0.291 OA
HETATM    9  C14 UNL     1      -4.354   0.681  13.756  1.00  0.00     0.205 A 
HETATM   10  O4  UNL     1      -4.054  -0.298  12.922  1.00  0.00    -0.250 OA
HETATM   11  C15 UNL     1      -5.009   1.855  16.957  1.00  0.00     0.077 C 
HETATM   12  C16 UNL     1      -6.047   2.874  17.499  1.00  0.00     0.086 C 
HETATM   13  C17 UNL     1      -6.065   3.829  16.464  1.00  0.00    -0.181 C 
HETATM   14  C18 UNL     1      -6.068   4.763  15.456  1.00  0.00     0.105 C 
HETATM   15  C19 UNL     1      -5.074   4.157  14.394  1.00  0.00     0.129 C 
HETATM   16 CL1  UNL     1      -3.498   4.935  14.878  1.00  0.00    -0.119 Cl
ENDROOT
BRANCH   4  17
HETATM   17  C4  UNL     1      -4.564   3.587  11.452  1.00  0.00     0.272 C 
BRANCH  17  18
HETATM   18  N1  UNL     1      -4.178   3.551  10.018  1.00  0.00    -0.070 N 
ATOM     19  H12 UNL     1      -3.573   2.764   9.784  1.00  0.00     0.277 HD
ATOM     20  H11 UNL     1      -4.951   3.306   9.399  1.00  0.00     0.277 HD
BRANCH  18  21
HETATM   21  C5  UNL     1      -3.582   4.847   9.710  1.00  0.00     0.262 C 
BRANCH  21  22
HETATM   22  C6  UNL     1      -2.763   5.379  10.825  1.00  0.00     0.300 C 
BRANCH  22  23
HETATM   23  N2  UNL     1      -1.375   5.131  10.516  1.00  0.00     0.094 N 
HETATM   24  C7  UNL     1      -1.110   4.760   9.167  1.00  0.00     0.298 C 
HETATM   25  C8  UNL     1      -0.106   3.610   9.129  1.00  0.00     0.198 C 
HETATM   26  O2  UNL     1      -0.695   2.554   9.802  1.00  0.00    -0.388 OA
HETATM   27  C9  UNL     1      -0.799   2.838  11.138  1.00  0.00     0.198 C 
HETATM   28  C10 UNL     1      -0.719   4.296  11.491  1.00  0.00     0.298 C 
ENDBRANCH  22  23
ENDBRANCH  21  22
ENDBRANCH  18  21
ENDBRANCH  17  18
ENDBRANCH   4  17
TORSDOF 5
ENDMDL
