MODEL 1
REMARK VINA RESULT: -8.357195250      0.000      0.000
REMARK  5 active torsions:
REMARK  status: ('A' for Active; 'I' for Inactive)
REMARK    1  A    between atoms: O1_1  and  C1_3 
REMARK    2  A    between atoms: C1_3  and  C2_4 
REMARK    3  A    between atoms: C2_4  and  C3_5 
REMARK    4  A    between atoms: C10_13  and  C11_14 
REMARK    5  A    between atoms: C14_19  and  N3_20 
ROOT
HETATM    1  C11 UNL     1      -5.817   6.644  11.025  1.00  0.00    -0.028 A 
HETATM    2  C12 UNL     1      -6.509   6.454  12.209  1.00  0.00     0.059 A 
HETATM    3  C13 UNL     1      -5.972   5.393  12.895  1.00  0.00     0.128 A 
HETATM    4  N2  UNL     1      -6.209   4.750  14.064  1.00  0.00    -0.176 N 
ATOM      5  H2  UNL     1      -6.975   5.086  14.649  1.00  0.00     0.186 HD
HETATM    6  C14 UNL     1      -5.498   3.698  14.502  1.00  0.00     0.682 A 
HETATM    7  N4  UNL     1      -4.486   3.286  13.683  1.00  0.00    -0.187 N 
ATOM      8  H4  UNL     1      -3.919   2.490  13.973  1.00  0.00     0.185 HD
HETATM    9  C18 UNL     1      -4.203   3.882  12.513  1.00  0.00     0.207 A 
HETATM   10  N5  UNL     1      -4.960   4.922  12.155  1.00  0.00    -0.303 N 
HETATM   11  C19 UNL     1      -4.854   5.669  11.019  1.00  0.00     0.107 A 
ENDROOT
BRANCH   1  12
HETATM   12  C10 UNL     1      -6.128   7.713  10.026  1.00  0.00     0.009 C 
HETATM   13  C6  UNL     1      -5.032   8.090   9.141  1.00  0.00     0.005 C 
HETATM   14  C5  UNL     1      -5.234   8.086   7.671  1.00  0.00     0.050 C 
HETATM   15  C7  UNL     1      -4.562   9.504   9.527  1.00  0.00     0.006 C 
HETATM   16  C4  UNL     1      -6.562   7.628   7.172  1.00  0.00     0.064 C 
HETATM   17  N1  UNL     1      -7.574   8.006   8.045  1.00  0.00    -0.369 N 
HETATM   18  C3  UNL     1      -8.782   8.545   7.717  1.00  0.00     0.088 C 
HETATM   19  C20 UNL     1      -7.455   7.439   9.373  1.00  0.00     0.142 C 
HETATM   20  C8  UNL     1      -5.813  10.117  10.063  1.00  0.00     0.002 C 
HETATM   21  C9  UNL     1      -6.369   8.970  10.887  1.00  0.00     0.016 C 
BRANCH  18  22
HETATM   22  C2  UNL     1      -9.069   9.894   7.252  1.00  0.00     0.016 C 
BRANCH  22  23
HETATM   23  C1  UNL     1     -10.423  10.455   7.214  1.00  0.00     0.192 C 
BRANCH  23  24
HETATM   24  O1  UNL     1     -11.412   9.584   7.552  1.00  0.00    -0.397 OA
ATOM     25  H1  UNL     1     -12.226   9.991   7.824  1.00  0.00     0.209 HD
ENDBRANCH  23  24
ENDBRANCH  22  23
ENDBRANCH  18  22
ENDBRANCH   1  12
BRANCH   6  26
HETATM   26  N3  UNL     1      -5.764   3.034  15.728  1.00  0.00    -0.212 N 
HETATM   27  C15 UNL     1      -6.414   3.320  16.975  1.00  0.00     0.180 A 
HETATM   28  C16 UNL     1      -6.108   1.936  17.497  1.00  0.00     0.207 A 
HETATM   29  F1  UNL     1      -7.209   1.098  17.624  1.00  0.00    -0.246 F 
HETATM   30  C17 UNL     1      -5.425   1.689  16.195  1.00  0.00     0.180 A 
ENDBRANCH   6  26
TORSDOF 5
ENDMDL
MODEL 2
REMARK VINA RESULT: -7.756174981      0.951      1.010
REMARK  5 active torsions:
REMARK  status: ('A' for Active; 'I' for Inactive)
REMARK    1  A    between atoms: O1_1  and  C1_3 
REMARK    2  A    between atoms: C1_3  and  C2_4 
REMARK    3  A    between atoms: C2_4  and  C3_5 
REMARK    4  A    between atoms: C10_13  and  C11_14 
REMARK    5  A    between atoms: C14_19  and  N3_20 
ROOT
HETATM    1  C11 UNL     1      -5.799   6.628  11.035  1.00  0.00    -0.028 A 
HETATM    2  C12 UNL     1      -6.508   6.430  12.206  1.00  0.00     0.059 A 
HETATM    3  C13 UNL     1      -5.976   5.370  12.897  1.00  0.00     0.128 A 
HETATM    4  N2  UNL     1      -6.228   4.723  14.061  1.00  0.00    -0.176 N 
ATOM      5  H2  UNL     1      -7.005   5.052  14.634  1.00  0.00     0.186 HD
HETATM    6  C14 UNL     1      -5.518   3.673  14.507  1.00  0.00     0.682 A 
HETATM    7  N4  UNL     1      -4.490   3.271  13.703  1.00  0.00    -0.187 N 
ATOM      8  H4  UNL     1      -3.923   2.477  14.001  1.00  0.00     0.185 HD
HETATM    9  C18 UNL     1      -4.192   3.871  12.540  1.00  0.00     0.207 A 
HETATM   10  N5  UNL     1      -4.949   4.907  12.173  1.00  0.00    -0.303 N 
HETATM   11  C19 UNL     1      -4.829   5.659  11.041  1.00  0.00     0.107 A 
ENDROOT
BRANCH   1  12
HETATM   12  C10 UNL     1      -6.100   7.698  10.033  1.00  0.00     0.009 C 
HETATM   13  C6  UNL     1      -4.998   8.071   9.155  1.00  0.00     0.005 C 
HETATM   14  C5  UNL     1      -5.190   8.069   7.684  1.00  0.00     0.050 C 
HETATM   15  C7  UNL     1      -4.525   9.484   9.544  1.00  0.00     0.006 C 
HETATM   16  C4  UNL     1      -6.517   7.615   7.178  1.00  0.00     0.064 C 
HETATM   17  N1  UNL     1      -7.533   7.996   8.044  1.00  0.00    -0.369 N 
HETATM   18  C3  UNL     1      -8.737   8.540   7.709  1.00  0.00     0.088 C 
HETATM   19  C20 UNL     1      -7.423   7.428   9.373  1.00  0.00     0.142 C 
HETATM   20  C8  UNL     1      -5.777  10.102  10.073  1.00  0.00     0.002 C 
HETATM   21  C9  UNL     1      -6.341   8.956  10.893  1.00  0.00     0.016 C 
BRANCH  18  22
HETATM   22  C2  UNL     1      -9.016   9.890   7.242  1.00  0.00     0.016 C 
BRANCH  22  23
HETATM   23  C1  UNL     1      -8.197  11.048   7.612  1.00  0.00     0.192 C 
BRANCH  23  24
HETATM   24  O1  UNL     1      -7.047  11.187   6.898  1.00  0.00    -0.397 OA
ATOM     25  H1  UNL     1      -6.545  11.967   7.098  1.00  0.00     0.209 HD
ENDBRANCH  23  24
ENDBRANCH  22  23
ENDBRANCH  18  22
ENDBRANCH   1  12
BRANCH   6  26
HETATM   26  N3  UNL     1      -5.800   3.004  15.727  1.00  0.00    -0.212 N 
HETATM   27  C15 UNL     1      -6.440   3.294  16.977  1.00  0.00     0.180 A 
HETATM   28  C16 UNL     1      -6.170   1.898  17.485  1.00  0.00     0.207 A 
HETATM   29  F1  UNL     1      -7.292   1.087  17.604  1.00  0.00    -0.246 F 
HETATM   30  C17 UNL     1      -5.495   1.646  16.180  1.00  0.00     0.180 A 
ENDBRANCH   6  26
TORSDOF 5
ENDMDL
MODEL 3
REMARK VINA RESULT: -7.707516419      4.425      8.964
REMARK  5 active torsions:
REMARK  status: ('A' for Active; 'I' for Inactive)
REMARK    1  A    between atoms: O1_1  and  C1_3 
REMARK    2  A    between atoms: C1_3  and  C2_4 
REMARK    3  A    between atoms: C2_4  and  C3_5 
REMARK    4  A    between atoms: C10_13  and  C11_14 
REMARK    5  A    between atoms: C14_19  and  N3_20 
ROOT
HETATM    1  C11 UNL     1      -4.666   5.385  10.598  1.00  0.00    -0.028 A 
HETATM    2  C12 UNL     1      -5.486   6.499  10.651  1.00  0.00     0.059 A 
HETATM    3  C13 UNL     1      -5.920   6.816   9.388  1.00  0.00     0.128 A 
HETATM    4  N2  UNL     1      -6.710   7.761   8.822  1.00  0.00    -0.176 N 
ATOM      5  H2  UNL     1      -7.133   8.460   9.434  1.00  0.00     0.186 HD
HETATM    6  C14 UNL     1      -6.971   7.835   7.507  1.00  0.00     0.682 A 
HETATM    7  N4  UNL     1      -6.380   6.878   6.732  1.00  0.00    -0.187 N 
ATOM      8  H4  UNL     1      -6.549   6.894   5.727  1.00  0.00     0.185 HD
HETATM    9  C18 UNL     1      -5.588   5.917   7.234  1.00  0.00     0.207 A 
HETATM   10  N5  UNL     1      -5.382   5.917   8.553  1.00  0.00    -0.303 N 
HETATM   11  C19 UNL     1      -4.619   5.044   9.271  1.00  0.00     0.107 A 
ENDROOT
BRANCH   1  12
HETATM   12  C10 UNL     1      -4.013   4.758  11.788  1.00  0.00     0.009 C 
HETATM   13  C6  UNL     1      -3.087   5.610  12.524  1.00  0.00     0.005 C 
HETATM   14  C5  UNL     1      -3.247   5.786  13.989  1.00  0.00     0.050 C 
HETATM   15  C7  UNL     1      -1.657   5.090  12.288  1.00  0.00     0.006 C 
HETATM   16  C4  UNL     1      -4.413   5.109  14.626  1.00  0.00     0.064 C 
HETATM   17  N1  UNL     1      -4.680   3.897  14.005  1.00  0.00    -0.369 N 
HETATM   18  C3  UNL     1      -4.965   2.709  14.610  1.00  0.00     0.088 C 
HETATM   19  C20 UNL     1      -5.033   4.013  12.604  1.00  0.00     0.142 C 
HETATM   20  C8  UNL     1      -1.884   3.630  12.071  1.00  0.00     0.002 C 
HETATM   21  C9  UNL     1      -3.116   3.658  11.184  1.00  0.00     0.016 C 
BRANCH  18  22
HETATM   22  C2  UNL     1      -4.056   1.821  15.320  1.00  0.00     0.016 C 
BRANCH  22  23
HETATM   23  C1  UNL     1      -4.504   0.608  16.012  1.00  0.00     0.192 C 
BRANCH  23  24
HETATM   24  O1  UNL     1      -4.526  -0.514  15.244  1.00  0.00    -0.397 OA
ATOM     25  H1  UNL     1      -4.787  -1.305  15.700  1.00  0.00     0.209 HD
ENDBRANCH  23  24
ENDBRANCH  22  23
ENDBRANCH  18  22
ENDBRANCH   1  12
BRANCH   6  26
HETATM   26  N3  UNL     1      -7.797   8.835   6.932  1.00  0.00    -0.212 N 
HETATM   27  C15 UNL     1      -7.767   9.726   5.808  1.00  0.00     0.180 A 
HETATM   28  C16 UNL     1      -9.120  10.292   6.168  1.00  0.00     0.207 A 
HETATM   29  F1  UNL     1     -10.152   9.946   5.303  1.00  0.00    -0.246 F 
HETATM   30  C17 UNL     1      -9.102   9.364   7.336  1.00  0.00     0.180 A 
ENDBRANCH   6  26
TORSDOF 5
ENDMDL
MODEL 4
REMARK VINA RESULT: -7.627976262      4.545      9.023
REMARK  5 active torsions:
REMARK  status: ('A' for Active; 'I' for Inactive)
REMARK    1  A    between atoms: O1_1  and  C1_3 
REMARK    2  A    between atoms: C1_3  and  C2_4 
REMARK    3  A    between atoms: C2_4  and  C3_5 
REMARK    4  A    between atoms: C10_13  and  C11_14 
REMARK    5  A    between atoms: C14_19  and  N3_20 
ROOT
HETATM    1  C11 UNL     1      -4.453   4.891  10.340  1.00  0.00    -0.028 A 
HETATM    2  C12 UNL     1      -5.304   5.971  10.494  1.00  0.00     0.059 A 
HETATM    3  C13 UNL     1      -5.694   6.435   9.262  1.00  0.00     0.128 A 
HETATM    4  N2  UNL     1      -6.485   7.426   8.784  1.00  0.00    -0.176 N 
ATOM      5  H2  UNL     1      -6.951   8.033   9.458  1.00  0.00     0.186 HD
HETATM    6  C14 UNL     1      -6.693   7.659   7.478  1.00  0.00     0.682 A 
HETATM    7  N4  UNL     1      -6.045   6.819   6.617  1.00  0.00    -0.187 N 
ATOM      8  H4  UNL     1      -6.172   6.958   5.615  1.00  0.00     0.185 HD
HETATM    9  C18 UNL     1      -5.249   5.820   7.030  1.00  0.00     0.207 A 
HETATM   10  N5  UNL     1      -5.098   5.660   8.347  1.00  0.00    -0.303 N 
HETATM   11  C19 UNL     1      -4.342   4.719   8.984  1.00  0.00     0.107 A 
ENDROOT
BRANCH   1  12
HETATM   12  C10 UNL     1      -3.833   4.133  11.471  1.00  0.00     0.009 C 
HETATM   13  C6  UNL     1      -2.376   4.156  11.523  1.00  0.00     0.005 C 
HETATM   14  C5  UNL     1      -1.687   4.567  12.772  1.00  0.00     0.050 C 
HETATM   15  C7  UNL     1      -1.856   2.752  11.165  1.00  0.00     0.006 C 
HETATM   16  C4  UNL     1      -2.550   5.000  13.908  1.00  0.00     0.064 C 
HETATM   17  N1  UNL     1      -3.733   4.274  13.935  1.00  0.00    -0.369 N 
HETATM   18  C3  UNL     1      -4.335   3.723  15.027  1.00  0.00     0.088 C 
HETATM   19  C20 UNL     1      -4.557   4.437  12.753  1.00  0.00     0.142 C 
HETATM   20  C8  UNL     1      -2.968   1.873  11.636  1.00  0.00     0.002 C 
HETATM   21  C9  UNL     1      -4.178   2.661  11.167  1.00  0.00     0.016 C 
BRANCH  18  22
HETATM   22  C2  UNL     1      -3.928   2.546  15.780  1.00  0.00     0.016 C 
BRANCH  22  23
HETATM   23  C1  UNL     1      -4.129   1.178  15.294  1.00  0.00     0.192 C 
BRANCH  23  24
HETATM   24  O1  UNL     1      -3.749   0.201  16.160  1.00  0.00    -0.397 OA
ATOM     25  H1  UNL     1      -4.077  -0.666  15.954  1.00  0.00     0.209 HD
ENDBRANCH  23  24
ENDBRANCH  22  23
ENDBRANCH  18  22
ENDBRANCH   1  12
BRANCH   6  26
HETATM   26  N3  UNL     1      -7.521   8.705   6.996  1.00  0.00    -0.212 N 
HETATM   27  C15 UNL     1      -7.500   9.685   5.947  1.00  0.00     0.180 A 
HETATM   28  C16 UNL     1      -8.847  10.223   6.367  1.00  0.00     0.207 A 
HETATM   29  F1  UNL     1      -9.889   9.952   5.489  1.00  0.00    -0.246 F 
HETATM   30  C17 UNL     1      -8.819   9.204   7.456  1.00  0.00     0.180 A 
ENDBRANCH   6  26
TORSDOF 5
ENDMDL
MODEL 5
REMARK VINA RESULT: -7.610211382      4.248      8.829
REMARK  5 active torsions:
REMARK  status: ('A' for Active; 'I' for Inactive)
REMARK    1  A    between atoms: O1_1  and  C1_3 
REMARK    2  A    between atoms: C1_3  and  C2_4 
REMARK    3  A    between atoms: C2_4  and  C3_5 
REMARK    4  A    between atoms: C10_13  and  C11_14 
REMARK    5  A    between atoms: C14_19  and  N3_20 
ROOT
HETATM    1  C11 UNL     1      -5.167   5.564  11.591  1.00  0.00    -0.028 A 
HETATM    2  C12 UNL     1      -6.093   6.590  11.650  1.00  0.00     0.059 A 
HETATM    3  C13 UNL     1      -6.351   7.056  10.385  1.00  0.00     0.128 A 
HETATM    4  N2  UNL     1      -7.133   8.010   9.823  1.00  0.00    -0.176 N 
ATOM      5  H2  UNL     1      -7.717   8.575  10.440  1.00  0.00     0.186 HD
HETATM    6  C14 UNL     1      -7.187   8.257   8.504  1.00  0.00     0.682 A 
HETATM    7  N4  UNL     1      -6.387   7.474   7.722  1.00  0.00    -0.187 N 
ATOM      8  H4  UNL     1      -6.394   7.626   6.714  1.00  0.00     0.185 HD
HETATM    9  C18 UNL     1      -5.590   6.515   8.220  1.00  0.00     0.207 A 
HETATM   10  N5  UNL     1      -5.599   6.335   9.543  1.00  0.00    -0.303 N 
HETATM   11  C19 UNL     1      -4.875   5.427  10.259  1.00  0.00     0.107 A 
ENDROOT
BRANCH   1  12
HETATM   12  C10 UNL     1      -4.651   4.820  12.782  1.00  0.00     0.009 C 
HETATM   13  C6  UNL     1      -3.752   5.567  13.654  1.00  0.00     0.005 C 
HETATM   14  C5  UNL     1      -4.031   5.649  15.109  1.00  0.00     0.050 C 
HETATM   15  C7  UNL     1      -2.334   4.987  13.500  1.00  0.00     0.006 C 
HETATM   16  C4  UNL     1      -5.279   4.994  15.595  1.00  0.00     0.064 C 
HETATM   17  N1  UNL     1      -5.551   3.844  14.866  1.00  0.00    -0.369 N 
HETATM   18  C3  UNL     1      -5.944   2.635  15.355  1.00  0.00     0.088 C 
HETATM   19  C20 UNL     1      -5.773   4.077  13.452  1.00  0.00     0.142 C 
HETATM   20  C8  UNL     1      -2.612   3.560  13.157  1.00  0.00     0.002 C 
HETATM   21  C9  UNL     1      -3.760   3.717  12.175  1.00  0.00     0.016 C 
BRANCH  18  22
HETATM   22  C2  UNL     1      -5.146   1.650  16.070  1.00  0.00     0.016 C 
BRANCH  22  23
HETATM   23  C1  UNL     1      -4.175   0.775  15.406  1.00  0.00     0.192 C 
BRANCH  23  24
HETATM   24  O1  UNL     1      -4.500  -0.546  15.409  1.00  0.00    -0.397 OA
ATOM     25  H1  UNL     1      -4.646  -0.924  14.550  1.00  0.00     0.209 HD
ENDBRANCH  23  24
ENDBRANCH  22  23
ENDBRANCH  18  22
ENDBRANCH   1  12
BRANCH   6  26
HETATM   26  N3  UNL     1      -8.009   9.264   7.934  1.00  0.00    -0.212 N 
HETATM   27  C15 UNL     1      -9.230   9.345   7.185  1.00  0.00     0.180 A 
HETATM   28  C16 UNL     1      -9.151  10.853   7.143  1.00  0.00     0.207 A 
HETATM   29  F1  UNL     1     -10.099  11.513   7.915  1.00  0.00    -0.246 F 
HETATM   30  C17 UNL     1      -7.875  10.722   7.904  1.00  0.00     0.180 A 
ENDBRANCH   6  26
TORSDOF 5
ENDMDL
