MODEL 1
REMARK VINA RESULT: -8.370260968      0.000      0.000
REMARK  7 active torsions:
REMARK  status: ('A' for Active; 'I' for Inactive)
REMARK    1  A    between atoms: C2_2  and  C3_3 
REMARK    2  A    between atoms: C2_2  and  C16_21 
REMARK    3  A    between atoms: C3_3  and  C4_4 
REMARK    4  A    between atoms: C7_8  and  N1_9 
REMARK    5  A    between atoms: C16_21  and  O3_22 
REMARK    6  A    between atoms: C16_21  and  O4_24 
REMARK    7  A    between atoms: O4_24  and  C17_25 
ROOT
HETATM    1  C4  UNL     1      -4.570   4.178  13.239  1.00  0.00    -0.014 C 
HETATM    2  C5  UNL     1      -5.761   4.832  13.357  1.00  0.00     0.025 C 
HETATM    3  C6  UNL     1      -6.184   5.692  12.248  1.00  0.00     0.242 C 
HETATM    4  F1  UNL     1      -7.198   6.516  12.694  1.00  0.00    -0.241 F 
HETATM    5  C7  UNL     1      -5.000   6.461  11.719  1.00  0.00     0.270 C 
HETATM    6  O2  UNL     1      -3.930   5.715  11.459  1.00  0.00    -0.333 OA
HETATM    7  C13 UNL     1      -3.815   4.457  12.041  1.00  0.00     0.175 C 
HETATM    8  C14 UNL     1      -2.337   4.250  12.237  1.00  0.00     0.068 C 
HETATM    9  C15 UNL     1      -4.251   3.538  10.965  1.00  0.00     0.102 C 
HETATM   10  N2  UNL     1      -4.594   2.794  10.126  1.00  0.00    -0.194 NA
ENDROOT
BRANCH   1  11
HETATM   11  C3  UNL     1      -4.178   3.338  14.358  1.00  0.00    -0.007 C 
BRANCH  11  12
HETATM   12  C2  UNL     1      -4.577   1.943  14.564  1.00  0.00     0.060 C 
HETATM   13  C1  UNL     1      -3.994   0.829  13.790  1.00  0.00     0.019 C 
BRANCH  12  14
HETATM   14  C16 UNL     1      -4.391   1.572  16.056  1.00  0.00     0.265 C 
BRANCH  14  15
HETATM   15  O3  UNL     1      -2.968   1.356  16.150  1.00  0.00    -0.371 OA
ATOM     16  H3  UNL     1      -2.741   1.821  16.948  1.00  0.00     0.212 HD
ENDBRANCH  14  15
BRANCH  14  17
HETATM   17  O4  UNL     1      -4.766   2.582  16.861  1.00  0.00    -0.351 OA
BRANCH  17  18
HETATM   18  C17 UNL     1      -6.035   2.518  17.409  1.00  0.00     0.053 C 
HETATM   19  C18 UNL     1      -5.964   2.344  18.926  1.00  0.00     0.045 C 
HETATM   20  C19 UNL     1      -6.718   3.844  17.149  1.00  0.00     0.045 C 
HETATM   21  C20 UNL     1      -6.922   1.432  16.910  1.00  0.00     0.045 C 
ENDBRANCH  17  18
ENDBRANCH  14  17
ENDBRANCH  12  14
ENDBRANCH  11  12
ENDBRANCH   1  11
BRANCH   5  22
HETATM   22  N1  UNL     1      -5.309   7.390  10.685  1.00  0.00    -0.294 N 
HETATM   23  C8  UNL     1      -5.077   8.733  10.837  1.00  0.00     0.097 A 
HETATM   24  C9  UNL     1      -5.340   9.680   9.906  1.00  0.00     0.018 A 
HETATM   25  C10 UNL     1      -5.879   9.333   8.701  1.00  0.00     0.007 A 
HETATM   26  C11 UNL     1      -6.131   7.999   8.497  1.00  0.00     0.074 A 
HETATM   27  C12 UNL     1      -5.839   7.064   9.495  1.00  0.00     0.249 A 
HETATM   28  O1  UNL     1      -6.115   5.885   9.187  1.00  0.00    -0.268 OA
ENDBRANCH   5  22
TORSDOF 7
ENDMDL
MODEL 2
REMARK VINA RESULT: -8.280390427      0.703      1.179
REMARK  7 active torsions:
REMARK  status: ('A' for Active; 'I' for Inactive)
REMARK    1  A    between atoms: C2_2  and  C3_3 
REMARK    2  A    between atoms: C2_2  and  C16_21 
REMARK    3  A    between atoms: C3_3  and  C4_4 
REMARK    4  A    between atoms: C7_8  and  N1_9 
REMARK    5  A    between atoms: C16_21  and  O3_22 
REMARK    6  A    between atoms: C16_21  and  O4_24 
REMARK    7  A    between atoms: O4_24  and  C17_25 
ROOT
HETATM    1  C4  UNL     1      -4.587   4.204  13.282  1.00  0.00    -0.014 C 
HETATM    2  C5  UNL     1      -5.795   4.824  13.420  1.00  0.00     0.025 C 
HETATM    3  C6  UNL     1      -6.237   5.712  12.340  1.00  0.00     0.242 C 
HETATM    4  F1  UNL     1      -7.271   6.495  12.812  1.00  0.00    -0.241 F 
HETATM    5  C7  UNL     1      -5.072   6.528  11.841  1.00  0.00     0.270 C 
HETATM    6  O2  UNL     1      -3.983   5.818  11.557  1.00  0.00    -0.333 OA
HETATM    7  C13 UNL     1      -3.838   4.543  12.096  1.00  0.00     0.175 C 
HETATM    8  C14 UNL     1      -2.355   4.366  12.288  1.00  0.00     0.068 C 
HETATM    9  C15 UNL     1      -4.250   3.651  10.988  1.00  0.00     0.102 C 
HETATM   10  N2  UNL     1      -4.572   2.928  10.123  1.00  0.00    -0.194 NA
ENDROOT
BRANCH   1  11
HETATM   11  C3  UNL     1      -4.177   3.336  14.372  1.00  0.00    -0.007 C 
BRANCH  11  12
HETATM   12  C2  UNL     1      -4.590   1.943  14.561  1.00  0.00     0.060 C 
HETATM   13  C1  UNL     1      -4.021   0.833  13.770  1.00  0.00     0.019 C 
BRANCH  12  14
HETATM   14  C16 UNL     1      -4.402   1.550  16.047  1.00  0.00     0.265 C 
BRANCH  14  15
HETATM   15  O3  UNL     1      -2.981   1.322  16.135  1.00  0.00    -0.371 OA
ATOM     16  H3  UNL     1      -2.644   2.191  16.321  1.00  0.00     0.212 HD
ENDBRANCH  14  15
BRANCH  14  17
HETATM   17  O4  UNL     1      -4.768   2.552  16.867  1.00  0.00    -0.351 OA
BRANCH  17  18
HETATM   18  C17 UNL     1      -6.048   2.506  17.392  1.00  0.00     0.053 C 
HETATM   19  C18 UNL     1      -6.006   2.384  18.916  1.00  0.00     0.045 C 
HETATM   20  C19 UNL     1      -6.726   3.821  17.074  1.00  0.00     0.045 C 
HETATM   21  C20 UNL     1      -6.924   1.402  16.914  1.00  0.00     0.045 C 
ENDBRANCH  17  18
ENDBRANCH  14  17
ENDBRANCH  12  14
ENDBRANCH  11  12
ENDBRANCH   1  11
BRANCH   5  22
HETATM   22  N1  UNL     1      -5.402   7.483  10.839  1.00  0.00    -0.294 N 
HETATM   23  C8  UNL     1      -6.568   7.395  10.123  1.00  0.00     0.097 A 
HETATM   24  C9  UNL     1      -6.956   8.260   9.156  1.00  0.00     0.018 A 
HETATM   25  C10 UNL     1      -6.170   9.324   8.824  1.00  0.00     0.007 A 
HETATM   26  C11 UNL     1      -4.989   9.460   9.513  1.00  0.00     0.074 A 
HETATM   27  C12 UNL     1      -4.638   8.535  10.502  1.00  0.00     0.249 A 
HETATM   28  O1  UNL     1      -3.542   8.769  11.053  1.00  0.00    -0.268 OA
ENDBRANCH   5  22
TORSDOF 7
ENDMDL
MODEL 3
REMARK VINA RESULT: -8.279588956      3.525      5.137
REMARK  7 active torsions:
REMARK  status: ('A' for Active; 'I' for Inactive)
REMARK    1  A    between atoms: C2_2  and  C3_3 
REMARK    2  A    between atoms: C2_2  and  C16_21 
REMARK    3  A    between atoms: C3_3  and  C4_4 
REMARK    4  A    between atoms: C7_8  and  N1_9 
REMARK    5  A    between atoms: C16_21  and  O3_22 
REMARK    6  A    between atoms: C16_21  and  O4_24 
REMARK    7  A    between atoms: O4_24  and  C17_25 
ROOT
HETATM    1  C4  UNL     1      -2.916   3.640  12.816  1.00  0.00    -0.014 C 
HETATM    2  C5  UNL     1      -2.120   4.748  12.792  1.00  0.00     0.025 C 
HETATM    3  C6  UNL     1      -1.284   4.966  11.607  1.00  0.00     0.242 C 
HETATM    4  F1  UNL     1      -0.321   5.905  11.917  1.00  0.00    -0.241 F 
HETATM    5  C7  UNL     1      -0.693   3.656  11.152  1.00  0.00     0.270 C 
HETATM    6  O2  UNL     1      -1.574   2.667  11.028  1.00  0.00    -0.333 OA
HETATM    7  C13 UNL     1      -2.800   2.758  11.679  1.00  0.00     0.175 C 
HETATM    8  C14 UNL     1      -3.168   1.338  12.020  1.00  0.00     0.068 C 
HETATM    9  C15 UNL     1      -3.724   3.210  10.615  1.00  0.00     0.102 C 
HETATM   10  N2  UNL     1      -4.472   3.569   9.785  1.00  0.00    -0.194 NA
ENDROOT
BRANCH   1  11
HETATM   11  C3  UNL     1      -3.728   3.452  14.005  1.00  0.00    -0.007 C 
BRANCH  11  12
HETATM   12  C2  UNL     1      -4.982   4.147  14.308  1.00  0.00     0.060 C 
HETATM   13  C1  UNL     1      -6.214   3.936  13.522  1.00  0.00     0.019 C 
BRANCH  12  14
HETATM   14  C16 UNL     1      -5.366   3.892  15.786  1.00  0.00     0.265 C 
BRANCH  14  15
HETATM   15  O3  UNL     1      -5.950   5.150  16.180  1.00  0.00    -0.371 OA
ATOM     16  H3  UNL     1      -5.275   5.526  16.734  1.00  0.00     0.212 HD
ENDBRANCH  14  15
BRANCH  14  17
HETATM   17  O4  UNL     1      -6.272   2.902  15.890  1.00  0.00    -0.351 OA
BRANCH  17  18
HETATM   18  C17 UNL     1      -6.084   1.975  16.900  1.00  0.00     0.053 C 
HETATM   19  C18 UNL     1      -7.241   0.976  16.943  1.00  0.00     0.045 C 
HETATM   20  C19 UNL     1      -4.833   1.186  16.576  1.00  0.00     0.045 C 
HETATM   21  C20 UNL     1      -5.952   2.512  18.282  1.00  0.00     0.045 C 
ENDBRANCH  17  18
ENDBRANCH  14  17
ENDBRANCH  12  14
ENDBRANCH  11  12
ENDBRANCH   1  11
BRANCH   5  22
HETATM   22  N1  UNL     1       0.202   3.759  10.050  1.00  0.00    -0.294 N 
HETATM   23  C8  UNL     1      -0.251   3.730   8.756  1.00  0.00     0.097 A 
HETATM   24  C9  UNL     1       0.531   3.823   7.654  1.00  0.00     0.018 A 
HETATM   25  C10 UNL     1       1.883   3.958   7.776  1.00  0.00     0.007 A 
HETATM   26  C11 UNL     1       2.389   3.992   9.052  1.00  0.00     0.074 A 
HETATM   27  C12 UNL     1       1.534   3.892  10.154  1.00  0.00     0.249 A 
HETATM   28  O1  UNL     1       2.117   3.936  11.259  1.00  0.00    -0.268 OA
ENDBRANCH   5  22
TORSDOF 7
ENDMDL
MODEL 4
REMARK VINA RESULT: -8.044356374      3.496      4.969
REMARK  7 active torsions:
REMARK  status: ('A' for Active; 'I' for Inactive)
REMARK    1  A    between atoms: C2_2  and  C3_3 
REMARK    2  A    between atoms: C2_2  and  C16_21 
REMARK    3  A    between atoms: C3_3  and  C4_4 
REMARK    4  A    between atoms: C7_8  and  N1_9 
REMARK    5  A    between atoms: C16_21  and  O3_22 
REMARK    6  A    between atoms: C16_21  and  O4_24 
REMARK    7  A    between atoms: O4_24  and  C17_25 
ROOT
HETATM    1  C4  UNL     1      -3.139   3.150  12.475  1.00  0.00    -0.014 C 
HETATM    2  C5  UNL     1      -2.286   4.184  12.729  1.00  0.00     0.025 C 
HETATM    3  C6  UNL     1      -1.378   4.604  11.657  1.00  0.00     0.242 C 
HETATM    4  F1  UNL     1      -0.385   5.389  12.206  1.00  0.00    -0.241 F 
HETATM    5  C7  UNL     1      -0.833   3.390  10.946  1.00  0.00     0.270 C 
HETATM    6  O2  UNL     1      -1.758   2.511  10.571  1.00  0.00    -0.333 OA
HETATM    7  C13 UNL     1      -3.010   2.533  11.177  1.00  0.00     0.175 C 
HETATM    8  C14 UNL     1      -3.469   1.099  11.179  1.00  0.00     0.068 C 
HETATM    9  C15 UNL     1      -3.851   3.265  10.203  1.00  0.00     0.102 C 
HETATM   10  N2  UNL     1      -4.534   3.842   9.444  1.00  0.00    -0.194 NA
ENDROOT
BRANCH   1  11
HETATM   11  C3  UNL     1      -4.021   2.757  13.560  1.00  0.00    -0.007 C 
BRANCH  11  12
HETATM   12  C2  UNL     1      -3.938   3.225  14.946  1.00  0.00     0.060 C 
HETATM   13  C1  UNL     1      -4.717   4.378  15.441  1.00  0.00     0.019 C 
BRANCH  12  14
HETATM   14  C16 UNL     1      -4.256   2.050  15.903  1.00  0.00     0.265 C 
BRANCH  14  15
HETATM   15  O3  UNL     1      -2.947   1.516  16.190  1.00  0.00    -0.371 OA
ATOM     16  H3  UNL     1      -2.428   1.839  15.462  1.00  0.00     0.212 HD
ENDBRANCH  14  15
BRANCH  14  17
HETATM   17  O4  UNL     1      -4.842   2.486  17.034  1.00  0.00    -0.351 OA
BRANCH  17  18
HETATM   18  C17 UNL     1      -5.948   1.788  17.484  1.00  0.00     0.053 C 
HETATM   19  C18 UNL     1      -5.712   0.280  17.395  1.00  0.00     0.045 C 
HETATM   20  C19 UNL     1      -6.139   2.118  18.949  1.00  0.00     0.045 C 
HETATM   21  C20 UNL     1      -7.232   2.046  16.776  1.00  0.00     0.045 C 
ENDBRANCH  17  18
ENDBRANCH  14  17
ENDBRANCH  12  14
ENDBRANCH  11  12
ENDBRANCH   1  11
BRANCH   5  22
HETATM   22  N1  UNL     1       0.122   3.676   9.931  1.00  0.00    -0.294 N 
HETATM   23  C8  UNL     1      -0.246   3.797   8.616  1.00  0.00     0.097 A 
HETATM   24  C9  UNL     1       0.598   4.068   7.592  1.00  0.00     0.018 A 
HETATM   25  C10 UNL     1       1.931   4.245   7.823  1.00  0.00     0.007 A 
HETATM   26  C11 UNL     1       2.353   4.135   9.125  1.00  0.00     0.074 A 
HETATM   27  C12 UNL     1       1.436   3.854  10.144  1.00  0.00     0.249 A 
HETATM   28  O1  UNL     1       1.945   3.779  11.282  1.00  0.00    -0.268 OA
ENDBRANCH   5  22
TORSDOF 7
ENDMDL
MODEL 5
REMARK VINA RESULT: -8.010736044      2.366      7.476
REMARK  7 active torsions:
REMARK  status: ('A' for Active; 'I' for Inactive)
REMARK    1  A    between atoms: C2_2  and  C3_3 
REMARK    2  A    between atoms: C2_2  and  C16_21 
REMARK    3  A    between atoms: C3_3  and  C4_4 
REMARK    4  A    between atoms: C7_8  and  N1_9 
REMARK    5  A    between atoms: C16_21  and  O3_22 
REMARK    6  A    between atoms: C16_21  and  O4_24 
REMARK    7  A    between atoms: O4_24  and  C17_25 
ROOT
HETATM    1  C4  UNL     1      -3.604   4.205  11.839  1.00  0.00    -0.014 C 
HETATM    2  C5  UNL     1      -3.894   2.872  11.887  1.00  0.00     0.025 C 
HETATM    3  C6  UNL     1      -4.665   2.379  13.033  1.00  0.00     0.242 C 
HETATM    4  F1  UNL     1      -4.546   1.005  13.083  1.00  0.00    -0.241 F 
HETATM    5  C7  UNL     1      -4.187   3.050  14.296  1.00  0.00     0.270 C 
HETATM    6  O2  UNL     1      -4.104   4.376  14.219  1.00  0.00    -0.333 OA
HETATM    7  C13 UNL     1      -4.045   4.986  12.970  1.00  0.00     0.175 C 
HETATM    8  C14 UNL     1      -3.203   6.217  13.175  1.00  0.00     0.068 C 
HETATM    9  C15 UNL     1      -5.437   5.436  12.739  1.00  0.00     0.102 C 
HETATM   10  N2  UNL     1      -6.533   5.800  12.538  1.00  0.00    -0.194 NA
ENDROOT
BRANCH   1  11
HETATM   11  C3  UNL     1      -2.835   4.659  10.693  1.00  0.00    -0.007 C 
BRANCH  11  12
HETATM   12  C2  UNL     1      -3.096   5.870   9.910  1.00  0.00     0.060 C 
HETATM   13  C1  UNL     1      -2.014   6.658   9.287  1.00  0.00     0.019 C 
BRANCH  12  14
HETATM   14  C16 UNL     1      -4.096   5.541   8.775  1.00  0.00     0.265 C 
BRANCH  14  15
HETATM   15  O3  UNL     1      -3.781   4.168   8.467  1.00  0.00    -0.371 OA
ATOM     16  H3  UNL     1      -2.998   4.250   7.934  1.00  0.00     0.212 HD
ENDBRANCH  14  15
BRANCH  14  17
HETATM   17  O4  UNL     1      -5.369   5.647   9.199  1.00  0.00    -0.351 OA
BRANCH  17  18
HETATM   18  C17 UNL     1      -6.177   6.566   8.554  1.00  0.00     0.053 C 
HETATM   19  C18 UNL     1      -5.336   7.579   7.777  1.00  0.00     0.045 C 
HETATM   20  C19 UNL     1      -7.012   5.815   7.539  1.00  0.00     0.045 C 
HETATM   21  C20 UNL     1      -7.094   7.364   9.413  1.00  0.00     0.045 C 
ENDBRANCH  17  18
ENDBRANCH  14  17
ENDBRANCH  12  14
ENDBRANCH  11  12
ENDBRANCH   1  11
BRANCH   5  22
HETATM   22  N1  UNL     1      -4.816   2.590  15.487  1.00  0.00    -0.294 N 
HETATM   23  C8  UNL     1      -5.954   3.183  15.970  1.00  0.00     0.097 A 
HETATM   24  C9  UNL     1      -6.613   2.807  17.091  1.00  0.00     0.018 A 
HETATM   25  C10 UNL     1      -6.159   1.763  17.843  1.00  0.00     0.007 A 
HETATM   26  C11 UNL     1      -5.020   1.133  17.403  1.00  0.00     0.074 A 
HETATM   27  C12 UNL     1      -4.380   1.565  16.237  1.00  0.00     0.249 A 
HETATM   28  O1  UNL     1      -3.357   0.911  15.944  1.00  0.00    -0.268 OA
ENDBRANCH   5  22
TORSDOF 7
ENDMDL
