MODEL 1
REMARK VINA RESULT: -7.241838036      0.000      0.000
REMARK  8 active torsions:
REMARK  status: ('A' for Active; 'I' for Inactive)
REMARK    1  A    between atoms: C2_2  and  N1_3 
REMARK    2  A    between atoms: N1_3  and  C3_4 
REMARK       I    between atoms: N1_3  and  C9_12 
REMARK    3  A    between atoms: C3_4  and  C4_5 
REMARK    4  A    between atoms: C4_5  and  O2_7 
REMARK    5  A    between atoms: O2_7  and  C5_8 
REMARK       I    between atoms: C9_12  and  N3_16 
REMARK    6  A    between atoms: N3_16  and  C10_18 
REMARK    7  A    between atoms: C15_23  and  O3_24 
REMARK    8  A    between atoms: O3_24  and  C16_25 
ROOT
HETATM    1  N1  UNL     1      -4.058   1.854  13.382  1.00  0.00    -0.208 N 
HETATM    2  C9  UNL     1      -3.761   3.224  13.592  1.00  0.00     0.687 C 
HETATM    3  N2  UNL     1      -4.707   4.074  13.677  1.00  0.00    -0.131 N 
ATOM      4  H2  UNL     1      -4.500   5.061  13.827  1.00  0.00     0.199 HD
HETATM    5 CL1  UNL     1      -6.346   3.537  13.534  1.00  0.00     0.026 Cl
HETATM    6  N3  UNL     1      -2.425   3.693  13.722  1.00  0.00    -0.218 N 
ATOM      7  H3  UNL     1      -1.760   3.039  14.136  1.00  0.00     0.178 HD
ENDROOT
BRANCH   1   8
HETATM    8  C2  UNL     1      -4.136   1.336  12.021  1.00  0.00     0.137 C 
HETATM    9  C1  UNL     1      -3.961  -0.141  11.926  1.00  0.00     0.027 C 
ENDBRANCH   1   8
BRANCH   1  10
HETATM   10  C3  UNL     1      -4.266   1.001  14.532  1.00  0.00     0.252 C 
BRANCH  10  11
HETATM   11  C4  UNL     1      -4.012   1.643  15.811  1.00  0.00     0.278 C 
HETATM   12  O1  UNL     1      -2.878   1.609  16.328  1.00  0.00    -0.263 OA
BRANCH  11  13
HETATM   13  O2  UNL     1      -5.030   2.301  16.467  1.00  0.00    -0.310 OA
BRANCH  13  14
HETATM   14  C5  UNL     1      -5.942   1.657  17.334  1.00  0.00     0.060 C 
HETATM   15  C6  UNL     1      -5.928   2.359  18.679  1.00  0.00     0.045 C 
HETATM   16  C7  UNL     1      -7.330   1.827  16.761  1.00  0.00     0.045 C 
HETATM   17  C8  UNL     1      -5.652   0.194  17.438  1.00  0.00     0.045 C 
ENDBRANCH  13  14
ENDBRANCH  11  13
ENDBRANCH  10  11
ENDBRANCH   1  10
BRANCH   6  18
HETATM   18  C10 UNL     1      -1.906   4.948  13.349  1.00  0.00     0.129 C 
HETATM   19  C11 UNL     1      -2.586   6.119  14.044  1.00  0.00     0.028 C 
HETATM   20  C12 UNL     1      -1.581   7.276  13.962  1.00  0.00     0.002 C 
HETATM   21  C13 UNL     1      -1.168   7.563  12.552  1.00  0.00     0.003 C 
HETATM   22  C14 UNL     1      -0.751   6.363  11.763  1.00  0.00     0.035 C 
HETATM   23  C15 UNL     1      -1.823   5.259  11.895  1.00  0.00     0.155 C 
BRANCH  23  24
HETATM   24  O3  UNL     1      -3.017   5.874  11.456  1.00  0.00    -0.314 OA
BRANCH  24  25
HETATM   25  C16 UNL     1      -3.828   5.354  10.456  1.00  0.00     0.255 C 
HETATM   26  C17 UNL     1      -3.329   5.215   9.045  1.00  0.00     0.126 C 
HETATM   27  O4  UNL     1      -4.989   5.007  10.781  1.00  0.00    -0.266 OA
ENDBRANCH  24  25
ENDBRANCH  23  24
ENDBRANCH   6  18
TORSDOF 8
ENDMDL
MODEL 2
REMARK VINA RESULT: -7.193064793      0.851      1.012
REMARK  8 active torsions:
REMARK  status: ('A' for Active; 'I' for Inactive)
REMARK    1  A    between atoms: C2_2  and  N1_3 
REMARK    2  A    between atoms: N1_3  and  C3_4 
REMARK       I    between atoms: N1_3  and  C9_12 
REMARK    3  A    between atoms: C3_4  and  C4_5 
REMARK    4  A    between atoms: C4_5  and  O2_7 
REMARK    5  A    between atoms: O2_7  and  C5_8 
REMARK       I    between atoms: C9_12  and  N3_16 
REMARK    6  A    between atoms: N3_16  and  C10_18 
REMARK    7  A    between atoms: C15_23  and  O3_24 
REMARK    8  A    between atoms: O3_24  and  C16_25 
ROOT
HETATM    1  N1  UNL     1      -4.170   2.027  13.307  1.00  0.00    -0.208 N 
HETATM    2  C9  UNL     1      -3.953   3.402  13.579  1.00  0.00     0.687 C 
HETATM    3  N2  UNL     1      -4.948   4.175  13.776  1.00  0.00    -0.131 N 
ATOM      4  H2  UNL     1      -4.799   5.165  13.972  1.00  0.00     0.199 HD
HETATM    5 CL1  UNL     1      -6.552   3.529  13.708  1.00  0.00     0.026 Cl
HETATM    6  N3  UNL     1      -2.647   3.958  13.650  1.00  0.00    -0.218 N 
ATOM      7  H3  UNL     1      -1.912   3.333  13.980  1.00  0.00     0.178 HD
ENDROOT
BRANCH   1   8
HETATM    8  C2  UNL     1      -4.306   1.581  11.926  1.00  0.00     0.137 C 
HETATM    9  C1  UNL     1      -4.115   0.114  11.743  1.00  0.00     0.027 C 
ENDBRANCH   1   8
BRANCH   1  10
HETATM   10  C3  UNL     1      -4.239   1.099  14.415  1.00  0.00     0.252 C 
BRANCH  10  11
HETATM   11  C4  UNL     1      -4.031   1.704  15.720  1.00  0.00     0.278 C 
HETATM   12  O1  UNL     1      -2.905   1.689  16.257  1.00  0.00    -0.263 OA
BRANCH  11  13
HETATM   13  O2  UNL     1      -5.082   2.304  16.379  1.00  0.00    -0.310 OA
BRANCH  13  14
HETATM   14  C5  UNL     1      -5.927   1.621  17.283  1.00  0.00     0.060 C 
HETATM   15  C6  UNL     1      -5.893   2.327  18.625  1.00  0.00     0.045 C 
HETATM   16  C7  UNL     1      -7.343   1.723  16.766  1.00  0.00     0.045 C 
HETATM   17  C8  UNL     1      -5.563   0.173  17.377  1.00  0.00     0.045 C 
ENDBRANCH  13  14
ENDBRANCH  11  13
ENDBRANCH  10  11
ENDBRANCH   1  10
BRANCH   6  18
HETATM   18  C10 UNL     1      -2.243   5.266  13.320  1.00  0.00     0.129 C 
HETATM   19  C11 UNL     1      -2.569   6.294  14.394  1.00  0.00     0.028 C 
HETATM   20  C12 UNL     1      -1.611   7.465  14.136  1.00  0.00     0.002 C 
HETATM   21  C13 UNL     1      -1.726   7.989  12.739  1.00  0.00     0.003 C 
HETATM   22  C14 UNL     1      -1.680   6.944  11.670  1.00  0.00     0.035 C 
HETATM   23  C15 UNL     1      -2.680   5.816  12.007  1.00  0.00     0.155 C 
BRANCH  23  24
HETATM   24  O3  UNL     1      -3.922   6.475  12.141  1.00  0.00    -0.314 OA
BRANCH  24  25
HETATM   25  C16 UNL     1      -5.033   6.190  11.358  1.00  0.00     0.255 C 
HETATM   26  C17 UNL     1      -6.208   7.125  11.304  1.00  0.00     0.126 C 
HETATM   27  O4  UNL     1      -5.011   5.121  10.701  1.00  0.00    -0.266 OA
ENDBRANCH  24  25
ENDBRANCH  23  24
ENDBRANCH   6  18
TORSDOF 8
ENDMDL
MODEL 3
REMARK VINA RESULT: -7.104999689      2.272      6.399
REMARK  8 active torsions:
REMARK  status: ('A' for Active; 'I' for Inactive)
REMARK    1  A    between atoms: C2_2  and  N1_3 
REMARK    2  A    between atoms: N1_3  and  C3_4 
REMARK       I    between atoms: N1_3  and  C9_12 
REMARK    3  A    between atoms: C3_4  and  C4_5 
REMARK    4  A    between atoms: C4_5  and  O2_7 
REMARK    5  A    between atoms: O2_7  and  C5_8 
REMARK       I    between atoms: C9_12  and  N3_16 
REMARK    6  A    between atoms: N3_16  and  C10_18 
REMARK    7  A    between atoms: C15_23  and  O3_24 
REMARK    8  A    between atoms: O3_24  and  C16_25 
ROOT
HETATM    1  N1  UNL     1      -4.760   6.079  11.448  1.00  0.00    -0.208 N 
HETATM    2  C9  UNL     1      -5.676   5.589  12.413  1.00  0.00     0.687 C 
HETATM    3  N2  UNL     1      -6.784   6.192  12.601  1.00  0.00    -0.131 N 
ATOM      4  H2  UNL     1      -7.447   5.846  13.294  1.00  0.00     0.199 HD
HETATM    5 CL1  UNL     1      -7.151   7.605  11.670  1.00  0.00     0.026 Cl
HETATM    6  N3  UNL     1      -5.406   4.427  13.185  1.00  0.00    -0.218 N 
ATOM      7  H3  UNL     1      -4.833   3.713  12.734  1.00  0.00     0.178 HD
ENDROOT
BRANCH   1   8
HETATM    8  C2  UNL     1      -3.736   7.035  11.850  1.00  0.00     0.137 C 
HETATM    9  C1  UNL     1      -3.501   8.122  10.857  1.00  0.00     0.027 C 
ENDBRANCH   1   8
BRANCH   1  10
HETATM   10  C3  UNL     1      -4.862   5.603  10.085  1.00  0.00     0.252 C 
BRANCH  10  11
HETATM   11  C4  UNL     1      -4.071   4.418   9.801  1.00  0.00     0.278 C 
HETATM   12  O1  UNL     1      -3.862   4.057   8.625  1.00  0.00    -0.263 OA
BRANCH  11  13
HETATM   13  O2  UNL     1      -3.542   3.676  10.834  1.00  0.00    -0.310 OA
BRANCH  13  14
HETATM   14  C5  UNL     1      -2.158   3.601  11.111  1.00  0.00     0.060 C 
HETATM   15  C6  UNL     1      -1.428   4.634  10.272  1.00  0.00     0.045 C 
HETATM   16  C7  UNL     1      -1.949   3.978  12.558  1.00  0.00     0.045 C 
HETATM   17  C8  UNL     1      -1.638   2.213  10.907  1.00  0.00     0.045 C 
ENDBRANCH  13  14
ENDBRANCH  11  13
ENDBRANCH  10  11
ENDBRANCH   1  10
BRANCH   6  18
HETATM   18  C10 UNL     1      -5.831   4.139  14.497  1.00  0.00     0.129 C 
HETATM   19  C11 UNL     1      -5.095   4.936  15.565  1.00  0.00     0.028 C 
HETATM   20  C12 UNL     1      -6.021   4.920  16.789  1.00  0.00     0.002 C 
HETATM   21  C13 UNL     1      -6.377   3.527  17.207  1.00  0.00     0.003 C 
HETATM   22  C14 UNL     1      -6.850   2.641  16.100  1.00  0.00     0.035 C 
HETATM   23  C15 UNL     1      -5.856   2.712  14.920  1.00  0.00     0.155 C 
BRANCH  23  24
HETATM   24  O3  UNL     1      -4.613   2.347  15.484  1.00  0.00    -0.314 OA
BRANCH  24  25
HETATM   25  C16 UNL     1      -3.955   1.159  15.193  1.00  0.00     0.255 C 
HETATM   26  C17 UNL     1      -3.977   0.578  13.808  1.00  0.00     0.126 C 
HETATM   27  O4  UNL     1      -3.344   0.596  16.134  1.00  0.00    -0.266 OA
ENDBRANCH  24  25
ENDBRANCH  23  24
ENDBRANCH   6  18
TORSDOF 8
ENDMDL
MODEL 4
REMARK VINA RESULT: -7.063295441      3.085      4.854
REMARK  8 active torsions:
REMARK  status: ('A' for Active; 'I' for Inactive)
REMARK    1  A    between atoms: C2_2  and  N1_3 
REMARK    2  A    between atoms: N1_3  and  C3_4 
REMARK       I    between atoms: N1_3  and  C9_12 
REMARK    3  A    between atoms: C3_4  and  C4_5 
REMARK    4  A    between atoms: C4_5  and  O2_7 
REMARK    5  A    between atoms: O2_7  and  C5_8 
REMARK       I    between atoms: C9_12  and  N3_16 
REMARK    6  A    between atoms: N3_16  and  C10_18 
REMARK    7  A    between atoms: C15_23  and  O3_24 
REMARK    8  A    between atoms: O3_24  and  C16_25 
ROOT
HETATM    1  N1  UNL     1      -3.937   3.963  13.514  1.00  0.00    -0.208 N 
HETATM    2  C9  UNL     1      -3.838   5.091  12.660  1.00  0.00     0.687 C 
HETATM    3  N2  UNL     1      -2.786   5.811  12.677  1.00  0.00    -0.131 N 
ATOM      4  H2  UNL     1      -2.709   6.624  12.066  1.00  0.00     0.199 HD
HETATM    5 CL1  UNL     1      -1.491   5.397  13.747  1.00  0.00     0.026 Cl
HETATM    6  N3  UNL     1      -4.882   5.450  11.765  1.00  0.00    -0.218 N 
ATOM      7  H3  UNL     1      -5.442   4.680  11.398  1.00  0.00     0.178 HD
ENDROOT
BRANCH   1   8
HETATM    8  C2  UNL     1      -4.520   4.116  14.841  1.00  0.00     0.137 C 
HETATM    9  C1  UNL     1      -5.861   4.768  14.840  1.00  0.00     0.027 C 
ENDBRANCH   1   8
BRANCH   1  10
HETATM   10  C3  UNL     1      -3.462   2.683  13.036  1.00  0.00     0.252 C 
BRANCH  10  11
HETATM   11  C4  UNL     1      -4.481   1.859  12.407  1.00  0.00     0.278 C 
HETATM   12  O1  UNL     1      -5.485   2.379  11.881  1.00  0.00    -0.263 OA
BRANCH  11  13
HETATM   13  O2  UNL     1      -4.345   0.488  12.386  1.00  0.00    -0.310 OA
BRANCH  13  14
HETATM   14  C5  UNL     1      -3.748  -0.220  11.318  1.00  0.00     0.060 C 
HETATM   15  C6  UNL     1      -2.321   0.264  11.139  1.00  0.00     0.045 C 
HETATM   16  C7  UNL     1      -3.675  -1.677  11.707  1.00  0.00     0.045 C 
HETATM   17  C8  UNL     1      -4.562  -0.106  10.069  1.00  0.00     0.045 C 
ENDBRANCH  13  14
ENDBRANCH  11  13
ENDBRANCH  10  11
ENDBRANCH   1  10
BRANCH   6  18
HETATM   18  C10 UNL     1      -5.239   6.738  11.322  1.00  0.00     0.129 C 
HETATM   19  C11 UNL     1      -6.742   6.986  11.314  1.00  0.00     0.028 C 
HETATM   20  C12 UNL     1      -6.899   8.512  11.356  1.00  0.00     0.002 C 
HETATM   21  C13 UNL     1      -6.166   9.183  10.236  1.00  0.00     0.003 C 
HETATM   22  C14 UNL     1      -4.749   8.742  10.058  1.00  0.00     0.035 C 
HETATM   23  C15 UNL     1      -4.689   7.199  10.018  1.00  0.00     0.155 C 
BRANCH  23  24
HETATM   24  O3  UNL     1      -5.560   6.841   8.964  1.00  0.00    -0.314 OA
BRANCH  24  25
HETATM   25  C16 UNL     1      -5.375   5.725   8.158  1.00  0.00     0.255 C 
HETATM   26  C17 UNL     1      -5.420   5.831   6.660  1.00  0.00     0.126 C 
HETATM   27  O4  UNL     1      -5.169   4.630   8.735  1.00  0.00    -0.266 OA
ENDBRANCH  24  25
ENDBRANCH  23  24
ENDBRANCH   6  18
TORSDOF 8
ENDMDL
MODEL 5
REMARK VINA RESULT: -7.018741449      2.149      3.299
REMARK  8 active torsions:
REMARK  status: ('A' for Active; 'I' for Inactive)
REMARK    1  A    between atoms: C2_2  and  N1_3 
REMARK    2  A    between atoms: N1_3  and  C3_4 
REMARK       I    between atoms: N1_3  and  C9_12 
REMARK    3  A    between atoms: C3_4  and  C4_5 
REMARK    4  A    between atoms: C4_5  and  O2_7 
REMARK    5  A    between atoms: O2_7  and  C5_8 
REMARK       I    between atoms: C9_12  and  N3_16 
REMARK    6  A    between atoms: N3_16  and  C10_18 
REMARK    7  A    between atoms: C15_23  and  O3_24 
REMARK    8  A    between atoms: O3_24  and  C16_25 
ROOT
HETATM    1  N1  UNL     1      -3.834   3.177  13.943  1.00  0.00    -0.208 N 
HETATM    2  C9  UNL     1      -4.463   3.878  12.883  1.00  0.00     0.687 C 
HETATM    3  N2  UNL     1      -4.244   3.535  11.675  1.00  0.00    -0.131 N 
ATOM      4  H2  UNL     1      -4.692   4.035  10.908  1.00  0.00     0.199 HD
HETATM    5 CL1  UNL     1      -3.177   2.210  11.349  1.00  0.00     0.026 Cl
HETATM    6  N3  UNL     1      -5.350   4.964  13.121  1.00  0.00    -0.218 N 
ATOM      7  H3  UNL     1      -5.887   4.921  13.988  1.00  0.00     0.178 HD
ENDROOT
BRANCH   1   8
HETATM    8  C2  UNL     1      -2.545   3.638  14.444  1.00  0.00     0.137 C 
HETATM    9  C1  UNL     1      -1.959   4.762  13.660  1.00  0.00     0.027 C 
ENDBRANCH   1   8
BRANCH   1  10
HETATM   10  C3  UNL     1      -4.500   2.023  14.507  1.00  0.00     0.252 C 
BRANCH  10  11
HETATM   11  C4  UNL     1      -4.138   1.733  15.885  1.00  0.00     0.278 C 
HETATM   12  O1  UNL     1      -3.374   0.786  16.158  1.00  0.00    -0.263 OA
BRANCH  11  13
HETATM   13  O2  UNL     1      -4.640   2.508  16.908  1.00  0.00    -0.310 OA
BRANCH  13  14
HETATM   14  C5  UNL     1      -5.987   2.459  17.335  1.00  0.00     0.060 C 
HETATM   15  C6  UNL     1      -6.604   1.149  16.880  1.00  0.00     0.045 C 
HETATM   16  C7  UNL     1      -5.999   2.453  18.845  1.00  0.00     0.045 C 
HETATM   17  C8  UNL     1      -6.749   3.656  16.863  1.00  0.00     0.045 C 
ENDBRANCH  13  14
ENDBRANCH  11  13
ENDBRANCH  10  11
ENDBRANCH   1  10
BRANCH   6  18
HETATM   18  C10 UNL     1      -5.578   6.091  12.308  1.00  0.00     0.129 C 
HETATM   19  C11 UNL     1      -7.053   6.365  12.047  1.00  0.00     0.028 C 
HETATM   20  C12 UNL     1      -7.124   7.848  11.658  1.00  0.00     0.002 C 
HETATM   21  C13 UNL     1      -6.232   8.169  10.500  1.00  0.00     0.003 C 
HETATM   22  C14 UNL     1      -4.832   7.660  10.625  1.00  0.00     0.035 C 
HETATM   23  C15 UNL     1      -4.858   6.164  11.007  1.00  0.00     0.155 C 
BRANCH  23  24
HETATM   24  O3  UNL     1      -5.624   5.554   9.988  1.00  0.00    -0.314 OA
BRANCH  24  25
HETATM   25  C16 UNL     1      -5.109   5.197   8.748  1.00  0.00     0.255 C 
HETATM   26  C17 UNL     1      -5.619   5.828   7.484  1.00  0.00     0.126 C 
HETATM   27  O4  UNL     1      -4.204   4.328   8.732  1.00  0.00    -0.266 OA
ENDBRANCH  24  25
ENDBRANCH  23  24
ENDBRANCH   6  18
TORSDOF 8
ENDMDL
