MODEL 1
REMARK VINA RESULT: -7.478147281      0.000      0.000
REMARK  6 active torsions:
REMARK  status: ('A' for Active; 'I' for Inactive)
REMARK    1  A    between atoms: C2_2  and  N1_3 
REMARK    2  A    between atoms: N2_6  and  C5_7 
REMARK    3  A    between atoms: C5_7  and  C6_8 
REMARK    4  A    between atoms: C6_8  and  O1_9 
REMARK    5  A    between atoms: C6_8  and  C7_11 
REMARK    6  A    between atoms: C12_16  and  N3_17 
ROOT
HETATM    1  C7  UNL     1      -4.332   2.584  13.391  1.00  0.00     0.011 A 
HETATM    2  C8  UNL     1      -4.353   1.354  13.985  1.00  0.00     0.050 A 
HETATM    3  C9  UNL     1      -4.803   1.124  15.286  1.00  0.00     0.078 A 
HETATM    4  C10 UNL     1      -5.252   2.237  15.991  1.00  0.00     0.013 A 
HETATM    5  C11 UNL     1      -5.233   3.485  15.413  1.00  0.00     0.049 A 
HETATM    6  C12 UNL     1      -4.782   3.706  14.119  1.00  0.00     0.112 A 
HETATM    7  C13 UNL     1      -5.672   1.833  17.360  1.00  0.00     0.230 C 
HETATM    8  F1  UNL     1      -6.982   2.289  17.570  1.00  0.00    -0.242 F 
HETATM    9  C14 UNL     1      -5.690   0.333  17.220  1.00  0.00     0.218 C 
HETATM   10  O4  UNL     1      -4.918   0.023  16.100  1.00  0.00    -0.347 OA
ENDROOT
BRANCH   1  11
HETATM   11  C6  UNL     1      -3.979   2.823  12.008  1.00  0.00     0.192 C 
BRANCH  11  12
HETATM   12  C5  UNL     1      -2.602   2.331  11.615  1.00  0.00     0.099 C 
BRANCH  12  13
HETATM   13  N2  UNL     1      -1.717   3.407  11.468  1.00  0.00    -0.368 N 
HETATM   14  C4  UNL     1      -0.365   2.956  11.146  1.00  0.00     0.157 C 
HETATM   15  C3  UNL     1       0.102   3.197   9.792  1.00  0.00     0.293 C 
HETATM   16  N1  UNL     1      -0.292   4.419   9.146  1.00  0.00     0.094 N 
HETATM   17  C16 UNL     1      -1.616   4.851   9.492  1.00  0.00     0.317 C 
HETATM   18  C15 UNL     1      -2.023   4.648  10.936  1.00  0.00     0.093 C 
BRANCH  16  19
HETATM   19  C2  UNL     1       0.718   5.459   9.336  1.00  0.00     0.268 C 
HETATM   20  C1  UNL     1       2.091   4.847   9.153  1.00  0.00     0.037 C 
ENDBRANCH  16  19
ENDBRANCH  12  13
ENDBRANCH  11  12
BRANCH  11  21
HETATM   21  O1  UNL     1      -4.888   2.265  11.097  1.00  0.00    -0.386 OA
ATOM     22  H1  UNL     1      -5.625   1.942  11.604  1.00  0.00     0.210 HD
ENDBRANCH  11  21
ENDBRANCH   1  11
BRANCH   6  23
HETATM   23  N3  UNL     1      -4.684   5.032  13.640  1.00  0.00    -0.115 N 
HETATM   24  O2  UNL     1      -3.757   5.783  13.699  1.00  0.00    -0.532 OA
HETATM   25  O3  UNL     1      -5.838   5.501  12.976  1.00  0.00    -0.532 OA
ENDBRANCH   6  23
TORSDOF 6
ENDMDL
MODEL 2
REMARK VINA RESULT: -7.355202117      0.798      1.446
REMARK  6 active torsions:
REMARK  status: ('A' for Active; 'I' for Inactive)
REMARK    1  A    between atoms: C2_2  and  N1_3 
REMARK    2  A    between atoms: N2_6  and  C5_7 
REMARK    3  A    between atoms: C5_7  and  C6_8 
REMARK    4  A    between atoms: C6_8  and  O1_9 
REMARK    5  A    between atoms: C6_8  and  C7_11 
REMARK    6  A    between atoms: C12_16  and  N3_17 
ROOT
HETATM    1  C7  UNL     1      -4.260   2.676  13.309  1.00  0.00     0.011 A 
HETATM    2  C8  UNL     1      -4.219   1.458  13.926  1.00  0.00     0.050 A 
HETATM    3  C9  UNL     1      -4.751   1.208  15.193  1.00  0.00     0.078 A 
HETATM    4  C10 UNL     1      -5.353   2.286  15.835  1.00  0.00     0.013 A 
HETATM    5  C11 UNL     1      -5.398   3.522  15.233  1.00  0.00     0.049 A 
HETATM    6  C12 UNL     1      -4.866   3.763  13.974  1.00  0.00     0.112 A 
HETATM    7  C13 UNL     1      -5.844   1.867  17.175  1.00  0.00     0.230 C 
HETATM    8  F1  UNL     1      -7.203   2.205  17.270  1.00  0.00    -0.242 F 
HETATM    9  C14 UNL     1      -5.718   0.369  17.068  1.00  0.00     0.218 C 
HETATM   10  O4  UNL     1      -4.833   0.113  16.019  1.00  0.00    -0.347 OA
ENDROOT
BRANCH   1  11
HETATM   11  C6  UNL     1      -3.818   2.925  11.953  1.00  0.00     0.192 C 
BRANCH  11  12
HETATM   12  C5  UNL     1      -2.469   2.331  11.610  1.00  0.00     0.099 C 
BRANCH  12  13
HETATM   13  N2  UNL     1      -1.729   3.214  10.815  1.00  0.00    -0.368 N 
HETATM   14  C4  UNL     1      -1.993   4.608  11.163  1.00  0.00     0.157 C 
HETATM   15  C3  UNL     1      -0.935   5.326  11.850  1.00  0.00     0.293 C 
HETATM   16  N1  UNL     1       0.425   5.051  11.476  1.00  0.00     0.094 N 
HETATM   17  C16 UNL     1       0.656   3.679  11.121  1.00  0.00     0.317 C 
HETATM   18  C15 UNL     1      -0.446   3.002  10.336  1.00  0.00     0.093 C 
BRANCH  16  19
HETATM   19  C2  UNL     1       0.887   5.992  10.457  1.00  0.00     0.268 C 
HETATM   20  C1  UNL     1       2.286   5.602  10.030  1.00  0.00     0.037 C 
ENDBRANCH  16  19
ENDBRANCH  12  13
ENDBRANCH  11  12
BRANCH  11  21
HETATM   21  O1  UNL     1      -4.724   2.473  10.982  1.00  0.00    -0.386 OA
ATOM     22  H1  UNL     1      -5.581   2.803  11.226  1.00  0.00     0.210 HD
ENDBRANCH  11  21
ENDBRANCH   1  11
BRANCH   6  23
HETATM   23  N3  UNL     1      -4.847   5.086  13.475  1.00  0.00    -0.115 N 
HETATM   24  O2  UNL     1      -5.645   5.633  12.774  1.00  0.00    -0.532 OA
HETATM   25  O3  UNL     1      -3.745   5.856  13.901  1.00  0.00    -0.532 OA
ENDBRANCH   6  23
TORSDOF 6
ENDMDL
MODEL 3
REMARK VINA RESULT: -7.006349587      1.169      1.703
REMARK  6 active torsions:
REMARK  status: ('A' for Active; 'I' for Inactive)
REMARK    1  A    between atoms: C2_2  and  N1_3 
REMARK    2  A    between atoms: N2_6  and  C5_7 
REMARK    3  A    between atoms: C5_7  and  C6_8 
REMARK    4  A    between atoms: C6_8  and  O1_9 
REMARK    5  A    between atoms: C6_8  and  C7_11 
REMARK    6  A    between atoms: C12_16  and  N3_17 
ROOT
HETATM    1  C7  UNL     1      -4.301   2.648  13.302  1.00  0.00     0.011 A 
HETATM    2  C8  UNL     1      -4.261   1.430  13.920  1.00  0.00     0.050 A 
HETATM    3  C9  UNL     1      -4.743   1.193  15.208  1.00  0.00     0.078 A 
HETATM    4  C10 UNL     1      -5.293   2.285  15.874  1.00  0.00     0.013 A 
HETATM    5  C11 UNL     1      -5.336   3.521  15.272  1.00  0.00     0.049 A 
HETATM    6  C12 UNL     1      -4.853   3.749  13.991  1.00  0.00     0.112 A 
HETATM    7  C13 UNL     1      -5.736   1.878  17.234  1.00  0.00     0.230 C 
HETATM    8  F1  UNL     1      -7.081   2.246  17.387  1.00  0.00    -0.242 F 
HETATM    9  C14 UNL     1      -5.648   0.377  17.124  1.00  0.00     0.218 C 
HETATM   10  O4  UNL     1      -4.815   0.101  16.039  1.00  0.00    -0.347 OA
ENDROOT
BRANCH   1  11
HETATM   11  C6  UNL     1      -3.912   2.886  11.929  1.00  0.00     0.192 C 
BRANCH  11  12
HETATM   12  C5  UNL     1      -2.628   2.203  11.509  1.00  0.00     0.099 C 
BRANCH  12  13
HETATM   13  N2  UNL     1      -1.711   3.138  11.014  1.00  0.00    -0.368 N 
HETATM   14  C4  UNL     1      -2.364   4.156  10.195  1.00  0.00     0.157 C 
HETATM   15  C3  UNL     1      -2.467   5.489  10.762  1.00  0.00     0.293 C 
HETATM   16  N1  UNL     1      -1.375   5.973  11.560  1.00  0.00     0.094 N 
HETATM   17  C16 UNL     1      -0.737   4.952  12.341  1.00  0.00     0.317 C 
HETATM   18  C15 UNL     1      -0.584   3.603  11.671  1.00  0.00     0.093 C 
BRANCH  16  19
HETATM   19  C2  UNL     1      -0.435   6.742  10.745  1.00  0.00     0.268 C 
HETATM   20  C1  UNL     1       0.746   7.140  11.604  1.00  0.00     0.037 C 
ENDBRANCH  16  19
ENDBRANCH  12  13
ENDBRANCH  11  12
BRANCH  11  21
HETATM   21  O1  UNL     1      -4.897   2.515  11.001  1.00  0.00    -0.386 OA
ATOM     22  H1  UNL     1      -4.445   2.270  10.201  1.00  0.00     0.210 HD
ENDBRANCH  11  21
ENDBRANCH   1  11
BRANCH   6  23
HETATM   23  N3  UNL     1      -4.826   5.071  13.489  1.00  0.00    -0.115 N 
HETATM   24  O2  UNL     1      -5.605   5.611  12.762  1.00  0.00    -0.532 OA
HETATM   25  O3  UNL     1      -3.742   5.848  13.947  1.00  0.00    -0.532 OA
ENDBRANCH   6  23
TORSDOF 6
ENDMDL
MODEL 4
REMARK VINA RESULT: -6.916644249      3.408      4.882
REMARK  6 active torsions:
REMARK  status: ('A' for Active; 'I' for Inactive)
REMARK    1  A    between atoms: C2_2  and  N1_3 
REMARK    2  A    between atoms: N2_6  and  C5_7 
REMARK    3  A    between atoms: C5_7  and  C6_8 
REMARK    4  A    between atoms: C6_8  and  O1_9 
REMARK    5  A    between atoms: C6_8  and  C7_11 
REMARK    6  A    between atoms: C12_16  and  N3_17 
ROOT
HETATM    1  C7  UNL     1      -3.966   4.576  13.303  1.00  0.00     0.011 A 
HETATM    2  C8  UNL     1      -4.746   4.996  14.343  1.00  0.00     0.050 A 
HETATM    3  C9  UNL     1      -5.367   4.135  15.250  1.00  0.00     0.078 A 
HETATM    4  C10 UNL     1      -5.155   2.773  15.054  1.00  0.00     0.013 A 
HETATM    5  C11 UNL     1      -4.379   2.330  14.008  1.00  0.00     0.049 A 
HETATM    6  C12 UNL     1      -3.766   3.193  13.110  1.00  0.00     0.112 A 
HETATM    7  C13 UNL     1      -5.898   1.993  16.079  1.00  0.00     0.230 C 
HETATM    8  F1  UNL     1      -4.994   1.129  16.714  1.00  0.00    -0.242 F 
HETATM    9  C14 UNL     1      -6.289   3.086  17.040  1.00  0.00     0.218 C 
HETATM   10  O4  UNL     1      -6.183   4.291  16.344  1.00  0.00    -0.347 OA
ENDROOT
BRANCH   1  11
HETATM   11  C6  UNL     1      -3.223   5.455  12.426  1.00  0.00     0.192 C 
BRANCH  11  12
HETATM   12  C5  UNL     1      -3.996   6.664  11.943  1.00  0.00     0.099 C 
BRANCH  12  13
HETATM   13  N2  UNL     1      -4.986   6.283  11.028  1.00  0.00    -0.368 N 
HETATM   14  C4  UNL     1      -6.200   7.081  11.181  1.00  0.00     0.157 C 
HETATM   15  C3  UNL     1      -6.486   8.048  10.137  1.00  0.00     0.293 C 
HETATM   16  N1  UNL     1      -6.169   7.696   8.780  1.00  0.00     0.094 N 
HETATM   17  C16 UNL     1      -4.983   6.897   8.657  1.00  0.00     0.317 C 
HETATM   18  C15 UNL     1      -4.774   5.850   9.730  1.00  0.00     0.093 C 
BRANCH  16  19
HETATM   19  C2  UNL     1      -7.328   7.108   8.110  1.00  0.00     0.268 C 
HETATM   20  C1  UNL     1      -8.444   8.131   8.074  1.00  0.00     0.037 C 
ENDBRANCH  16  19
ENDBRANCH  12  13
ENDBRANCH  11  12
BRANCH  11  21
HETATM   21  O1  UNL     1      -2.032   5.931  12.995  1.00  0.00    -0.386 OA
ATOM     22  H1  UNL     1      -1.607   6.471  12.338  1.00  0.00     0.210 HD
ENDBRANCH  11  21
ENDBRANCH   1  11
BRANCH   6  23
HETATM   23  N3  UNL     1      -3.083   2.656  11.995  1.00  0.00    -0.115 N 
HETATM   24  O2  UNL     1      -1.946   2.299  11.914  1.00  0.00    -0.532 OA
HETATM   25  O3  UNL     1      -3.879   2.501  10.840  1.00  0.00    -0.532 OA
ENDBRANCH   6  23
TORSDOF 6
ENDMDL
MODEL 5
REMARK VINA RESULT: -6.846060506      2.341      3.392
REMARK  6 active torsions:
REMARK  status: ('A' for Active; 'I' for Inactive)
REMARK    1  A    between atoms: C2_2  and  N1_3 
REMARK    2  A    between atoms: N2_6  and  C5_7 
REMARK    3  A    between atoms: C5_7  and  C6_8 
REMARK    4  A    between atoms: C6_8  and  O1_9 
REMARK    5  A    between atoms: C6_8  and  C7_11 
REMARK    6  A    between atoms: C12_16  and  N3_17 
ROOT
HETATM    1  C7  UNL     1      -3.780   3.164  14.248  1.00  0.00     0.011 A 
HETATM    2  C8  UNL     1      -3.604   1.978  14.903  1.00  0.00     0.050 A 
HETATM    3  C9  UNL     1      -4.444   1.516  15.919  1.00  0.00     0.078 A 
HETATM    4  C10 UNL     1      -5.516   2.337  16.256  1.00  0.00     0.013 A 
HETATM    5  C11 UNL     1      -5.706   3.538  15.613  1.00  0.00     0.049 A 
HETATM    6  C12 UNL     1      -4.865   3.991  14.605  1.00  0.00     0.112 A 
HETATM    7  C13 UNL     1      -6.296   1.722  17.362  1.00  0.00     0.230 C 
HETATM    8  F1  UNL     1      -7.639   1.646  16.964  1.00  0.00    -0.242 F 
HETATM    9  C14 UNL     1      -5.712   0.332  17.383  1.00  0.00     0.218 C 
HETATM   10  O4  UNL     1      -4.486   0.401  16.720  1.00  0.00    -0.347 OA
ENDROOT
BRANCH   1  11
HETATM   11  C6  UNL     1      -2.989   3.603  13.118  1.00  0.00     0.192 C 
BRANCH  11  12
HETATM   12  C5  UNL     1      -3.782   3.844  11.851  1.00  0.00     0.099 C 
BRANCH  12  13
HETATM   13  N2  UNL     1      -3.766   2.706  11.035  1.00  0.00    -0.368 N 
HETATM   14  C4  UNL     1      -2.414   2.178  10.868  1.00  0.00     0.157 C 
HETATM   15  C3  UNL     1      -2.106   0.932  11.546  1.00  0.00     0.293 C 
HETATM   16  N1  UNL     1      -3.133  -0.070  11.625  1.00  0.00     0.094 N 
HETATM   17  C16 UNL     1      -4.454   0.473  11.770  1.00  0.00     0.317 C 
HETATM   18  C15 UNL     1      -4.746   1.729  10.978  1.00  0.00     0.093 C 
BRANCH  16  19
HETATM   19  C2  UNL     1      -3.023  -1.018  10.517  1.00  0.00     0.268 C 
HETATM   20  C1  UNL     1      -2.768  -2.400  11.080  1.00  0.00     0.037 C 
ENDBRANCH  16  19
ENDBRANCH  12  13
ENDBRANCH  11  12
BRANCH  11  21
HETATM   21  O1  UNL     1      -2.258   4.773  13.373  1.00  0.00    -0.386 OA
ATOM     22  H1  UNL     1      -1.350   4.515  13.479  1.00  0.00     0.210 HD
ENDBRANCH  11  21
ENDBRANCH   1  11
BRANCH   6  23
HETATM   23  N3  UNL     1      -5.060   5.287  14.076  1.00  0.00    -0.115 N 
HETATM   24  O2  UNL     1      -4.344   6.241  14.147  1.00  0.00    -0.532 OA
HETATM   25  O3  UNL     1      -6.253   5.445  13.339  1.00  0.00    -0.532 OA
ENDBRANCH   6  23
TORSDOF 6
ENDMDL
