MODEL 1
REMARK VINA RESULT: -7.419706708      0.000      0.000
REMARK  5 active torsions:
REMARK  status: ('A' for Active; 'I' for Inactive)
REMARK    1  A    between atoms: O1_2  and  C2_3 
REMARK    2  A    between atoms: C7_9  and  O3_10 
REMARK    3  A    between atoms: O3_10  and  C8_11 
REMARK    4  A    between atoms: C12_18  and  O4_19 
REMARK    5  A    between atoms: O4_19  and  C13_20 
ROOT
HETATM    1  C8  UNL     1      -3.027   2.839  12.319  1.00  0.00     0.179 A 
HETATM    2  N1  UNL     1      -2.024   2.188  11.633  1.00  0.00    -0.311 N 
ATOM      3  H1  UNL     1      -1.147   2.679  11.456  1.00  0.00     0.170 HD
HETATM    4  C9  UNL     1      -2.163   0.948  11.197  1.00  0.00     0.190 A 
HETATM    5  F1  UNL     1      -1.148   0.331  10.520  1.00  0.00    -0.186 F 
HETATM    6  C10 UNL     1      -3.361   0.295  11.443  1.00  0.00     0.064 A 
HETATM    7  C11 UNL     1      -4.385   0.919  12.127  1.00  0.00     0.046 A 
HETATM    8  C12 UNL     1      -4.230   2.214  12.578  1.00  0.00     0.120 A 
ENDROOT
BRANCH   1   9
HETATM    9  O3  UNL     1      -2.711   4.094  12.685  1.00  0.00    -0.325 OA
BRANCH   9  10
HETATM   10  C7  UNL     1      -2.149   5.200  12.162  1.00  0.00     0.168 C 
HETATM   11  C2  UNL     1      -3.131   6.226  11.606  1.00  0.00     0.179 C 
HETATM   12  C3  UNL     1      -2.571   7.519  12.155  1.00  0.00     0.153 C 
HETATM   13  C4  UNL     1      -2.352   7.041  13.608  1.00  0.00     0.044 C 
HETATM   14  O2  UNL     1      -1.276   7.769  11.723  1.00  0.00    -0.383 OA
HETATM   15  C5  UNL     1      -1.334   5.977  13.165  1.00  0.00     0.044 C 
HETATM   16  C6  UNL     1      -0.426   6.885  12.371  1.00  0.00     0.175 C 
BRANCH  11  17
HETATM   17  O1  UNL     1      -4.389   6.081  12.231  1.00  0.00    -0.386 OA
HETATM   18  C1  UNL     1      -5.364   6.619  11.429  1.00  0.00     0.202 C 
ENDBRANCH  11  17
ENDBRANCH   9  10
ENDBRANCH   1   9
BRANCH   8  19
HETATM   19  O4  UNL     1      -5.229   2.838  13.251  1.00  0.00    -0.341 OA
BRANCH  19  20
HETATM   20  C13 UNL     1      -5.549   2.903  14.580  1.00  0.00     0.132 C 
HETATM   21  C14 UNL     1      -5.600   4.319  15.134  1.00  0.00     0.060 C 
HETATM   22  C15 UNL     1      -6.316   4.252  16.464  1.00  0.00     0.235 C 
HETATM   23  N2  UNL     1      -6.435   2.913  16.962  1.00  0.00    -0.075 N 
HETATM   24  C16 UNL     1      -5.214   2.173  16.888  1.00  0.00     0.235 C 
ATOM     25  H22 UNL     1      -6.803   2.911  17.914  1.00  0.00     0.277 HD
ATOM     26  H21 UNL     1      -7.190   2.416  16.489  1.00  0.00     0.277 HD
HETATM   27  C17 UNL     1      -4.630   2.126  15.496  1.00  0.00     0.060 C 
ENDBRANCH  19  20
ENDBRANCH   8  19
TORSDOF 5
ENDMDL
MODEL 2
REMARK VINA RESULT: -7.407364481      1.501      1.886
REMARK  5 active torsions:
REMARK  status: ('A' for Active; 'I' for Inactive)
REMARK    1  A    between atoms: O1_2  and  C2_3 
REMARK    2  A    between atoms: C7_9  and  O3_10 
REMARK    3  A    between atoms: O3_10  and  C8_11 
REMARK    4  A    between atoms: C12_18  and  O4_19 
REMARK    5  A    between atoms: O4_19  and  C13_20 
ROOT
HETATM    1  C8  UNL     1      -4.205   2.234  12.007  1.00  0.00     0.179 A 
HETATM    2  N1  UNL     1      -4.477   1.697  10.767  1.00  0.00    -0.311 N 
ATOM      3  H1  UNL     1      -4.648   2.327   9.983  1.00  0.00     0.170 HD
HETATM    4  C9  UNL     1      -4.524   0.392  10.563  1.00  0.00     0.190 A 
HETATM    5  F1  UNL     1      -4.797  -0.108   9.320  1.00  0.00    -0.186 F 
HETATM    6  C10 UNL     1      -4.292  -0.450  11.638  1.00  0.00     0.064 A 
HETATM    7  C11 UNL     1      -4.016   0.055  12.893  1.00  0.00     0.046 A 
HETATM    8  C12 UNL     1      -3.969   1.419  13.096  1.00  0.00     0.120 A 
ENDROOT
BRANCH   1   9
HETATM    9  O3  UNL     1      -4.197   3.578  12.029  1.00  0.00    -0.325 OA
BRANCH   9  10
HETATM   10  C7  UNL     1      -3.349   4.599  11.801  1.00  0.00     0.168 C 
HETATM   11  C2  UNL     1      -4.008   5.915  11.404  1.00  0.00     0.179 C 
HETATM   12  C3  UNL     1      -3.257   6.910  12.260  1.00  0.00     0.153 C 
HETATM   13  C4  UNL     1      -3.330   6.125  13.588  1.00  0.00     0.044 C 
HETATM   14  O2  UNL     1      -1.894   6.923  11.995  1.00  0.00    -0.383 OA
HETATM   15  C5  UNL     1      -2.518   4.955  13.008  1.00  0.00     0.044 C 
HETATM   16  C6  UNL     1      -1.343   5.756  12.502  1.00  0.00     0.175 C 
BRANCH  11  17
HETATM   17  O1  UNL     1      -5.336   5.955  11.883  1.00  0.00    -0.386 OA
HETATM   18  C1  UNL     1      -6.017   6.973  11.261  1.00  0.00     0.202 C 
ENDBRANCH  11  17
ENDBRANCH   9  10
ENDBRANCH   1   9
BRANCH   8  19
HETATM   19  O4  UNL     1      -3.700   1.929  14.324  1.00  0.00    -0.341 OA
BRANCH  19  20
HETATM   20  C13 UNL     1      -4.483   2.156  15.423  1.00  0.00     0.132 C 
HETATM   21  C14 UNL     1      -5.125   0.900  15.994  1.00  0.00     0.060 C 
HETATM   22  C15 UNL     1      -5.627   1.247  17.378  1.00  0.00     0.235 C 
HETATM   23  N2  UNL     1      -5.664   2.659  17.616  1.00  0.00    -0.075 N 
HETATM   24  C16 UNL     1      -6.263   3.396  16.548  1.00  0.00     0.235 C 
ATOM     25  H22 UNL     1      -6.126   2.865  18.502  1.00  0.00     0.277 HD
ATOM     26  H21 UNL     1      -4.733   3.017  17.825  1.00  0.00     0.277 HD
HETATM   27  C17 UNL     1      -5.608   3.145  15.210  1.00  0.00     0.060 C 
ENDBRANCH  19  20
ENDBRANCH   8  19
TORSDOF 5
ENDMDL
MODEL 3
REMARK VINA RESULT: -7.361959683      1.018      2.069
REMARK  5 active torsions:
REMARK  status: ('A' for Active; 'I' for Inactive)
REMARK    1  A    between atoms: O1_2  and  C2_3 
REMARK    2  A    between atoms: C7_9  and  O3_10 
REMARK    3  A    between atoms: O3_10  and  C8_11 
REMARK    4  A    between atoms: C12_18  and  O4_19 
REMARK    5  A    between atoms: O4_19  and  C13_20 
ROOT
HETATM    1  C8  UNL     1      -3.099   2.862  12.430  1.00  0.00     0.179 A 
HETATM    2  N1  UNL     1      -2.064   2.289  11.722  1.00  0.00    -0.311 N 
ATOM      3  H1  UNL     1      -1.211   2.828  11.570  1.00  0.00     0.170 HD
HETATM    4  C9  UNL     1      -2.142   1.063  11.235  1.00  0.00     0.190 A 
HETATM    5  F1  UNL     1      -1.097   0.524  10.538  1.00  0.00    -0.186 F 
HETATM    6  C10 UNL     1      -3.307   0.344  11.448  1.00  0.00     0.064 A 
HETATM    7  C11 UNL     1      -4.362   0.888  12.152  1.00  0.00     0.046 A 
HETATM    8  C12 UNL     1      -4.271   2.169  12.658  1.00  0.00     0.120 A 
ENDROOT
BRANCH   1   9
HETATM    9  O3  UNL     1      -2.845   4.114  12.850  1.00  0.00    -0.325 OA
BRANCH   9  10
HETATM   10  C7  UNL     1      -3.080   5.385  12.473  1.00  0.00     0.168 C 
HETATM   11  C2  UNL     1      -1.874   6.129  11.909  1.00  0.00     0.179 C 
HETATM   12  C3  UNL     1      -2.467   6.805  10.694  1.00  0.00     0.153 C 
HETATM   13  C4  UNL     1      -3.228   5.582  10.136  1.00  0.00     0.044 C 
HETATM   14  O2  UNL     1      -3.498   7.678  11.016  1.00  0.00    -0.383 OA
HETATM   15  C5  UNL     1      -4.119   5.495  11.386  1.00  0.00     0.044 C 
HETATM   16  C6  UNL     1      -4.600   6.926  11.392  1.00  0.00     0.175 C 
BRANCH  11  17
HETATM   17  O1  UNL     1      -0.937   5.208  11.390  1.00  0.00    -0.386 OA
HETATM   18  C1  UNL     1       0.317   5.520  11.854  1.00  0.00     0.202 C 
ENDBRANCH  11  17
ENDBRANCH   9  10
ENDBRANCH   1   9
BRANCH   8  19
HETATM   19  O4  UNL     1      -5.300   2.717  13.351  1.00  0.00    -0.341 OA
BRANCH  19  20
HETATM   20  C13 UNL     1      -5.600   2.754  14.686  1.00  0.00     0.132 C 
HETATM   21  C14 UNL     1      -5.666   4.160  15.264  1.00  0.00     0.060 C 
HETATM   22  C15 UNL     1      -6.359   4.058  16.604  1.00  0.00     0.235 C 
HETATM   23  N2  UNL     1      -6.448   2.709  17.081  1.00  0.00    -0.075 N 
HETATM   24  C16 UNL     1      -5.216   1.991  16.975  1.00  0.00     0.235 C 
ATOM     25  H22 UNL     1      -6.800   2.686  18.038  1.00  0.00     0.277 HD
ATOM     26  H21 UNL     1      -7.201   2.207  16.612  1.00  0.00     0.277 HD
HETATM   27  C17 UNL     1      -4.654   1.977  15.574  1.00  0.00     0.060 C 
ENDBRANCH  19  20
ENDBRANCH   8  19
TORSDOF 5
ENDMDL
MODEL 4
REMARK VINA RESULT: -7.355026716      2.181      5.647
REMARK  5 active torsions:
REMARK  status: ('A' for Active; 'I' for Inactive)
REMARK    1  A    between atoms: O1_2  and  C2_3 
REMARK    2  A    between atoms: C7_9  and  O3_10 
REMARK    3  A    between atoms: O3_10  and  C8_11 
REMARK    4  A    between atoms: C12_18  and  O4_19 
REMARK    5  A    between atoms: O4_19  and  C13_20 
ROOT
HETATM    1  C8  UNL     1      -4.240   1.223  13.273  1.00  0.00     0.179 A 
HETATM    2  N1  UNL     1      -4.245  -0.083  12.832  1.00  0.00    -0.311 N 
ATOM      3  H1  UNL     1      -4.819  -0.768  13.325  1.00  0.00     0.170 HD
HETATM    4  C9  UNL     1      -3.532  -0.475  11.792  1.00  0.00     0.190 A 
HETATM    5  F1  UNL     1      -3.560  -1.778  11.380  1.00  0.00    -0.186 F 
HETATM    6  C10 UNL     1      -2.756   0.467  11.133  1.00  0.00     0.064 A 
HETATM    7  C11 UNL     1      -2.729   1.783  11.549  1.00  0.00     0.046 A 
HETATM    8  C12 UNL     1      -3.478   2.183  12.637  1.00  0.00     0.120 A 
ENDROOT
BRANCH   1   9
HETATM    9  O3  UNL     1      -5.024   1.441  14.343  1.00  0.00    -0.325 OA
BRANCH   9  10
HETATM   10  C7  UNL     1      -4.920   1.544  15.681  1.00  0.00     0.168 C 
HETATM   11  C2  UNL     1      -5.155   2.941  16.245  1.00  0.00     0.179 C 
HETATM   12  C3  UNL     1      -6.055   2.652  17.426  1.00  0.00     0.153 C 
HETATM   13  C4  UNL     1      -7.030   1.696  16.705  1.00  0.00     0.044 C 
HETATM   14  O2  UNL     1      -5.457   1.820  18.363  1.00  0.00    -0.383 OA
HETATM   15  C5  UNL     1      -5.912   0.680  16.418  1.00  0.00     0.044 C 
HETATM   16  C6  UNL     1      -5.398   0.541  17.831  1.00  0.00     0.175 C 
BRANCH  11  17
HETATM   17  O1  UNL     1      -5.956   3.693  15.357  1.00  0.00    -0.386 OA
HETATM   18  C1  UNL     1      -5.733   5.032  15.562  1.00  0.00     0.202 C 
ENDBRANCH  11  17
ENDBRANCH   9  10
ENDBRANCH   1   9
BRANCH   8  19
HETATM   19  O4  UNL     1      -3.459   3.473  13.056  1.00  0.00    -0.341 OA
BRANCH  19  20
HETATM   20  C13 UNL     1      -2.833   4.592  12.576  1.00  0.00     0.132 C 
HETATM   21  C14 UNL     1      -1.476   4.859  13.210  1.00  0.00     0.060 C 
HETATM   22  C15 UNL     1      -0.768   5.869  12.336  1.00  0.00     0.235 C 
HETATM   23  N2  UNL     1      -1.648   6.510  11.404  1.00  0.00    -0.075 N 
HETATM   24  C16 UNL     1      -2.865   6.965  12.000  1.00  0.00     0.235 C 
ATOM     25  H22 UNL     1      -1.173   7.272  10.921  1.00  0.00     0.277 HD
ATOM     26  H21 UNL     1      -1.840   5.901  10.609  1.00  0.00     0.277 HD
HETATM   27  C17 UNL     1      -3.624   5.873  12.716  1.00  0.00     0.060 C 
ENDBRANCH  19  20
ENDBRANCH   8  19
TORSDOF 5
ENDMDL
MODEL 5
REMARK VINA RESULT: -7.320839215      1.739      2.339
REMARK  5 active torsions:
REMARK  status: ('A' for Active; 'I' for Inactive)
REMARK    1  A    between atoms: O1_2  and  C2_3 
REMARK    2  A    between atoms: C7_9  and  O3_10 
REMARK    3  A    between atoms: O3_10  and  C8_11 
REMARK    4  A    between atoms: C12_18  and  O4_19 
REMARK    5  A    between atoms: O4_19  and  C13_20 
ROOT
HETATM    1  C8  UNL     1      -4.277   2.133  12.067  1.00  0.00     0.179 A 
HETATM    2  N1  UNL     1      -4.556   1.633  10.813  1.00  0.00    -0.311 N 
ATOM      3  H1  UNL     1      -4.774   2.285  10.059  1.00  0.00     0.170 HD
HETATM    4  C9  UNL     1      -4.549   0.337  10.556  1.00  0.00     0.190 A 
HETATM    5  F1  UNL     1      -4.830  -0.125   9.301  1.00  0.00    -0.186 F 
HETATM    6  C10 UNL     1      -4.253  -0.536  11.591  1.00  0.00     0.064 A 
HETATM    7  C11 UNL     1      -3.969  -0.069  12.858  1.00  0.00     0.046 A 
HETATM    8  C12 UNL     1      -3.978   1.287  13.116  1.00  0.00     0.120 A 
ENDROOT
BRANCH   1   9
HETATM    9  O3  UNL     1      -4.330   3.474  12.144  1.00  0.00    -0.325 OA
BRANCH   9  10
HETATM   10  C7  UNL     1      -3.493   4.528  12.191  1.00  0.00     0.168 C 
HETATM   11  C2  UNL     1      -3.059   5.074  10.835  1.00  0.00     0.179 C 
HETATM   12  C3  UNL     1      -3.206   6.565  11.040  1.00  0.00     0.153 C 
HETATM   13  C4  UNL     1      -4.604   6.539  11.698  1.00  0.00     0.044 C 
HETATM   14  O2  UNL     1      -2.402   7.047  12.063  1.00  0.00    -0.383 OA
HETATM   15  C5  UNL     1      -4.088   5.722  12.894  1.00  0.00     0.044 C 
HETATM   16  C6  UNL     1      -2.934   6.620  13.270  1.00  0.00     0.175 C 
BRANCH  11  17
HETATM   17  O1  UNL     1      -4.018   4.747   9.852  1.00  0.00    -0.386 OA
HETATM   18  C1  UNL     1      -3.505   5.009   8.606  1.00  0.00     0.202 C 
ENDBRANCH  11  17
ENDBRANCH   9  10
ENDBRANCH   1   9
BRANCH   8  19
HETATM   19  O4  UNL     1      -3.702   1.760  14.358  1.00  0.00    -0.341 OA
BRANCH  19  20
HETATM   20  C13 UNL     1      -4.485   1.978  15.459  1.00  0.00     0.132 C 
HETATM   21  C14 UNL     1      -5.136   0.720  16.012  1.00  0.00     0.060 C 
HETATM   22  C15 UNL     1      -5.637   1.051  17.401  1.00  0.00     0.235 C 
HETATM   23  N2  UNL     1      -5.663   2.461  17.658  1.00  0.00    -0.075 N 
HETATM   24  C16 UNL     1      -6.255   3.217  16.599  1.00  0.00     0.235 C 
ATOM     25  H22 UNL     1      -6.124   2.658  18.547  1.00  0.00     0.277 HD
ATOM     26  H21 UNL     1      -4.728   2.808  17.873  1.00  0.00     0.277 HD
HETATM   27  C17 UNL     1      -5.601   2.978  15.259  1.00  0.00     0.060 C 
ENDBRANCH  19  20
ENDBRANCH   8  19
TORSDOF 5
ENDMDL
