MODEL 1
REMARK VINA RESULT: -7.488488081      0.000      0.000
REMARK  5 active torsions:
REMARK  status: ('A' for Active; 'I' for Inactive)
REMARK    1  A    between atoms: C2_2  and  C4_4 
REMARK    2  A    between atoms: C4_4  and  O1_5 
REMARK    3  A    between atoms: O1_5  and  C5_6 
REMARK    4  A    between atoms: C7_8  and  N1_9 
REMARK    5  A    between atoms: C12_17  and  N3_18 
ROOT
HETATM    1  C5  UNL     1      -5.413   3.579  14.557  1.00  0.00     0.114 A 
HETATM    2  C6  UNL     1      -4.913   2.481  13.889  1.00  0.00     0.088 A 
HETATM    3  C7  UNL     1      -3.942   2.580  12.920  1.00  0.00     0.107 A 
HETATM    4  N2  UNL     1      -3.461   3.828  12.621  1.00  0.00    -0.326 N 
ATOM      5  H2  UNL     1      -2.740   3.918  11.905  1.00  0.00     0.169 HD
HETATM    6  C12 UNL     1      -3.903   4.928  13.231  1.00  0.00     0.147 A 
HETATM    7  C17 UNL     1      -4.867   4.820  14.190  1.00  0.00     0.193 A 
HETATM    8  F1  UNL     1      -5.316   5.908  14.809  1.00  0.00    -0.199 F 
ENDROOT
BRANCH   6   9
HETATM    9  N3  UNL     1      -3.370   6.187  12.878  1.00  0.00    -0.362 N 
HETATM   10  C13 UNL     1      -2.338   6.781  13.666  1.00  0.00     0.143 C 
HETATM   11  C14 UNL     1      -1.270   7.313  12.742  1.00  0.00     0.133 C 
HETATM   12  N4  UNL     1      -1.772   8.093  11.665  1.00  0.00    -0.418 N 
HETATM   13  C15 UNL     1      -2.828   7.534  10.903  1.00  0.00     0.133 C 
ATOM     14  H4  UNL     1      -1.389   9.013  11.449  1.00  0.00     0.153 HD
HETATM   15  C16 UNL     1      -3.895   6.843  11.713  1.00  0.00     0.143 C 
ENDBRANCH   6   9
BRANCH   3  16
HETATM   16  N1  UNL     1      -3.415   1.474  12.207  1.00  0.00    -0.363 N 
HETATM   17  C8  UNL     1      -2.213   1.609  11.385  1.00  0.00     0.150 C 
HETATM   18  C9  UNL     1      -1.883   0.223  10.864  1.00  0.00     0.187 C 
HETATM   19  O2  UNL     1      -2.955  -0.273  10.127  1.00  0.00    -0.388 OA
HETATM   20  C10 UNL     1      -4.108  -0.397  10.858  1.00  0.00     0.187 C 
HETATM   21  C11 UNL     1      -4.040   0.184  12.256  1.00  0.00     0.150 C 
ENDBRANCH   3  16
BRANCH   1  22
HETATM   22  O1  UNL     1      -6.363   3.531  15.514  1.00  0.00    -0.347 OA
BRANCH  22  23
HETATM   23  C4  UNL     1      -6.397   3.471  16.869  1.00  0.00     0.179 C 
BRANCH  23  24
HETATM   24  C2  UNL     1      -6.014   2.131  17.448  1.00  0.00     0.002 C 
HETATM   25  C1  UNL     1      -6.059   2.153  18.964  1.00  0.00     0.011 C 
HETATM   26  C3  UNL     1      -7.010   1.076  16.944  1.00  0.00     0.011 C 
ENDBRANCH  23  24
ENDBRANCH  22  23
ENDBRANCH   1  22
TORSDOF 5
ENDMDL
MODEL 2
REMARK VINA RESULT: -7.209388349      2.172      5.341
REMARK  5 active torsions:
REMARK  status: ('A' for Active; 'I' for Inactive)
REMARK    1  A    between atoms: C2_2  and  C4_4 
REMARK    2  A    between atoms: C4_4  and  O1_5 
REMARK    3  A    between atoms: O1_5  and  C5_6 
REMARK    4  A    between atoms: C7_8  and  N1_9 
REMARK    5  A    between atoms: C12_17  and  N3_18 
ROOT
HETATM    1  C5  UNL     1      -4.681   3.923  14.348  1.00  0.00     0.114 A 
HETATM    2  C6  UNL     1      -4.715   5.156  13.731  1.00  0.00     0.088 A 
HETATM    3  C7  UNL     1      -4.402   5.330  12.403  1.00  0.00     0.107 A 
HETATM    4  N2  UNL     1      -4.046   4.222  11.679  1.00  0.00    -0.326 N 
ATOM      5  H2  UNL     1      -3.812   4.334  10.693  1.00  0.00     0.169 HD
HETATM    6  C12 UNL     1      -3.995   3.004  12.217  1.00  0.00     0.147 A 
HETATM    7  C17 UNL     1      -4.307   2.841  13.535  1.00  0.00     0.193 A 
HETATM    8  F1  UNL     1      -4.263   1.632  14.087  1.00  0.00    -0.199 F 
ENDROOT
BRANCH   6   9
HETATM    9  N3  UNL     1      -3.620   1.900  11.421  1.00  0.00    -0.362 N 
HETATM   10  C13 UNL     1      -2.259   1.724  11.026  1.00  0.00     0.143 C 
HETATM   11  C14 UNL     1      -1.877   0.280  11.241  1.00  0.00     0.133 C 
HETATM   12  N4  UNL     1      -2.814  -0.653  10.719  1.00  0.00    -0.418 N 
HETATM   13  C15 UNL     1      -4.174  -0.461  11.066  1.00  0.00     0.133 C 
ATOM     14  H4  UNL     1      -2.520  -1.425  10.121  1.00  0.00     0.153 HD
HETATM   15  C16 UNL     1      -4.642   0.971  11.026  1.00  0.00     0.143 C 
ENDBRANCH   6   9
BRANCH   3  16
HETATM   16  N1  UNL     1      -4.415   6.583  11.741  1.00  0.00    -0.363 N 
HETATM   17  C8  UNL     1      -5.640   7.104  11.135  1.00  0.00     0.150 C 
HETATM   18  C9  UNL     1      -5.315   8.492  10.618  1.00  0.00     0.187 C 
HETATM   19  O2  UNL     1      -4.275   8.421   9.694  1.00  0.00    -0.388 OA
HETATM   20  C10 UNL     1      -3.112   7.920  10.219  1.00  0.00     0.187 C 
HETATM   21  C11 UNL     1      -3.231   7.386  11.631  1.00  0.00     0.150 C 
ENDBRANCH   3  16
BRANCH   1  22
HETATM   22  O1  UNL     1      -4.982   3.704  15.646  1.00  0.00    -0.347 OA
BRANCH  22  23
HETATM   23  C4  UNL     1      -6.082   3.358  16.360  1.00  0.00     0.179 C 
BRANCH  23  24
HETATM   24  C2  UNL     1      -5.912   2.130  17.220  1.00  0.00     0.002 C 
HETATM   25  C1  UNL     1      -6.054   2.466  18.692  1.00  0.00     0.011 C 
HETATM   26  C3  UNL     1      -6.998   1.113  16.843  1.00  0.00     0.011 C 
ENDBRANCH  23  24
ENDBRANCH  22  23
ENDBRANCH   1  22
TORSDOF 5
ENDMDL
MODEL 3
REMARK VINA RESULT: -7.145782682      0.623      1.174
REMARK  5 active torsions:
REMARK  status: ('A' for Active; 'I' for Inactive)
REMARK    1  A    between atoms: C2_2  and  C4_4 
REMARK    2  A    between atoms: C4_4  and  O1_5 
REMARK    3  A    between atoms: O1_5  and  C5_6 
REMARK    4  A    between atoms: C7_8  and  N1_9 
REMARK    5  A    between atoms: C12_17  and  N3_18 
ROOT
HETATM    1  C5  UNL     1      -5.084   3.679  14.274  1.00  0.00     0.114 A 
HETATM    2  C6  UNL     1      -4.719   2.506  13.648  1.00  0.00     0.088 A 
HETATM    3  C7  UNL     1      -3.702   2.443  12.723  1.00  0.00     0.107 A 
HETATM    4  N2  UNL     1      -3.035   3.602  12.426  1.00  0.00    -0.326 N 
ATOM      5  H2  UNL     1      -2.278   3.572  11.744  1.00  0.00     0.169 HD
HETATM    6  C12 UNL     1      -3.339   4.768  12.997  1.00  0.00     0.147 A 
HETATM    7  C17 UNL     1      -4.350   4.820  13.913  1.00  0.00     0.193 A 
HETATM    8  F1  UNL     1      -4.665   5.975  14.493  1.00  0.00    -0.199 F 
ENDROOT
BRANCH   6   9
HETATM    9  N3  UNL     1      -2.617   5.929  12.650  1.00  0.00    -0.362 N 
HETATM   10  C13 UNL     1      -2.814   6.550  11.379  1.00  0.00     0.143 C 
HETATM   11  C14 UNL     1      -2.945   8.039  11.584  1.00  0.00     0.133 C 
HETATM   12  N4  UNL     1      -1.936   8.602  12.412  1.00  0.00    -0.418 N 
HETATM   13  C15 UNL     1      -1.698   7.967  13.657  1.00  0.00     0.133 C 
ATOM     14  H4  UNL     1      -1.407   9.424  12.125  1.00  0.00     0.153 HD
HETATM   15  C16 UNL     1      -1.686   6.460  13.606  1.00  0.00     0.143 C 
ENDBRANCH   6   9
BRANCH   3  16
HETATM   16  N1  UNL     1      -3.310   1.257  12.054  1.00  0.00    -0.363 N 
HETATM   17  C8  UNL     1      -2.071   1.203  11.278  1.00  0.00     0.150 C 
HETATM   18  C9  UNL     1      -1.918  -0.227  10.797  1.00  0.00     0.187 C 
HETATM   19  O2  UNL     1      -3.022  -0.587  10.027  1.00  0.00    -0.388 OA
HETATM   20  C10 UNL     1      -4.207  -0.532  10.714  1.00  0.00     0.187 C 
HETATM   21  C11 UNL     1      -4.110   0.068  12.102  1.00  0.00     0.150 C 
ENDBRANCH   3  16
BRANCH   1  22
HETATM   22  O1  UNL     1      -6.072   3.788  15.187  1.00  0.00    -0.347 OA
BRANCH  22  23
HETATM   23  C4  UNL     1      -6.174   3.763  16.539  1.00  0.00     0.179 C 
BRANCH  23  24
HETATM   24  C2  UNL     1      -5.901   2.417  17.164  1.00  0.00     0.002 C 
HETATM   25  C1  UNL     1      -5.984   2.486  18.677  1.00  0.00     0.011 C 
HETATM   26  C3  UNL     1      -6.955   1.420  16.661  1.00  0.00     0.011 C 
ENDBRANCH  23  24
ENDBRANCH  22  23
ENDBRANCH   1  22
TORSDOF 5
ENDMDL
MODEL 4
REMARK VINA RESULT: -6.957407298      2.735      6.383
REMARK  5 active torsions:
REMARK  status: ('A' for Active; 'I' for Inactive)
REMARK    1  A    between atoms: C2_2  and  C4_4 
REMARK    2  A    between atoms: C4_4  and  O1_5 
REMARK    3  A    between atoms: O1_5  and  C5_6 
REMARK    4  A    between atoms: C7_8  and  N1_9 
REMARK    5  A    between atoms: C12_17  and  N3_18 
ROOT
HETATM    1  C5  UNL     1      -4.198   5.270  12.538  1.00  0.00     0.114 A 
HETATM    2  C6  UNL     1      -4.788   4.956  13.744  1.00  0.00     0.088 A 
HETATM    3  C7  UNL     1      -4.989   3.659  14.156  1.00  0.00     0.107 A 
HETATM    4  N2  UNL     1      -4.577   2.651  13.324  1.00  0.00    -0.326 N 
ATOM      5  H2  UNL     1      -4.718   1.685  13.615  1.00  0.00     0.169 HD
HETATM    6  C12 UNL     1      -3.999   2.890  12.146  1.00  0.00     0.147 A 
HETATM    7  C17 UNL     1      -3.804   4.179  11.745  1.00  0.00     0.193 A 
HETATM    8  F1  UNL     1      -3.228   4.434  10.574  1.00  0.00    -0.199 F 
ENDROOT
BRANCH   6   9
HETATM    9  N3  UNL     1      -3.597   1.810  11.331  1.00  0.00    -0.362 N 
HETATM   10  C13 UNL     1      -2.213   1.584  11.062  1.00  0.00     0.143 C 
HETATM   11  C14 UNL     1      -1.920   0.114  11.235  1.00  0.00     0.133 C 
HETATM   12  N4  UNL     1      -2.842  -0.742  10.572  1.00  0.00    -0.418 N 
HETATM   13  C15 UNL     1      -4.220  -0.499  10.794  1.00  0.00     0.133 C 
ATOM     14  H4  UNL     1      -2.525  -1.497   9.964  1.00  0.00     0.153 HD
HETATM   15  C16 UNL     1      -4.615   0.955  10.787  1.00  0.00     0.143 C 
ENDBRANCH   6   9
BRANCH   3  16
HETATM   16  N1  UNL     1      -5.604   3.301  15.382  1.00  0.00    -0.363 N 
HETATM   17  C8  UNL     1      -6.107   4.322  16.300  1.00  0.00     0.150 C 
HETATM   18  C9  UNL     1      -6.785   3.587  17.441  1.00  0.00     0.187 C 
HETATM   19  O2  UNL     1      -5.873   2.741  18.066  1.00  0.00    -0.388 OA
HETATM   20  C10 UNL     1      -5.362   1.779  17.233  1.00  0.00     0.187 C 
HETATM   21  C11 UNL     1      -5.749   1.930  15.776  1.00  0.00     0.150 C 
ENDBRANCH   3  16
BRANCH   1  22
HETATM   22  O1  UNL     1      -3.979   6.525  12.093  1.00  0.00    -0.347 OA
BRANCH  22  23
HETATM   23  C4  UNL     1      -4.537   7.362  11.183  1.00  0.00     0.179 C 
BRANCH  23  24
HETATM   24  C2  UNL     1      -5.931   6.979  10.750  1.00  0.00     0.002 C 
HETATM   25  C1  UNL     1      -6.924   8.085  11.050  1.00  0.00     0.011 C 
HETATM   26  C3  UNL     1      -5.922   6.726   9.236  1.00  0.00     0.011 C 
ENDBRANCH  23  24
ENDBRANCH  22  23
ENDBRANCH   1  22
TORSDOF 5
ENDMDL
MODEL 5
REMARK VINA RESULT: -6.946186851      2.098      5.363
REMARK  5 active torsions:
REMARK  status: ('A' for Active; 'I' for Inactive)
REMARK    1  A    between atoms: C2_2  and  C4_4 
REMARK    2  A    between atoms: C4_4  and  O1_5 
REMARK    3  A    between atoms: O1_5  and  C5_6 
REMARK    4  A    between atoms: C7_8  and  N1_9 
REMARK    5  A    between atoms: C12_17  and  N3_18 
ROOT
HETATM    1  C5  UNL     1      -4.510   3.588  14.632  1.00  0.00     0.114 A 
HETATM    2  C6  UNL     1      -4.087   4.862  14.314  1.00  0.00     0.088 A 
HETATM    3  C7  UNL     1      -3.481   5.165  13.117  1.00  0.00     0.107 A 
HETATM    4  N2  UNL     1      -3.301   4.149  12.215  1.00  0.00    -0.326 N 
ATOM      5  H2  UNL     1      -2.855   4.358  11.322  1.00  0.00     0.169 HD
HETATM    6  C12 UNL     1      -3.689   2.898  12.463  1.00  0.00     0.147 A 
HETATM    7  C17 UNL     1      -4.289   2.606  13.653  1.00  0.00     0.193 A 
HETATM    8  F1  UNL     1      -4.683   1.363  13.915  1.00  0.00    -0.199 F 
ENDROOT
BRANCH   6   9
HETATM    9  N3  UNL     1      -3.476   1.893  11.495  1.00  0.00    -0.362 N 
HETATM   10  C13 UNL     1      -2.153   1.440  11.203  1.00  0.00     0.143 C 
HETATM   11  C14 UNL     1      -2.159  -0.068  11.151  1.00  0.00     0.133 C 
HETATM   12  N4  UNL     1      -3.205  -0.617  10.360  1.00  0.00    -0.418 N 
HETATM   13  C15 UNL     1      -4.517  -0.142  10.609  1.00  0.00     0.133 C 
ATOM     14  H4  UNL     1      -3.020  -1.321   9.646  1.00  0.00     0.153 HD
HETATM   15  C16 UNL     1      -4.621   1.346  10.821  1.00  0.00     0.143 C 
ENDBRANCH   6   9
BRANCH   3  16
HETATM   16  N1  UNL     1      -3.024   6.459  12.763  1.00  0.00    -0.363 N 
HETATM   17  C8  UNL     1      -3.309   7.026  11.446  1.00  0.00     0.150 C 
HETATM   18  C9  UNL     1      -2.769   8.444  11.454  1.00  0.00     0.187 C 
HETATM   19  O2  UNL     1      -1.402   8.427  11.721  1.00  0.00    -0.388 OA
HETATM   20  C10 UNL     1      -1.091   7.885  12.941  1.00  0.00     0.187 C 
HETATM   21  C11 UNL     1      -2.260   7.260  13.675  1.00  0.00     0.150 C 
ENDBRANCH   3  16
BRANCH   1  22
HETATM   22  O1  UNL     1      -5.110   3.244  15.792  1.00  0.00    -0.347 OA
BRANCH  22  23
HETATM   23  C4  UNL     1      -6.322   3.433  16.370  1.00  0.00     0.179 C 
BRANCH  23  24
HETATM   24  C2  UNL     1      -6.757   2.321  17.292  1.00  0.00     0.002 C 
HETATM   25  C1  UNL     1      -6.501   0.960  16.672  1.00  0.00     0.011 C 
HETATM   26  C3  UNL     1      -5.953   2.422  18.597  1.00  0.00     0.011 C 
ENDBRANCH  23  24
ENDBRANCH  22  23
ENDBRANCH   1  22
TORSDOF 5
ENDMDL
