MODEL 1
REMARK VINA RESULT: -5.779857298      0.000      0.000
REMARK  6 active torsions:
REMARK  status: ('A' for Active; 'I' for Inactive)
REMARK    1  A    between atoms: O1_2  and  C2_3 
REMARK    2  A    between atoms: C2_3  and  C3_4 
REMARK    3  A    between atoms: C3_4  and  O2_5 
REMARK    4  A    between atoms: C3_4  and  C4_7 
REMARK    5  A    between atoms: C4_7  and  N1_8 
REMARK    6  A    between atoms: N2_11  and  C7_12 
ROOT
HETATM    1  N1  UNL     1      -3.773   2.515  13.774  1.00  0.00    -0.407 N 
HETATM    2  C5  UNL     1      -3.491   1.735  12.627  1.00  0.00     0.136 C 
HETATM    3  C6  UNL     1      -2.982   2.584  11.455  1.00  0.00     0.143 C 
HETATM    4  N2  UNL     1      -2.003   3.515  11.913  1.00  0.00    -0.372 N 
HETATM    5  C11 UNL     1      -2.238   4.215  13.162  1.00  0.00     0.143 C 
HETATM    6  C12 UNL     1      -3.703   3.923  13.522  1.00  0.00     0.136 C 
ENDROOT
BRANCH   1   7
HETATM    7  C4  UNL     1      -4.815   2.085  14.637  1.00  0.00     0.150 C 
BRANCH   7   8
HETATM    8  C3  UNL     1      -4.343   0.900  15.455  1.00  0.00     0.159 C 
BRANCH   8   9
HETATM    9  C2  UNL     1      -5.175   0.577  16.656  1.00  0.00     0.200 C 
BRANCH   9  10
HETATM   10  O1  UNL     1      -6.454   0.328  16.491  1.00  0.00    -0.393 OA
HETATM   11  C1  UNL     1      -7.489   1.003  16.924  1.00  0.00     0.201 C 
ENDBRANCH   9  10
ENDBRANCH   8   9
BRANCH   8  12
HETATM   12  O2  UNL     1      -3.080   1.315  16.051  1.00  0.00    -0.392 OA
ATOM     13  H2  UNL     1      -2.544   0.536  15.956  1.00  0.00     0.210 HD
ENDBRANCH   8  12
ENDBRANCH   7   8
ENDBRANCH   1   7
BRANCH   4  14
HETATM   14  C7  UNL     1      -0.803   3.778  11.180  1.00  0.00     0.073 A 
HETATM   15  C8  UNL     1      -0.238   3.073  10.150  1.00  0.00     0.039 A 
HETATM   16  C9  UNL     1       0.904   3.544   9.637  1.00  0.00     0.029 A 
HETATM   17  C10 UNL     1       1.418   4.689  10.177  1.00  0.00     0.053 A 
HETATM   18 BR1  UNL     1       3.025   5.617   9.673  1.00  0.00    -0.043 Br
HETATM   19  S1  UNL     1       0.280   5.075  11.397  1.00  0.00    -0.065 SA
ENDBRANCH   4  14
TORSDOF 6
ENDMDL
MODEL 2
REMARK VINA RESULT: -5.745491306      1.071      1.098
REMARK  6 active torsions:
REMARK  status: ('A' for Active; 'I' for Inactive)
REMARK    1  A    between atoms: O1_2  and  C2_3 
REMARK    2  A    between atoms: C2_3  and  C3_4 
REMARK    3  A    between atoms: C3_4  and  O2_5 
REMARK    4  A    between atoms: C3_4  and  C4_7 
REMARK    5  A    between atoms: C4_7  and  N1_8 
REMARK    6  A    between atoms: N2_11  and  C7_12 
ROOT
HETATM    1  N1  UNL     1      -3.917   2.645  13.804  1.00  0.00    -0.407 N 
HETATM    2  C5  UNL     1      -3.898   1.849  12.634  1.00  0.00     0.136 C 
HETATM    3  C6  UNL     1      -3.551   2.663  11.380  1.00  0.00     0.143 C 
HETATM    4  N2  UNL     1      -2.444   3.524  11.646  1.00  0.00    -0.372 N 
HETATM    5  C11 UNL     1      -2.403   4.235  12.910  1.00  0.00     0.143 C 
HETATM    6  C12 UNL     1      -3.797   4.044  13.529  1.00  0.00     0.136 C 
ENDROOT
BRANCH   1   7
HETATM    7  C4  UNL     1      -4.814   2.286  14.844  1.00  0.00     0.150 C 
BRANCH   7   8
HETATM    8  C3  UNL     1      -4.359   0.991  15.485  1.00  0.00     0.159 C 
BRANCH   8   9
HETATM    9  C2  UNL     1      -5.160   0.545  16.669  1.00  0.00     0.200 C 
BRANCH   9  10
HETATM   10  O1  UNL     1      -6.441   0.306  16.512  1.00  0.00    -0.393 OA
HETATM   11  C1  UNL     1      -7.468   0.980  16.966  1.00  0.00     0.201 C 
ENDBRANCH   9  10
ENDBRANCH   8   9
BRANCH   8  12
HETATM   12  O2  UNL     1      -3.061   1.281  16.077  1.00  0.00    -0.392 OA
ATOM     13  H2  UNL     1      -3.297   1.618  16.933  1.00  0.00     0.210 HD
ENDBRANCH   8  12
ENDBRANCH   7   8
ENDBRANCH   1   7
BRANCH   4  14
HETATM   14  C7  UNL     1      -1.380   3.705  10.708  1.00  0.00     0.073 A 
HETATM   15  C8  UNL     1      -0.161   3.083  10.642  1.00  0.00     0.039 A 
HETATM   16  C9  UNL     1       0.661   3.444   9.650  1.00  0.00     0.029 A 
HETATM   17  C10 UNL     1       0.222   4.403   8.781  1.00  0.00     0.053 A 
HETATM   18 BR1  UNL     1       1.148   5.138   7.264  1.00  0.00    -0.043 Br
HETATM   19  S1  UNL     1      -1.338   4.773   9.383  1.00  0.00    -0.065 SA
ENDBRANCH   4  14
TORSDOF 6
ENDMDL
MODEL 3
REMARK VINA RESULT: -5.695996949      3.533      4.713
REMARK  6 active torsions:
REMARK  status: ('A' for Active; 'I' for Inactive)
REMARK    1  A    between atoms: O1_2  and  C2_3 
REMARK    2  A    between atoms: C2_3  and  C3_4 
REMARK    3  A    between atoms: C3_4  and  O2_5 
REMARK    4  A    between atoms: C3_4  and  C4_7 
REMARK    5  A    between atoms: C4_7  and  N1_8 
REMARK    6  A    between atoms: N2_11  and  C7_12 
ROOT
HETATM    1  N1  UNL     1      -2.923   3.749  11.878  1.00  0.00    -0.407 N 
HETATM    2  C5  UNL     1      -1.595   4.195  11.673  1.00  0.00     0.136 C 
HETATM    3  C6  UNL     1      -1.485   5.725  11.685  1.00  0.00     0.143 C 
HETATM    4  N2  UNL     1      -2.232   6.261  12.776  1.00  0.00    -0.372 N 
HETATM    5  C11 UNL     1      -3.541   5.706  13.064  1.00  0.00     0.143 C 
HETATM    6  C12 UNL     1      -3.878   4.815  11.859  1.00  0.00     0.136 C 
ENDROOT
BRANCH   1   7
HETATM    7  C4  UNL     1      -3.326   2.536  11.259  1.00  0.00     0.150 C 
BRANCH   7   8
HETATM    8  C3  UNL     1      -4.444   1.903  12.061  1.00  0.00     0.159 C 
BRANCH   8   9
HETATM    9  C2  UNL     1      -4.139   0.553  12.632  1.00  0.00     0.200 C 
BRANCH   9  10
HETATM   10  O1  UNL     1      -4.469   0.305  13.878  1.00  0.00    -0.393 OA
HETATM   11  C1  UNL     1      -4.186   0.988  14.959  1.00  0.00     0.201 C 
ENDBRANCH   9  10
ENDBRANCH   8   9
BRANCH   8  12
HETATM   12  O2  UNL     1      -5.496   1.605  11.099  1.00  0.00    -0.392 OA
ATOM     13  H2  UNL     1      -6.192   2.193  11.368  1.00  0.00     0.210 HD
ENDBRANCH   8  12
ENDBRANCH   7   8
ENDBRANCH   1   7
BRANCH   4  14
HETATM   14  C7  UNL     1      -1.730   7.325  13.590  1.00  0.00     0.073 A 
HETATM   15  C8  UNL     1      -2.109   7.713  14.849  1.00  0.00     0.039 A 
HETATM   16  C9  UNL     1      -1.468   8.755  15.389  1.00  0.00     0.029 A 
HETATM   17  C10 UNL     1      -0.488   9.352  14.647  1.00  0.00     0.053 A 
HETATM   18 BR1  UNL     1       0.610  10.856  15.127  1.00  0.00    -0.043 Br
HETATM   19  S1  UNL     1      -0.493   8.430  13.204  1.00  0.00    -0.065 SA
ENDBRANCH   4  14
TORSDOF 6
ENDMDL
MODEL 4
REMARK VINA RESULT: -5.657127069      5.180      7.477
REMARK  6 active torsions:
REMARK  status: ('A' for Active; 'I' for Inactive)
REMARK    1  A    between atoms: O1_2  and  C2_3 
REMARK    2  A    between atoms: C2_3  and  C3_4 
REMARK    3  A    between atoms: C3_4  and  O2_5 
REMARK    4  A    between atoms: C3_4  and  C4_7 
REMARK    5  A    between atoms: C4_7  and  N1_8 
REMARK    6  A    between atoms: N2_11  and  C7_12 
ROOT
HETATM    1  N1  UNL     1      -2.820   5.264  10.872  1.00  0.00    -0.407 N 
HETATM    2  C5  UNL     1      -2.288   4.175  11.602  1.00  0.00     0.136 C 
HETATM    3  C6  UNL     1      -2.557   4.295  13.108  1.00  0.00     0.143 C 
HETATM    4  N2  UNL     1      -3.912   4.682  13.335  1.00  0.00    -0.372 N 
HETATM    5  C11 UNL     1      -4.494   5.708  12.491  1.00  0.00     0.143 C 
HETATM    6  C12 UNL     1      -3.314   6.311  11.713  1.00  0.00     0.136 C 
ENDROOT
BRANCH   1   7
HETATM    7  C4  UNL     1      -2.144   5.674   9.693  1.00  0.00     0.150 C 
BRANCH   7   8
HETATM    8  C3  UNL     1      -3.021   5.413   8.485  1.00  0.00     0.159 C 
BRANCH   8   9
HETATM    9  C2  UNL     1      -4.156   6.371   8.298  1.00  0.00     0.200 C 
BRANCH   9  10
HETATM   10  O1  UNL     1      -5.361   6.006   8.673  1.00  0.00    -0.393 OA
HETATM   11  C1  UNL     1      -6.266   6.692   9.324  1.00  0.00     0.201 C 
ENDBRANCH   9  10
ENDBRANCH   8   9
BRANCH   8  12
HETATM   12  O2  UNL     1      -3.711   4.162   8.766  1.00  0.00    -0.392 OA
ATOM     13  H2  UNL     1      -3.259   3.548   8.198  1.00  0.00     0.210 HD
ENDBRANCH   8  12
ENDBRANCH   7   8
ENDBRANCH   1   7
BRANCH   4  14
HETATM   14  C7  UNL     1      -4.709   4.089  14.364  1.00  0.00     0.073 A 
HETATM   15  C8  UNL     1      -5.494   4.690  15.313  1.00  0.00     0.039 A 
HETATM   16  C9  UNL     1      -6.142   3.892  16.169  1.00  0.00     0.029 A 
HETATM   17  C10 UNL     1      -5.971   2.543  16.033  1.00  0.00     0.053 A 
HETATM   18 BR1  UNL     1      -6.752   1.138  17.089  1.00  0.00    -0.043 Br
HETATM   19  S1  UNL     1      -4.901   2.431  14.700  1.00  0.00    -0.065 SA
ENDBRANCH   4  14
TORSDOF 6
ENDMDL
MODEL 5
REMARK VINA RESULT: -5.642232417      4.480      6.987
REMARK  6 active torsions:
REMARK  status: ('A' for Active; 'I' for Inactive)
REMARK    1  A    between atoms: O1_2  and  C2_3 
REMARK    2  A    between atoms: C2_3  and  C3_4 
REMARK    3  A    between atoms: C3_4  and  O2_5 
REMARK    4  A    between atoms: C3_4  and  C4_7 
REMARK    5  A    between atoms: C4_7  and  N1_8 
REMARK    6  A    between atoms: N2_11  and  C7_12 
ROOT
HETATM    1  N1  UNL     1      -2.159   4.482  10.948  1.00  0.00    -0.407 N 
HETATM    2  C5  UNL     1      -2.044   5.390  12.028  1.00  0.00     0.136 C 
HETATM    3  C6  UNL     1      -3.382   5.620  12.742  1.00  0.00     0.143 C 
HETATM    4  N2  UNL     1      -4.044   4.374  12.956  1.00  0.00    -0.372 N 
HETATM    5  C11 UNL     1      -4.043   3.392  11.888  1.00  0.00     0.143 C 
HETATM    6  C12 UNL     1      -3.517   4.137  10.652  1.00  0.00     0.136 C 
ENDROOT
BRANCH   1   7
HETATM    7  C4  UNL     1      -1.300   4.656   9.831  1.00  0.00     0.150 C 
BRANCH   7   8
HETATM    8  C3  UNL     1      -0.262   3.552   9.810  1.00  0.00     0.159 C 
BRANCH   8   9
HETATM    9  C2  UNL     1      -0.485   2.444  10.791  1.00  0.00     0.200 C 
BRANCH   9  10
HETATM   10  O1  UNL     1      -1.054   1.336  10.375  1.00  0.00    -0.393 OA
HETATM   11  C1  UNL     1      -1.816   0.501  11.036  1.00  0.00     0.201 C 
ENDBRANCH   9  10
ENDBRANCH   8   9
BRANCH   8  12
HETATM   12  O2  UNL     1       0.967   4.161  10.299  1.00  0.00    -0.392 OA
ATOM     13  H2  UNL     1       1.564   3.422  10.327  1.00  0.00     0.210 HD
ENDBRANCH   8  12
ENDBRANCH   7   8
ENDBRANCH   1   7
BRANCH   4  14
HETATM   14  C7  UNL     1      -4.706   4.067  14.186  1.00  0.00     0.073 A 
HETATM   15  C8  UNL     1      -5.599   4.816  14.906  1.00  0.00     0.039 A 
HETATM   16  C9  UNL     1      -6.073   4.286  16.039  1.00  0.00     0.029 A 
HETATM   17  C10 UNL     1      -5.629   3.042  16.392  1.00  0.00     0.053 A 
HETATM   18 BR1  UNL     1      -6.108   2.010  17.942  1.00  0.00    -0.043 Br
HETATM   19  S1  UNL     1      -4.556   2.649  15.117  1.00  0.00    -0.065 SA
ENDBRANCH   4  14
TORSDOF 6
ENDMDL
