MODEL 1
REMARK VINA RESULT: -7.934538379      0.000      0.000
REMARK  6 active torsions:
REMARK  status: ('A' for Active; 'I' for Inactive)
REMARK    1  A    between atoms: N2_8  and  C6_9 
REMARK    2  A    between atoms: C8_11  and  N3_12 
REMARK    3  A    between atoms: C15_21  and  C16_22 
REMARK    4  A    between atoms: C16_22  and  C17_23 
REMARK    5  A    between atoms: C17_23  and  C18_24 
REMARK    6  A    between atoms: C18_24  and  O1_25 
ROOT
HETATM    1  N1  UNL     1      -3.402   4.375   9.068  1.00  0.00    -0.195 NA
HETATM    2  C1  UNL     1      -2.748   4.431  10.007  1.00  0.00     0.085 C 
HETATM    3  C2  UNL     1      -1.899   4.512  11.204  1.00  0.00     0.196 C 
HETATM    4  C3  UNL     1      -1.180   5.820  11.251  1.00  0.00     0.079 C 
HETATM    5  C4  UNL     1      -2.143   6.682  12.049  1.00  0.00     0.191 C 
HETATM    6  F1  UNL     1      -3.132   7.185  11.228  1.00  0.00    -0.248 F 
HETATM    7  C5  UNL     1      -2.736   5.697  13.060  1.00  0.00     0.163 C 
HETATM    8  N2  UNL     1      -2.660   4.430  12.402  1.00  0.00    -0.347 N 
ENDROOT
BRANCH   8   9
HETATM    9  C6  UNL     1      -3.293   3.238  12.913  1.00  0.00     0.109 A 
HETATM   10  C7  UNL     1      -4.084   3.320  14.038  1.00  0.00     0.096 A 
HETATM   11  C8  UNL     1      -4.700   2.173  14.549  1.00  0.00     0.108 A 
HETATM   12  N4  UNL     1      -4.477   1.044  13.895  1.00  0.00    -0.332 N 
HETATM   13  C15 UNL     1      -3.712   0.921  12.792  1.00  0.00     0.084 A 
ATOM     14  H4  UNL     1      -4.920   0.198  14.254  1.00  0.00     0.168 HD
HETATM   15  N5  UNL     1      -3.135   2.040  12.329  1.00  0.00    -0.332 N 
ATOM     16  H5  UNL     1      -2.551   1.977  11.496  1.00  0.00     0.168 HD
BRANCH  11  17
HETATM   17  N3  UNL     1      -5.517   2.213  15.698  1.00  0.00    -0.362 N 
HETATM   18  C9  UNL     1      -6.030   3.400  16.352  1.00  0.00     0.129 C 
HETATM   19  C10 UNL     1      -6.835   2.842  17.506  1.00  0.00     0.006 C 
HETATM   20  C11 UNL     1      -5.882   2.244  18.490  1.00  0.00     0.008 C 
HETATM   21  C14 UNL     1      -7.373   1.563  16.836  1.00  0.00     0.031 C 
HETATM   22  C12 UNL     1      -5.303   1.015  17.772  1.00  0.00     0.026 C 
HETATM   23  C13 UNL     1      -5.978   1.053  16.424  1.00  0.00     0.086 C 
ENDBRANCH  11  17
BRANCH  13  24
HETATM   24  C16 UNL     1      -3.569  -0.408  12.192  1.00  0.00     0.078 C 
BRANCH  24  25
HETATM   25  C17 UNL     1      -3.434  -0.374  10.704  1.00  0.00     0.033 C 
BRANCH  25  26
HETATM   26  C18 UNL     1      -4.777   0.103  10.134  1.00  0.00     0.164 C 
BRANCH  26  27
HETATM   27  O1  UNL     1      -4.670   1.465   9.787  1.00  0.00    -0.401 OA
ATOM     28  H1  UNL     1      -5.446   1.922  10.090  1.00  0.00     0.209 HD
ENDBRANCH  26  27
ENDBRANCH  25  26
ENDBRANCH  24  25
ENDBRANCH  13  24
ENDBRANCH   8   9
TORSDOF 6
ENDMDL
MODEL 2
REMARK VINA RESULT: -7.810306535      1.627      2.091
REMARK  6 active torsions:
REMARK  status: ('A' for Active; 'I' for Inactive)
REMARK    1  A    between atoms: N2_8  and  C6_9 
REMARK    2  A    between atoms: C8_11  and  N3_12 
REMARK    3  A    between atoms: C15_21  and  C16_22 
REMARK    4  A    between atoms: C16_22  and  C17_23 
REMARK    5  A    between atoms: C17_23  and  C18_24 
REMARK    6  A    between atoms: C18_24  and  O1_25 
ROOT
HETATM    1  N1  UNL     1      -5.558   5.725   9.854  1.00  0.00    -0.195 NA
HETATM    2  C1  UNL     1      -4.480   5.462  10.141  1.00  0.00     0.085 C 
HETATM    3  C2  UNL     1      -3.093   5.136  10.500  1.00  0.00     0.196 C 
HETATM    4  C3  UNL     1      -2.242   6.364  10.478  1.00  0.00     0.079 C 
HETATM    5  C4  UNL     1      -2.351   6.849  11.914  1.00  0.00     0.191 C 
HETATM    6  F1  UNL     1      -3.509   7.580  12.088  1.00  0.00    -0.248 F 
HETATM    7  C5  UNL     1      -2.413   5.548  12.717  1.00  0.00     0.163 C 
HETATM    8  N2  UNL     1      -2.995   4.604  11.815  1.00  0.00    -0.347 N 
ENDROOT
BRANCH   8   9
HETATM    9  C6  UNL     1      -3.427   3.289  12.221  1.00  0.00     0.109 A 
HETATM   10  C7  UNL     1      -3.944   3.105  13.485  1.00  0.00     0.096 A 
HETATM   11  C8  UNL     1      -4.361   1.835  13.895  1.00  0.00     0.108 A 
HETATM   12  N4  UNL     1      -4.228   0.857  13.012  1.00  0.00    -0.332 N 
HETATM   13  C15 UNL     1      -3.728   0.994  11.769  1.00  0.00     0.084 A 
ATOM     14  H4  UNL     1      -4.528  -0.075  13.296  1.00  0.00     0.168 HD
HETATM   15  N5  UNL     1      -3.337   2.225  11.406  1.00  0.00    -0.332 N 
ATOM     16  H5  UNL     1      -2.955   2.359  10.471  1.00  0.00     0.168 HD
BRANCH  11  17
HETATM   17  N3  UNL     1      -4.895   1.603  15.180  1.00  0.00    -0.362 N 
HETATM   18  C9  UNL     1      -4.955   0.332  15.873  1.00  0.00     0.129 C 
HETATM   19  C10 UNL     1      -5.612   0.685  17.192  1.00  0.00     0.006 C 
HETATM   20  C11 UNL     1      -7.037   1.041  16.919  1.00  0.00     0.008 C 
HETATM   21  C14 UNL     1      -5.013   2.089  17.396  1.00  0.00     0.031 C 
HETATM   22  C12 UNL     1      -6.964   2.363  16.140  1.00  0.00     0.026 C 
HETATM   23  C13 UNL     1      -5.482   2.616  16.026  1.00  0.00     0.086 C 
ENDBRANCH  11  17
BRANCH  13  24
HETATM   24  C16 UNL     1      -3.650  -0.196  10.917  1.00  0.00     0.078 C 
BRANCH  24  25
HETATM   25  C17 UNL     1      -3.717  -1.477  11.684  1.00  0.00     0.033 C 
BRANCH  25  26
HETATM   26  C18 UNL     1      -2.536  -2.346  11.228  1.00  0.00     0.164 C 
BRANCH  26  27
HETATM   27  O1  UNL     1      -2.928  -3.699  11.250  1.00  0.00    -0.401 OA
ATOM     28  H1  UNL     1      -2.176  -4.241  11.044  1.00  0.00     0.209 HD
ENDBRANCH  26  27
ENDBRANCH  25  26
ENDBRANCH  24  25
ENDBRANCH  13  24
ENDBRANCH   8   9
TORSDOF 6
ENDMDL
MODEL 3
REMARK VINA RESULT: -7.707631513      1.337      1.462
REMARK  6 active torsions:
REMARK  status: ('A' for Active; 'I' for Inactive)
REMARK    1  A    between atoms: N2_8  and  C6_9 
REMARK    2  A    between atoms: C8_11  and  N3_12 
REMARK    3  A    between atoms: C15_21  and  C16_22 
REMARK    4  A    between atoms: C16_22  and  C17_23 
REMARK    5  A    between atoms: C17_23  and  C18_24 
REMARK    6  A    between atoms: C18_24  and  O1_25 
ROOT
HETATM    1  N1  UNL     1      -4.930   5.444  10.020  1.00  0.00    -0.195 NA
HETATM    2  C1  UNL     1      -3.924   4.985  10.323  1.00  0.00     0.085 C 
HETATM    3  C2  UNL     1      -2.628   4.404  10.701  1.00  0.00     0.196 C 
HETATM    4  C3  UNL     1      -1.530   5.398  10.504  1.00  0.00     0.079 C 
HETATM    5  C4  UNL     1      -1.466   6.071  11.864  1.00  0.00     0.191 C 
HETATM    6  F1  UNL     1      -2.426   7.059  11.958  1.00  0.00    -0.248 F 
HETATM    7  C5  UNL     1      -1.777   4.928  12.834  1.00  0.00     0.163 C 
HETATM    8  N2  UNL     1      -2.591   4.034  12.073  1.00  0.00    -0.347 N 
ENDROOT
BRANCH   8   9
HETATM    9  C6  UNL     1      -3.283   2.909  12.655  1.00  0.00     0.109 A 
HETATM   10  C7  UNL     1      -4.015   3.088  13.809  1.00  0.00     0.096 A 
HETATM   11  C8  UNL     1      -4.686   2.007  14.389  1.00  0.00     0.108 A 
HETATM   12  N4  UNL     1      -4.571   0.841  13.772  1.00  0.00    -0.332 N 
HETATM   13  C15 UNL     1      -3.865   0.624  12.644  1.00  0.00     0.084 A 
ATOM     14  H4  UNL     1      -5.055   0.043  14.182  1.00  0.00     0.168 HD
HETATM   15  N5  UNL     1      -3.234   1.682  12.113  1.00  0.00    -0.332 N 
ATOM     16  H5  UNL     1      -2.692   1.548  11.260  1.00  0.00     0.168 HD
BRANCH  11  17
HETATM   17  N3  UNL     1      -5.447   2.146  15.569  1.00  0.00    -0.362 N 
HETATM   18  C9  UNL     1      -5.778   3.387  16.241  1.00  0.00     0.129 C 
HETATM   19  C10 UNL     1      -6.604   2.931  17.426  1.00  0.00     0.006 C 
HETATM   20  C11 UNL     1      -5.699   2.212  18.373  1.00  0.00     0.008 C 
HETATM   21  C14 UNL     1      -7.326   1.735  16.777  1.00  0.00     0.031 C 
HETATM   22  C12 UNL     1      -5.311   0.922  17.634  1.00  0.00     0.026 C 
HETATM   23  C13 UNL     1      -6.026   1.052  16.313  1.00  0.00     0.086 C 
ENDBRANCH  11  17
BRANCH  13  24
HETATM   24  C16 UNL     1      -3.841  -0.733  12.091  1.00  0.00     0.078 C 
BRANCH  24  25
HETATM   25  C17 UNL     1      -3.041  -0.845  10.834  1.00  0.00     0.033 C 
BRANCH  25  26
HETATM   26  C18 UNL     1      -2.005  -1.958  11.050  1.00  0.00     0.164 C 
BRANCH  26  27
HETATM   27  O1  UNL     1      -2.674  -3.195  11.131  1.00  0.00    -0.401 OA
ATOM     28  H1  UNL     1      -2.037  -3.879  11.305  1.00  0.00     0.209 HD
ENDBRANCH  26  27
ENDBRANCH  25  26
ENDBRANCH  24  25
ENDBRANCH  13  24
ENDBRANCH   8   9
TORSDOF 6
ENDMDL
MODEL 4
REMARK VINA RESULT: -7.665422423      1.327      1.953
REMARK  6 active torsions:
REMARK  status: ('A' for Active; 'I' for Inactive)
REMARK    1  A    between atoms: N2_8  and  C6_9 
REMARK    2  A    between atoms: C8_11  and  N3_12 
REMARK    3  A    between atoms: C15_21  and  C16_22 
REMARK    4  A    between atoms: C16_22  and  C17_23 
REMARK    5  A    between atoms: C17_23  and  C18_24 
REMARK    6  A    between atoms: C18_24  and  O1_25 
ROOT
HETATM    1  N1  UNL     1       0.347   5.177  11.622  1.00  0.00    -0.195 NA
HETATM    2  C1  UNL     1      -0.515   5.501  12.303  1.00  0.00     0.085 C 
HETATM    3  C2  UNL     1      -1.614   5.931  13.179  1.00  0.00     0.196 C 
HETATM    4  C3  UNL     1      -1.835   7.404  13.062  1.00  0.00     0.079 C 
HETATM    5  C4  UNL     1      -2.873   7.481  11.956  1.00  0.00     0.191 C 
HETATM    6  F1  UNL     1      -2.265   7.411  10.719  1.00  0.00    -0.248 F 
HETATM    7  C5  UNL     1      -3.735   6.240  12.200  1.00  0.00     0.163 C 
HETATM    8  N2  UNL     1      -2.846   5.313  12.829  1.00  0.00    -0.347 N 
ENDROOT
BRANCH   8   9
HETATM    9  C6  UNL     1      -3.183   3.929  13.057  1.00  0.00     0.109 A 
HETATM   10  C7  UNL     1      -3.868   3.578  14.201  1.00  0.00     0.096 A 
HETATM   11  C8  UNL     1      -4.197   2.240  14.440  1.00  0.00     0.108 A 
HETATM   12  N4  UNL     1      -3.818   1.367  13.520  1.00  0.00    -0.332 N 
HETATM   13  C15 UNL     1      -3.148   1.668  12.390  1.00  0.00     0.084 A 
ATOM     14  H4  UNL     1      -4.052   0.387  13.680  1.00  0.00     0.168 HD
HETATM   15  N5  UNL     1      -2.848   2.960  12.191  1.00  0.00    -0.332 N 
ATOM     16  H5  UNL     1      -2.342   3.217  11.345  1.00  0.00     0.168 HD
BRANCH  11  17
HETATM   17  N3  UNL     1      -4.896   1.838  15.598  1.00  0.00    -0.362 N 
HETATM   18  C9  UNL     1      -5.034   0.485  16.095  1.00  0.00     0.129 C 
HETATM   19  C10 UNL     1      -5.865   0.658  17.350  1.00  0.00     0.006 C 
HETATM   20  C11 UNL     1      -7.245   1.058  16.939  1.00  0.00     0.008 C 
HETATM   21  C14 UNL     1      -5.316   2.017  17.823  1.00  0.00     0.031 C 
HETATM   22  C12 UNL     1      -7.084   2.474  16.366  1.00  0.00     0.026 C 
HETATM   23  C13 UNL     1      -5.603   2.730  16.487  1.00  0.00     0.086 C 
ENDBRANCH  11  17
BRANCH  13  24
HETATM   24  C16 UNL     1      -2.804   0.575  11.476  1.00  0.00     0.078 C 
BRANCH  24  25
HETATM   25  C17 UNL     1      -3.941  -0.357  11.213  1.00  0.00     0.033 C 
BRANCH  25  26
HETATM   26  C18 UNL     1      -4.873   0.332  10.206  1.00  0.00     0.164 C 
BRANCH  26  27
HETATM   27  O1  UNL     1      -5.541   1.391  10.851  1.00  0.00    -0.401 OA
ATOM     28  H1  UNL     1      -6.419   1.464  10.496  1.00  0.00     0.209 HD
ENDBRANCH  26  27
ENDBRANCH  25  26
ENDBRANCH  24  25
ENDBRANCH  13  24
ENDBRANCH   8   9
TORSDOF 6
ENDMDL
MODEL 5
REMARK VINA RESULT: -7.653074471      1.409      1.540
REMARK  6 active torsions:
REMARK  status: ('A' for Active; 'I' for Inactive)
REMARK    1  A    between atoms: N2_8  and  C6_9 
REMARK    2  A    between atoms: C8_11  and  N3_12 
REMARK    3  A    between atoms: C15_21  and  C16_22 
REMARK    4  A    between atoms: C16_22  and  C17_23 
REMARK    5  A    between atoms: C17_23  and  C18_24 
REMARK    6  A    between atoms: C18_24  and  O1_25 
ROOT
HETATM    1  N1  UNL     1      -1.333   4.022   9.210  1.00  0.00    -0.195 NA
HETATM    2  C1  UNL     1      -1.102   4.092  10.330  1.00  0.00     0.085 C 
HETATM    3  C2  UNL     1      -0.793   4.188  11.764  1.00  0.00     0.196 C 
HETATM    4  C3  UNL     1       0.021   5.408  12.045  1.00  0.00     0.079 C 
HETATM    5  C4  UNL     1      -1.051   6.439  12.352  1.00  0.00     0.191 C 
HETATM    6  F1  UNL     1      -1.556   6.971  11.182  1.00  0.00    -0.248 F 
HETATM    7  C5  UNL     1      -2.124   5.622  13.075  1.00  0.00     0.163 C 
HETATM    8  N2  UNL     1      -1.969   4.299  12.555  1.00  0.00    -0.347 N 
ENDROOT
BRANCH   8   9
HETATM    9  C6  UNL     1      -2.910   3.236  12.812  1.00  0.00     0.109 A 
HETATM   10  C7  UNL     1      -3.665   3.264  13.965  1.00  0.00     0.096 A 
HETATM   11  C8  UNL     1      -4.577   2.238  14.232  1.00  0.00     0.108 A 
HETATM   12  N4  UNL     1      -4.659   1.273  13.329  1.00  0.00    -0.332 N 
HETATM   13  C15 UNL     1      -3.940   1.208  12.191  1.00  0.00     0.084 A 
ATOM     14  H4  UNL     1      -5.321   0.517  13.509  1.00  0.00     0.168 HD
HETATM   15  N5  UNL     1      -3.074   2.208  11.965  1.00  0.00    -0.332 N 
ATOM     16  H5  UNL     1      -2.517   2.186  11.112  1.00  0.00     0.168 HD
BRANCH  11  17
HETATM   17  N3  UNL     1      -5.369   2.228  15.399  1.00  0.00    -0.362 N 
HETATM   18  C9  UNL     1      -5.923   3.383  16.076  1.00  0.00     0.129 C 
HETATM   19  C10 UNL     1      -6.675   2.775  17.242  1.00  0.00     0.006 C 
HETATM   20  C11 UNL     1      -5.673   2.214  18.199  1.00  0.00     0.008 C 
HETATM   21  C14 UNL     1      -7.167   1.479  16.569  1.00  0.00     0.031 C 
HETATM   22  C12 UNL     1      -5.054   1.021  17.455  1.00  0.00     0.026 C 
HETATM   23  C13 UNL     1      -5.759   1.040  16.122  1.00  0.00     0.086 C 
ENDBRANCH  11  17
BRANCH  13  24
HETATM   24  C16 UNL     1      -4.155   0.066  11.299  1.00  0.00     0.078 C 
BRANCH  24  25
HETATM   25  C17 UNL     1      -3.805  -1.246  11.923  1.00  0.00     0.033 C 
BRANCH  25  26
HETATM   26  C18 UNL     1      -2.615  -1.821  11.141  1.00  0.00     0.164 C 
BRANCH  26  27
HETATM   27  O1  UNL     1      -2.700  -3.228  11.147  1.00  0.00    -0.401 OA
ATOM     28  H1  UNL     1      -2.008  -3.581  10.601  1.00  0.00     0.209 HD
ENDBRANCH  26  27
ENDBRANCH  25  26
ENDBRANCH  24  25
ENDBRANCH  13  24
ENDBRANCH   8   9
TORSDOF 6
ENDMDL
