MODEL 1
REMARK VINA RESULT: -7.135625021      0.000      0.000
REMARK  4 active torsions:
REMARK  status: ('A' for Active; 'I' for Inactive)
REMARK    1  A    between atoms: C2_2  and  C3_3 
REMARK    2  A    between atoms: C3_3  and  N1_4 
REMARK    3  A    between atoms: N2_7  and  C6_8 
REMARK    4  A    between atoms: N5_20  and  C12_21 
ROOT
HETATM    1  C6  UNL     1      12.634  -7.608   8.646  1.00  0.00     0.073 A 
HETATM    2  C7  UNL     1      13.949  -8.034   8.624  1.00  0.00     0.129 A 
HETATM    3 CL1  UNL     1      15.315  -6.954   8.844  1.00  0.00    -0.076 Cl
HETATM    4  C8  UNL     1      14.175  -9.389   8.488  1.00  0.00     0.271 A 
HETATM    5  O1  UNL     1      15.379  -9.773   8.466  1.00  0.00    -0.266 OA
HETATM    6  N3  UNL     1      13.175 -10.292   8.381  1.00  0.00    -0.306 N 
ATOM      7  H3  UNL     1      13.401 -11.281   8.284  1.00  0.00     0.170 HD
HETATM    8  C9  UNL     1      11.887  -9.907   8.400  1.00  0.00     0.139 A 
HETATM    9  C10 UNL     1      11.593  -8.560   8.532  1.00  0.00     0.055 A 
HETATM   10  C11 UNL     1      10.230  -8.461   8.499  1.00  0.00     0.125 A 
HETATM   11  N4  UNL     1       9.755  -9.736   8.352  1.00  0.00    -0.307 N 
ATOM     12  H4  UNL     1       8.766  -9.979   8.297  1.00  0.00     0.186 HD
HETATM   13  N5  UNL     1      10.738 -10.612   8.292  1.00  0.00    -0.271 N 
ENDROOT
BRANCH   1  14
HETATM   14  N2  UNL     1      12.346  -6.237   8.681  1.00  0.00    -0.375 N 
HETATM   15  C5  UNL     1      12.505  -5.364   7.545  1.00  0.00     0.153 C 
HETATM   16  C4  UNL     1      11.341  -4.364   7.377  1.00  0.00     0.292 C 
HETATM   17  N1  UNL     1      10.999  -3.615   8.508  1.00  0.00     0.095 N 
HETATM   18  C18 UNL     1      10.746  -4.571   9.572  1.00  0.00     0.292 C 
HETATM   19  C17 UNL     1      11.986  -5.418   9.807  1.00  0.00     0.153 C 
BRANCH  17  20
HETATM   20  C3  UNL     1      11.842  -2.527   8.872  1.00  0.00     0.299 C 
BRANCH  20  21
HETATM   21  C2  UNL     1      12.063  -1.607   7.724  1.00  0.00    -0.007 C 
HETATM   22  C1  UNL     1      13.277  -1.253   7.317  1.00  0.00     0.008 C 
ENDBRANCH  20  21
ENDBRANCH  17  20
ENDBRANCH   1  14
BRANCH  13  23
HETATM   23  C12 UNL     1      10.621 -12.074   8.137  1.00  0.00     0.114 C 
HETATM   24  C13 UNL     1       9.375 -12.477   7.408  1.00  0.00     0.053 C 
HETATM   25  C14 UNL     1       9.503 -13.962   7.087  1.00  0.00     0.169 C 
HETATM   26  O2  UNL     1      10.375 -14.580   7.962  1.00  0.00    -0.391 OA
HETATM   27  C15 UNL     1      10.148 -14.166   9.291  1.00  0.00     0.169 C 
HETATM   28  C16 UNL     1      10.870 -12.818   9.400  1.00  0.00     0.053 C 
ENDBRANCH  13  23
TORSDOF 4
ENDMDL
MODEL 2
REMARK VINA RESULT: -7.107036465      3.425      7.689
REMARK  4 active torsions:
REMARK  status: ('A' for Active; 'I' for Inactive)
REMARK    1  A    between atoms: C2_2  and  C3_3 
REMARK    2  A    between atoms: C3_3  and  N1_4 
REMARK    3  A    between atoms: N2_7  and  C6_8 
REMARK    4  A    between atoms: N5_20  and  C12_21 
ROOT
HETATM    1  C6  UNL     1      11.625  -7.704  10.491  1.00  0.00     0.073 A 
HETATM    2  C7  UNL     1      12.896  -8.236  10.374  1.00  0.00     0.129 A 
HETATM    3 CL1  UNL     1      13.335  -9.823  10.983  1.00  0.00    -0.076 Cl
HETATM    4  C8  UNL     1      13.833  -7.496   9.681  1.00  0.00     0.271 A 
HETATM    5  O1  UNL     1      14.994  -7.985   9.580  1.00  0.00    -0.266 OA
HETATM    6  N3  UNL     1      13.554  -6.296   9.125  1.00  0.00    -0.306 N 
ATOM      7  H3  UNL     1      14.286  -5.794   8.624  1.00  0.00     0.170 HD
HETATM    8  C9  UNL     1      12.327  -5.754   9.222  1.00  0.00     0.139 A 
HETATM    9  C10 UNL     1      11.343  -6.446   9.905  1.00  0.00     0.055 A 
HETATM   10  C11 UNL     1      10.224  -5.662   9.863  1.00  0.00     0.125 A 
HETATM   11  N4  UNL     1      10.569  -4.538   9.161  1.00  0.00    -0.307 N 
ATOM     12  H4  UNL     1       9.933  -3.765   8.965  1.00  0.00     0.186 HD
HETATM   13  N5  UNL     1      11.827  -4.582   8.771  1.00  0.00    -0.271 N 
ENDROOT
BRANCH   1  14
HETATM   14  N2  UNL     1      10.663  -8.363  11.266  1.00  0.00    -0.375 N 
HETATM   15  C5  UNL     1       9.662  -9.239  10.712  1.00  0.00     0.153 C 
HETATM   16  C4  UNL     1       9.445 -10.521  11.544  1.00  0.00     0.292 C 
HETATM   17  N1  UNL     1       9.213 -10.341  12.912  1.00  0.00     0.095 N 
HETATM   18  C18 UNL     1      10.321  -9.546  13.414  1.00  0.00     0.292 C 
HETATM   19  C17 UNL     1      10.382  -8.222  12.670  1.00  0.00     0.153 C 
BRANCH  17  20
HETATM   20  C3  UNL     1       7.925  -9.892  13.321  1.00  0.00     0.299 C 
BRANCH  20  21
HETATM   21  C2  UNL     1       6.853 -10.494  12.484  1.00  0.00    -0.007 C 
HETATM   22  C1  UNL     1       5.921  -9.762  11.884  1.00  0.00     0.008 C 
ENDBRANCH  20  21
ENDBRANCH  17  20
ENDBRANCH   1  14
BRANCH  13  23
HETATM   23  C12 UNL     1      12.555  -3.560   7.997  1.00  0.00     0.114 C 
HETATM   24  C13 UNL     1      12.081  -2.169   8.291  1.00  0.00     0.053 C 
HETATM   25  C14 UNL     1      13.072  -1.209   7.641  1.00  0.00     0.169 C 
HETATM   26  O2  UNL     1      13.736  -1.822   6.596  1.00  0.00    -0.391 OA
HETATM   27  C15 UNL     1      12.848  -2.567   5.792  1.00  0.00     0.169 C 
HETATM   28  C16 UNL     1      12.661  -3.886   6.550  1.00  0.00     0.053 C 
ENDBRANCH  13  23
TORSDOF 4
ENDMDL
MODEL 3
REMARK VINA RESULT: -7.105038364      1.097      1.466
REMARK  4 active torsions:
REMARK  status: ('A' for Active; 'I' for Inactive)
REMARK    1  A    between atoms: C2_2  and  C3_3 
REMARK    2  A    between atoms: C3_3  and  N1_4 
REMARK    3  A    between atoms: N2_7  and  C6_8 
REMARK    4  A    between atoms: N5_20  and  C12_21 
ROOT
HETATM    1  C6  UNL     1      12.126  -8.120   8.687  1.00  0.00     0.073 A 
HETATM    2  C7  UNL     1      13.460  -8.483   8.712  1.00  0.00     0.129 A 
HETATM    3 CL1  UNL     1      14.744  -7.397   9.214  1.00  0.00    -0.076 Cl
HETATM    4  C8  UNL     1      13.768  -9.788   8.386  1.00  0.00     0.271 A 
HETATM    5  O1  UNL     1      14.990 -10.114   8.408  1.00  0.00    -0.266 OA
HETATM    6  N3  UNL     1      12.830 -10.702   8.054  1.00  0.00    -0.306 N 
ATOM      7  H3  UNL     1      13.117 -11.653   7.824  1.00  0.00     0.170 HD
HETATM    8  C9  UNL     1      11.526 -10.378   8.022  1.00  0.00     0.139 A 
HETATM    9  C10 UNL     1      11.151  -9.084   8.337  1.00  0.00     0.055 A 
HETATM   10  C11 UNL     1       9.791  -9.036   8.203  1.00  0.00     0.125 A 
HETATM   11  N4  UNL     1       9.398 -10.290   7.819  1.00  0.00    -0.307 N 
ATOM     12  H4  UNL     1       8.431 -10.561   7.642  1.00  0.00     0.186 HD
HETATM   13  N5  UNL     1      10.429 -11.104   7.708  1.00  0.00    -0.271 N 
ENDROOT
BRANCH   1  14
HETATM   14  N2  UNL     1      11.763  -6.785   8.910  1.00  0.00    -0.375 N 
HETATM   15  C5  UNL     1      11.139  -6.325  10.126  1.00  0.00     0.153 C 
HETATM   16  C4  UNL     1      11.708  -4.982  10.632  1.00  0.00     0.292 C 
HETATM   17  N1  UNL     1      11.759  -3.940   9.701  1.00  0.00     0.095 N 
HETATM   18  C18 UNL     1      12.497  -4.447   8.558  1.00  0.00     0.292 C 
HETATM   19  C17 UNL     1      11.798  -5.674   7.997  1.00  0.00     0.153 C 
BRANCH  17  20
HETATM   20  C3  UNL     1      10.545  -3.270   9.376  1.00  0.00     0.299 C 
BRANCH  20  21
HETATM   21  C2  UNL     1      10.808  -1.925   8.798  1.00  0.00    -0.007 C 
HETATM   22  C1  UNL     1      10.848  -1.707   7.489  1.00  0.00     0.008 C 
ENDBRANCH  20  21
ENDBRANCH  17  20
ENDBRANCH   1  14
BRANCH  13  23
HETATM   23  C12 UNL     1      10.404 -12.526   7.317  1.00  0.00     0.114 C 
HETATM   24  C13 UNL     1       9.012 -13.038   7.101  1.00  0.00     0.053 C 
HETATM   25  C14 UNL     1       9.135 -14.415   6.457  1.00  0.00     0.169 C 
HETATM   26  O2  UNL     1      10.360 -14.985   6.748  1.00  0.00    -0.391 OA
HETATM   27  C15 UNL     1      10.696 -14.812   8.106  1.00  0.00     0.169 C 
HETATM   28  C16 UNL     1      11.254 -13.386   8.183  1.00  0.00     0.053 C 
ENDBRANCH  13  23
TORSDOF 4
ENDMDL
MODEL 4
REMARK VINA RESULT: -7.096295831      3.391      7.755
REMARK  4 active torsions:
REMARK  status: ('A' for Active; 'I' for Inactive)
REMARK    1  A    between atoms: C2_2  and  C3_3 
REMARK    2  A    between atoms: C3_3  and  N1_4 
REMARK    3  A    between atoms: N2_7  and  C6_8 
REMARK    4  A    between atoms: N5_20  and  C12_21 
ROOT
HETATM    1  C6  UNL     1      12.105  -7.967  10.228  1.00  0.00     0.073 A 
HETATM    2  C7  UNL     1      13.390  -8.422   9.994  1.00  0.00     0.129 A 
HETATM    3 CL1  UNL     1      13.947 -10.019  10.461  1.00  0.00    -0.076 Cl
HETATM    4  C8  UNL     1      14.241  -7.587   9.297  1.00  0.00     0.271 A 
HETATM    5  O1  UNL     1      15.415  -8.006   9.088  1.00  0.00    -0.266 OA
HETATM    6  N3  UNL     1      13.866  -6.370   8.845  1.00  0.00    -0.306 N 
ATOM      7  H3  UNL     1      14.538  -5.797   8.335  1.00  0.00     0.170 HD
HETATM    8  C9  UNL     1      12.623  -5.903   9.056  1.00  0.00     0.139 A 
HETATM    9  C10 UNL     1      11.722  -6.691   9.751  1.00  0.00     0.055 A 
HETATM   10  C11 UNL     1      10.566  -5.967   9.835  1.00  0.00     0.125 A 
HETATM   11  N4  UNL     1      10.807  -4.782   9.193  1.00  0.00    -0.307 N 
ATOM     12  H4  UNL     1      10.122  -4.033   9.092  1.00  0.00     0.186 HD
HETATM   13  N5  UNL     1      12.037  -4.731   8.722  1.00  0.00    -0.271 N 
ENDROOT
BRANCH   1  14
HETATM   14  N2  UNL     1      11.230  -8.728  11.014  1.00  0.00    -0.375 N 
HETATM   15  C5  UNL     1      11.278  -8.755  12.455  1.00  0.00     0.153 C 
HETATM   16  C4  UNL     1       9.883  -8.703  13.113  1.00  0.00     0.292 C 
HETATM   17  N1  UNL     1       8.945  -9.633  12.652  1.00  0.00     0.095 N 
HETATM   18  C18 UNL     1       8.874  -9.463  11.211  1.00  0.00     0.292 C 
HETATM   19  C17 UNL     1      10.246  -9.691  10.599  1.00  0.00     0.153 C 
BRANCH  17  20
HETATM   20  C3  UNL     1       9.069 -10.983  13.088  1.00  0.00     0.299 C 
BRANCH  20  21
HETATM   21  C2  UNL     1       8.583 -11.146  14.484  1.00  0.00    -0.007 C 
HETATM   22  C1  UNL     1       7.334 -10.868  14.842  1.00  0.00     0.008 C 
ENDBRANCH  20  21
ENDBRANCH  17  20
ENDBRANCH   1  14
BRANCH  13  23
HETATM   23  C12 UNL     1      12.660  -3.622   7.977  1.00  0.00     0.114 C 
HETATM   24  C13 UNL     1      12.025  -2.299   8.277  1.00  0.00     0.053 C 
HETATM   25  C14 UNL     1      12.914  -1.224   7.661  1.00  0.00     0.169 C 
HETATM   26  O2  UNL     1      13.665  -1.742   6.624  1.00  0.00    -0.391 OA
HETATM   27  C15 UNL     1      12.885  -2.571   5.791  1.00  0.00     0.169 C 
HETATM   28  C16 UNL     1      12.832  -3.914   6.529  1.00  0.00     0.053 C 
ENDBRANCH  13  23
TORSDOF 4
ENDMDL
MODEL 5
REMARK VINA RESULT: -6.932173933      0.570      1.062
REMARK  4 active torsions:
REMARK  status: ('A' for Active; 'I' for Inactive)
REMARK    1  A    between atoms: C2_2  and  C3_3 
REMARK    2  A    between atoms: C3_3  and  N1_4 
REMARK    3  A    between atoms: N2_7  and  C6_8 
REMARK    4  A    between atoms: N5_20  and  C12_21 
ROOT
HETATM    1  C6  UNL     1      12.598  -7.546   8.809  1.00  0.00     0.073 A 
HETATM    2  C7  UNL     1      13.900  -7.995   8.682  1.00  0.00     0.129 A 
HETATM    3 CL1  UNL     1      15.293  -6.927   8.696  1.00  0.00    -0.076 Cl
HETATM    4  C8  UNL     1      14.096  -9.360   8.609  1.00  0.00     0.271 A 
HETATM    5  O1  UNL     1      15.288  -9.765   8.490  1.00  0.00    -0.266 OA
HETATM    6  N3  UNL     1      13.081 -10.250   8.659  1.00  0.00    -0.306 N 
ATOM      7  H3  UNL     1      13.286 -11.248   8.602  1.00  0.00     0.170 HD
HETATM    8  C9  UNL     1      11.805  -9.843   8.783  1.00  0.00     0.139 A 
HETATM    9  C10 UNL     1      11.541  -8.486   8.859  1.00  0.00     0.055 A 
HETATM   10  C11 UNL     1      10.183  -8.366   8.957  1.00  0.00     0.125 A 
HETATM   11  N4  UNL     1       9.682  -9.640   8.939  1.00  0.00    -0.307 N 
ATOM     12  H4  UNL     1       8.690  -9.868   8.999  1.00  0.00     0.186 HD
HETATM   13  N5  UNL     1      10.645 -10.534   8.836  1.00  0.00    -0.271 N 
ENDROOT
BRANCH   1  14
HETATM   14  N2  UNL     1      12.331  -6.171   8.786  1.00  0.00    -0.375 N 
HETATM   15  C5  UNL     1      12.500  -5.349   7.615  1.00  0.00     0.153 C 
HETATM   16  C4  UNL     1      11.351  -4.340   7.406  1.00  0.00     0.292 C 
HETATM   17  N1  UNL     1      11.021  -3.539   8.504  1.00  0.00     0.095 N 
HETATM   18  C18 UNL     1      10.756  -4.446   9.607  1.00  0.00     0.292 C 
HETATM   19  C17 UNL     1      11.984  -5.301   9.877  1.00  0.00     0.153 C 
BRANCH  17  20
HETATM   20  C3  UNL     1      11.880  -2.450   8.822  1.00  0.00     0.299 C 
BRANCH  20  21
HETATM   21  C2  UNL     1      12.085  -1.562   7.646  1.00  0.00    -0.007 C 
HETATM   22  C1  UNL     1      13.294  -1.223   7.210  1.00  0.00     0.008 C 
ENDBRANCH  20  21
ENDBRANCH  17  20
ENDBRANCH   1  14
BRANCH  13  23
HETATM   23  C12 UNL     1      10.497 -12.000   8.785  1.00  0.00     0.114 C 
HETATM   24  C13 UNL     1      11.224 -12.691   9.898  1.00  0.00     0.053 C 
HETATM   25  C14 UNL     1      10.783 -14.150   9.887  1.00  0.00     0.169 C 
HETATM   26  O2  UNL     1      10.324 -14.515   8.636  1.00  0.00    -0.391 OA
HETATM   27  C15 UNL     1      11.171 -14.030   7.618  1.00  0.00     0.169 C 
HETATM   28  C16 UNL     1      10.749 -12.567   7.434  1.00  0.00     0.053 C 
ENDBRANCH  13  23
TORSDOF 4
ENDMDL
