MODEL 1
REMARK VINA RESULT: -7.926672413      0.000      0.000
REMARK  5 active torsions:
REMARK  status: ('A' for Active; 'I' for Inactive)
REMARK    1  A    between atoms: C2_5  and  O2_6 
REMARK    2  A    between atoms: O2_6  and  C3_7 
REMARK    3  A    between atoms: C3_7  and  C4_8 
REMARK    4  A    between atoms: C9_14  and  N2_15 
REMARK    5  A    between atoms: C12_18  and  C13_19 
ROOT
HETATM    1  O1  UNL     1      11.591  -6.216  13.320  1.00  0.00    -0.265 OA
HETATM    2  C1  UNL     1      11.363  -6.169  12.073  1.00  0.00     0.288 A 
HETATM    3  N1  UNL     1      11.486  -5.023  11.425  1.00  0.00    -0.301 N 
ATOM      4  H1  UNL     1      11.765  -4.200  11.959  1.00  0.00     0.171 HD
HETATM    5  C2  UNL     1      11.258  -4.870  10.057  1.00  0.00     0.147 A 
HETATM    6  C8  UNL     1      10.879  -6.049   9.402  1.00  0.00     0.088 A 
HETATM    7  C9  UNL     1      10.740  -7.262  10.035  1.00  0.00     0.079 A 
HETATM    8  C18 UNL     1      10.991  -7.297  11.389  1.00  0.00     0.210 A 
HETATM    9  F1  UNL     1      10.870  -8.465  12.072  1.00  0.00    -0.198 F 
ENDROOT
BRANCH   7  10
HETATM   10  N2  UNL     1      10.351  -8.446   9.325  1.00  0.00    -0.378 N 
HETATM   11  C10 UNL     1      11.422  -9.318   8.869  1.00  0.00     0.123 C 
HETATM   12  C11 UNL     1      10.781 -10.259   7.845  1.00  0.00     0.031 C 
HETATM   13  C12 UNL     1       9.803 -11.105   8.623  1.00  0.00     0.046 C 
HETATM   14  C16 UNL     1       8.694 -10.259   9.148  1.00  0.00     0.031 C 
HETATM   15  C17 UNL     1       8.977  -8.782   9.065  1.00  0.00     0.123 C 
BRANCH  13  16
HETATM   16  C13 UNL     1       9.265 -12.144   7.670  1.00  0.00     0.054 A 
HETATM   17  N3  UNL     1       8.503 -11.966   6.604  1.00  0.00    -0.363 N 
HETATM   18  C14 UNL     1       8.134 -12.985   5.896  1.00  0.00     0.095 A 
ATOM     19  H3  UNL     1       8.207 -11.026   6.340  1.00  0.00     0.165 HD
HETATM   20  C15 UNL     1       8.565 -14.228   6.301  1.00  0.00     0.068 A 
HETATM   21  S1  UNL     1       9.482 -13.837   7.689  1.00  0.00    -0.087 SA
ENDBRANCH  13  16
ENDBRANCH   7  10
BRANCH   5  22
HETATM   22  O2  UNL     1      11.409  -3.690   9.500  1.00  0.00    -0.335 OA
BRANCH  22  23
HETATM   23  C3  UNL     1      10.951  -2.632   8.907  1.00  0.00     0.184 C 
BRANCH  23  24
HETATM   24  C4  UNL     1      11.367  -2.208   7.537  1.00  0.00     0.036 C 
HETATM   25  C5  UNL     1      12.617  -1.439   7.382  1.00  0.00     0.035 C 
HETATM   26  C6  UNL     1      13.114  -1.884   5.999  1.00  0.00     0.168 C 
HETATM   27  O3  UNL     1      12.559  -3.110   5.742  1.00  0.00    -0.391 OA
HETATM   28  C7  UNL     1      11.644  -3.463   6.693  1.00  0.00     0.174 C 
ENDBRANCH  23  24
ENDBRANCH  22  23
ENDBRANCH   5  22
TORSDOF 5
ENDMDL
MODEL 2
REMARK VINA RESULT: -7.705926040      0.478      1.092
REMARK  5 active torsions:
REMARK  status: ('A' for Active; 'I' for Inactive)
REMARK    1  A    between atoms: C2_5  and  O2_6 
REMARK    2  A    between atoms: O2_6  and  C3_7 
REMARK    3  A    between atoms: C3_7  and  C4_8 
REMARK    4  A    between atoms: C9_14  and  N2_15 
REMARK    5  A    between atoms: C12_18  and  C13_19 
ROOT
HETATM    1  O1  UNL     1      11.503  -5.944  13.494  1.00  0.00    -0.265 OA
HETATM    2  C1  UNL     1      11.324  -6.006  12.240  1.00  0.00     0.288 A 
HETATM    3  N1  UNL     1      11.445  -4.916  11.503  1.00  0.00    -0.301 N 
ATOM      4  H1  UNL     1      11.683  -4.044  11.976  1.00  0.00     0.171 HD
HETATM    5  C2  UNL     1      11.267  -4.883  10.119  1.00  0.00     0.147 A 
HETATM    6  C8  UNL     1      10.942  -6.122   9.552  1.00  0.00     0.088 A 
HETATM    7  C9  UNL     1      10.807  -7.281  10.279  1.00  0.00     0.079 A 
HETATM    8  C18 UNL     1      11.005  -7.197  11.640  1.00  0.00     0.210 A 
HETATM    9  F1  UNL     1      10.886  -8.307  12.413  1.00  0.00    -0.198 F 
ENDROOT
BRANCH   7  10
HETATM   10  N2  UNL     1      10.475  -8.530   9.657  1.00  0.00    -0.378 N 
HETATM   11  C10 UNL     1       9.085  -8.724   9.278  1.00  0.00     0.123 C 
HETATM   12  C11 UNL     1       8.934 -10.224   9.011  1.00  0.00     0.031 C 
HETATM   13  C12 UNL     1       9.784 -10.510   7.797  1.00  0.00     0.046 C 
HETATM   14  C16 UNL     1      11.223 -10.297   8.115  1.00  0.00     0.031 C 
HETATM   15  C17 UNL     1      11.448  -9.559   9.408  1.00  0.00     0.123 C 
BRANCH  13  16
HETATM   16  C13 UNL     1       9.537 -11.951   7.418  1.00  0.00     0.054 A 
HETATM   17  N3  UNL     1       8.508 -12.464   6.764  1.00  0.00    -0.363 N 
HETATM   18  C14 UNL     1       8.464 -13.735   6.524  1.00  0.00     0.095 A 
ATOM     19  H3  UNL     1       7.750 -11.858   6.449  1.00  0.00     0.165 HD
HETATM   20  C15 UNL     1       9.515 -14.501   6.973  1.00  0.00     0.068 A 
HETATM   21  S1  UNL     1      10.504 -13.324   7.717  1.00  0.00    -0.087 SA
ENDBRANCH  13  16
ENDBRANCH   7  10
BRANCH   5  22
HETATM   22  O2  UNL     1      11.412  -3.749   9.471  1.00  0.00    -0.335 OA
BRANCH  22  23
HETATM   23  C3  UNL     1      10.943  -2.688   8.892  1.00  0.00     0.184 C 
BRANCH  23  24
HETATM   24  C4  UNL     1      11.375  -2.227   7.540  1.00  0.00     0.036 C 
HETATM   25  C5  UNL     1      12.628  -1.458   7.420  1.00  0.00     0.035 C 
HETATM   26  C6  UNL     1      13.139  -1.864   6.030  1.00  0.00     0.168 C 
HETATM   27  O3  UNL     1      12.584  -3.081   5.733  1.00  0.00    -0.391 OA
HETATM   28  C7  UNL     1      11.658  -3.458   6.663  1.00  0.00     0.174 C 
ENDBRANCH  23  24
ENDBRANCH  22  23
ENDBRANCH   5  22
TORSDOF 5
ENDMDL
MODEL 3
REMARK VINA RESULT: -7.650266965      3.328      4.482
REMARK  5 active torsions:
REMARK  status: ('A' for Active; 'I' for Inactive)
REMARK    1  A    between atoms: C2_5  and  O2_6 
REMARK    2  A    between atoms: O2_6  and  C3_7 
REMARK    3  A    between atoms: C3_7  and  C4_8 
REMARK    4  A    between atoms: C9_14  and  N2_15 
REMARK    5  A    between atoms: C12_18  and  C13_19 
ROOT
HETATM    1  O1  UNL     1      16.510  -8.623   8.853  1.00  0.00    -0.265 OA
HETATM    2  C1  UNL     1      15.387  -8.035   8.787  1.00  0.00     0.288 A 
HETATM    3  N1  UNL     1      15.254  -6.954   8.040  1.00  0.00    -0.301 N 
ATOM      4  H1  UNL     1      16.073  -6.620   7.532  1.00  0.00     0.171 HD
HETATM    5  C2  UNL     1      14.062  -6.239   7.904  1.00  0.00     0.147 A 
HETATM    6  C8  UNL     1      12.990  -6.765   8.635  1.00  0.00     0.088 A 
HETATM    7  C9  UNL     1      13.082  -7.888   9.423  1.00  0.00     0.079 A 
HETATM    8  C18 UNL     1      14.308  -8.514   9.484  1.00  0.00     0.210 A 
HETATM    9  F1  UNL     1      14.464  -9.628  10.246  1.00  0.00    -0.198 F 
ENDROOT
BRANCH   7  10
HETATM   10  N2  UNL     1      11.957  -8.395  10.155  1.00  0.00    -0.378 N 
HETATM   11  C10 UNL     1      11.640  -7.731  11.410  1.00  0.00     0.123 C 
HETATM   12  C11 UNL     1      10.687  -8.676  12.147  1.00  0.00     0.031 C 
HETATM   13  C12 UNL     1       9.426  -8.715  11.317  1.00  0.00     0.046 C 
HETATM   14  C16 UNL     1       9.697  -9.357  10.001  1.00  0.00     0.031 C 
HETATM   15  C17 UNL     1      11.164  -9.502   9.695  1.00  0.00     0.123 C 
BRANCH  13  16
HETATM   16  C13 UNL     1       8.412  -9.518  12.095  1.00  0.00     0.054 A 
HETATM   17  N3  UNL     1       8.324  -9.684  13.405  1.00  0.00    -0.363 N 
HETATM   18  C14 UNL     1       7.378 -10.415  13.901  1.00  0.00     0.095 A 
ATOM     19  H3  UNL     1       9.001  -9.235  14.022  1.00  0.00     0.165 HD
HETATM   20  C15 UNL     1       6.495 -10.993  13.019  1.00  0.00     0.068 A 
HETATM   21  S1  UNL     1       7.096 -10.438  11.519  1.00  0.00    -0.087 SA
ENDBRANCH  13  16
ENDBRANCH   7  10
BRANCH   5  22
HETATM   22  O2  UNL     1      14.026  -5.175   7.134  1.00  0.00    -0.335 OA
BRANCH  22  23
HETATM   23  C3  UNL     1      13.472  -4.430   6.229  1.00  0.00     0.184 C 
BRANCH  23  24
HETATM   24  C4  UNL     1      12.313  -3.528   6.498  1.00  0.00     0.036 C 
HETATM   25  C5  UNL     1      11.775  -3.455   7.870  1.00  0.00     0.035 C 
HETATM   26  C6  UNL     1      11.272  -2.007   7.956  1.00  0.00     0.168 C 
HETATM   27  O3  UNL     1      11.968  -1.279   7.028  1.00  0.00    -0.391 OA
HETATM   28  C7  UNL     1      12.745  -2.075   6.236  1.00  0.00     0.174 C 
ENDBRANCH  23  24
ENDBRANCH  22  23
ENDBRANCH   5  22
TORSDOF 5
ENDMDL
MODEL 4
REMARK VINA RESULT: -7.612676505      2.356      2.736
REMARK  5 active torsions:
REMARK  status: ('A' for Active; 'I' for Inactive)
REMARK    1  A    between atoms: C2_5  and  O2_6 
REMARK    2  A    between atoms: O2_6  and  C3_7 
REMARK    3  A    between atoms: C3_7  and  C4_8 
REMARK    4  A    between atoms: C9_14  and  N2_15 
REMARK    5  A    between atoms: C12_18  and  C13_19 
ROOT
HETATM    1  O1  UNL     1      15.443  -6.797   9.455  1.00  0.00    -0.265 OA
HETATM    2  C1  UNL     1      14.203  -6.988   9.263  1.00  0.00     0.288 A 
HETATM    3  N1  UNL     1      13.379  -5.956   9.218  1.00  0.00    -0.301 N 
ATOM      4  H1  UNL     1      13.773  -5.023   9.341  1.00  0.00     0.171 HD
HETATM    5  C2  UNL     1      12.002  -6.064   9.012  1.00  0.00     0.147 A 
HETATM    6  C8  UNL     1      11.546  -7.379   8.853  1.00  0.00     0.088 A 
HETATM    7  C9  UNL     1      12.367  -8.480   8.892  1.00  0.00     0.079 A 
HETATM    8  C18 UNL     1      13.711  -8.256   9.101  1.00  0.00     0.210 A 
HETATM    9  F1  UNL     1      14.573  -9.304   9.150  1.00  0.00    -0.198 F 
ENDROOT
BRANCH   7  10
HETATM   10  N2  UNL     1      11.858  -9.811   8.722  1.00  0.00    -0.378 N 
HETATM   11  C10 UNL     1      11.364 -10.160   7.400  1.00  0.00     0.123 C 
HETATM   12  C11 UNL     1      10.552 -11.444   7.588  1.00  0.00     0.031 C 
HETATM   13  C12 UNL     1      11.548 -12.501   7.998  1.00  0.00     0.046 C 
HETATM   14  C16 UNL     1      12.117 -12.181   9.337  1.00  0.00     0.031 C 
HETATM   15  C17 UNL     1      11.827 -10.774   9.789  1.00  0.00     0.123 C 
BRANCH  13  16
HETATM   16  C13 UNL     1      10.803 -13.813   8.043  1.00  0.00     0.054 A 
HETATM   17  N3  UNL     1      10.820 -14.800   7.162  1.00  0.00    -0.363 N 
HETATM   18  C14 UNL     1      10.110 -15.862   7.368  1.00  0.00     0.095 A 
ATOM     19  H3  UNL     1      11.393 -14.722   6.321  1.00  0.00     0.165 HD
HETATM   20  C15 UNL     1       9.359 -15.909   8.520  1.00  0.00     0.068 A 
HETATM   21  S1  UNL     1       9.732 -14.402   9.234  1.00  0.00    -0.087 SA
ENDBRANCH  13  16
ENDBRANCH   7  10
BRANCH   5  22
HETATM   22  O2  UNL     1      11.262  -4.979   8.980  1.00  0.00    -0.335 OA
BRANCH  22  23
HETATM   23  C3  UNL     1      11.111  -3.692   8.916  1.00  0.00     0.184 C 
BRANCH  23  24
HETATM   24  C4  UNL     1      11.366  -2.892   7.682  1.00  0.00     0.036 C 
HETATM   25  C5  UNL     1      12.459  -1.900   7.693  1.00  0.00     0.035 C 
HETATM   26  C6  UNL     1      12.938  -1.912   6.235  1.00  0.00     0.168 C 
HETATM   27  O3  UNL     1      12.581  -3.122   5.700  1.00  0.00    -0.391 OA
HETATM   28  C7  UNL     1      11.798  -3.844   6.554  1.00  0.00     0.174 C 
ENDBRANCH  23  24
ENDBRANCH  22  23
ENDBRANCH   5  22
TORSDOF 5
ENDMDL
MODEL 5
REMARK VINA RESULT: -7.607677257      0.953      1.004
REMARK  5 active torsions:
REMARK  status: ('A' for Active; 'I' for Inactive)
REMARK    1  A    between atoms: C2_5  and  O2_6 
REMARK    2  A    between atoms: O2_6  and  C3_7 
REMARK    3  A    between atoms: C3_7  and  C4_8 
REMARK    4  A    between atoms: C9_14  and  N2_15 
REMARK    5  A    between atoms: C12_18  and  C13_19 
ROOT
HETATM    1  O1  UNL     1      11.686  -6.115  13.327  1.00  0.00    -0.265 OA
HETATM    2  C1  UNL     1      11.314  -6.039  12.116  1.00  0.00     0.288 A 
HETATM    3  N1  UNL     1      11.489  -4.915  11.445  1.00  0.00    -0.301 N 
ATOM      4  H1  UNL     1      11.925  -4.130  11.930  1.00  0.00     0.171 HD
HETATM    5  C2  UNL     1      11.114  -4.733  10.112  1.00  0.00     0.147 A 
HETATM    6  C8  UNL     1      10.523  -5.858   9.523  1.00  0.00     0.088 A 
HETATM    7  C9  UNL     1      10.323  -7.047  10.183  1.00  0.00     0.079 A 
HETATM    8  C18 UNL     1      10.732  -7.114  11.497  1.00  0.00     0.210 A 
HETATM    9  F1  UNL     1      10.561  -8.262  12.203  1.00  0.00    -0.198 F 
ENDROOT
BRANCH   7  10
HETATM   10  N2  UNL     1       9.715  -8.177   9.541  1.00  0.00    -0.378 N 
HETATM   11  C10 UNL     1      10.607  -9.235   9.095  1.00  0.00     0.123 C 
HETATM   12  C11 UNL     1       9.780 -10.095   8.135  1.00  0.00     0.031 C 
HETATM   13  C12 UNL     1       8.702 -10.730   8.979  1.00  0.00     0.046 C 
HETATM   14  C16 UNL     1       7.771  -9.687   9.494  1.00  0.00     0.031 C 
HETATM   15  C17 UNL     1       8.296  -8.285   9.335  1.00  0.00     0.123 C 
BRANCH  13  16
HETATM   16  C13 UNL     1       7.963 -11.702   8.091  1.00  0.00     0.054 A 
HETATM   17  N3  UNL     1       6.695 -12.071   8.153  1.00  0.00    -0.363 N 
HETATM   18  C14 UNL     1       6.228 -12.924   7.298  1.00  0.00     0.095 A 
ATOM     19  H3  UNL     1       6.085 -11.683   8.873  1.00  0.00     0.165 HD
HETATM   20  C15 UNL     1       7.097 -13.412   6.350  1.00  0.00     0.068 A 
HETATM   21  S1  UNL     1       8.543 -12.598   6.760  1.00  0.00    -0.087 SA
ENDBRANCH  13  16
ENDBRANCH   7  10
BRANCH   5  22
HETATM   22  O2  UNL     1      11.332  -3.577   9.527  1.00  0.00    -0.335 OA
BRANCH  22  23
HETATM   23  C3  UNL     1      10.934  -2.510   8.906  1.00  0.00     0.184 C 
BRANCH  23  24
HETATM   24  C4  UNL     1      11.372  -2.148   7.525  1.00  0.00     0.036 C 
HETATM   25  C5  UNL     1      12.647  -1.424   7.353  1.00  0.00     0.035 C 
HETATM   26  C6  UNL     1      13.138  -1.932   5.990  1.00  0.00     0.168 C 
HETATM   27  O3  UNL     1      12.546  -3.149   5.772  1.00  0.00    -0.391 OA
HETATM   28  C7  UNL     1      11.615  -3.439   6.727  1.00  0.00     0.174 C 
ENDBRANCH  23  24
ENDBRANCH  22  23
ENDBRANCH   5  22
TORSDOF 5
ENDMDL
