MODEL 1
REMARK VINA RESULT: -7.929485129      0.000      0.000
REMARK  5 active torsions:
REMARK  status: ('A' for Active; 'I' for Inactive)
REMARK    1  A    between atoms: C3_3  and  C4_4 
REMARK    2  A    between atoms: C6_6  and  C7_7 
REMARK    3  A    between atoms: C7_7  and  N1_8 
REMARK    4  A    between atoms: C11_14  and  N3_15 
REMARK    5  A    between atoms: C14_18  and  O1_19 
ROOT
HETATM    1  C1  UNL     1      11.420  -1.416   6.921  1.00  0.00     0.012 C 
HETATM    2  C2  UNL     1      11.052  -2.003   7.909  1.00  0.00    -0.111 C 
HETATM    3  C3  UNL     1      10.589  -2.749   9.106  1.00  0.00     0.152 C 
ENDROOT
BRANCH   3   4
HETATM    4  C4  UNL     1      11.485  -3.913   9.326  1.00  0.00     0.046 A 
HETATM    5  C5  UNL     1      11.970  -4.787   8.361  1.00  0.00     0.068 A 
HETATM    6  C6  UNL     1      12.768  -5.728   9.007  1.00  0.00     0.116 A 
HETATM    7  O2  UNL     1      12.742  -5.413  10.261  1.00  0.00    -0.236 OA
HETATM    8  N5  UNL     1      12.003  -4.361  10.482  1.00  0.00    -0.264 N 
ATOM      9  H5  UNL     1      11.843  -3.940  11.397  1.00  0.00     0.194 HD
BRANCH   6  10
HETATM   10  C7  UNL     1      13.482  -6.842   8.351  1.00  0.00     0.129 C 
BRANCH  10  11
HETATM   11  N1  UNL     1      13.287  -8.120   8.896  1.00  0.00    -0.361 N 
HETATM   12  C8  UNL     1      12.305  -8.970   8.350  1.00  0.00     0.070 C 
HETATM   13  C9  UNL     1      12.790 -10.376   8.035  1.00  0.00     0.104 C 
HETATM   14  C10 UNL     1      13.257 -10.943   9.335  1.00  0.00     0.056 A 
HETATM   15  N2  UNL     1      13.119 -12.070  10.023  1.00  0.00    -0.193 N 
HETATM   16  C18 UNL     1      14.041 -10.084  10.086  1.00  0.00     0.068 A 
HETATM   17  C11 UNL     1      13.788 -11.987  11.221  1.00  0.00     0.681 A 
ATOM     18  H2  UNL     1      12.590 -12.884   9.708  1.00  0.00     0.184 HD
HETATM   19  N4  UNL     1      14.335 -10.748  11.205  1.00  0.00    -0.192 N 
ATOM     20  H4  UNL     1      14.904 -10.367  11.961  1.00  0.00     0.184 HD
HETATM   21  C19 UNL     1      14.386  -8.730   9.579  1.00  0.00     0.187 C 
BRANCH  17  22
HETATM   22  N3  UNL     1      13.867 -13.004  12.201  1.00  0.00    -0.215 N 
HETATM   23  C12 UNL     1      14.347 -12.711  13.540  1.00  0.00     0.144 C 
HETATM   24  C13 UNL     1      15.616 -13.521  13.785  1.00  0.00     0.055 C 
HETATM   25  C14 UNL     1      15.387 -14.998  13.497  1.00  0.00     0.158 C 
HETATM   26  C16 UNL     1      14.829 -15.180  12.132  1.00  0.00     0.217 C 
HETATM   27  F1  UNL     1      14.649 -16.501  11.845  1.00  0.00    -0.245 F 
HETATM   28  C17 UNL     1      13.539 -14.396  11.895  1.00  0.00     0.181 C 
BRANCH  25  29
HETATM   29  O1  UNL     1      16.670 -15.568  13.503  1.00  0.00    -0.388 OA
HETATM   30  C15 UNL     1      17.301 -15.446  14.723  1.00  0.00     0.202 C 
ENDBRANCH  25  29
ENDBRANCH  17  22
ENDBRANCH  10  11
ENDBRANCH   6  10
ENDBRANCH   3   4
TORSDOF 5
ENDMDL
MODEL 2
REMARK VINA RESULT: -7.908978223      4.936      5.918
REMARK  5 active torsions:
REMARK  status: ('A' for Active; 'I' for Inactive)
REMARK    1  A    between atoms: C3_3  and  C4_4 
REMARK    2  A    between atoms: C6_6  and  C7_7 
REMARK    3  A    between atoms: C7_7  and  N1_8 
REMARK    4  A    between atoms: C11_14  and  N3_15 
REMARK    5  A    between atoms: C14_18  and  O1_19 
ROOT
HETATM    1  C1  UNL     1      10.566  -1.911   9.017  1.00  0.00     0.012 C 
HETATM    2  C2  UNL     1      11.006  -2.139   7.917  1.00  0.00    -0.111 C 
HETATM    3  C3  UNL     1      11.573  -2.405   6.571  1.00  0.00     0.152 C 
ENDROOT
BRANCH   3   4
HETATM    4  C4  UNL     1      12.578  -3.493   6.678  1.00  0.00     0.046 A 
HETATM    5  C5  UNL     1      12.693  -4.425   7.703  1.00  0.00     0.068 A 
HETATM    6  C6  UNL     1      13.771  -5.254   7.400  1.00  0.00     0.116 A 
HETATM    7  O2  UNL     1      14.242  -4.824   6.274  1.00  0.00    -0.236 OA
HETATM    8  N5  UNL     1      13.571  -3.800   5.826  1.00  0.00    -0.264 N 
ATOM      9  H5  UNL     1      13.770  -3.304   4.957  1.00  0.00     0.194 HD
BRANCH   6  10
HETATM   10  C7  UNL     1      14.243  -6.383   8.226  1.00  0.00     0.129 C 
BRANCH  10  11
HETATM   11  N1  UNL     1      13.613  -7.619   8.019  1.00  0.00    -0.361 N 
HETATM   12  C8  UNL     1      14.320  -8.669   7.401  1.00  0.00     0.070 C 
HETATM   13  C9  UNL     1      14.252  -9.996   8.138  1.00  0.00     0.104 C 
HETATM   14  C10 UNL     1      12.804 -10.353   8.197  1.00  0.00     0.056 A 
HETATM   15  N2  UNL     1      12.042 -11.418   7.974  1.00  0.00    -0.193 N 
HETATM   16  C18 UNL     1      11.971  -9.308   8.559  1.00  0.00     0.068 A 
HETATM   17  C11 UNL     1      10.717 -11.112   8.173  1.00  0.00     0.681 A 
ATOM     18  H2  UNL     1      12.391 -12.335   7.694  1.00  0.00     0.184 HD
HETATM   19  N4  UNL     1      10.733  -9.806   8.531  1.00  0.00    -0.192 N 
ATOM     20  H4  UNL     1       9.897  -9.265   8.753  1.00  0.00     0.184 HD
HETATM   21  C19 UNL     1      12.528  -7.969   8.883  1.00  0.00     0.187 C 
BRANCH  17  22
HETATM   22  N3  UNL     1       9.629 -12.005   8.038  1.00  0.00    -0.215 N 
HETATM   23  C12 UNL     1       9.727 -13.374   8.515  1.00  0.00     0.144 C 
HETATM   24  C13 UNL     1       9.577 -14.312   7.321  1.00  0.00     0.055 C 
HETATM   25  C14 UNL     1       8.312 -13.999   6.535  1.00  0.00     0.158 C 
HETATM   26  C16 UNL     1       8.277 -12.561   6.160  1.00  0.00     0.217 C 
HETATM   27  F1  UNL     1       7.165 -12.271   5.425  1.00  0.00    -0.245 F 
HETATM   28  C17 UNL     1       8.394 -11.619   7.358  1.00  0.00     0.181 C 
BRANCH  25  29
HETATM   29  O1  UNL     1       8.435 -14.737   5.348  1.00  0.00    -0.388 OA
HETATM   30  C15 UNL     1       8.868 -16.028   5.567  1.00  0.00     0.202 C 
ENDBRANCH  25  29
ENDBRANCH  17  22
ENDBRANCH  10  11
ENDBRANCH   6  10
ENDBRANCH   3   4
TORSDOF 5
ENDMDL
MODEL 3
REMARK VINA RESULT: -7.874933094      1.165      1.287
REMARK  5 active torsions:
REMARK  status: ('A' for Active; 'I' for Inactive)
REMARK    1  A    between atoms: C3_3  and  C4_4 
REMARK    2  A    between atoms: C6_6  and  C7_7 
REMARK    3  A    between atoms: C7_7  and  N1_8 
REMARK    4  A    between atoms: C11_14  and  N3_15 
REMARK    5  A    between atoms: C14_18  and  O1_19 
ROOT
HETATM    1  C1  UNL     1      11.437  -1.574   7.094  1.00  0.00     0.012 C 
HETATM    2  C2  UNL     1      11.070  -2.193   8.062  1.00  0.00    -0.111 C 
HETATM    3  C3  UNL     1      10.607  -2.976   9.235  1.00  0.00     0.152 C 
ENDROOT
BRANCH   3   4
HETATM    4  C4  UNL     1      11.502  -4.147   9.418  1.00  0.00     0.046 A 
HETATM    5  C5  UNL     1      11.835  -5.099   8.462  1.00  0.00     0.068 A 
HETATM    6  C6  UNL     1      12.695  -6.016   9.062  1.00  0.00     0.116 A 
HETATM    7  O2  UNL     1      12.844  -5.615  10.283  1.00  0.00    -0.236 OA
HETATM    8  N5  UNL     1      12.162  -4.530  10.524  1.00  0.00    -0.264 N 
ATOM      9  H5  UNL     1      12.134  -4.043  11.420  1.00  0.00     0.194 HD
BRANCH   6  10
HETATM   10  C7  UNL     1      13.292  -7.192   8.399  1.00  0.00     0.129 C 
BRANCH  10  11
HETATM   11  N1  UNL     1      13.117  -8.430   9.037  1.00  0.00    -0.361 N 
HETATM   12  C8  UNL     1      12.140  -9.327   8.564  1.00  0.00     0.070 C 
HETATM   13  C9  UNL     1      12.638 -10.747   8.347  1.00  0.00     0.104 C 
HETATM   14  C10 UNL     1      13.123 -11.213   9.679  1.00  0.00     0.056 A 
HETATM   15  N2  UNL     1      13.005 -12.289  10.450  1.00  0.00    -0.193 N 
HETATM   16  C18 UNL     1      13.905 -10.294  10.359  1.00  0.00     0.068 A 
HETATM   17  C11 UNL     1      13.684 -12.111  11.631  1.00  0.00     0.681 A 
ATOM     18  H2  UNL     1      12.483 -13.129  10.200  1.00  0.00     0.184 HD
HETATM   19  N4  UNL     1      14.216 -10.871  11.520  1.00  0.00    -0.192 N 
ATOM     20  H4  UNL     1      14.789 -10.430  12.240  1.00  0.00     0.184 HD
HETATM   21  C19 UNL     1      14.229  -8.976   9.751  1.00  0.00     0.187 C 
BRANCH  17  22
HETATM   22  N3  UNL     1      13.784 -13.054  12.681  1.00  0.00    -0.215 N 
HETATM   23  C12 UNL     1      13.103 -12.834  13.945  1.00  0.00     0.144 C 
HETATM   24  C13 UNL     1      14.153 -12.730  15.047  1.00  0.00     0.055 C 
HETATM   25  C14 UNL     1      15.088 -13.931  15.026  1.00  0.00     0.158 C 
HETATM   26  C16 UNL     1      15.674 -14.109  13.672  1.00  0.00     0.217 C 
HETATM   27  F1  UNL     1      16.541 -15.161  13.644  1.00  0.00    -0.245 F 
HETATM   28  C17 UNL     1      14.623 -14.246  12.571  1.00  0.00     0.181 C 
BRANCH  25  29
HETATM   29  O1  UNL     1      16.137 -13.584  15.892  1.00  0.00    -0.388 OA
HETATM   30  C15 UNL     1      16.137 -14.329  17.052  1.00  0.00     0.202 C 
ENDBRANCH  25  29
ENDBRANCH  17  22
ENDBRANCH  10  11
ENDBRANCH   6  10
ENDBRANCH   3   4
TORSDOF 5
ENDMDL
MODEL 4
REMARK VINA RESULT: -7.680859017      3.455      4.277
REMARK  5 active torsions:
REMARK  status: ('A' for Active; 'I' for Inactive)
REMARK    1  A    between atoms: C3_3  and  C4_4 
REMARK    2  A    between atoms: C6_6  and  C7_7 
REMARK    3  A    between atoms: C7_7  and  N1_8 
REMARK    4  A    between atoms: C11_14  and  N3_15 
REMARK    5  A    between atoms: C14_18  and  O1_19 
ROOT
HETATM    1  C1  UNL     1      11.405  -1.585   6.984  1.00  0.00     0.012 C 
HETATM    2  C2  UNL     1      11.149  -2.280   7.937  1.00  0.00    -0.111 C 
HETATM    3  C3  UNL     1      10.825  -3.157   9.090  1.00  0.00     0.152 C 
ENDROOT
BRANCH   3   4
HETATM    4  C4  UNL     1      11.840  -4.238   9.175  1.00  0.00     0.046 A 
HETATM    5  C5  UNL     1      12.379  -4.960   8.117  1.00  0.00     0.068 A 
HETATM    6  C6  UNL     1      13.288  -5.872   8.650  1.00  0.00     0.116 A 
HETATM    7  O2  UNL     1      13.270  -5.683   9.929  1.00  0.00    -0.236 OA
HETATM    8  N5  UNL     1      12.436  -4.739  10.269  1.00  0.00    -0.264 N 
ATOM      9  H5  UNL     1      12.264  -4.427  11.225  1.00  0.00     0.194 HD
BRANCH   6  10
HETATM   10  C7  UNL     1      14.089  -6.838   7.872  1.00  0.00     0.129 C 
BRANCH  10  11
HETATM   11  N1  UNL     1      13.893  -8.196   8.164  1.00  0.00    -0.361 N 
HETATM   12  C8  UNL     1      14.942  -8.949   8.726  1.00  0.00     0.070 C 
HETATM   13  C9  UNL     1      14.554  -9.756   9.954  1.00  0.00     0.104 C 
HETATM   14  C10 UNL     1      13.476 -10.685   9.503  1.00  0.00     0.056 A 
HETATM   15  N2  UNL     1      13.173 -11.973   9.620  1.00  0.00    -0.193 N 
HETATM   16  C18 UNL     1      12.501 -10.093   8.717  1.00  0.00     0.068 A 
HETATM   17  C11 UNL     1      12.020 -12.260   8.928  1.00  0.00     0.681 A 
ATOM     18  H2  UNL     1      13.719 -12.654  10.149  1.00  0.00     0.184 HD
HETATM   19  N4  UNL     1      11.653 -11.071   8.395  1.00  0.00    -0.192 N 
ATOM     20  H4  UNL     1      10.824 -10.938   7.816  1.00  0.00     0.184 HD
HETATM   21  C19 UNL     1      12.555  -8.640   8.405  1.00  0.00     0.187 C 
BRANCH  17  22
HETATM   22  N3  UNL     1      11.398 -13.527   8.843  1.00  0.00    -0.215 N 
HETATM   23  C12 UNL     1      12.001 -14.696   9.460  1.00  0.00     0.144 C 
HETATM   24  C13 UNL     1      12.333 -15.703   8.363  1.00  0.00     0.055 C 
HETATM   25  C14 UNL     1      11.113 -15.995   7.501  1.00  0.00     0.158 C 
HETATM   26  C16 UNL     1      10.531 -14.730   6.980  1.00  0.00     0.217 C 
HETATM   27  F1  UNL     1       9.456 -14.976   6.178  1.00  0.00    -0.245 F 
HETATM   28  C17 UNL     1      10.167 -13.733   8.079  1.00  0.00     0.181 C 
BRANCH  25  29
HETATM   29  O1  UNL     1      11.612 -16.708   6.400  1.00  0.00    -0.388 OA
HETATM   30  C15 UNL     1      12.975 -16.912   6.473  1.00  0.00     0.202 C 
ENDBRANCH  25  29
ENDBRANCH  17  22
ENDBRANCH  10  11
ENDBRANCH   6  10
ENDBRANCH   3   4
TORSDOF 5
ENDMDL
MODEL 5
REMARK VINA RESULT: -7.636492822      4.647      5.889
REMARK  5 active torsions:
REMARK  status: ('A' for Active; 'I' for Inactive)
REMARK    1  A    between atoms: C3_3  and  C4_4 
REMARK    2  A    between atoms: C6_6  and  C7_7 
REMARK    3  A    between atoms: C7_7  and  N1_8 
REMARK    4  A    between atoms: C11_14  and  N3_15 
REMARK    5  A    between atoms: C14_18  and  O1_19 
ROOT
HETATM    1  C1  UNL     1      11.728  -1.551   6.697  1.00  0.00     0.012 C 
HETATM    2  C2  UNL     1      11.310  -2.095   7.689  1.00  0.00    -0.111 C 
HETATM    3  C3  UNL     1      10.786  -2.788   8.893  1.00  0.00     0.152 C 
ENDROOT
BRANCH   3   4
HETATM    4  C4  UNL     1      11.687  -3.919   9.229  1.00  0.00     0.046 A 
HETATM    5  C5  UNL     1      12.319  -4.775   8.335  1.00  0.00     0.068 A 
HETATM    6  C6  UNL     1      13.062  -5.689   9.080  1.00  0.00     0.116 A 
HETATM    7  O2  UNL     1      12.868  -5.375  10.320  1.00  0.00    -0.236 OA
HETATM    8  N5  UNL     1      12.071  -4.350  10.442  1.00  0.00    -0.264 N 
ATOM      9  H5  UNL     1      11.783  -3.935  11.329  1.00  0.00     0.194 HD
BRANCH   6  10
HETATM   10  C7  UNL     1      13.891  -6.777   8.523  1.00  0.00     0.129 C 
BRANCH  10  11
HETATM   11  N1  UNL     1      13.243  -7.997   8.278  1.00  0.00    -0.361 N 
HETATM   12  C8  UNL     1      13.958  -9.062   7.696  1.00  0.00     0.070 C 
HETATM   13  C9  UNL     1      13.817 -10.389   8.424  1.00  0.00     0.104 C 
HETATM   14  C10 UNL     1      12.359 -10.711   8.401  1.00  0.00     0.056 A 
HETATM   15  N2  UNL     1      11.585 -11.756   8.133  1.00  0.00    -0.193 N 
HETATM   16  C18 UNL     1      11.533  -9.646   8.720  1.00  0.00     0.068 A 
HETATM   17  C11 UNL     1      10.259 -11.418   8.260  1.00  0.00     0.681 A 
ATOM     18  H2  UNL     1      11.927 -12.681   7.870  1.00  0.00     0.184 HD
HETATM   19  N4  UNL     1      10.287 -10.113   8.622  1.00  0.00    -0.192 N 
ATOM     20  H4  UNL     1       9.453  -9.553   8.799  1.00  0.00     0.184 HD
HETATM   21  C19 UNL     1      12.104  -8.321   9.079  1.00  0.00     0.187 C 
BRANCH  17  22
HETATM   22  N3  UNL     1       9.159 -12.284   8.061  1.00  0.00    -0.215 N 
HETATM   23  C12 UNL     1       9.226 -13.677   8.469  1.00  0.00     0.144 C 
HETATM   24  C13 UNL     1       9.080 -14.550   7.226  1.00  0.00     0.055 C 
HETATM   25  C14 UNL     1       7.834 -14.175   6.437  1.00  0.00     0.158 C 
HETATM   26  C16 UNL     1       7.829 -12.720   6.136  1.00  0.00     0.217 C 
HETATM   27  F1  UNL     1       6.734 -12.372   5.400  1.00  0.00    -0.245 F 
HETATM   28  C17 UNL     1       7.941 -11.842   7.382  1.00  0.00     0.181 C 
BRANCH  25  29
HETATM   29  O1  UNL     1       7.964 -14.853   5.215  1.00  0.00    -0.388 OA
HETATM   30  C15 UNL     1       8.791 -15.954   5.304  1.00  0.00     0.202 C 
ENDBRANCH  25  29
ENDBRANCH  17  22
ENDBRANCH  10  11
ENDBRANCH   6  10
ENDBRANCH   3   4
TORSDOF 5
ENDMDL
