MODEL 1
REMARK VINA RESULT: -6.263094068      0.000      0.000
REMARK  6 active torsions:
REMARK  status: ('A' for Active; 'I' for Inactive)
REMARK    1  A    between atoms: O1_2  and  C2_3 
REMARK    2  A    between atoms: C2_3  and  C3_4 
REMARK    3  A    between atoms: C3_4  and  N1_5 
REMARK    4  A    between atoms: C9_12  and  O3_13 
REMARK    5  A    between atoms: N2_16  and  C11_17 
REMARK    6  A    between atoms: C11_17  and  C12_18 
ROOT
HETATM    1  C3  UNL     1      -7.765   2.035  17.918  1.00  0.00     0.265 C 
HETATM    2  C9  UNL     1      -6.508   1.775  18.688  1.00  0.00     0.192 C 
HETATM    3  C10 UNL     1      -6.290   0.307  18.261  1.00  0.00     0.311 C 
HETATM    4  N2  UNL     1      -7.641  -0.261  18.406  1.00  0.00     0.132 N 
HETATM    5  C16 UNL     1      -8.560   0.834  18.492  1.00  0.00     0.448 C 
HETATM    6  F1  UNL     1      -8.685   1.116  19.860  1.00  0.00    -0.213 F 
ENDROOT
BRANCH   1   7
HETATM    7  C2  UNL     1      -8.552   3.229  18.240  1.00  0.00     0.216 C 
BRANCH   7   8
HETATM    8  O1  UNL     1      -7.886   4.116  19.057  1.00  0.00    -0.393 OA
HETATM    9  C1  UNL     1      -7.753   5.377  18.516  1.00  0.00     0.201 C 
ENDBRANCH   7   8
ENDBRANCH   1   7
BRANCH   1  10
HETATM   10  N1  UNL     1      -7.562   1.762  16.528  1.00  0.00     0.110 N 
HETATM   11  C4  UNL     1      -8.669   1.083  15.896  1.00  0.00     0.276 C 
HETATM   12  C5  UNL     1      -8.281   0.802  14.460  1.00  0.00     0.056 C 
HETATM   13  C6  UNL     1      -8.896   1.777  13.511  1.00  0.00     0.169 C 
HETATM   14  O2  UNL     1      -8.030   2.897  13.511  1.00  0.00    -0.389 OA
HETATM   15  C7  UNL     1      -8.168   3.438  14.797  1.00  0.00     0.198 C 
HETATM   16  C8  UNL     1      -7.143   2.919  15.773  1.00  0.00     0.300 C 
ENDBRANCH   1  10
BRANCH   2  17
HETATM   17  O3  UNL     1      -5.395   2.470  18.352  1.00  0.00    -0.391 OA
ATOM     18  H3  UNL     1      -4.598   1.985  18.170  1.00  0.00     0.210 HD
ENDBRANCH   2  17
BRANCH   4  19
HETATM   19  C11 UNL     1      -7.581  -1.030  19.639  1.00  0.00     0.322 C 
BRANCH  19  20
HETATM   20  C12 UNL     1      -7.247  -2.470  19.386  1.00  0.00     0.011 A 
HETATM   21  C13 UNL     1      -7.184  -3.516  20.267  1.00  0.00     0.017 A 
HETATM   22  C14 UNL     1      -6.849  -4.724  19.759  1.00  0.00     0.008 A 
HETATM   23  C15 UNL     1      -6.604  -4.790  18.415  1.00  0.00     0.050 A 
HETATM   24  S1  UNL     1      -6.845  -3.185  17.899  1.00  0.00    -0.105 SA
ENDBRANCH  19  20
ENDBRANCH   4  19
TORSDOF 6
ENDMDL
MODEL 2
REMARK VINA RESULT: -6.204144254      1.406      1.656
REMARK  6 active torsions:
REMARK  status: ('A' for Active; 'I' for Inactive)
REMARK    1  A    between atoms: O1_2  and  C2_3 
REMARK    2  A    between atoms: C2_3  and  C3_4 
REMARK    3  A    between atoms: C3_4  and  N1_5 
REMARK    4  A    between atoms: C9_12  and  O3_13 
REMARK    5  A    between atoms: N2_16  and  C11_17 
REMARK    6  A    between atoms: C11_17  and  C12_18 
ROOT
HETATM    1  C3  UNL     1      -8.375   1.756  17.378  1.00  0.00     0.265 C 
HETATM    2  C9  UNL     1      -7.319   2.093  18.385  1.00  0.00     0.192 C 
HETATM    3  C10 UNL     1      -6.401   0.874  18.152  1.00  0.00     0.311 C 
HETATM    4  N2  UNL     1      -7.365  -0.238  18.106  1.00  0.00     0.132 N 
HETATM    5  C16 UNL     1      -8.666   0.332  17.915  1.00  0.00     0.448 C 
HETATM    6  F1  UNL     1      -9.180   0.539  19.203  1.00  0.00    -0.213 F 
ENDROOT
BRANCH   1   7
HETATM    7  C2  UNL     1      -9.651   2.475  17.432  1.00  0.00     0.216 C 
BRANCH   7   8
HETATM    8  O1  UNL     1     -10.731   1.694  17.080  1.00  0.00    -0.393 OA
HETATM    9  C1  UNL     1     -11.893   2.019  17.746  1.00  0.00     0.201 C 
ENDBRANCH   7   8
ENDBRANCH   1   7
BRANCH   1  10
HETATM   10  N1  UNL     1      -7.791   1.592  16.082  1.00  0.00     0.110 N 
HETATM   11  C4  UNL     1      -8.201   0.385  15.403  1.00  0.00     0.276 C 
HETATM   12  C5  UNL     1      -7.454   0.315  14.089  1.00  0.00     0.056 C 
HETATM   13  C6  UNL     1      -8.303   0.741  12.936  1.00  0.00     0.169 C 
HETATM   14  O2  UNL     1      -8.207   2.152  12.900  1.00  0.00    -0.389 OA
HETATM   15  C7  UNL     1      -8.863   2.571  14.066  1.00  0.00     0.198 C 
HETATM   16  C8  UNL     1      -7.934   2.754  15.239  1.00  0.00     0.300 C 
ENDBRANCH   1  10
BRANCH   2  17
HETATM   17  O3  UNL     1      -6.578   3.209  18.188  1.00  0.00    -0.391 OA
ATOM     18  H3  UNL     1      -6.455   3.804  18.919  1.00  0.00     0.210 HD
ENDBRANCH   2  17
BRANCH   4  19
HETATM   19  C11 UNL     1      -7.232  -0.888  19.400  1.00  0.00     0.322 C 
BRANCH  19  20
HETATM   20  C12 UNL     1      -7.055  -2.371  19.266  1.00  0.00     0.011 A 
HETATM   21  C13 UNL     1      -7.174  -3.351  20.214  1.00  0.00     0.017 A 
HETATM   22  C14 UNL     1      -6.950  -4.623  19.812  1.00  0.00     0.008 A 
HETATM   23  C15 UNL     1      -6.628  -4.814  18.496  1.00  0.00     0.050 A 
HETATM   24  S1  UNL     1      -6.642  -3.234  17.861  1.00  0.00    -0.105 SA
ENDBRANCH  19  20
ENDBRANCH   4  19
TORSDOF 6
ENDMDL
MODEL 3
REMARK VINA RESULT: -5.975535696      2.163      3.009
REMARK  6 active torsions:
REMARK  status: ('A' for Active; 'I' for Inactive)
REMARK    1  A    between atoms: O1_2  and  C2_3 
REMARK    2  A    between atoms: C2_3  and  C3_4 
REMARK    3  A    between atoms: C3_4  and  N1_5 
REMARK    4  A    between atoms: C9_12  and  O3_13 
REMARK    5  A    between atoms: N2_16  and  C11_17 
REMARK    6  A    between atoms: C11_17  and  C12_18 
ROOT
HETATM    1  C3  UNL     1      -7.955   2.223  16.800  1.00  0.00     0.265 C 
HETATM    2  C9  UNL     1      -7.352   1.687  15.539  1.00  0.00     0.192 C 
HETATM    3  C10 UNL     1      -8.087   0.330  15.505  1.00  0.00     0.311 C 
HETATM    4  N2  UNL     1      -7.963  -0.126  16.899  1.00  0.00     0.132 N 
HETATM    5  C16 UNL     1      -7.584   1.008  17.689  1.00  0.00     0.448 C 
HETATM    6  F1  UNL     1      -6.182   1.002  17.709  1.00  0.00    -0.213 F 
ENDROOT
BRANCH   1   7
HETATM    7  C2  UNL     1      -7.336   3.389  17.435  1.00  0.00     0.216 C 
BRANCH   7   8
HETATM    8  O1  UNL     1      -6.479   4.073  16.600  1.00  0.00    -0.393 OA
HETATM    9  C1  UNL     1      -6.795   5.406  16.449  1.00  0.00     0.201 C 
ENDBRANCH   7   8
ENDBRANCH   1   7
BRANCH   1  10
HETATM   10  N1  UNL     1      -9.383   2.235  16.702  1.00  0.00     0.110 N 
HETATM   11  C4  UNL     1     -10.058   2.075  17.968  1.00  0.00     0.276 C 
HETATM   12  C5  UNL     1     -11.547   2.036  17.698  1.00  0.00     0.056 C 
HETATM   13  C6  UNL     1     -12.208   3.342  17.997  1.00  0.00     0.169 C 
HETATM   14  O2  UNL     1     -12.030   4.127  16.834  1.00  0.00    -0.389 OA
HETATM   15  C7  UNL     1     -10.650   4.369  16.789  1.00  0.00     0.198 C 
HETATM   16  C8  UNL     1      -9.896   3.361  15.960  1.00  0.00     0.300 C 
ENDBRANCH   1  10
BRANCH   2  17
HETATM   17  O3  UNL     1      -7.620   2.330  14.377  1.00  0.00    -0.391 OA
ATOM     18  H3  UNL     1      -7.371   3.243  14.299  1.00  0.00     0.210 HD
ENDBRANCH   2  17
BRANCH   4  19
HETATM   19  C11 UNL     1      -6.923  -1.142  16.857  1.00  0.00     0.322 C 
BRANCH  19  20
HETATM   20  C12 UNL     1      -7.031  -2.102  18.004  1.00  0.00     0.011 A 
HETATM   21  C13 UNL     1      -7.395  -1.869  19.302  1.00  0.00     0.017 A 
HETATM   22  C14 UNL     1      -7.401  -2.933  20.137  1.00  0.00     0.008 A 
HETATM   23  C15 UNL     1      -7.044  -4.143  19.608  1.00  0.00     0.050 A 
HETATM   24  S1  UNL     1      -6.712  -3.770  17.980  1.00  0.00    -0.105 SA
ENDBRANCH  19  20
ENDBRANCH   4  19
TORSDOF 6
ENDMDL
MODEL 4
REMARK VINA RESULT: -5.906300103      2.650      4.839
REMARK  6 active torsions:
REMARK  status: ('A' for Active; 'I' for Inactive)
REMARK    1  A    between atoms: O1_2  and  C2_3 
REMARK    2  A    between atoms: C2_3  and  C3_4 
REMARK    3  A    between atoms: C3_4  and  N1_5 
REMARK    4  A    between atoms: C9_12  and  O3_13 
REMARK    5  A    between atoms: N2_16  and  C11_17 
REMARK    6  A    between atoms: C11_17  and  C12_18 
ROOT
HETATM    1  C3  UNL     1      -7.203   1.924  19.663  1.00  0.00     0.265 C 
HETATM    2  C9  UNL     1      -8.553   1.498  19.176  1.00  0.00     0.192 C 
HETATM    3  C10 UNL     1      -8.488   0.021  19.621  1.00  0.00     0.311 C 
HETATM    4  N2  UNL     1      -7.139  -0.377  19.185  1.00  0.00     0.132 N 
HETATM    5  C16 UNL     1      -6.404   0.824  18.919  1.00  0.00     0.448 C 
HETATM    6  F1  UNL     1      -6.610   1.099  17.559  1.00  0.00    -0.213 F 
ENDROOT
BRANCH   1   7
HETATM    7  C2  UNL     1      -6.659   3.202  19.197  1.00  0.00     0.216 C 
BRANCH   7   8
HETATM    8  O1  UNL     1      -7.575   3.964  18.505  1.00  0.00    -0.393 OA
HETATM    9  C1  UNL     1      -7.101   4.451  17.306  1.00  0.00     0.201 C 
ENDBRANCH   7   8
ENDBRANCH   1   7
BRANCH   1  10
HETATM   10  N1  UNL     1      -7.070   1.648  21.062  1.00  0.00     0.110 N 
HETATM   11  C4  UNL     1      -5.725   1.312  21.467  1.00  0.00     0.276 C 
HETATM   12  C5  UNL     1      -5.755   0.980  22.943  1.00  0.00     0.056 C 
HETATM   13  C6  UNL     1      -5.267   2.113  23.785  1.00  0.00     0.169 C 
HETATM   14  O2  UNL     1      -6.388   2.957  23.965  1.00  0.00    -0.389 OA
HETATM   15  C7  UNL     1      -6.637   3.476  22.687  1.00  0.00     0.198 C 
HETATM   16  C8  UNL     1      -7.642   2.671  21.903  1.00  0.00     0.300 C 
ENDBRANCH   1  10
BRANCH   2  17
HETATM   17  O3  UNL     1      -9.647   2.052  19.750  1.00  0.00    -0.391 OA
ATOM     18  H3  UNL     1     -10.000   1.646  20.533  1.00  0.00     0.210 HD
ENDBRANCH   2  17
BRANCH   4  19
HETATM   19  C11 UNL     1      -7.364  -1.164  17.983  1.00  0.00     0.322 C 
BRANCH  19  20
HETATM   20  C12 UNL     1      -6.918  -2.586  18.154  1.00  0.00     0.011 A 
HETATM   21  C13 UNL     1      -7.144  -3.450  19.191  1.00  0.00     0.017 A 
HETATM   22  C14 UNL     1      -6.613  -4.689  19.083  1.00  0.00     0.008 A 
HETATM   23  C15 UNL     1      -5.899  -4.965  17.949  1.00  0.00     0.050 A 
HETATM   24  S1  UNL     1      -5.986  -3.507  17.073  1.00  0.00    -0.105 SA
ENDBRANCH  19  20
ENDBRANCH   4  19
TORSDOF 6
ENDMDL
MODEL 5
REMARK VINA RESULT: -5.744256274      4.000      6.532
REMARK  6 active torsions:
REMARK  status: ('A' for Active; 'I' for Inactive)
REMARK    1  A    between atoms: O1_2  and  C2_3 
REMARK    2  A    between atoms: C2_3  and  C3_4 
REMARK    3  A    between atoms: C3_4  and  N1_5 
REMARK    4  A    between atoms: C9_12  and  O3_13 
REMARK    5  A    between atoms: N2_16  and  C11_17 
REMARK    6  A    between atoms: C11_17  and  C12_18 
ROOT
HETATM    1  C3  UNL     1      -8.344   2.379  16.649  1.00  0.00     0.265 C 
HETATM    2  C9  UNL     1      -9.235   2.017  17.797  1.00  0.00     0.192 C 
HETATM    3  C10 UNL     1     -10.592   2.294  17.115  1.00  0.00     0.311 C 
HETATM    4  N2  UNL     1     -10.350   3.589  16.457  1.00  0.00     0.132 N 
HETATM    5  C16 UNL     1      -8.932   3.794  16.424  1.00  0.00     0.448 C 
HETATM    6  F1  UNL     1      -8.625   4.494  17.600  1.00  0.00    -0.213 F 
ENDROOT
BRANCH   1   7
HETATM    7  C2  UNL     1      -6.914   2.573  16.904  1.00  0.00     0.216 C 
BRANCH   7   8
HETATM    8  O1  UNL     1      -6.493   2.025  18.096  1.00  0.00    -0.393 OA
HETATM    9  C1  UNL     1      -5.827   2.913  18.913  1.00  0.00     0.201 C 
ENDBRANCH   7   8
ENDBRANCH   1   7
BRANCH   1  10
HETATM   10  N1  UNL     1      -8.686   1.606  15.493  1.00  0.00     0.110 N 
HETATM   11  C4  UNL     1      -8.361   2.250  14.243  1.00  0.00     0.276 C 
HETATM   12  C5  UNL     1      -8.841   1.354  13.121  1.00  0.00     0.056 C 
HETATM   13  C6  UNL     1      -7.726   0.568  12.513  1.00  0.00     0.169 C 
HETATM   14  O2  UNL     1      -7.574  -0.570  13.340  1.00  0.00    -0.389 OA
HETATM   15  C7  UNL     1      -7.095  -0.053  14.551  1.00  0.00     0.198 C 
HETATM   16  C8  UNL     1      -8.189   0.252  15.543  1.00  0.00     0.300 C 
ENDBRANCH   1  10
BRANCH   2  17
HETATM   17  O3  UNL     1      -9.244   0.731  18.222  1.00  0.00    -0.391 OA
ATOM     18  H3  UNL     1      -8.691   0.496  18.959  1.00  0.00     0.210 HD
ENDBRANCH   2  17
BRANCH   4  19
HETATM   19  C11 UNL     1     -11.029   4.558  17.301  1.00  0.00     0.322 C 
BRANCH  19  20
HETATM   20  C12 UNL     1     -11.585   5.702  16.506  1.00  0.00     0.011 A 
HETATM   21  C13 UNL     1     -12.695   5.747  15.707  1.00  0.00     0.017 A 
HETATM   22  C14 UNL     1     -12.962   6.924  15.096  1.00  0.00     0.008 A 
HETATM   23  C15 UNL     1     -12.101   7.960  15.333  1.00  0.00     0.050 A 
HETATM   24  S1  UNL     1     -10.953   7.274  16.389  1.00  0.00    -0.105 SA
ENDBRANCH  19  20
ENDBRANCH   4  19
TORSDOF 6
ENDMDL
