MODEL 1
REMARK VINA RESULT: -8.219992489      0.000      0.000
REMARK  5 active torsions:
REMARK  status: ('A' for Active; 'I' for Inactive)
REMARK    1  A    between atoms: C2_2  and  C4_4 
REMARK    2  A    between atoms: C2_2  and  N2_7 
REMARK       I    between atoms: N2_7  and  C6_9 
REMARK    3  A    between atoms: C6_9  and  C7_11 
REMARK    4  A    between atoms: C8_15  and  C9_16 
REMARK       I    between atoms: N4_20  and  C13_21 
REMARK    5  A    between atoms: C13_21  and  C14_23 
ROOT
HETATM    1  C4  UNL     1      -5.292  -4.917  15.993  1.00  0.00     0.154 C 
HETATM    2  C5  UNL     1      -5.325  -3.860  15.041  1.00  0.00     0.061 C 
HETATM    3  N1  UNL     1      -5.319  -3.017  14.254  1.00  0.00    -0.197 NA
ENDROOT
BRANCH   1   4
HETATM    4  C2  UNL     1      -6.085  -4.796  17.250  1.00  0.00     0.038 C 
HETATM    5  C1  UNL     1      -7.392  -5.599  16.882  1.00  0.00     0.039 C 
HETATM    6  C3  UNL     1      -5.467  -5.543  18.384  1.00  0.00     0.039 C 
BRANCH   4   7
HETATM    7  N2  UNL     1      -6.538  -3.494  17.606  1.00  0.00    -0.345 N 
HETATM    8  C6  UNL     1      -7.024  -3.058  18.836  1.00  0.00     0.288 C 
HETATM    9  O1  UNL     1      -7.137  -3.804  19.814  1.00  0.00    -0.264 OA
ATOM     10  H2  UNL     1      -6.501  -2.792  16.867  1.00  0.00     0.163 HD
BRANCH   8  11
HETATM   11  C7  UNL     1      -7.425  -1.669  19.006  1.00  0.00     0.196 A 
HETATM   12  N3  UNL     1      -8.385  -1.159  19.825  1.00  0.00    -0.238 N 
HETATM   13  O2  UNL     1      -8.440   0.136  19.687  1.00  0.00    -0.220 OA
ATOM     14  H3  UNL     1      -8.973  -1.707  20.452  1.00  0.00     0.196 HD
HETATM   15  C8  UNL     1      -7.555   0.534  18.806  1.00  0.00     0.171 A 
HETATM   16  N5  UNL     1      -6.923  -0.575  18.379  1.00  0.00    -0.317 N 
ATOM     17  H5  UNL     1      -6.176  -0.591  17.686  1.00  0.00     0.169 HD
BRANCH  15  18
HETATM   18  C9  UNL     1      -7.303   1.954  18.367  1.00  0.00     0.164 C 
HETATM   19  C10 UNL     1      -5.991   2.454  18.937  1.00  0.00     0.035 C 
HETATM   20  C11 UNL     1      -5.663   3.587  17.992  1.00  0.00     0.022 C 
HETATM   21  C12 UNL     1      -6.133   3.076  16.669  1.00  0.00     0.127 C 
HETATM   22  N4  UNL     1      -7.124   2.052  16.933  1.00  0.00    -0.337 N 
HETATM   23  C13 UNL     1      -7.792   1.286  15.970  1.00  0.00     0.259 C 
HETATM   24  O3  UNL     1      -8.634   0.424  16.327  1.00  0.00    -0.270 OA
BRANCH  23  25
HETATM   25  C14 UNL     1      -7.558   1.437  14.511  1.00  0.00     0.176 C 
HETATM   26  C15 UNL     1      -8.589   2.315  13.858  1.00  0.00     0.062 C 
HETATM   27  C16 UNL     1      -7.490   0.089  13.818  1.00  0.00     0.062 C 
HETATM   28  F1  UNL     1      -6.311   2.037  14.278  1.00  0.00    -0.233 F 
ENDBRANCH  23  25
ENDBRANCH  15  18
ENDBRANCH   8  11
ENDBRANCH   4   7
ENDBRANCH   1   4
TORSDOF 5
ENDMDL
MODEL 2
REMARK VINA RESULT: -7.843051464      0.904      1.155
REMARK  5 active torsions:
REMARK  status: ('A' for Active; 'I' for Inactive)
REMARK    1  A    between atoms: C2_2  and  C4_4 
REMARK    2  A    between atoms: C2_2  and  N2_7 
REMARK       I    between atoms: N2_7  and  C6_9 
REMARK    3  A    between atoms: C6_9  and  C7_11 
REMARK    4  A    between atoms: C8_15  and  C9_16 
REMARK       I    between atoms: N4_20  and  C13_21 
REMARK    5  A    between atoms: C13_21  and  C14_23 
ROOT
HETATM    1  C4  UNL     1      -5.268  -4.778  15.788  1.00  0.00     0.154 C 
HETATM    2  C5  UNL     1      -5.398  -3.664  14.912  1.00  0.00     0.061 C 
HETATM    3  N1  UNL     1      -5.469  -2.771  14.185  1.00  0.00    -0.197 NA
ENDROOT
BRANCH   1   4
HETATM    4  C2  UNL     1      -6.036  -4.796  17.066  1.00  0.00     0.038 C 
HETATM    5  C1  UNL     1      -7.318  -5.618  16.658  1.00  0.00     0.039 C 
HETATM    6  C3  UNL     1      -5.361  -5.611  18.119  1.00  0.00     0.039 C 
BRANCH   4   7
HETATM    7  N2  UNL     1      -6.530  -3.549  17.542  1.00  0.00    -0.345 N 
HETATM    8  C6  UNL     1      -6.996  -3.237  18.817  1.00  0.00     0.288 C 
HETATM    9  O1  UNL     1      -7.049  -4.065  19.732  1.00  0.00    -0.264 OA
ATOM     10  H2  UNL     1      -6.544  -2.787  16.864  1.00  0.00     0.163 HD
BRANCH   8  11
HETATM   11  C7  UNL     1      -7.448  -1.885  19.113  1.00  0.00     0.196 A 
HETATM   12  N3  UNL     1      -8.534  -1.495  19.833  1.00  0.00    -0.238 N 
HETATM   13  O2  UNL     1      -8.595  -0.193  19.870  1.00  0.00    -0.220 OA
ATOM     14  H3  UNL     1      -9.201  -2.125  20.277  1.00  0.00     0.196 HD
HETATM   15  C8  UNL     1      -7.591   0.324  19.204  1.00  0.00     0.171 A 
HETATM   16  N5  UNL     1      -6.877  -0.714  18.732  1.00  0.00    -0.317 N 
ATOM     17  H5  UNL     1      -6.031  -0.634  18.169  1.00  0.00     0.169 HD
BRANCH  15  18
HETATM   18  C9  UNL     1      -7.305   1.792  19.011  1.00  0.00     0.164 C 
HETATM   19  C10 UNL     1      -5.885   2.108  19.440  1.00  0.00     0.035 C 
HETATM   20  C11 UNL     1      -5.623   3.394  18.691  1.00  0.00     0.022 C 
HETATM   21  C12 UNL     1      -6.330   3.183  17.391  1.00  0.00     0.127 C 
HETATM   22  N4  UNL     1      -7.343   2.170  17.614  1.00  0.00    -0.337 N 
HETATM   23  C13 UNL     1      -8.208   1.645  16.646  1.00  0.00     0.259 C 
HETATM   24  O3  UNL     1      -9.047   0.765  16.966  1.00  0.00    -0.270 OA
BRANCH  23  25
HETATM   25  C14 UNL     1      -8.192   2.079  15.226  1.00  0.00     0.176 C 
HETATM   26  C15 UNL     1      -6.853   1.856  14.579  1.00  0.00     0.062 C 
HETATM   27  C16 UNL     1      -8.618   3.528  15.085  1.00  0.00     0.062 C 
HETATM   28  F1  UNL     1      -9.126   1.343  14.483  1.00  0.00    -0.233 F 
ENDBRANCH  23  25
ENDBRANCH  15  18
ENDBRANCH   8  11
ENDBRANCH   4   7
ENDBRANCH   1   4
TORSDOF 5
ENDMDL
MODEL 3
REMARK VINA RESULT: -7.459814046      2.612      3.626
REMARK  5 active torsions:
REMARK  status: ('A' for Active; 'I' for Inactive)
REMARK    1  A    between atoms: C2_2  and  C4_4 
REMARK    2  A    between atoms: C2_2  and  N2_7 
REMARK       I    between atoms: N2_7  and  C6_9 
REMARK    3  A    between atoms: C6_9  and  C7_11 
REMARK    4  A    between atoms: C8_15  and  C9_16 
REMARK       I    between atoms: N4_20  and  C13_21 
REMARK    5  A    between atoms: C13_21  and  C14_23 
ROOT
HETATM    1  C4  UNL     1      -5.544  -4.929  17.995  1.00  0.00     0.154 C 
HETATM    2  C5  UNL     1      -6.320  -5.018  19.185  1.00  0.00     0.061 C 
HETATM    3  N1  UNL     1      -6.919  -5.110  20.166  1.00  0.00    -0.197 NA
ENDROOT
BRANCH   1   4
HETATM    4  C2  UNL     1      -6.219  -4.612  16.704  1.00  0.00     0.038 C 
HETATM    5  C1  UNL     1      -5.146  -5.096  15.654  1.00  0.00     0.039 C 
HETATM    6  C3  UNL     1      -7.418  -5.469  16.467  1.00  0.00     0.039 C 
BRANCH   4   7
HETATM    7  N2  UNL     1      -6.435  -3.237  16.407  1.00  0.00    -0.345 N 
HETATM    8  C6  UNL     1      -7.322  -2.353  17.015  1.00  0.00     0.288 C 
HETATM    9  O1  UNL     1      -8.080  -2.689  17.932  1.00  0.00    -0.264 OA
ATOM     10  H2  UNL     1      -5.867  -2.850  15.652  1.00  0.00     0.163 HD
BRANCH   8  11
HETATM   11  C7  UNL     1      -7.382  -0.967  16.574  1.00  0.00     0.196 A 
HETATM   12  N3  UNL     1      -7.547  -0.487  15.312  1.00  0.00    -0.238 N 
HETATM   13  O2  UNL     1      -7.547   0.816  15.332  1.00  0.00    -0.220 OA
ATOM     14  H3  UNL     1      -7.654  -1.060  14.475  1.00  0.00     0.196 HD
HETATM   15  C8  UNL     1      -7.390   1.249  16.559  1.00  0.00     0.171 A 
HETATM   16  N5  UNL     1      -7.287   0.153  17.334  1.00  0.00    -0.317 N 
ATOM     17  H5  UNL     1      -7.155   0.163  18.345  1.00  0.00     0.169 HD
BRANCH  15  18
HETATM   18  C9  UNL     1      -7.337   2.689  17.003  1.00  0.00     0.164 C 
HETATM   19  C10 UNL     1      -6.640   3.533  15.954  1.00  0.00     0.035 C 
HETATM   20  C11 UNL     1      -7.158   4.914  16.285  1.00  0.00     0.022 C 
HETATM   21  C12 UNL     1      -8.574   4.659  16.691  1.00  0.00     0.127 C 
HETATM   22  N4  UNL     1      -8.658   3.271  17.102  1.00  0.00    -0.337 N 
HETATM   23  C13 UNL     1      -9.817   2.607  17.523  1.00  0.00     0.259 C 
HETATM   24  O3  UNL     1      -9.761   1.396  17.856  1.00  0.00    -0.270 OA
BRANCH  23  25
HETATM   25  C14 UNL     1     -11.145   3.267  17.601  1.00  0.00     0.176 C 
HETATM   26  C15 UNL     1     -11.215   4.274  18.715  1.00  0.00     0.062 C 
HETATM   27  C16 UNL     1     -12.263   2.250  17.732  1.00  0.00     0.062 C 
HETATM   28  F1  UNL     1     -11.413   3.962  16.412  1.00  0.00    -0.233 F 
ENDBRANCH  23  25
ENDBRANCH  15  18
ENDBRANCH   8  11
ENDBRANCH   4   7
ENDBRANCH   1   4
TORSDOF 5
ENDMDL
MODEL 4
REMARK VINA RESULT: -7.340205237      2.938      4.318
REMARK  5 active torsions:
REMARK  status: ('A' for Active; 'I' for Inactive)
REMARK    1  A    between atoms: C2_2  and  C4_4 
REMARK    2  A    between atoms: C2_2  and  N2_7 
REMARK       I    between atoms: N2_7  and  C6_9 
REMARK    3  A    between atoms: C6_9  and  C7_11 
REMARK    4  A    between atoms: C8_15  and  C9_16 
REMARK       I    between atoms: N4_20  and  C13_21 
REMARK    5  A    between atoms: C13_21  and  C14_23 
ROOT
HETATM    1  C4  UNL     1      -5.153  -4.598  15.901  1.00  0.00     0.154 C 
HETATM    2  C5  UNL     1      -5.389  -3.540  14.978  1.00  0.00     0.061 C 
HETATM    3  N1  UNL     1      -5.542  -2.688  14.216  1.00  0.00    -0.197 NA
ENDROOT
BRANCH   1   4
HETATM    4  C2  UNL     1      -6.026  -4.727  17.103  1.00  0.00     0.038 C 
HETATM    5  C1  UNL     1      -7.200  -5.623  16.552  1.00  0.00     0.039 C 
HETATM    6  C3  UNL     1      -5.385  -5.534  18.182  1.00  0.00     0.039 C 
BRANCH   4   7
HETATM    7  N2  UNL     1      -6.654  -3.541  17.577  1.00  0.00    -0.345 N 
HETATM    8  C6  UNL     1      -7.121  -3.267  18.860  1.00  0.00     0.288 C 
HETATM    9  O1  UNL     1      -7.049  -4.081  19.787  1.00  0.00    -0.264 OA
ATOM     10  H2  UNL     1      -6.778  -2.797  16.890  1.00  0.00     0.163 HD
BRANCH   8  11
HETATM   11  C7  UNL     1      -7.725  -1.975  19.152  1.00  0.00     0.196 A 
HETATM   12  N3  UNL     1      -8.910  -1.714  19.767  1.00  0.00    -0.238 N 
HETATM   13  O2  UNL     1      -9.096  -0.426  19.840  1.00  0.00    -0.220 OA
ATOM     14  H3  UNL     1      -9.557  -2.420  20.118  1.00  0.00     0.196 HD
HETATM   15  C8  UNL     1      -8.083   0.207  19.299  1.00  0.00     0.171 A 
HETATM   16  N5  UNL     1      -7.231  -0.743  18.871  1.00  0.00    -0.317 N 
ATOM     17  H5  UNL     1      -6.343  -0.563  18.402  1.00  0.00     0.169 HD
BRANCH  15  18
HETATM   18  C9  UNL     1      -7.917   1.701  19.186  1.00  0.00     0.164 C 
HETATM   19  C10 UNL     1      -9.232   2.345  18.793  1.00  0.00     0.035 C 
HETATM   20  C11 UNL     1      -9.023   3.767  19.259  1.00  0.00     0.022 C 
HETATM   21  C12 UNL     1      -8.245   3.601  20.525  1.00  0.00     0.127 C 
HETATM   22  N4  UNL     1      -7.596   2.306  20.461  1.00  0.00    -0.337 N 
HETATM   23  C13 UNL     1      -6.798   1.737  21.461  1.00  0.00     0.259 C 
HETATM   24  O3  UNL     1      -6.288   0.601  21.286  1.00  0.00    -0.270 OA
BRANCH  23  25
HETATM   25  C14 UNL     1      -6.509   2.415  22.750  1.00  0.00     0.176 C 
HETATM   26  C15 UNL     1      -5.602   3.602  22.579  1.00  0.00     0.062 C 
HETATM   27  C16 UNL     1      -5.934   1.448  23.768  1.00  0.00     0.062 C 
HETATM   28  F1  UNL     1      -7.696   2.894  23.323  1.00  0.00    -0.233 F 
ENDBRANCH  23  25
ENDBRANCH  15  18
ENDBRANCH   8  11
ENDBRANCH   4   7
ENDBRANCH   1   4
TORSDOF 5
ENDMDL
MODEL 5
REMARK VINA RESULT: -7.286123073      2.434      3.161
REMARK  5 active torsions:
REMARK  status: ('A' for Active; 'I' for Inactive)
REMARK    1  A    between atoms: C2_2  and  C4_4 
REMARK    2  A    between atoms: C2_2  and  N2_7 
REMARK       I    between atoms: N2_7  and  C6_9 
REMARK    3  A    between atoms: C6_9  and  C7_11 
REMARK    4  A    between atoms: C8_15  and  C9_16 
REMARK       I    between atoms: N4_20  and  C13_21 
REMARK    5  A    between atoms: C13_21  and  C14_23 
ROOT
HETATM    1  C4  UNL     1      -5.361  -5.249  17.598  1.00  0.00     0.154 C 
HETATM    2  C5  UNL     1      -5.237  -5.215  16.181  1.00  0.00     0.061 C 
HETATM    3  N1  UNL     1      -5.098  -5.201  15.036  1.00  0.00    -0.197 NA
ENDROOT
BRANCH   1   4
HETATM    4  C2  UNL     1      -6.447  -4.466  18.256  1.00  0.00     0.038 C 
HETATM    5  C1  UNL     1      -7.710  -4.908  17.422  1.00  0.00     0.039 C 
HETATM    6  C3  UNL     1      -6.712  -4.928  19.650  1.00  0.00     0.039 C 
BRANCH   4   7
HETATM    7  N2  UNL     1      -6.393  -3.050  18.127  1.00  0.00    -0.345 N 
HETATM    8  C6  UNL     1      -7.321  -2.109  18.565  1.00  0.00     0.288 C 
HETATM    9  O1  UNL     1      -8.369  -2.419  19.141  1.00  0.00    -0.264 OA
ATOM     10  H2  UNL     1      -5.569  -2.677  17.653  1.00  0.00     0.163 HD
BRANCH   8  11
HETATM   11  C7  UNL     1      -7.072  -0.690  18.350  1.00  0.00     0.196 A 
HETATM   12  N3  UNL     1      -6.303   0.156  19.087  1.00  0.00    -0.238 N 
HETATM   13  O2  UNL     1      -6.337   1.350  18.567  1.00  0.00    -0.220 OA
ATOM     14  H3  UNL     1      -5.778  -0.106  19.921  1.00  0.00     0.196 HD
HETATM   15  C8  UNL     1      -7.100   1.356  17.501  1.00  0.00     0.171 A 
HETATM   16  N5  UNL     1      -7.559   0.100  17.359  1.00  0.00    -0.317 N 
ATOM     17  H5  UNL     1      -8.183  -0.214  16.616  1.00  0.00     0.169 HD
BRANCH  15  18
HETATM   18  C9  UNL     1      -7.397   2.542  16.618  1.00  0.00     0.164 C 
HETATM   19  C10 UNL     1      -7.151   2.186  15.165  1.00  0.00     0.035 C 
HETATM   20  C11 UNL     1      -7.988   3.224  14.454  1.00  0.00     0.022 C 
HETATM   21  C12 UNL     1      -9.186   3.361  15.338  1.00  0.00     0.127 C 
HETATM   22  N4  UNL     1      -8.797   2.907  16.658  1.00  0.00    -0.337 N 
HETATM   23  C13 UNL     1      -9.632   2.833  17.780  1.00  0.00     0.259 C 
HETATM   24  O3  UNL     1      -9.174   2.420  18.876  1.00  0.00    -0.270 OA
BRANCH  23  25
HETATM   25  C14 UNL     1     -11.064   3.224  17.751  1.00  0.00     0.176 C 
HETATM   26  C15 UNL     1     -11.432   4.119  18.902  1.00  0.00     0.062 C 
HETATM   27  C16 UNL     1     -11.970   2.008  17.712  1.00  0.00     0.062 C 
HETATM   28  F1  UNL     1     -11.349   3.938  16.578  1.00  0.00    -0.233 F 
ENDBRANCH  23  25
ENDBRANCH  15  18
ENDBRANCH   8  11
ENDBRANCH   4   7
ENDBRANCH   1   4
TORSDOF 5
ENDMDL
