MODEL 1
REMARK VINA RESULT: -7.444394910      0.000      0.000
REMARK  5 active torsions:
REMARK  status: ('A' for Active; 'I' for Inactive)
REMARK    1  A    between atoms: N2_5  and  C3_6 
REMARK    2  A    between atoms: C3_6  and  C5_8 
REMARK       I    between atoms: C5_8  and  N3_10 
REMARK    3  A    between atoms: N3_10  and  C6_12 
REMARK    4  A    between atoms: C6_12  and  C7_13 
REMARK    5  A    between atoms: C11_20  and  N5_21 
ROOT
HETATM    1  C1  UNL     1      -9.934   3.291  16.288  1.00  0.00     0.074 C 
HETATM    2  C2  UNL     1      -9.195   2.234  16.990  1.00  0.00     0.069 A 
HETATM    3  N1  UNL     1      -9.387   1.969  18.315  1.00  0.00    -0.284 N 
ATOM      4  H1  UNL     1     -10.042   2.467  18.918  1.00  0.00     0.188 HD
HETATM    5  N2  UNL     1      -8.619   0.993  18.702  1.00  0.00    -0.219 N 
HETATM    6  N4  UNL     1      -7.921   0.613  17.644  1.00  0.00    -0.266 N 
ATOM      7  H4  UNL     1      -7.230  -0.137  17.644  1.00  0.00     0.190 HD
HETATM    8  C11 UNL     1      -8.248   1.354  16.567  1.00  0.00     0.144 A 
ENDROOT
BRANCH   5   9
HETATM    9  C3  UNL     1      -8.517   0.409  20.024  1.00  0.00     0.214 C 
HETATM   10  C4  UNL     1      -7.251   0.891  20.693  1.00  0.00     0.046 C 
BRANCH   9  11
HETATM   11  C5  UNL     1      -8.426  -1.081  19.958  1.00  0.00     0.243 C 
HETATM   12  O1  UNL     1      -9.513  -1.713  19.933  1.00  0.00    -0.271 OA
HETATM   13  N3  UNL     1      -7.191  -1.759  19.925  1.00  0.00    -0.357 N 
ATOM     14  H3  UNL     1      -6.319  -1.232  19.947  1.00  0.00     0.162 HD
BRANCH  13  15
HETATM   15  C6  UNL     1      -7.162  -3.184  19.861  1.00  0.00     0.154 C 
BRANCH  15  16
HETATM   16  C7  UNL     1      -7.283  -3.736  18.479  1.00  0.00     0.139 C 
HETATM   17  C8  UNL     1      -6.371  -4.912  18.320  1.00  0.00     0.035 C 
HETATM   18  C9  UNL     1      -5.434  -4.511  17.227  1.00  0.00     0.029 C 
HETATM   19  C10 UNL     1      -5.863  -3.133  16.859  1.00  0.00     0.168 C 
HETATM   20  O2  UNL     1      -7.042  -2.841  17.481  1.00  0.00    -0.384 OA
ENDBRANCH  15  16
ENDBRANCH  13  15
ENDBRANCH   9  11
ENDBRANCH   5   9
BRANCH   8  21
HETATM   21  N5  UNL     1      -7.742   1.277  15.244  1.00  0.00    -0.347 N 
HETATM   22  C12 UNL     1      -7.823   0.017  14.534  1.00  0.00     0.126 C 
HETATM   23  C13 UNL     1      -8.427   0.362  13.167  1.00  0.00     0.020 C 
HETATM   24  C14 UNL     1      -7.462   1.204  12.375  1.00  0.00     0.005 C 
HETATM   25  C15 UNL     1      -6.429   1.764  13.331  1.00  0.00     0.041 C 
HETATM   26  C16 UNL     1      -7.136   2.379  14.527  1.00  0.00     0.183 C 
HETATM   27 CL1  UNL     1      -5.942   3.253  15.486  1.00  0.00    -0.102 Cl
ENDBRANCH   8  21
TORSDOF 5
ENDMDL
MODEL 2
REMARK VINA RESULT: -7.431428912      2.809      6.956
REMARK  5 active torsions:
REMARK  status: ('A' for Active; 'I' for Inactive)
REMARK    1  A    between atoms: N2_5  and  C3_6 
REMARK    2  A    between atoms: C3_6  and  C5_8 
REMARK       I    between atoms: C5_8  and  N3_10 
REMARK    3  A    between atoms: N3_10  and  C6_12 
REMARK    4  A    between atoms: C6_12  and  C7_13 
REMARK    5  A    between atoms: C11_20  and  N5_21 
ROOT
HETATM    1  C1  UNL     1      -5.247  -3.087  15.465  1.00  0.00     0.074 C 
HETATM    2  C2  UNL     1      -6.277  -2.042  15.425  1.00  0.00     0.069 A 
HETATM    3  N1  UNL     1      -6.485  -1.268  14.320  1.00  0.00    -0.284 N 
ATOM      4  H1  UNL     1      -5.959  -1.345  13.449  1.00  0.00     0.188 HD
HETATM    5  N2  UNL     1      -7.448  -0.420  14.531  1.00  0.00    -0.219 N 
HETATM    6  N4  UNL     1      -7.876  -0.625  15.766  1.00  0.00    -0.266 N 
ATOM      7  H4  UNL     1      -8.629  -0.104  16.214  1.00  0.00     0.190 HD
HETATM    8  C11 UNL     1      -7.178  -1.619  16.351  1.00  0.00     0.144 A 
ENDROOT
BRANCH   5   9
HETATM    9  C3  UNL     1      -7.978   0.574  13.619  1.00  0.00     0.214 C 
HETATM   10  C4  UNL     1      -7.045   0.724  12.440  1.00  0.00     0.046 C 
BRANCH   9  11
HETATM   11  C5  UNL     1      -8.070   1.918  14.267  1.00  0.00     0.243 C 
HETATM   12  O1  UNL     1      -7.015   2.602  14.301  1.00  0.00    -0.271 OA
HETATM   13  N3  UNL     1      -9.271   2.406  14.818  1.00  0.00    -0.357 N 
ATOM     14  H3  UNL     1     -10.117   1.838  14.783  1.00  0.00     0.162 HD
BRANCH  13  15
HETATM   15  C6  UNL     1      -9.303   3.697  15.424  1.00  0.00     0.154 C 
BRANCH  15  16
HETATM   16  C7  UNL     1      -9.843   3.705  16.816  1.00  0.00     0.139 C 
HETATM   17  C8  UNL     1     -10.168   2.308  17.244  1.00  0.00     0.035 C 
HETATM   18  C9  UNL     1     -11.635   2.334  17.519  1.00  0.00     0.029 C 
HETATM   19  C10 UNL     1     -12.045   3.732  17.209  1.00  0.00     0.168 C 
HETATM   20  O2  UNL     1     -10.934   4.497  17.004  1.00  0.00    -0.384 OA
ENDBRANCH  15  16
ENDBRANCH  13  15
ENDBRANCH   9  11
ENDBRANCH   5   9
BRANCH   8  21
HETATM   21  N5  UNL     1      -7.313  -2.154  17.658  1.00  0.00    -0.347 N 
HETATM   22  C12 UNL     1      -7.834  -3.496  17.817  1.00  0.00     0.126 C 
HETATM   23  C13 UNL     1      -6.851  -4.203  18.759  1.00  0.00     0.020 C 
HETATM   24  C14 UNL     1      -6.918  -3.585  20.130  1.00  0.00     0.005 C 
HETATM   25  C15 UNL     1      -7.602  -2.239  20.009  1.00  0.00     0.041 C 
HETATM   26  C16 UNL     1      -6.964  -1.454  18.877  1.00  0.00     0.183 C 
HETATM   27 CL1  UNL     1      -7.588   0.194  18.927  1.00  0.00    -0.102 Cl
ENDBRANCH   8  21
TORSDOF 5
ENDMDL
MODEL 3
REMARK VINA RESULT: -7.273426648      3.002      6.741
REMARK  5 active torsions:
REMARK  status: ('A' for Active; 'I' for Inactive)
REMARK    1  A    between atoms: N2_5  and  C3_6 
REMARK    2  A    between atoms: C3_6  and  C5_8 
REMARK       I    between atoms: C5_8  and  N3_10 
REMARK    3  A    between atoms: N3_10  and  C6_12 
REMARK    4  A    between atoms: C6_12  and  C7_13 
REMARK    5  A    between atoms: C11_20  and  N5_21 
ROOT
HETATM    1  C1  UNL     1      -5.195  -3.005  15.231  1.00  0.00     0.074 C 
HETATM    2  C2  UNL     1      -6.257  -1.998  15.335  1.00  0.00     0.069 A 
HETATM    3  N1  UNL     1      -6.628  -1.219  14.277  1.00  0.00    -0.284 N 
ATOM      4  H1  UNL     1      -6.211  -1.267  13.346  1.00  0.00     0.188 HD
HETATM    5  N2  UNL     1      -7.586  -0.408  14.619  1.00  0.00    -0.219 N 
HETATM    6  N4  UNL     1      -7.850  -0.644  15.893  1.00  0.00    -0.266 N 
ATOM      7  H4  UNL     1      -8.559  -0.155  16.439  1.00  0.00     0.190 HD
HETATM    8  C11 UNL     1      -7.051  -1.619  16.372  1.00  0.00     0.144 A 
ENDROOT
BRANCH   5   9
HETATM    9  C3  UNL     1      -8.258   0.576  13.795  1.00  0.00     0.214 C 
HETATM   10  C4  UNL     1      -7.342   1.006  12.673  1.00  0.00     0.046 C 
BRANCH   9  11
HETATM   11  C5  UNL     1      -8.589   1.808  14.574  1.00  0.00     0.243 C 
HETATM   12  O1  UNL     1      -9.606   1.754  15.311  1.00  0.00    -0.271 OA
HETATM   13  N3  UNL     1      -7.809   2.979  14.497  1.00  0.00    -0.357 N 
ATOM     14  H3  UNL     1      -6.988   3.006  13.894  1.00  0.00     0.162 HD
BRANCH  13  15
HETATM   15  C6  UNL     1      -8.170   4.126  15.264  1.00  0.00     0.154 C 
BRANCH  15  16
HETATM   16  C7  UNL     1      -7.449   4.242  16.567  1.00  0.00     0.139 C 
HETATM   17  C8  UNL     1      -6.125   3.549  16.478  1.00  0.00     0.035 C 
HETATM   18  C9  UNL     1      -6.196   2.477  17.516  1.00  0.00     0.029 C 
HETATM   19  C10 UNL     1      -7.558   2.620  18.103  1.00  0.00     0.168 C 
HETATM   20  O2  UNL     1      -8.133   3.770  17.644  1.00  0.00    -0.384 OA
ENDBRANCH  15  16
ENDBRANCH  13  15
ENDBRANCH   9  11
ENDBRANCH   5   9
BRANCH   8  21
HETATM   21  N5  UNL     1      -7.004  -2.173  17.677  1.00  0.00    -0.347 N 
HETATM   22  C12 UNL     1      -6.405  -1.402  18.746  1.00  0.00     0.126 C 
HETATM   23  C13 UNL     1      -7.420  -1.447  19.895  1.00  0.00     0.020 C 
HETATM   24  C14 UNL     1      -7.530  -2.851  20.429  1.00  0.00     0.005 C 
HETATM   25  C15 UNL     1      -6.936  -3.794  19.405  1.00  0.00     0.041 C 
HETATM   26  C16 UNL     1      -7.518  -3.478  18.038  1.00  0.00     0.183 C 
HETATM   27 CL1  UNL     1      -7.022  -4.748  16.919  1.00  0.00    -0.102 Cl
ENDBRANCH   8  21
TORSDOF 5
ENDMDL
MODEL 4
REMARK VINA RESULT: -7.257812114      2.724      6.693
REMARK  5 active torsions:
REMARK  status: ('A' for Active; 'I' for Inactive)
REMARK    1  A    between atoms: N2_5  and  C3_6 
REMARK    2  A    between atoms: C3_6  and  C5_8 
REMARK       I    between atoms: C5_8  and  N3_10 
REMARK    3  A    between atoms: N3_10  and  C6_12 
REMARK    4  A    between atoms: C6_12  and  C7_13 
REMARK    5  A    between atoms: C11_20  and  N5_21 
ROOT
HETATM    1  C1  UNL     1      -5.191  -2.994  15.379  1.00  0.00     0.074 C 
HETATM    2  C2  UNL     1      -6.276  -2.005  15.431  1.00  0.00     0.069 A 
HETATM    3  N1  UNL     1      -6.530  -1.149  14.400  1.00  0.00    -0.284 N 
ATOM      4  H1  UNL     1      -6.005  -1.120  13.526  1.00  0.00     0.188 HD
HETATM    5  N2  UNL     1      -7.535  -0.374  14.686  1.00  0.00    -0.219 N 
HETATM    6  N4  UNL     1      -7.946  -0.711  15.897  1.00  0.00    -0.266 N 
ATOM      7  H4  UNL     1      -8.723  -0.272  16.390  1.00  0.00     0.190 HD
HETATM    8  C11 UNL     1      -7.194  -1.715  16.392  1.00  0.00     0.144 A 
ENDROOT
BRANCH   5   9
HETATM    9  C3  UNL     1      -8.121   0.667  13.866  1.00  0.00     0.214 C 
HETATM   10  C4  UNL     1      -7.084   1.191  12.899  1.00  0.00     0.046 C 
BRANCH   9  11
HETATM   11  C5  UNL     1      -8.564   1.831  14.693  1.00  0.00     0.243 C 
HETATM   12  O1  UNL     1      -9.508   1.625  15.498  1.00  0.00    -0.271 OA
HETATM   13  N3  UNL     1      -7.964   3.101  14.586  1.00  0.00    -0.357 N 
ATOM     14  H3  UNL     1      -7.201   3.251  13.927  1.00  0.00     0.162 HD
BRANCH  13  15
HETATM   15  C6  UNL     1      -8.426   4.177  15.400  1.00  0.00     0.154 C 
BRANCH  15  16
HETATM   16  C7  UNL     1      -7.490   4.555  16.501  1.00  0.00     0.139 C 
HETATM   17  C8  UNL     1      -6.134   3.980  16.236  1.00  0.00     0.035 C 
HETATM   18  C9  UNL     1      -5.879   3.077  17.398  1.00  0.00     0.029 C 
HETATM   19  C10 UNL     1      -7.112   3.184  18.227  1.00  0.00     0.168 C 
HETATM   20  O2  UNL     1      -7.896   4.194  17.749  1.00  0.00    -0.384 OA
ENDBRANCH  15  16
ENDBRANCH  13  15
ENDBRANCH   9  11
ENDBRANCH   5   9
BRANCH   8  21
HETATM   21  N5  UNL     1      -7.294  -2.370  17.646  1.00  0.00    -0.347 N 
HETATM   22  C12 UNL     1      -7.742  -3.747  17.685  1.00  0.00     0.126 C 
HETATM   23  C13 UNL     1      -6.718  -4.481  18.560  1.00  0.00     0.020 C 
HETATM   24  C14 UNL     1      -6.811  -3.991  19.981  1.00  0.00     0.005 C 
HETATM   25  C15 UNL     1      -7.568  -2.679  19.980  1.00  0.00     0.041 C 
HETATM   26  C16 UNL     1      -6.978  -1.763  18.922  1.00  0.00     0.183 C 
HETATM   27 CL1  UNL     1      -7.689  -0.162  19.118  1.00  0.00    -0.102 Cl
ENDBRANCH   8  21
TORSDOF 5
ENDMDL
MODEL 5
REMARK VINA RESULT: -7.210158115      1.369      1.595
REMARK  5 active torsions:
REMARK  status: ('A' for Active; 'I' for Inactive)
REMARK    1  A    between atoms: N2_5  and  C3_6 
REMARK    2  A    between atoms: C3_6  and  C5_8 
REMARK       I    between atoms: C5_8  and  N3_10 
REMARK    3  A    between atoms: N3_10  and  C6_12 
REMARK    4  A    between atoms: C6_12  and  C7_13 
REMARK    5  A    between atoms: C11_20  and  N5_21 
ROOT
HETATM    1  C1  UNL     1      -5.879   3.534  16.923  1.00  0.00     0.074 C 
HETATM    2  C2  UNL     1      -6.686   2.402  17.395  1.00  0.00     0.069 A 
HETATM    3  N1  UNL     1      -6.710   2.023  18.706  1.00  0.00    -0.284 N 
ATOM      4  H1  UNL     1      -6.186   2.479  19.453  1.00  0.00     0.188 HD
HETATM    5  N2  UNL     1      -7.496   0.999  18.871  1.00  0.00    -0.219 N 
HETATM    6  N4  UNL     1      -7.988   0.698  17.681  1.00  0.00    -0.266 N 
ATOM      7  H4  UNL     1      -8.637  -0.066  17.498  1.00  0.00     0.190 HD
HETATM    8  C11 UNL     1      -7.513   1.541  16.743  1.00  0.00     0.144 A 
ENDROOT
BRANCH   5   9
HETATM    9  C3  UNL     1      -7.797   0.296  20.102  1.00  0.00     0.214 C 
HETATM   10  C4  UNL     1      -6.631   0.420  21.054  1.00  0.00     0.046 C 
BRANCH   9  11
HETATM   11  C5  UNL     1      -8.001  -1.165  19.862  1.00  0.00     0.243 C 
HETATM   12  O1  UNL     1      -9.192  -1.564  19.787  1.00  0.00    -0.271 OA
HETATM   13  N3  UNL     1      -6.924  -2.062  19.724  1.00  0.00    -0.357 N 
ATOM     14  H3  UNL     1      -5.965  -1.722  19.788  1.00  0.00     0.162 HD
BRANCH  13  15
HETATM   15  C6  UNL     1      -7.176  -3.447  19.495  1.00  0.00     0.154 C 
BRANCH  15  16
HETATM   16  C7  UNL     1      -7.204  -3.832  18.052  1.00  0.00     0.139 C 
HETATM   17  C8  UNL     1      -6.454  -5.111  17.852  1.00  0.00     0.035 C 
HETATM   18  C9  UNL     1      -5.346  -4.751  16.918  1.00  0.00     0.029 C 
HETATM   19  C10 UNL     1      -5.529  -3.293  16.672  1.00  0.00     0.168 C 
HETATM   20  O2  UNL     1      -6.722  -2.889  17.197  1.00  0.00    -0.384 OA
ENDBRANCH  15  16
ENDBRANCH  13  15
ENDBRANCH   9  11
ENDBRANCH   5   9
BRANCH   8  21
HETATM   21  N5  UNL     1      -7.783   1.572  15.351  1.00  0.00    -0.347 N 
HETATM   22  C12 UNL     1      -6.808   1.018  14.434  1.00  0.00     0.126 C 
HETATM   23  C13 UNL     1      -7.605   0.090  13.508  1.00  0.00     0.020 C 
HETATM   24  C14 UNL     1      -8.542   0.899  12.652  1.00  0.00     0.005 C 
HETATM   25  C15 UNL     1      -8.683   2.273  13.273  1.00  0.00     0.041 C 
HETATM   26  C16 UNL     1      -8.982   2.123  14.755  1.00  0.00     0.183 C 
HETATM   27 CL1  UNL     1      -9.403   3.711  15.397  1.00  0.00    -0.102 Cl
ENDBRANCH   8  21
TORSDOF 5
ENDMDL
