MODEL 1
REMARK VINA RESULT: -7.445241355      0.000      0.000
REMARK  5 active torsions:
REMARK  status: ('A' for Active; 'I' for Inactive)
REMARK    1  A    between atoms: N1_2  and  C3_4 
REMARK    2  A    between atoms: C3_4  and  C4_5 
REMARK    3  A    between atoms: C4_5  and  C5_6 
REMARK    4  A    between atoms: C5_6  and  N2_7 
REMARK    5  A    between atoms: N2_7  and  C6_9 
ROOT
HETATM    1  C6  UNL     1      -7.329  -0.384  16.722  1.00  0.00     0.122 A 
HETATM    2  C7  UNL     1      -6.847  -1.718  16.684  1.00  0.00     0.066 A 
HETATM    3  C8  UNL     1      -6.509  -2.280  15.469  1.00  0.00     0.162 A 
HETATM    4  N3  UNL     1      -6.650  -1.559  14.343  1.00  0.00    -0.288 N 
ATOM      5  H3  UNL     1      -6.400  -1.980  13.448  1.00  0.00     0.172 HD
HETATM    6  C9  UNL     1      -7.106  -0.315  14.368  1.00  0.00     0.329 A 
HETATM    7  O1  UNL     1      -7.243   0.370  13.303  1.00  0.00    -0.246 OA
HETATM    8  N4  UNL     1      -7.451   0.288  15.556  1.00  0.00    -0.289 N 
HETATM    9  C10 UNL     1      -7.929   1.626  15.496  1.00  0.00     0.163 C 
HETATM   10  O2  UNL     1      -6.023  -3.566  15.383  1.00  0.00    -0.320 OA
HETATM   11  C11 UNL     1      -6.096  -4.449  16.441  1.00  0.00     0.086 C 
HETATM   12  C12 UNL     1      -7.148  -5.535  16.181  1.00  0.00     0.051 C 
HETATM   13  C13 UNL     1      -4.740  -5.121  16.603  1.00  0.00     0.051 C 
HETATM   14  C14 UNL     1      -6.463  -3.833  17.724  1.00  0.00    -0.036 C 
HETATM   15  C15 UNL     1      -6.823  -2.559  17.889  1.00  0.00    -0.032 C 
HETATM   16  C16 UNL     1      -7.193  -2.353  19.299  1.00  0.00     0.077 C 
HETATM   17  C17 UNL     1      -7.594  -3.791  19.724  1.00  0.00     0.178 C 
HETATM   18  F1  UNL     1      -7.636  -3.923  21.070  1.00  0.00    -0.249 F 
HETATM   19  C18 UNL     1      -6.483  -4.551  19.048  1.00  0.00     0.075 C 
ENDROOT
BRANCH   1  20
HETATM   20  N2  UNL     1      -7.463   0.226  17.954  1.00  0.00    -0.375 N 
ATOM     21  H2  UNL     1      -8.368   0.083  18.404  1.00  0.00     0.161 HD
BRANCH  20  22
HETATM   22  C5  UNL     1      -6.549   1.023  18.699  1.00  0.00     0.123 C 
BRANCH  22  23
HETATM   23  C4  UNL     1      -7.228   1.556  19.991  1.00  0.00     0.050 C 
BRANCH  23  24
HETATM   24  C3  UNL     1      -6.598   0.768  21.119  1.00  0.00     0.273 C 
BRANCH  24  25
HETATM   25  N1  UNL     1      -5.812   1.722  21.899  1.00  0.00     0.080 N 
HETATM   26  C1  UNL     1      -5.152   1.005  22.993  1.00  0.00     0.309 C 
HETATM   27  C2  UNL     1      -6.753   2.699  22.458  1.00  0.00     0.309 C 
ENDBRANCH  24  25
ENDBRANCH  23  24
ENDBRANCH  22  23
ENDBRANCH  20  22
ENDBRANCH   1  20
TORSDOF 5
ENDMDL
MODEL 2
REMARK VINA RESULT: -7.282999717      1.812      2.409
REMARK  5 active torsions:
REMARK  status: ('A' for Active; 'I' for Inactive)
REMARK    1  A    between atoms: N1_2  and  C3_4 
REMARK    2  A    between atoms: C3_4  and  C4_5 
REMARK    3  A    between atoms: C4_5  and  C5_6 
REMARK    4  A    between atoms: C5_6  and  N2_7 
REMARK    5  A    between atoms: N2_7  and  C6_9 
ROOT
HETATM    1  C6  UNL     1      -7.303  -0.234  16.342  1.00  0.00     0.122 A 
HETATM    2  C7  UNL     1      -6.845  -1.573  16.440  1.00  0.00     0.066 A 
HETATM    3  C8  UNL     1      -6.481  -2.248  15.293  1.00  0.00     0.162 A 
HETATM    4  N3  UNL     1      -6.575  -1.631  14.102  1.00  0.00    -0.288 N 
ATOM      5  H3  UNL     1      -6.306  -2.136  13.257  1.00  0.00     0.172 HD
HETATM    6  C9  UNL     1      -7.009  -0.384  13.999  1.00  0.00     0.329 A 
HETATM    7  O1  UNL     1      -7.102   0.203  12.873  1.00  0.00    -0.246 OA
HETATM    8  N4  UNL     1      -7.379   0.331  15.116  1.00  0.00    -0.289 N 
HETATM    9  C10 UNL     1      -7.830   1.665  14.920  1.00  0.00     0.163 C 
HETATM   10  O2  UNL     1      -6.017  -3.544  15.339  1.00  0.00    -0.320 OA
HETATM   11  C11 UNL     1      -6.137  -4.325  16.470  1.00  0.00     0.086 C 
HETATM   12  C12 UNL     1      -7.200  -5.414  16.277  1.00  0.00     0.051 C 
HETATM   13  C13 UNL     1      -4.799  -5.001  16.734  1.00  0.00     0.051 C 
HETATM   14  C14 UNL     1      -6.530  -3.589  17.680  1.00  0.00    -0.036 C 
HETATM   15  C15 UNL     1      -6.872  -2.301  17.717  1.00  0.00    -0.032 C 
HETATM   16  C16 UNL     1      -7.279  -1.961  19.090  1.00  0.00     0.077 C 
HETATM   17  C17 UNL     1      -7.719  -3.348  19.632  1.00  0.00     0.178 C 
HETATM   18  F1  UNL     1      -7.804  -3.355  20.982  1.00  0.00    -0.249 F 
HETATM   19  C18 UNL     1      -6.603  -4.183  19.063  1.00  0.00     0.075 C 
ENDROOT
BRANCH   1  20
HETATM   20  N2  UNL     1      -7.463   0.489  17.508  1.00  0.00    -0.375 N 
ATOM     21  H2  UNL     1      -8.323   0.289  18.019  1.00  0.00     0.161 HD
BRANCH  20  22
HETATM   22  C5  UNL     1      -6.626   1.467  18.115  1.00  0.00     0.123 C 
BRANCH  22  23
HETATM   23  C4  UNL     1      -7.460   2.715  18.519  1.00  0.00     0.050 C 
BRANCH  23  24
HETATM   24  C3  UNL     1      -8.830   2.174  18.867  1.00  0.00     0.273 C 
BRANCH  24  25
HETATM   25  N1  UNL     1      -9.798   3.091  18.270  1.00  0.00     0.080 N 
HETATM   26  C1  UNL     1     -10.625   2.347  17.316  1.00  0.00     0.309 C 
HETATM   27  C2  UNL     1      -9.034   4.117  17.552  1.00  0.00     0.309 C 
ENDBRANCH  24  25
ENDBRANCH  23  24
ENDBRANCH  22  23
ENDBRANCH  20  22
ENDBRANCH   1  20
TORSDOF 5
ENDMDL
MODEL 3
REMARK VINA RESULT: -7.234541959      1.591      2.088
REMARK  5 active torsions:
REMARK  status: ('A' for Active; 'I' for Inactive)
REMARK    1  A    between atoms: N1_2  and  C3_4 
REMARK    2  A    between atoms: C3_4  and  C4_5 
REMARK    3  A    between atoms: C4_5  and  C5_6 
REMARK    4  A    between atoms: C5_6  and  N2_7 
REMARK    5  A    between atoms: N2_7  and  C6_9 
ROOT
HETATM    1  C6  UNL     1      -7.288  -0.251  16.446  1.00  0.00     0.122 A 
HETATM    2  C7  UNL     1      -6.835  -1.594  16.508  1.00  0.00     0.066 A 
HETATM    3  C8  UNL     1      -6.492  -2.246  15.340  1.00  0.00     0.162 A 
HETATM    4  N3  UNL     1      -6.601  -1.602  14.165  1.00  0.00    -0.288 N 
ATOM      5  H3  UNL     1      -6.348  -2.090  13.305  1.00  0.00     0.172 HD
HETATM    6  C9  UNL     1      -7.029  -0.350  14.096  1.00  0.00     0.329 A 
HETATM    7  O1  UNL     1      -7.136   0.262  12.984  1.00  0.00    -0.246 OA
HETATM    8  N4  UNL     1      -7.378   0.342  15.234  1.00  0.00    -0.289 N 
HETATM    9  C10 UNL     1      -7.824   1.682  15.075  1.00  0.00     0.163 C 
HETATM   10  O2  UNL     1      -6.035  -3.545  15.351  1.00  0.00    -0.320 OA
HETATM   11  C11 UNL     1      -6.143  -4.350  16.466  1.00  0.00     0.086 C 
HETATM   12  C12 UNL     1      -7.216  -5.429  16.265  1.00  0.00     0.051 C 
HETATM   13  C13 UNL     1      -4.805  -5.039  16.695  1.00  0.00     0.051 C 
HETATM   14  C14 UNL     1      -6.515  -3.639  17.697  1.00  0.00    -0.036 C 
HETATM   15  C15 UNL     1      -6.848  -2.350  17.768  1.00  0.00    -0.032 C 
HETATM   16  C16 UNL     1      -7.233  -2.038  19.154  1.00  0.00     0.077 C 
HETATM   17  C17 UNL     1      -7.672  -3.434  19.672  1.00  0.00     0.178 C 
HETATM   18  F1  UNL     1      -7.737  -3.471  21.023  1.00  0.00    -0.249 F 
HETATM   19  C18 UNL     1      -6.570  -4.263  19.068  1.00  0.00     0.075 C 
ENDROOT
BRANCH   1  20
HETATM   20  N2  UNL     1      -7.426   0.447  17.630  1.00  0.00    -0.375 N 
ATOM     21  H2  UNL     1      -8.337   0.349  18.078  1.00  0.00     0.161 HD
BRANCH  20  22
HETATM   22  C5  UNL     1      -6.507   1.280  18.328  1.00  0.00     0.123 C 
BRANCH  22  23
HETATM   23  C4  UNL     1      -7.272   2.361  19.143  1.00  0.00     0.050 C 
BRANCH  23  24
HETATM   24  C3  UNL     1      -7.295   3.581  18.250  1.00  0.00     0.273 C 
BRANCH  24  25
HETATM   25  N1  UNL     1      -5.909   3.839  17.868  1.00  0.00     0.080 N 
HETATM   26  C1  UNL     1      -5.277   4.655  18.910  1.00  0.00     0.309 C 
HETATM   27  C2  UNL     1      -5.941   4.597  16.612  1.00  0.00     0.309 C 
ENDBRANCH  24  25
ENDBRANCH  23  24
ENDBRANCH  22  23
ENDBRANCH  20  22
ENDBRANCH   1  20
TORSDOF 5
ENDMDL
MODEL 4
REMARK VINA RESULT: -7.091107364      2.547      6.154
REMARK  5 active torsions:
REMARK  status: ('A' for Active; 'I' for Inactive)
REMARK    1  A    between atoms: N1_2  and  C3_4 
REMARK    2  A    between atoms: C3_4  and  C4_5 
REMARK    3  A    between atoms: C4_5  and  C5_6 
REMARK    4  A    between atoms: C5_6  and  N2_7 
REMARK    5  A    between atoms: N2_7  and  C6_9 
ROOT
HETATM    1  C6  UNL     1      -7.768   0.586  16.048  1.00  0.00     0.122 A 
HETATM    2  C7  UNL     1      -8.538   1.385  16.932  1.00  0.00     0.066 A 
HETATM    3  C8  UNL     1      -9.380   2.347  16.413  1.00  0.00     0.162 A 
HETATM    4  N3  UNL     1      -9.450   2.518  15.081  1.00  0.00    -0.288 N 
ATOM      5  H3  UNL     1     -10.074   3.232  14.703  1.00  0.00     0.172 HD
HETATM    6  C9  UNL     1      -8.730   1.781  14.248  1.00  0.00     0.329 A 
HETATM    7  O1  UNL     1      -8.793   1.942  12.986  1.00  0.00    -0.246 OA
HETATM    8  N4  UNL     1      -7.880   0.806  14.719  1.00  0.00    -0.289 N 
HETATM    9  C10 UNL     1      -7.146   0.058  13.760  1.00  0.00     0.163 C 
HETATM   10  O2  UNL     1     -10.157   3.138  17.229  1.00  0.00    -0.320 OA
HETATM   11  C11 UNL     1      -9.952   3.208  18.592  1.00  0.00     0.086 C 
HETATM   12  C12 UNL     1      -9.334   4.555  18.989  1.00  0.00     0.051 C 
HETATM   13  C13 UNL     1     -11.297   3.072  19.291  1.00  0.00     0.051 C 
HETATM   14  C14 UNL     1      -9.048   2.179  19.125  1.00  0.00    -0.036 C 
HETATM   15  C15 UNL     1      -8.362   1.303  18.389  1.00  0.00    -0.032 C 
HETATM   16  C16 UNL     1      -7.511   0.501  19.283  1.00  0.00     0.077 C 
HETATM   17  C17 UNL     1      -7.346   1.459  20.492  1.00  0.00     0.178 C 
HETATM   18  F1  UNL     1      -6.896   0.809  21.590  1.00  0.00    -0.249 F 
HETATM   19  C18 UNL     1      -8.764   1.957  20.589  1.00  0.00     0.075 C 
ENDROOT
BRANCH   1  20
HETATM   20  N2  UNL     1      -7.094  -0.502  16.570  1.00  0.00    -0.375 N 
ATOM     21  H2  UNL     1      -6.185  -0.284  16.979  1.00  0.00     0.161 HD
BRANCH  20  22
HETATM   22  C5  UNL     1      -7.459  -1.876  16.632  1.00  0.00     0.123 C 
BRANCH  22  23
HETATM   23  C4  UNL     1      -6.471  -2.656  17.544  1.00  0.00     0.050 C 
BRANCH  23  24
HETATM   24  C3  UNL     1      -5.606  -3.453  16.592  1.00  0.00     0.273 C 
BRANCH  24  25
HETATM   25  N1  UNL     1      -5.675  -4.842  17.039  1.00  0.00     0.080 N 
HETATM   26  C1  UNL     1      -6.665  -5.551  16.223  1.00  0.00     0.309 C 
HETATM   27  C2  UNL     1      -6.122  -4.824  18.436  1.00  0.00     0.309 C 
ENDBRANCH  24  25
ENDBRANCH  23  24
ENDBRANCH  22  23
ENDBRANCH  20  22
ENDBRANCH   1  20
TORSDOF 5
ENDMDL
MODEL 5
REMARK VINA RESULT: -6.878256961      3.200      6.988
REMARK  5 active torsions:
REMARK  status: ('A' for Active; 'I' for Inactive)
REMARK    1  A    between atoms: N1_2  and  C3_4 
REMARK    2  A    between atoms: C3_4  and  C4_5 
REMARK    3  A    between atoms: C4_5  and  C5_6 
REMARK    4  A    between atoms: C5_6  and  N2_7 
REMARK    5  A    between atoms: N2_7  and  C6_9 
ROOT
HETATM    1  C6  UNL     1      -7.369  -0.503  17.894  1.00  0.00     0.122 A 
HETATM    2  C7  UNL     1      -7.245   0.846  17.471  1.00  0.00     0.066 A 
HETATM    3  C8  UNL     1      -6.933   1.819  18.399  1.00  0.00     0.162 A 
HETATM    4  N3  UNL     1      -6.763   1.475  19.688  1.00  0.00    -0.288 N 
ATOM      5  H3  UNL     1      -6.535   2.199  20.369  1.00  0.00     0.172 HD
HETATM    6  C9  UNL     1      -6.884   0.220  20.094  1.00  0.00     0.329 A 
HETATM    7  O1  UNL     1      -6.726  -0.108  21.314  1.00  0.00    -0.246 OA
HETATM    8  N4  UNL     1      -7.188  -0.785  19.203  1.00  0.00    -0.289 N 
HETATM    9  C10 UNL     1      -7.297  -2.105  19.719  1.00  0.00     0.163 C 
HETATM   10  O2  UNL     1      -6.788   3.139  18.034  1.00  0.00    -0.320 OA
HETATM   11  C11 UNL     1      -7.199   3.608  16.803  1.00  0.00     0.086 C 
HETATM   12  C12 UNL     1      -8.460   4.471  16.935  1.00  0.00     0.051 C 
HETATM   13  C13 UNL     1      -6.087   4.467  16.219  1.00  0.00     0.051 C 
HETATM   14  C14 UNL     1      -7.531   2.557  15.831  1.00  0.00    -0.036 C 
HETATM   15  C15 UNL     1      -7.568   1.250  16.095  1.00  0.00    -0.032 C 
HETATM   16  C16 UNL     1      -8.021   0.538  14.890  1.00  0.00     0.077 C 
HETATM   17  C17 UNL     1      -8.821   1.650  14.159  1.00  0.00     0.178 C 
HETATM   18  F1  UNL     1      -9.040   1.340  12.860  1.00  0.00    -0.249 F 
HETATM   19  C18 UNL     1      -7.877   2.801  14.385  1.00  0.00     0.075 C 
ENDROOT
BRANCH   1  20
HETATM   20  N2  UNL     1      -7.473  -1.484  16.927  1.00  0.00    -0.375 N 
ATOM     21  H2  UNL     1      -8.412  -1.864  16.805  1.00  0.00     0.161 HD
BRANCH  20  22
HETATM   22  C5  UNL     1      -6.488  -2.051  16.071  1.00  0.00     0.123 C 
BRANCH  22  23
HETATM   23  C4  UNL     1      -5.561  -3.006  16.875  1.00  0.00     0.050 C 
BRANCH  23  24
HETATM   24  C3  UNL     1      -5.281  -4.160  15.938  1.00  0.00     0.273 C 
BRANCH  24  25
HETATM   25  N1  UNL     1      -5.701  -5.371  16.639  1.00  0.00     0.080 N 
HETATM   26  C1  UNL     1      -7.058  -5.719  16.210  1.00  0.00     0.309 C 
HETATM   27  C2  UNL     1      -5.711  -5.058  18.073  1.00  0.00     0.309 C 
ENDBRANCH  24  25
ENDBRANCH  23  24
ENDBRANCH  22  23
ENDBRANCH  20  22
ENDBRANCH   1  20
TORSDOF 5
ENDMDL
