MODEL 1
REMARK VINA RESULT: -5.809600521      0.000      0.000
REMARK  6 active torsions:
REMARK  status: ('A' for Active; 'I' for Inactive)
REMARK    1  A    between atoms: C2_2  and  N1_3 
REMARK    2  A    between atoms: N1_3  and  C3_5 
REMARK    3  A    between atoms: C4_8  and  N3_9 
REMARK    4  A    between atoms: N4_12  and  C7_13 
REMARK    5  A    between atoms: C7_13  and  C8_14 
REMARK    6  A    between atoms: C8_14  and  O1_15 
ROOT
HETATM    1  C3  UNL     1     -10.896   3.196  17.127  1.00  0.00     0.147 A 
HETATM    2  N2  UNL     1     -10.104   2.170  16.822  1.00  0.00    -0.322 N 
ATOM      3  H2  UNL     1     -10.515   1.240  16.907  1.00  0.00     0.169 HD
HETATM    4  C4  UNL     1      -8.822   2.223  16.414  1.00  0.00     0.129 A 
HETATM    5  C12 UNL     1      -8.100   3.360  16.240  1.00  0.00     0.106 A 
HETATM    6 CL1  UNL     1      -6.417   3.350  15.653  1.00  0.00    -0.078 Cl
HETATM    7  C13 UNL     1      -8.575   4.663  16.459  1.00  0.00     0.100 A 
HETATM    8  S1  UNL     1      -7.651   5.989  16.230  1.00  0.00    -0.070 SA
HETATM    9  S2  UNL     1     -10.190   4.737  16.979  1.00  0.00    -0.041 SA
ENDROOT
BRANCH   4  10
HETATM   10  N3  UNL     1      -8.233   0.948  16.138  1.00  0.00    -0.362 N 
HETATM   11  C5  UNL     1      -7.310   0.233  16.976  1.00  0.00     0.154 C 
HETATM   12  C6  UNL     1      -7.479  -1.273  16.639  1.00  0.00     0.292 C 
HETATM   13  N4  UNL     1      -7.024  -1.564  15.300  1.00  0.00     0.093 N 
HETATM   14  C10 UNL     1      -7.229  -0.453  14.453  1.00  0.00     0.292 C 
HETATM   15  C11 UNL     1      -8.542   0.269  14.857  1.00  0.00     0.154 C 
BRANCH  13  16
HETATM   16  C7  UNL     1      -5.801  -2.250  15.319  1.00  0.00     0.298 C 
BRANCH  16  17
HETATM   17  C8  UNL     1      -5.745  -3.555  16.040  1.00  0.00     0.197 C 
BRANCH  17  18
HETATM   18  O1  UNL     1      -6.181  -4.664  15.367  1.00  0.00    -0.394 OA
HETATM   19  C9  UNL     1      -6.776  -5.621  16.176  1.00  0.00     0.201 C 
ENDBRANCH  17  18
ENDBRANCH  16  17
ENDBRANCH  13  16
ENDBRANCH   4  10
BRANCH   1  20
HETATM   20  N1  UNL     1     -12.128   3.058  17.509  1.00  0.00    -0.371 N 
ATOM     21  H1  UNL     1     -12.757   3.862  17.501  1.00  0.00     0.161 HD
BRANCH  20  22
HETATM   22  C2  UNL     1     -12.612   1.770  17.946  1.00  0.00     0.117 C 
HETATM   23  C1  UNL     1     -13.002   1.715  19.385  1.00  0.00     0.026 C 
ENDBRANCH  20  22
ENDBRANCH   1  20
TORSDOF 6
ENDMDL
MODEL 2
REMARK VINA RESULT: -5.580251916      4.175      7.228
REMARK  6 active torsions:
REMARK  status: ('A' for Active; 'I' for Inactive)
REMARK    1  A    between atoms: C2_2  and  N1_3 
REMARK    2  A    between atoms: N1_3  and  C3_5 
REMARK    3  A    between atoms: C4_8  and  N3_9 
REMARK    4  A    between atoms: N4_12  and  C7_13 
REMARK    5  A    between atoms: C7_13  and  C8_14 
REMARK    6  A    between atoms: C8_14  and  O1_15 
ROOT
HETATM    1  C3  UNL     1      -8.537   2.374  14.286  1.00  0.00     0.147 A 
HETATM    2  N2  UNL     1      -9.561   2.606  15.103  1.00  0.00    -0.322 N 
ATOM      3  H2  UNL     1     -10.476   2.283  14.787  1.00  0.00     0.169 HD
HETATM    4  C4  UNL     1      -9.526   3.219  16.302  1.00  0.00     0.129 A 
HETATM    5  C12 UNL     1      -8.411   3.719  16.895  1.00  0.00     0.106 A 
HETATM    6 CL1  UNL     1      -8.437   4.479  18.507  1.00  0.00    -0.078 Cl
HETATM    7  C13 UNL     1      -7.117   3.676  16.352  1.00  0.00     0.100 A 
HETATM    8  S1  UNL     1      -5.818   4.298  17.121  1.00  0.00    -0.070 SA
HETATM    9  S2  UNL     1      -7.023   2.922  14.833  1.00  0.00    -0.041 SA
ENDROOT
BRANCH   4  10
HETATM   10  N3  UNL     1     -10.792   3.303  16.964  1.00  0.00    -0.362 N 
HETATM   11  C5  UNL     1     -11.739   4.381  16.867  1.00  0.00     0.154 C 
HETATM   12  C6  UNL     1     -13.136   3.772  17.162  1.00  0.00     0.292 C 
HETATM   13  N4  UNL     1     -13.241   3.346  18.537  1.00  0.00     0.093 N 
HETATM   14  C10 UNL     1     -11.985   2.921  19.024  1.00  0.00     0.292 C 
HETATM   15  C11 UNL     1     -11.202   2.215  17.884  1.00  0.00     0.154 C 
BRANCH  13  16
HETATM   16  C7  UNL     1     -14.051   4.220  19.278  1.00  0.00     0.298 C 
BRANCH  16  17
HETATM   17  C8  UNL     1     -14.536   3.757  20.610  1.00  0.00     0.197 C 
BRANCH  17  18
HETATM   18  O1  UNL     1     -14.910   2.446  20.723  1.00  0.00    -0.394 OA
HETATM   19  C9  UNL     1     -16.218   2.263  21.146  1.00  0.00     0.201 C 
ENDBRANCH  17  18
ENDBRANCH  16  17
ENDBRANCH  13  16
ENDBRANCH   4  10
BRANCH   1  20
HETATM   20  N1  UNL     1      -8.657   1.769  13.144  1.00  0.00    -0.371 N 
ATOM     21  H1  UNL     1      -9.118   2.239  12.365  1.00  0.00     0.161 HD
BRANCH  20  22
HETATM   22  C2  UNL     1      -8.139   0.431  12.975  1.00  0.00     0.117 C 
HETATM   23  C1  UNL     1      -6.988   0.332  12.032  1.00  0.00     0.026 C 
ENDBRANCH  20  22
ENDBRANCH   1  20
TORSDOF 6
ENDMDL
MODEL 3
REMARK VINA RESULT: -5.518948710      0.917      1.421
REMARK  6 active torsions:
REMARK  status: ('A' for Active; 'I' for Inactive)
REMARK    1  A    between atoms: C2_2  and  N1_3 
REMARK    2  A    between atoms: N1_3  and  C3_5 
REMARK    3  A    between atoms: C4_8  and  N3_9 
REMARK    4  A    between atoms: N4_12  and  C7_13 
REMARK    5  A    between atoms: C7_13  and  C8_14 
REMARK    6  A    between atoms: C8_14  and  O1_15 
ROOT
HETATM    1  C3  UNL     1     -11.056   2.690  17.301  1.00  0.00     0.147 A 
HETATM    2  N2  UNL     1     -10.114   1.753  17.233  1.00  0.00    -0.322 N 
ATOM      3  H2  UNL     1     -10.394   0.808  17.496  1.00  0.00     0.169 HD
HETATM    4  C4  UNL     1      -8.831   1.913  16.857  1.00  0.00     0.129 A 
HETATM    5  C12 UNL     1      -8.266   3.088  16.473  1.00  0.00     0.106 A 
HETATM    6 CL1  UNL     1      -6.569   3.211  15.944  1.00  0.00    -0.078 Cl
HETATM    7  C13 UNL     1      -8.930   4.323  16.409  1.00  0.00     0.100 A 
HETATM    8  S1  UNL     1      -8.190   5.699  15.938  1.00  0.00    -0.070 SA
HETATM    9  S2  UNL     1     -10.566   4.258  16.861  1.00  0.00    -0.041 SA
ENDROOT
BRANCH   4  10
HETATM   10  N3  UNL     1      -8.055   0.711  16.862  1.00  0.00    -0.362 N 
HETATM   11  C5  UNL     1      -8.060  -0.315  15.853  1.00  0.00     0.154 C 
HETATM   12  C6  UNL     1      -6.674  -1.011  15.922  1.00  0.00     0.292 C 
HETATM   13  N4  UNL     1      -6.518  -1.744  17.156  1.00  0.00     0.093 N 
HETATM   14  C10 UNL     1      -7.230  -1.116  18.201  1.00  0.00     0.292 C 
HETATM   15  C11 UNL     1      -7.169   0.424  18.015  1.00  0.00     0.154 C 
BRANCH  13  16
HETATM   16  C7  UNL     1      -6.611  -3.127  16.940  1.00  0.00     0.298 C 
BRANCH  16  17
HETATM   17  C8  UNL     1      -5.769  -3.721  15.861  1.00  0.00     0.197 C 
BRANCH  17  18
HETATM   18  O1  UNL     1      -6.179  -4.912  15.327  1.00  0.00    -0.394 OA
HETATM   19  C9  UNL     1      -6.914  -5.702  16.198  1.00  0.00     0.201 C 
ENDBRANCH  17  18
ENDBRANCH  16  17
ENDBRANCH  13  16
ENDBRANCH   4  10
BRANCH   1  20
HETATM   20  N1  UNL     1     -12.277   2.449  17.672  1.00  0.00    -0.371 N 
ATOM     21  H1  UNL     1     -13.055   2.865  17.160  1.00  0.00     0.161 HD
BRANCH  20  22
HETATM   22  C2  UNL     1     -12.535   1.595  18.807  1.00  0.00     0.117 C 
HETATM   23  C1  UNL     1     -13.490   2.165  19.802  1.00  0.00     0.026 C 
ENDBRANCH  20  22
ENDBRANCH   1  20
TORSDOF 6
ENDMDL
MODEL 4
REMARK VINA RESULT: -5.480327282      3.025      4.160
REMARK  6 active torsions:
REMARK  status: ('A' for Active; 'I' for Inactive)
REMARK    1  A    between atoms: C2_2  and  N1_3 
REMARK    2  A    between atoms: N1_3  and  C3_5 
REMARK    3  A    between atoms: C4_8  and  N3_9 
REMARK    4  A    between atoms: N4_12  and  C7_13 
REMARK    5  A    between atoms: C7_13  and  C8_14 
REMARK    6  A    between atoms: C8_14  and  O1_15 
ROOT
HETATM    1  C3  UNL     1      -9.010   2.206  14.979  1.00  0.00     0.147 A 
HETATM    2  N2  UNL     1      -8.531   1.312  15.841  1.00  0.00    -0.322 N 
ATOM      3  H2  UNL     1      -8.789   1.443  16.819  1.00  0.00     0.169 HD
HETATM    4  C4  UNL     1      -7.743   0.255  15.566  1.00  0.00     0.129 A 
HETATM    5  C12 UNL     1      -7.292  -0.088  14.331  1.00  0.00     0.106 A 
HETATM    6 CL1  UNL     1      -6.288  -1.531  14.041  1.00  0.00    -0.078 Cl
HETATM    7  C13 UNL     1      -7.575   0.607  13.145  1.00  0.00     0.100 A 
HETATM    8  S1  UNL     1      -6.999   0.138  11.691  1.00  0.00    -0.070 SA
HETATM    9  S2  UNL     1      -8.566   1.969  13.354  1.00  0.00    -0.041 SA
ENDROOT
BRANCH   4  10
HETATM   10  N3  UNL     1      -7.405  -0.545  16.703  1.00  0.00    -0.362 N 
HETATM   11  C5  UNL     1      -7.275  -1.977  16.734  1.00  0.00     0.154 C 
HETATM   12  C6  UNL     1      -6.294  -2.310  17.889  1.00  0.00     0.292 C 
HETATM   13  N4  UNL     1      -6.871  -1.990  19.174  1.00  0.00     0.093 N 
HETATM   14  C10 UNL     1      -7.747  -0.887  19.065  1.00  0.00     0.292 C 
HETATM   15  C11 UNL     1      -7.192   0.112  18.015  1.00  0.00     0.154 C 
BRANCH  13  16
HETATM   16  C7  UNL     1      -7.244  -3.151  19.865  1.00  0.00     0.298 C 
BRANCH  16  17
HETATM   17  C8  UNL     1      -7.117  -4.456  19.153  1.00  0.00     0.197 C 
BRANCH  17  18
HETATM   18  O1  UNL     1      -5.941  -5.141  19.302  1.00  0.00    -0.394 OA
HETATM   19  C9  UNL     1      -5.451  -5.689  18.126  1.00  0.00     0.201 C 
ENDBRANCH  17  18
ENDBRANCH  16  17
ENDBRANCH  13  16
ENDBRANCH   4  10
BRANCH   1  20
HETATM   20  N1  UNL     1      -9.771   3.198  15.327  1.00  0.00    -0.371 N 
ATOM     21  H1  UNL     1     -10.695   3.303  14.908  1.00  0.00     0.161 HD
BRANCH  20  22
HETATM   22  C2  UNL     1      -9.311   4.155  16.307  1.00  0.00     0.117 C 
HETATM   23  C1  UNL     1      -8.181   5.013  15.846  1.00  0.00     0.026 C 
ENDBRANCH  20  22
ENDBRANCH   1  20
TORSDOF 6
ENDMDL
MODEL 5
REMARK VINA RESULT: -5.448591489      3.224      3.662
REMARK  6 active torsions:
REMARK  status: ('A' for Active; 'I' for Inactive)
REMARK    1  A    between atoms: C2_2  and  N1_3 
REMARK    2  A    between atoms: N1_3  and  C3_5 
REMARK    3  A    between atoms: C4_8  and  N3_9 
REMARK    4  A    between atoms: N4_12  and  C7_13 
REMARK    5  A    between atoms: C7_13  and  C8_14 
REMARK    6  A    between atoms: C8_14  and  O1_15 
ROOT
HETATM    1  C3  UNL     1     -10.920   1.502  20.413  1.00  0.00     0.147 A 
HETATM    2  N2  UNL     1     -10.017   0.672  19.895  1.00  0.00    -0.322 N 
ATOM      3  H2  UNL     1     -10.382  -0.128  19.377  1.00  0.00     0.169 HD
HETATM    4  C4  UNL     1      -8.677   0.768  19.980  1.00  0.00     0.129 A 
HETATM    5  C12 UNL     1      -8.001   1.755  20.625  1.00  0.00     0.106 A 
HETATM    6 CL1  UNL     1      -6.221   1.839  20.654  1.00  0.00    -0.078 Cl
HETATM    7  C13 UNL     1      -8.592   2.830  21.306  1.00  0.00     0.100 A 
HETATM    8  S1  UNL     1      -7.717   3.983  22.061  1.00  0.00    -0.070 SA
HETATM    9  S2  UNL     1     -10.290   2.826  21.274  1.00  0.00    -0.041 SA
ENDROOT
BRANCH   4  10
HETATM   10  N3  UNL     1      -7.962  -0.268  19.300  1.00  0.00    -0.362 N 
HETATM   11  C5  UNL     1      -7.621  -0.297  17.903  1.00  0.00     0.154 C 
HETATM   12  C6  UNL     1      -6.353  -1.183  17.774  1.00  0.00     0.292 C 
HETATM   13  N4  UNL     1      -6.644  -2.562  18.086  1.00  0.00     0.093 N 
HETATM   14  C10 UNL     1      -7.673  -2.648  19.050  1.00  0.00     0.292 C 
HETATM   15  C11 UNL     1      -7.538  -1.472  20.054  1.00  0.00     0.154 C 
BRANCH  13  16
HETATM   16  C7  UNL     1      -6.667  -3.350  16.926  1.00  0.00     0.298 C 
BRANCH  16  17
HETATM   17  C8  UNL     1      -5.690  -3.027  15.846  1.00  0.00     0.197 C 
BRANCH  17  18
HETATM   18  O1  UNL     1      -5.061  -4.075  15.232  1.00  0.00    -0.394 OA
HETATM   19  C9  UNL     1      -5.418  -5.321  15.727  1.00  0.00     0.201 C 
ENDBRANCH  17  18
ENDBRANCH  16  17
ENDBRANCH  13  16
ENDBRANCH   4  10
BRANCH   1  20
HETATM   20  N1  UNL     1     -12.200   1.337  20.280  1.00  0.00    -0.371 N 
ATOM     21  H1  UNL     1     -12.685   0.638  20.843  1.00  0.00     0.161 HD
BRANCH  20  22
HETATM   22  C2  UNL     1     -12.941   2.143  19.338  1.00  0.00     0.117 C 
HETATM   23  C1  UNL     1     -12.600   1.886  17.908  1.00  0.00     0.026 C 
ENDBRANCH  20  22
ENDBRANCH   1  20
TORSDOF 6
ENDMDL
