MODEL 1
REMARK VINA RESULT: -8.881210814      0.000      0.000
REMARK  13 active torsions:
REMARK  status: ('A' for Active; 'I' for Inactive)
REMARK       I    between atoms: C2_2  and  N1_4 
REMARK    1  A    between atoms: C3_7  and  N3_8 
REMARK    2  A    between atoms: N3_8  and  C4_10 
REMARK    3  A    between atoms: C4_10  and  C5_11 
REMARK    4  A    between atoms: C5_11  and  C6_12 
REMARK    5  A    between atoms: C6_12  and  N4_14 
REMARK    6  A    between atoms: N4_14  and  C8_16 
REMARK    7  A    between atoms: C9_17  and  C10_18 
REMARK    8  A    between atoms: C10_18  and  O2_19 
REMARK    9  A    between atoms: C10_18  and  O3_21 
REMARK   10  A    between atoms: C13_26  and  N5_27 
REMARK   11  A    between atoms: C15_34  and  C16_35 
REMARK   12  A    between atoms: N9_40  and  N10_41 
REMARK   13  A    between atoms: C17_44  and  O5_45 
ROOT
HETATM    1  C8  UNL     1      17.523  47.331  -6.969  1.00  0.00     0.090 A 
HETATM    2  C9  UNL     1      18.627  46.841  -6.316  1.00  0.00     0.138 A 
HETATM    3  O4  UNL     1      19.643  46.348  -7.030  1.00  0.00    -0.290 OA
HETATM    4  C11 UNL     1      19.635  46.311  -8.318  1.00  0.00     0.156 A 
HETATM    5  C12 UNL     1      18.579  46.773  -9.056  1.00  0.00     0.047 A 
HETATM    6  C13 UNL     1      17.508  47.291  -8.372  1.00  0.00     0.067 A 
HETATM    7  C14 UNL     1      18.499  46.760 -10.525  1.00  0.00     0.280 C 
HETATM    8  N6  UNL     1      19.625  46.158 -11.166  1.00  0.00    -0.044 N 
ATOM      9  H61 UNL     1      19.758  46.556 -12.096  1.00  0.00     0.280 HD
ATOM     10  H62 UNL     1      19.414  45.192 -11.417  1.00  0.00     0.280 HD
HETATM   11  C15 UNL     1      20.851  46.224 -10.414  1.00  0.00     0.342 C 
HETATM   12  N11 UNL     1      20.748  45.774  -9.082  1.00  0.00    -0.337 N 
ATOM     13  H11 UNL     1      21.412  45.113  -8.680  1.00  0.00     0.164 HD
ENDROOT
BRANCH   1  14
HETATM   14  N4  UNL     1      16.442  47.933  -6.268  1.00  0.00    -0.382 N 
ATOM     15  H4  UNL     1      15.605  47.387  -6.065  1.00  0.00     0.160 HD
BRANCH  14  16
HETATM   16  C6  UNL     1      16.522  49.306  -5.843  1.00  0.00     0.079 C 
HETATM   17  C7  UNL     1      16.219  49.577  -4.409  1.00  0.00     0.032 C 
BRANCH  16  18
HETATM   18  C5  UNL     1      15.642  50.171  -6.734  1.00  0.00     0.044 C 
BRANCH  18  19
HETATM   19  C4  UNL     1      16.578  51.036  -7.569  1.00  0.00     0.123 C 
BRANCH  19  20
HETATM   20  N3  UNL     1      16.147  50.985  -8.929  1.00  0.00    -0.375 N 
ATOM     21  H3  UNL     1      15.242  50.554  -9.120  1.00  0.00     0.161 HD
BRANCH  20  22
HETATM   22  C3  UNL     1      16.873  51.483 -10.025  1.00  0.00     0.116 A 
HETATM   23  N2  UNL     1      18.108  51.001 -10.249  1.00  0.00    -0.273 N 
HETATM   24  N1  UNL     1      18.893  51.355 -11.238  1.00  0.00    -0.186 N 
ATOM     25  H2  UNL     1      18.464  50.303  -9.596  1.00  0.00     0.189 HD
HETATM   26  C2  UNL     1      20.187  50.818 -11.432  1.00  0.00     0.241 C 
HETATM   27  C20 UNL     1      18.419  52.284 -12.107  1.00  0.00     0.269 A 
HETATM   28  C1  UNL     1      20.698  49.806 -10.482  1.00  0.00     0.119 C 
HETATM   29  O1  UNL     1      20.886  51.192 -12.389  1.00  0.00    -0.272 OA
HETATM   30  C19 UNL     1      17.168  52.825 -11.951  1.00  0.00     0.080 A 
HETATM   31  O6  UNL     1      19.122  52.660 -13.070  1.00  0.00    -0.266 OA
HETATM   32  C18 UNL     1      16.358  52.430 -10.890  1.00  0.00     0.055 A 
ENDBRANCH  20  22
ENDBRANCH  19  20
ENDBRANCH  18  19
ENDBRANCH  16  18
ENDBRANCH  14  16
ENDBRANCH   1  14
BRANCH   2  33
HETATM   33  C10 UNL     1      18.811  46.789  -4.855  1.00  0.00     0.315 C 
BRANCH  33  34
HETATM   34  O2  UNL     1      19.319  48.005  -4.355  1.00  0.00    -0.365 OA
ATOM     35  H2  UNL     1      19.479  47.957  -3.420  1.00  0.00     0.213 HD
ENDBRANCH  33  34
BRANCH  33  36
HETATM   36  O3  UNL     1      17.778  46.288  -4.123  1.00  0.00    -0.365 OA
ATOM     37  H3  UNL     1      17.256  46.913  -3.634  1.00  0.00     0.213 HD
ENDBRANCH  33  36
ENDBRANCH   2  33
BRANCH   6  38
HETATM   38  N5  UNL     1      16.468  47.752  -8.941  1.00  0.00    -0.397 N 
ATOM     39  H52 UNL     1      15.518  47.503  -8.666  1.00  0.00     0.156 HD
ATOM     40  H51 UNL     1      16.622  48.404  -9.711  1.00  0.00     0.156 HD
ENDBRANCH   6  38
BRANCH  11  41
HETATM   41  C16 UNL     1      21.891  45.580 -11.242  1.00  0.00     0.131 A 
HETATM   42  N7  UNL     1      22.342  46.078 -12.448  1.00  0.00    -0.281 N 
HETATM   43  N8  UNL     1      23.253  45.277 -12.923  1.00  0.00    -0.219 N 
ATOM     44  H7  UNL     1      22.015  46.935 -12.894  1.00  0.00     0.188 HD
HETATM   45  N9  UNL     1      23.468  44.255 -12.134  1.00  0.00    -0.163 N 
ATOM     46  H8  UNL     1      23.740  45.428 -13.806  1.00  0.00     0.210 HD
HETATM   47  C17 UNL     1      22.619  44.435 -11.075  1.00  0.00     0.208 A 
BRANCH  45  48
HETATM   48  N10 UNL     1      24.353  43.182 -12.275  1.00  0.00    -0.321 N 
ATOM     49 2H10 UNL     1      24.391  42.559 -13.082  1.00  0.00     0.179 HD
ATOM     50 1H10 UNL     1      25.077  42.843 -11.642  1.00  0.00     0.179 HD
ENDBRANCH  45  48
BRANCH  47  51
HETATM   51  O5  UNL     1      22.547  43.550 -10.009  1.00  0.00    -0.342 OA
ATOM     52  H5  UNL     1      22.375  42.617 -10.052  1.00  0.00     0.219 HD
ENDBRANCH  47  51
ENDBRANCH  11  41
TORSDOF 13
ENDMDL
MODEL 2
REMARK VINA RESULT: -8.502319134      2.568      7.784
REMARK  13 active torsions:
REMARK  status: ('A' for Active; 'I' for Inactive)
REMARK       I    between atoms: C2_2  and  N1_4 
REMARK    1  A    between atoms: C3_7  and  N3_8 
REMARK    2  A    between atoms: N3_8  and  C4_10 
REMARK    3  A    between atoms: C4_10  and  C5_11 
REMARK    4  A    between atoms: C5_11  and  C6_12 
REMARK    5  A    between atoms: C6_12  and  N4_14 
REMARK    6  A    between atoms: N4_14  and  C8_16 
REMARK    7  A    between atoms: C9_17  and  C10_18 
REMARK    8  A    between atoms: C10_18  and  O2_19 
REMARK    9  A    between atoms: C10_18  and  O3_21 
REMARK   10  A    between atoms: C13_26  and  N5_27 
REMARK   11  A    between atoms: C15_34  and  C16_35 
REMARK   12  A    between atoms: N9_40  and  N10_41 
REMARK   13  A    between atoms: C17_44  and  O5_45 
ROOT
HETATM    1  C8  UNL     1      20.195  47.344  -7.799  1.00  0.00     0.090 A 
HETATM    2  C9  UNL     1      19.141  47.728  -7.007  1.00  0.00     0.138 A 
HETATM    3  O4  UNL     1      18.321  48.694  -7.433  1.00  0.00    -0.290 OA
HETATM    4  C11 UNL     1      18.478  49.289  -8.566  1.00  0.00     0.156 A 
HETATM    5  C12 UNL     1      19.500  48.978  -9.420  1.00  0.00     0.047 A 
HETATM    6  C13 UNL     1      20.371  47.992  -9.031  1.00  0.00     0.067 A 
HETATM    7  C14 UNL     1      19.741  49.617 -10.724  1.00  0.00     0.280 C 
HETATM    8  N6  UNL     1      18.828  50.669 -11.036  1.00  0.00    -0.044 N 
ATOM      9  H61 UNL     1      18.724  50.759 -12.047  1.00  0.00     0.280 HD
ATOM     10  H62 UNL     1      19.245  51.575 -10.821  1.00  0.00     0.280 HD
HETATM   11  C15 UNL     1      17.538  50.552 -10.410  1.00  0.00     0.342 C 
HETATM   12  N11 UNL     1      17.578  50.337  -9.017  1.00  0.00    -0.337 N 
ATOM     13  H11 UNL     1      17.012  50.882  -8.368  1.00  0.00     0.164 HD
ENDROOT
BRANCH   1  14
HETATM   14  N4  UNL     1      21.058  46.276  -7.432  1.00  0.00    -0.382 N 
ATOM     15  H4  UNL     1      21.988  46.478  -7.069  1.00  0.00     0.160 HD
BRANCH  14  16
HETATM   16  C6  UNL     1      20.625  44.908  -7.571  1.00  0.00     0.079 C 
HETATM   17  C7  UNL     1      20.718  44.056  -6.353  1.00  0.00     0.032 C 
BRANCH  16  18
HETATM   18  C5  UNL     1      21.368  44.251  -8.726  1.00  0.00     0.044 C 
BRANCH  18  19
HETATM   19  C4  UNL     1      20.392  44.186  -9.894  1.00  0.00     0.123 C 
BRANCH  19  20
HETATM   20  N3  UNL     1      21.077  43.643 -11.023  1.00  0.00    -0.375 N 
ATOM     21  H3  UNL     1      20.737  42.757 -11.398  1.00  0.00     0.161 HD
BRANCH  20  22
HETATM   22  C3  UNL     1      22.183  44.234 -11.658  1.00  0.00     0.116 A 
HETATM   23  N2  UNL     1      23.342  43.553 -11.694  1.00  0.00    -0.273 N 
HETATM   24  N1  UNL     1      24.448  43.967 -12.264  1.00  0.00    -0.186 N 
ATOM     25  H2  UNL     1      23.363  42.640 -11.241  1.00  0.00     0.189 HD
HETATM   26  C2  UNL     1      25.644  43.213 -12.275  1.00  0.00     0.241 C 
HETATM   27  C20 UNL     1      24.419  45.183 -12.867  1.00  0.00     0.269 A 
HETATM   28  C1  UNL     1      25.669  41.889 -11.616  1.00  0.00     0.119 C 
HETATM   29  O1  UNL     1      26.662  43.658 -12.832  1.00  0.00    -0.272 OA
HETATM   30  C19 UNL     1      23.277  45.942 -12.877  1.00  0.00     0.080 A 
HETATM   31  O6  UNL     1      25.444  45.631 -13.428  1.00  0.00    -0.266 OA
HETATM   32  C18 UNL     1      22.118  45.475 -12.262  1.00  0.00     0.055 A 
ENDBRANCH  20  22
ENDBRANCH  19  20
ENDBRANCH  18  19
ENDBRANCH  16  18
ENDBRANCH  14  16
ENDBRANCH   1  14
BRANCH   2  33
HETATM   33  C10 UNL     1      18.810  47.172  -5.683  1.00  0.00     0.315 C 
BRANCH  33  34
HETATM   34  O2  UNL     1      19.898  47.277  -4.793  1.00  0.00    -0.365 OA
ATOM     35  H2  UNL     1      20.256  48.157  -4.784  1.00  0.00     0.213 HD
ENDBRANCH  33  34
BRANCH  33  36
HETATM   36  O3  UNL     1      17.621  47.550  -5.138  1.00  0.00    -0.365 OA
ATOM     37  H3  UNL     1      17.225  46.950  -4.517  1.00  0.00     0.213 HD
ENDBRANCH  33  36
ENDBRANCH   2  33
BRANCH   6  38
HETATM   38  N5  UNL     1      21.360  47.611  -9.736  1.00  0.00    -0.397 N 
ATOM     39  H52 UNL     1      22.327  47.647  -9.414  1.00  0.00     0.156 HD
ATOM     40  H51 UNL     1      21.144  47.255 -10.667  1.00  0.00     0.156 HD
ENDBRANCH   6  38
BRANCH  11  41
HETATM   41  C16 UNL     1      16.736  51.705 -10.870  1.00  0.00     0.131 A 
HETATM   42  N7  UNL     1      16.333  51.898 -12.175  1.00  0.00    -0.281 N 
HETATM   43  N8  UNL     1      15.650  53.005 -12.248  1.00  0.00    -0.219 N 
ATOM     44  H7  UNL     1      16.537  51.275 -12.956  1.00  0.00     0.188 HD
HETATM   45  N9  UNL     1      15.549  53.597 -11.085  1.00  0.00    -0.163 N 
ATOM     46  H8  UNL     1      15.242  53.368 -13.109  1.00  0.00     0.210 HD
HETATM   47  C17 UNL     1      16.227  52.789 -10.212  1.00  0.00     0.208 A 
BRANCH  45  48
HETATM   48  N10 UNL     1      14.906  54.788 -10.737  1.00  0.00    -0.321 N 
ATOM     49 2H10 UNL     1      14.895  55.634 -11.307  1.00  0.00     0.179 HD
ATOM     50 1H10 UNL     1      14.365  55.021  -9.904  1.00  0.00     0.179 HD
ENDBRANCH  45  48
BRANCH  47  51
HETATM   51  O5  UNL     1      16.349  53.077  -8.860  1.00  0.00    -0.342 OA
ATOM     52  H5  UNL     1      15.954  52.604  -8.137  1.00  0.00     0.219 HD
ENDBRANCH  47  51
ENDBRANCH  11  41
TORSDOF 13
ENDMDL
MODEL 3
REMARK VINA RESULT: -8.445898996      2.996      8.270
REMARK  13 active torsions:
REMARK  status: ('A' for Active; 'I' for Inactive)
REMARK       I    between atoms: C2_2  and  N1_4 
REMARK    1  A    between atoms: C3_7  and  N3_8 
REMARK    2  A    between atoms: N3_8  and  C4_10 
REMARK    3  A    between atoms: C4_10  and  C5_11 
REMARK    4  A    between atoms: C5_11  and  C6_12 
REMARK    5  A    between atoms: C6_12  and  N4_14 
REMARK    6  A    between atoms: N4_14  and  C8_16 
REMARK    7  A    between atoms: C9_17  and  C10_18 
REMARK    8  A    between atoms: C10_18  and  O2_19 
REMARK    9  A    between atoms: C10_18  and  O3_21 
REMARK   10  A    between atoms: C13_26  and  N5_27 
REMARK   11  A    between atoms: C15_34  and  C16_35 
REMARK   12  A    between atoms: N9_40  and  N10_41 
REMARK   13  A    between atoms: C17_44  and  O5_45 
ROOT
HETATM    1  C8  UNL     1      18.729  45.814  -7.301  1.00  0.00     0.090 A 
HETATM    2  C9  UNL     1      18.724  45.886  -5.930  1.00  0.00     0.138 A 
HETATM    3  O4  UNL     1      18.467  47.056  -5.337  1.00  0.00    -0.290 OA
HETATM    4  C11 UNL     1      18.222  48.133  -6.002  1.00  0.00     0.156 A 
HETATM    5  C12 UNL     1      18.208  48.160  -7.370  1.00  0.00     0.047 A 
HETATM    6  C13 UNL     1      18.465  46.985  -8.029  1.00  0.00     0.067 A 
HETATM    7  C14 UNL     1      17.940  49.351  -8.193  1.00  0.00     0.280 C 
HETATM    8  N6  UNL     1      17.735  50.547  -7.440  1.00  0.00    -0.044 N 
ATOM      9  H61 UNL     1      17.133  51.190  -7.954  1.00  0.00     0.280 HD
ATOM     10  H62 UNL     1      18.594  51.097  -7.409  1.00  0.00     0.280 HD
HETATM   11  C15 UNL     1      17.225  50.340  -6.109  1.00  0.00     0.342 C 
HETATM   12  N11 UNL     1      17.943  49.398  -5.345  1.00  0.00    -0.337 N 
ATOM     13  H11 UNL     1      18.247  49.593  -4.391  1.00  0.00     0.164 HD
ENDROOT
BRANCH   1  14
HETATM   14  N4  UNL     1      18.924  44.585  -7.987  1.00  0.00    -0.382 N 
ATOM     15  H4  UNL     1      18.118  44.059  -8.323  1.00  0.00     0.160 HD
BRANCH  14  16
HETATM   16  C6  UNL     1      20.254  44.076  -8.210  1.00  0.00     0.079 C 
HETATM   17  C7  UNL     1      21.321  45.088  -8.447  1.00  0.00     0.032 C 
BRANCH  16  18
HETATM   18  C5  UNL     1      20.231  43.065  -9.348  1.00  0.00     0.044 C 
BRANCH  18  19
HETATM   19  C4  UNL     1      20.026  43.856 -10.633  1.00  0.00     0.123 C 
BRANCH  19  20
HETATM   20  N3  UNL     1      20.982  43.410 -11.595  1.00  0.00    -0.375 N 
ATOM     21  H3  UNL     1      20.811  42.511 -12.047  1.00  0.00     0.161 HD
BRANCH  20  22
HETATM   22  C3  UNL     1      22.142  44.113 -11.966  1.00  0.00     0.116 A 
HETATM   23  N2  UNL     1      23.317  43.460 -11.964  1.00  0.00    -0.273 N 
HETATM   24  N1  UNL     1      24.473  43.978 -12.303  1.00  0.00    -0.186 N 
ATOM     25  H2  UNL     1      23.309  42.482 -11.674  1.00  0.00     0.189 HD
HETATM   26  C2  UNL     1      25.685  43.248 -12.283  1.00  0.00     0.241 C 
HETATM   27  C20 UNL     1      24.484  45.280 -12.687  1.00  0.00     0.269 A 
HETATM   28  C1  UNL     1      25.667  41.830 -11.863  1.00  0.00     0.119 C 
HETATM   29  O1  UNL     1      26.752  43.793 -12.616  1.00  0.00    -0.272 OA
HETATM   30  C19 UNL     1      23.328  46.017 -12.719  1.00  0.00     0.080 A 
HETATM   31  O6  UNL     1      25.556  45.827 -13.022  1.00  0.00    -0.266 OA
HETATM   32  C18 UNL     1      22.115  45.440 -12.353  1.00  0.00     0.055 A 
ENDBRANCH  20  22
ENDBRANCH  19  20
ENDBRANCH  18  19
ENDBRANCH  16  18
ENDBRANCH  14  16
ENDBRANCH   1  14
BRANCH   2  33
HETATM   33  C10 UNL     1      18.992  44.769  -5.007  1.00  0.00     0.315 C 
BRANCH  33  34
HETATM   34  O2  UNL     1      18.739  45.131  -3.669  1.00  0.00    -0.365 OA
ATOM     35  H2  UNL     1      17.831  45.382  -3.543  1.00  0.00     0.213 HD
ENDBRANCH  33  34
BRANCH  33  36
HETATM   36  O3  UNL     1      18.481  43.554  -5.350  1.00  0.00    -0.365 OA
ATOM     37  H3  UNL     1      17.814  43.545  -6.026  1.00  0.00     0.213 HD
ENDBRANCH  33  36
ENDBRANCH   2  33
BRANCH   6  38
HETATM   38  N5  UNL     1      18.480  46.880  -9.297  1.00  0.00    -0.397 N 
ATOM     39  H52 UNL     1      19.334  46.749  -9.840  1.00  0.00     0.156 HD
ATOM     40  H51 UNL     1      17.577  46.932  -9.768  1.00  0.00     0.156 HD
ENDBRANCH   6  38
BRANCH  11  41
HETATM   41  C16 UNL     1      17.058  51.679  -5.507  1.00  0.00     0.131 A 
HETATM   42  N7  UNL     1      16.746  51.900  -4.181  1.00  0.00    -0.281 N 
HETATM   43  N8  UNL     1      16.667  53.184  -3.972  1.00  0.00    -0.219 N 
ATOM     44  H7  UNL     1      16.602  51.176  -3.478  1.00  0.00     0.188 HD
HETATM   45  N9  UNL     1      16.901  53.873  -5.060  1.00  0.00    -0.163 N 
ATOM     46  H8  UNL     1      16.448  53.602  -3.068  1.00  0.00     0.210 HD
HETATM   47  C17 UNL     1      17.149  52.939  -6.030  1.00  0.00     0.208 A 
BRANCH  45  48
HETATM   48  N10 UNL     1      16.915  55.256  -5.260  1.00  0.00    -0.321 N 
ATOM     49 2H10 UNL     1      16.090  55.828  -5.443  1.00  0.00     0.179 HD
ATOM     50 1H10 UNL     1      17.699  55.910  -5.264  1.00  0.00     0.179 HD
ENDBRANCH  45  48
BRANCH  47  51
HETATM   51  O5  UNL     1      17.445  53.277  -7.343  1.00  0.00    -0.342 OA
ATOM     52  H5  UNL     1      17.684  54.136  -7.671  1.00  0.00     0.219 HD
ENDBRANCH  47  51
ENDBRANCH  11  41
TORSDOF 13
ENDMDL
MODEL 4
REMARK VINA RESULT: -8.403348997      3.713      4.541
REMARK  13 active torsions:
REMARK  status: ('A' for Active; 'I' for Inactive)
REMARK       I    between atoms: C2_2  and  N1_4 
REMARK    1  A    between atoms: C3_7  and  N3_8 
REMARK    2  A    between atoms: N3_8  and  C4_10 
REMARK    3  A    between atoms: C4_10  and  C5_11 
REMARK    4  A    between atoms: C5_11  and  C6_12 
REMARK    5  A    between atoms: C6_12  and  N4_14 
REMARK    6  A    between atoms: N4_14  and  C8_16 
REMARK    7  A    between atoms: C9_17  and  C10_18 
REMARK    8  A    between atoms: C10_18  and  O2_19 
REMARK    9  A    between atoms: C10_18  and  O3_21 
REMARK   10  A    between atoms: C13_26  and  N5_27 
REMARK   11  A    between atoms: C15_34  and  C16_35 
REMARK   12  A    between atoms: N9_40  and  N10_41 
REMARK   13  A    between atoms: C17_44  and  O5_45 
ROOT
HETATM    1  C8  UNL     1      17.849  45.784  -7.106  1.00  0.00     0.090 A 
HETATM    2  C9  UNL     1      17.461  45.422  -5.839  1.00  0.00     0.138 A 
HETATM    3  O4  UNL     1      18.187  44.526  -5.164  1.00  0.00    -0.290 OA
HETATM    4  C11 UNL     1      19.247  43.978  -5.654  1.00  0.00     0.156 A 
HETATM    5  C12 UNL     1      19.709  44.274  -6.908  1.00  0.00     0.047 A 
HETATM    6  C13 UNL     1      19.001  45.189  -7.644  1.00  0.00     0.067 A 
HETATM    7  C14 UNL     1      20.907  43.687  -7.531  1.00  0.00     0.280 C 
HETATM    8  N6  UNL     1      21.561  42.703  -6.728  1.00  0.00    -0.044 N 
ATOM      9  H61 UNL     1      22.555  42.669  -6.951  1.00  0.00     0.280 HD
ATOM     10  H62 UNL     1      21.282  41.767  -7.019  1.00  0.00     0.280 HD
HETATM   11  C15 UNL     1      21.371  42.863  -5.310  1.00  0.00     0.342 C 
HETATM   12  N11 UNL     1      20.027  43.006  -4.908  1.00  0.00    -0.337 N 
ATOM     13  H11 UNL     1      19.629  42.462  -4.144  1.00  0.00     0.164 HD
ENDROOT
BRANCH   1  14
HETATM   14  N4  UNL     1      17.160  46.784  -7.844  1.00  0.00    -0.382 N 
ATOM     15  H4  UNL     1      16.441  46.512  -8.515  1.00  0.00     0.160 HD
BRANCH  14  16
HETATM   16  C6  UNL     1      17.469  48.178  -7.652  1.00  0.00     0.079 C 
HETATM   17  C7  UNL     1      18.555  48.490  -6.682  1.00  0.00     0.032 C 
BRANCH  16  18
HETATM   18  C5  UNL     1      16.202  48.936  -7.279  1.00  0.00     0.044 C 
BRANCH  18  19
HETATM   19  C4  UNL     1      16.379  50.361  -7.788  1.00  0.00     0.123 C 
BRANCH  19  20
HETATM   20  N3  UNL     1      16.041  50.389  -9.175  1.00  0.00    -0.375 N 
ATOM     21  H3  UNL     1      15.194  49.900  -9.463  1.00  0.00     0.161 HD
BRANCH  20  22
HETATM   22  C3  UNL     1      16.787  51.039 -10.174  1.00  0.00     0.116 A 
HETATM   23  N2  UNL     1      18.062  50.660 -10.372  1.00  0.00    -0.273 N 
HETATM   24  N1  UNL     1      18.871  51.160 -11.276  1.00  0.00    -0.186 N 
ATOM     25  H2  UNL     1      18.431  49.924  -9.770  1.00  0.00     0.189 HD
HETATM   26  C2  UNL     1      20.206  50.727 -11.445  1.00  0.00     0.241 C 
HETATM   27  C20 UNL     1      18.379  52.141 -12.076  1.00  0.00     0.269 A 
HETATM   28  C1  UNL     1      20.736  49.659 -10.570  1.00  0.00     0.119 C 
HETATM   29  O1  UNL     1      20.926  51.240 -12.320  1.00  0.00    -0.272 OA
HETATM   30  C19 UNL     1      17.089  52.584 -11.940  1.00  0.00     0.080 A 
HETATM   31  O6  UNL     1      19.103  52.655 -12.956  1.00  0.00    -0.266 OA
HETATM   32  C18 UNL     1      16.254  52.034 -10.971  1.00  0.00     0.055 A 
ENDBRANCH  20  22
ENDBRANCH  19  20
ENDBRANCH  18  19
ENDBRANCH  16  18
ENDBRANCH  14  16
ENDBRANCH   1  14
BRANCH   2  33
HETATM   33  C10 UNL     1      16.278  45.930  -5.123  1.00  0.00     0.315 C 
BRANCH  33  34
HETATM   34  O2  UNL     1      15.114  45.824  -5.908  1.00  0.00    -0.365 OA
ATOM     35  H2  UNL     1      14.855  44.918  -6.027  1.00  0.00     0.213 HD
ENDBRANCH  33  34
BRANCH  33  36
HETATM   36  O3  UNL     1      16.111  45.509  -3.839  1.00  0.00    -0.365 OA
ATOM     37  H3  UNL     1      15.217  45.368  -3.547  1.00  0.00     0.213 HD
ENDBRANCH  33  36
ENDBRANCH   2  33
BRANCH   6  38
HETATM   38  N5  UNL     1      19.328  45.548  -8.820  1.00  0.00    -0.397 N 
ATOM     39  H52 UNL     1      18.827  45.252  -9.658  1.00  0.00     0.156 HD
ATOM     40  H51 UNL     1      20.137  46.164  -8.899  1.00  0.00     0.156 HD
ENDBRANCH   6  38
BRANCH  11  41
HETATM   41  C16 UNL     1      22.136  41.780  -4.656  1.00  0.00     0.131 A 
HETATM   42  N7  UNL     1      21.691  41.067  -3.561  1.00  0.00    -0.281 N 
HETATM   43  N8  UNL     1      22.597  40.193  -3.228  1.00  0.00    -0.219 N 
ATOM     44  H7  UNL     1      20.797  41.203  -3.090  1.00  0.00     0.188 HD
HETATM   45  N9  UNL     1      23.643  40.246  -4.014  1.00  0.00    -0.163 N 
ATOM     46  H8  UNL     1      22.503  39.543  -2.447  1.00  0.00     0.210 HD
HETATM   47  C17 UNL     1      23.364  41.239  -4.914  1.00  0.00     0.208 A 
BRANCH  45  48
HETATM   48  N10 UNL     1      24.817  39.488  -3.997  1.00  0.00    -0.321 N 
ATOM     49 2H10 UNL     1      25.336  39.234  -3.156  1.00  0.00     0.179 HD
ATOM     50 1H10 UNL     1      25.341  39.076  -4.769  1.00  0.00     0.179 HD
ENDBRANCH  45  48
BRANCH  47  51
HETATM   51  O5  UNL     1      24.240  41.604  -5.927  1.00  0.00    -0.342 OA
ATOM     52  H5  UNL     1      25.189  41.616  -5.884  1.00  0.00     0.219 HD
ENDBRANCH  47  51
ENDBRANCH  11  41
TORSDOF 13
ENDMDL
MODEL 5
REMARK VINA RESULT: -8.388652715      1.747      5.318
REMARK  13 active torsions:
REMARK  status: ('A' for Active; 'I' for Inactive)
REMARK       I    between atoms: C2_2  and  N1_4 
REMARK    1  A    between atoms: C3_7  and  N3_8 
REMARK    2  A    between atoms: N3_8  and  C4_10 
REMARK    3  A    between atoms: C4_10  and  C5_11 
REMARK    4  A    between atoms: C5_11  and  C6_12 
REMARK    5  A    between atoms: C6_12  and  N4_14 
REMARK    6  A    between atoms: N4_14  and  C8_16 
REMARK    7  A    between atoms: C9_17  and  C10_18 
REMARK    8  A    between atoms: C10_18  and  O2_19 
REMARK    9  A    between atoms: C10_18  and  O3_21 
REMARK   10  A    between atoms: C13_26  and  N5_27 
REMARK   11  A    between atoms: C15_34  and  C16_35 
REMARK   12  A    between atoms: N9_40  and  N10_41 
REMARK   13  A    between atoms: C17_44  and  O5_45 
ROOT
HETATM    1  C8  UNL     1      17.762  50.115 -11.048  1.00  0.00     0.090 A 
HETATM    2  C9  UNL     1      19.020  50.622 -11.266  1.00  0.00     0.138 A 
HETATM    3  O4  UNL     1      20.055  49.782 -11.366  1.00  0.00    -0.290 OA
HETATM    4  C11 UNL     1      19.925  48.504 -11.266  1.00  0.00     0.156 A 
HETATM    5  C12 UNL     1      18.713  47.907 -11.046  1.00  0.00     0.047 A 
HETATM    6  C13 UNL     1      17.616  48.724 -10.936  1.00  0.00     0.067 A 
HETATM    7  C14 UNL     1      18.491  46.457 -10.919  1.00  0.00     0.280 C 
HETATM    8  N6  UNL     1      19.684  45.676 -10.990  1.00  0.00    -0.044 N 
ATOM      9  H61 UNL     1      19.476  44.744 -11.350  1.00  0.00     0.280 HD
ATOM     10  H62 UNL     1      20.005  45.434 -10.052  1.00  0.00     0.280 HD
HETATM   11  C15 UNL     1      20.752  46.276 -11.745  1.00  0.00     0.342 C 
HETATM   12  N11 UNL     1      21.058  47.602 -11.378  1.00  0.00    -0.337 N 
ATOM     13  H11 UNL     1      22.015  47.909 -11.203  1.00  0.00     0.164 HD
ENDROOT
BRANCH   1  14
HETATM   14  N4  UNL     1      16.614  50.951 -11.004  1.00  0.00    -0.382 N 
ATOM     15  H4  UNL     1      16.074  51.116 -11.854  1.00  0.00     0.160 HD
BRANCH  14  16
HETATM   16  C6  UNL     1      16.207  51.569  -9.767  1.00  0.00     0.079 C 
HETATM   17  C7  UNL     1      16.282  53.055  -9.710  1.00  0.00     0.032 C 
BRANCH  16  18
HETATM   18  C5  UNL     1      16.989  50.962  -8.611  1.00  0.00     0.044 C 
BRANCH  18  19
HETATM   19  C4  UNL     1      15.968  50.318  -7.681  1.00  0.00     0.123 C 
BRANCH  19  20
HETATM   20  N3  UNL     1      16.411  48.997  -7.371  1.00  0.00    -0.375 N 
ATOM     21  H3  UNL     1      16.025  48.229  -7.920  1.00  0.00     0.161 HD
BRANCH  20  22
HETATM   22  C3  UNL     1      17.339  48.672  -6.365  1.00  0.00     0.116 A 
HETATM   23  N2  UNL     1      18.506  48.109  -6.726  1.00  0.00    -0.273 N 
HETATM   24  N1  UNL     1      19.470  47.771  -5.905  1.00  0.00    -0.186 N 
ATOM     25  H2  UNL     1      18.652  47.931  -7.719  1.00  0.00     0.189 HD
HETATM   26  C2  UNL     1      20.682  47.179  -6.334  1.00  0.00     0.241 C 
HETATM   27  C20 UNL     1      19.275  48.008  -4.583  1.00  0.00     0.269 A 
HETATM   28  C1  UNL     1      20.889  46.923  -7.776  1.00  0.00     0.119 C 
HETATM   29  O1  UNL     1      21.561  46.880  -5.508  1.00  0.00    -0.272 OA
HETATM   30  C19 UNL     1      18.113  48.581  -4.131  1.00  0.00     0.080 A 
HETATM   31  O6  UNL     1      20.159  47.707  -3.752  1.00  0.00    -0.266 OA
HETATM   32  C18 UNL     1      17.106  48.929  -5.027  1.00  0.00     0.055 A 
ENDBRANCH  20  22
ENDBRANCH  19  20
ENDBRANCH  18  19
ENDBRANCH  16  18
ENDBRANCH  14  16
ENDBRANCH   1  14
BRANCH   2  33
HETATM   33  C10 UNL     1      19.363  52.049 -11.395  1.00  0.00     0.315 C 
BRANCH  33  34
HETATM   34  O2  UNL     1      20.666  52.311 -10.928  1.00  0.00    -0.365 OA
ATOM     35  H2  UNL     1      21.122  52.923 -11.494  1.00  0.00     0.213 HD
ENDBRANCH  33  34
BRANCH  33  36
HETATM   36  O3  UNL     1      19.081  52.642 -12.588  1.00  0.00    -0.365 OA
ATOM     37  H3  UNL     1      18.857  53.565 -12.565  1.00  0.00     0.213 HD
ENDBRANCH  33  36
ENDBRANCH   2  33
BRANCH   6  38
HETATM   38  N5  UNL     1      16.437  48.292 -10.733  1.00  0.00    -0.397 N 
ATOM     39  H52 UNL     1      15.608  48.886 -10.757  1.00  0.00     0.156 HD
ATOM     40  H51 UNL     1      16.345  47.294 -10.539  1.00  0.00     0.156 HD
ENDBRANCH   6  38
BRANCH  11  41
HETATM   41  C16 UNL     1      21.876  45.317 -11.726  1.00  0.00     0.131 A 
HETATM   42  N7  UNL     1      21.965  44.242 -10.864  1.00  0.00    -0.281 N 
HETATM   43  N8  UNL     1      23.074  43.601 -11.100  1.00  0.00    -0.219 N 
ATOM     44  H7  UNL     1      21.274  43.991 -10.158  1.00  0.00     0.188 HD
HETATM   45  N9  UNL     1      23.765  44.153 -12.065  1.00  0.00    -0.163 N 
ATOM     46  H8  UNL     1      23.369  42.767 -10.593  1.00  0.00     0.210 HD
HETATM   47  C17 UNL     1      23.022  45.231 -12.466  1.00  0.00     0.208 A 
BRANCH  45  48
HETATM   48  N10 UNL     1      24.993  43.778 -12.617  1.00  0.00    -0.321 N 
ATOM     49 2H10 UNL     1      25.288  43.977 -13.574  1.00  0.00     0.179 HD
ATOM     50 1H10 UNL     1      25.772  43.270 -12.198  1.00  0.00     0.179 HD
ENDBRANCH  45  48
BRANCH  47  51
HETATM   51  O5  UNL     1      23.423  46.084 -13.485  1.00  0.00    -0.342 OA
ATOM     52  H5  UNL     1      23.431  47.033 -13.465  1.00  0.00     0.219 HD
ENDBRANCH  47  51
ENDBRANCH  11  41
TORSDOF 13
ENDMDL
