MODEL 1
REMARK VINA RESULT: -8.213171692      0.000      0.000
REMARK  14 active torsions:
REMARK  status: ('A' for Active; 'I' for Inactive)
REMARK    1  A    between atoms: N1_1  and  C1_4 
REMARK    2  A    between atoms: C2_10  and  N4_11 
REMARK    3  A    between atoms: C3_16  and  C4_17 
REMARK       I    between atoms: C4_17  and  N7_19 
REMARK    4  A    between atoms: N7_19  and  N8_21 
REMARK    5  A    between atoms: C5_23  and  C6_24 
REMARK       I    between atoms: C6_24  and  N9_26 
REMARK    6  A    between atoms: N9_26  and  N10_28 
REMARK    7  A    between atoms: N10_28  and  C7_29 
REMARK    8  A    between atoms: C7_29  and  C8_31 
REMARK    9  A    between atoms: C9_32  and  O4_33 
REMARK   10  A    between atoms: C10_35  and  S2_36 
REMARK   11  A    between atoms: S2_36  and  C11_37 
REMARK   12  A    between atoms: C11_37  and  N11_38 
REMARK   13  A    between atoms: C11_37  and  N12_42 
REMARK   14  A    between atoms: C13_50  and  O6_51 
ROOT
HETATM    1  C6  UNL     1      19.877  45.642  -9.660  1.00  0.00     0.286 C 
HETATM    2  O3  UNL     1      19.151  45.527 -10.688  1.00  0.00    -0.264 OA
HETATM    3  N9  UNL     1      19.460  46.654  -8.707  1.00  0.00    -0.197 N 
ATOM      4  H9  UNL     1      20.043  46.749  -7.875  1.00  0.00     0.205 HD
ENDROOT
BRANCH   1   5
HETATM    5  C5  UNL     1      21.044  44.810  -9.457  1.00  0.00     0.183 C 
HETATM    6  N8  UNL     1      21.033  43.945  -8.546  1.00  0.00    -0.304 N 
ATOM      7  H8  UNL     1      20.172  43.898  -8.000  1.00  0.00     0.186 HD
BRANCH   6   8
HETATM    8  N7  UNL     1      22.016  43.048  -8.175  1.00  0.00    -0.263 N 
HETATM    9  C4  UNL     1      21.741  42.079  -7.186  1.00  0.00     0.306 C 
HETATM   10  O2  UNL     1      20.603  42.058  -6.661  1.00  0.00    -0.262 OA
ATOM     11  H7  UNL     1      22.936  43.086  -8.613  1.00  0.00     0.190 HD
BRANCH   9  12
HETATM   12  C3  UNL     1      22.730  41.099  -6.750  1.00  0.00     0.208 A 
HETATM   13  N6  UNL     1      24.040  41.096  -7.060  1.00  0.00    -0.264 N 
HETATM   14  N5  UNL     1      24.624  40.065  -6.479  1.00  0.00    -0.218 N 
ATOM     15  H6  UNL     1      24.507  41.783  -7.651  1.00  0.00     0.190 HD
HETATM   16  N4  UNL     1      23.706  39.392  -5.790  1.00  0.00    -0.158 N 
ATOM     17  H5  UNL     1      25.613  39.825  -6.548  1.00  0.00     0.210 HD
HETATM   18  N14 UNL     1      22.564  40.025  -5.961  1.00  0.00    -0.255 N 
ATOM     19  H14 UNL     1      21.675  39.739  -5.551  1.00  0.00     0.191 HD
BRANCH  16  20
HETATM   20  C2  UNL     1      24.000  38.207  -5.027  1.00  0.00     0.214 A 
HETATM   21  C1  UNL     1      24.811  38.218  -3.914  1.00  0.00     0.171 A 
HETATM   22  N2  UNL     1      24.844  36.948  -3.482  1.00  0.00    -0.222 N 
HETATM   23  O1  UNL     1      24.103  36.229  -4.283  1.00  0.00    -0.153 OA
ATOM     24  H2  UNL     1      25.358  36.605  -2.670  1.00  0.00     0.198 HD
HETATM   25  N3  UNL     1      23.583  36.964  -5.221  1.00  0.00    -0.219 N 
ATOM     26  H3  UNL     1      22.967  36.642  -5.968  1.00  0.00     0.198 HD
BRANCH  21  27
HETATM   27  N1  UNL     1      25.435  39.203  -3.354  1.00  0.00    -0.381 N 
ATOM     28  H12 UNL     1      25.521  40.175  -3.651  1.00  0.00     0.157 HD
ATOM     29  H11 UNL     1      25.960  39.137  -2.483  1.00  0.00     0.157 HD
ENDBRANCH  21  27
ENDBRANCH  16  20
ENDBRANCH   9  12
ENDBRANCH   6   8
ENDBRANCH   1   5
BRANCH   3  30
HETATM   30  N10 UNL     1      18.448  47.448  -8.774  1.00  0.00    -0.314 NA
BRANCH  30  31
HETATM   31  C7  UNL     1      17.510  48.175  -8.843  1.00  0.00     0.195 C 
HETATM   32  S1  UNL     1      16.824  48.497 -10.512  1.00  0.00    -0.014 SA
BRANCH  31  33
HETATM   33  C8  UNL     1      16.831  48.865  -7.729  1.00  0.00     0.089 A 
HETATM   34  C9  UNL     1      17.163  50.165  -7.378  1.00  0.00     0.116 A 
HETATM   35  C10 UNL     1      16.545  50.833  -6.326  1.00  0.00     0.110 A 
HETATM   36  N13 UNL     1      15.592  50.168  -5.639  1.00  0.00    -0.313 N 
HETATM   37  C12 UNL     1      15.253  48.906  -5.961  1.00  0.00     0.280 A 
ATOM     38  H13 UNL     1      15.120  50.630  -4.862  1.00  0.00     0.170 HD
HETATM   39  O5  UNL     1      14.352  48.284  -5.308  1.00  0.00    -0.265 OA
HETATM   40  C13 UNL     1      15.853  48.232  -6.996  1.00  0.00     0.151 A 
BRANCH  34  41
HETATM   41  O4  UNL     1      18.129  50.860  -8.069  1.00  0.00    -0.357 OA
ATOM     42  H4  UNL     1      18.822  50.403  -8.533  1.00  0.00     0.217 HD
ENDBRANCH  34  41
BRANCH  35  43
HETATM   43  S2  UNL     1      17.031  52.500  -5.917  1.00  0.00    -0.049 SA
BRANCH  43  44
HETATM   44  C11 UNL     1      17.400  52.547  -4.134  1.00  0.00     0.446 C 
BRANCH  44  45
HETATM   45  N11 UNL     1      18.642  53.315  -3.975  1.00  0.00    -0.041 N 
ATOM     46 3H11 UNL     1      19.228  52.976  -3.212  1.00  0.00     0.277 HD
ATOM     47 2H11 UNL     1      19.309  53.159  -4.731  1.00  0.00     0.277 HD
ATOM     48 1H11 UNL     1      18.375  54.294  -3.872  1.00  0.00     0.277 HD
ENDBRANCH  44  45
BRANCH  44  49
HETATM   49  N12 UNL     1      16.312  53.193  -3.407  1.00  0.00    -0.041 N 
ATOM     50 3H12 UNL     1      15.946  54.000  -3.911  1.00  0.00     0.277 HD
ATOM     51 2H12 UNL     1      15.467  52.621  -3.402  1.00  0.00     0.277 HD
ATOM     52 1H12 UNL     1      16.611  53.437  -2.463  1.00  0.00     0.277 HD
ENDBRANCH  44  49
ENDBRANCH  43  44
ENDBRANCH  35  43
BRANCH  40  53
HETATM   53  O6  UNL     1      15.513  46.931  -7.340  1.00  0.00    -0.355 OA
ATOM     54  H6  UNL     1      14.656  46.775  -7.718  1.00  0.00     0.218 HD
ENDBRANCH  40  53
ENDBRANCH  31  33
ENDBRANCH  30  31
ENDBRANCH   3  30
TORSDOF 14
ENDMDL
MODEL 2
REMARK VINA RESULT: -8.180770160      3.261      4.385
REMARK  14 active torsions:
REMARK  status: ('A' for Active; 'I' for Inactive)
REMARK    1  A    between atoms: N1_1  and  C1_4 
REMARK    2  A    between atoms: C2_10  and  N4_11 
REMARK    3  A    between atoms: C3_16  and  C4_17 
REMARK       I    between atoms: C4_17  and  N7_19 
REMARK    4  A    between atoms: N7_19  and  N8_21 
REMARK    5  A    between atoms: C5_23  and  C6_24 
REMARK       I    between atoms: C6_24  and  N9_26 
REMARK    6  A    between atoms: N9_26  and  N10_28 
REMARK    7  A    between atoms: N10_28  and  C7_29 
REMARK    8  A    between atoms: C7_29  and  C8_31 
REMARK    9  A    between atoms: C9_32  and  O4_33 
REMARK   10  A    between atoms: C10_35  and  S2_36 
REMARK   11  A    between atoms: S2_36  and  C11_37 
REMARK   12  A    between atoms: C11_37  and  N11_38 
REMARK   13  A    between atoms: C11_37  and  N12_42 
REMARK   14  A    between atoms: C13_50  and  O6_51 
ROOT
HETATM    1  C6  UNL     1      20.811  46.468  -9.601  1.00  0.00     0.286 C 
HETATM    2  O3  UNL     1      21.105  47.160 -10.615  1.00  0.00    -0.264 OA
HETATM    3  N9  UNL     1      19.856  47.068  -8.686  1.00  0.00    -0.197 N 
ATOM      4  H9  UNL     1      19.616  46.510  -7.866  1.00  0.00     0.205 HD
ENDROOT
BRANCH   1   5
HETATM    5  C5  UNL     1      21.393  45.162  -9.377  1.00  0.00     0.183 C 
HETATM    6  N8  UNL     1      20.934  44.431  -8.464  1.00  0.00    -0.304 N 
ATOM      7  H8  UNL     1      20.161  44.832  -7.932  1.00  0.00     0.186 HD
BRANCH   6   8
HETATM    8  N7  UNL     1      21.322  43.163  -8.075  1.00  0.00    -0.263 N 
HETATM    9  C4  UNL     1      21.336  42.826  -6.704  1.00  0.00     0.306 C 
HETATM   10  O2  UNL     1      20.997  43.693  -5.866  1.00  0.00    -0.262 OA
ATOM     11  H7  UNL     1      21.597  42.474  -8.775  1.00  0.00     0.190 HD
BRANCH   9  12
HETATM   12  C3  UNL     1      21.729  41.505  -6.224  1.00  0.00     0.208 A 
HETATM   13  N6  UNL     1      21.807  41.116  -4.938  1.00  0.00    -0.264 N 
HETATM   14  N5  UNL     1      22.185  39.853  -4.886  1.00  0.00    -0.218 N 
ATOM     15  H6  UNL     1      21.606  41.705  -4.130  1.00  0.00     0.190 HD
HETATM   16  N4  UNL     1      22.355  39.411  -6.129  1.00  0.00    -0.158 N 
ATOM     17  H5  UNL     1      22.325  39.308  -4.035  1.00  0.00     0.210 HD
HETATM   18  N14 UNL     1      22.078  40.419  -6.931  1.00  0.00    -0.255 N 
ATOM     19  H14 UNL     1      22.122  40.379  -7.950  1.00  0.00     0.191 HD
BRANCH  16  20
HETATM   20  C2  UNL     1      22.764  38.067  -6.444  1.00  0.00     0.214 A 
HETATM   21  C1  UNL     1      24.066  37.636  -6.320  1.00  0.00     0.171 A 
HETATM   22  N2  UNL     1      24.055  36.348  -6.697  1.00  0.00    -0.222 N 
HETATM   23  O1  UNL     1      22.829  36.034  -7.025  1.00  0.00    -0.153 OA
ATOM     24  H2  UNL     1      24.862  35.724  -6.724  1.00  0.00     0.198 HD
HETATM   25  N3  UNL     1      22.033  37.051  -6.880  1.00  0.00    -0.219 N 
ATOM     26  H3  UNL     1      21.030  37.065  -7.067  1.00  0.00     0.198 HD
BRANCH  21  27
HETATM   27  N1  UNL     1      25.118  38.279  -5.929  1.00  0.00    -0.381 N 
ATOM     28  H12 UNL     1      25.259  38.861  -5.104  1.00  0.00     0.157 HD
ATOM     29  H11 UNL     1      26.009  38.292  -6.427  1.00  0.00     0.157 HD
ENDBRANCH  21  27
ENDBRANCH  16  20
ENDBRANCH   9  12
ENDBRANCH   6   8
ENDBRANCH   1   5
BRANCH   3  30
HETATM   30  N10 UNL     1      19.272  48.212  -8.776  1.00  0.00    -0.314 NA
BRANCH  30  31
HETATM   31  C7  UNL     1      18.743  49.272  -8.859  1.00  0.00     0.195 C 
HETATM   32  S1  UNL     1      17.699  49.798  -7.447  1.00  0.00    -0.014 SA
BRANCH  31  33
HETATM   33  C8  UNL     1      18.819  50.224  -9.986  1.00  0.00     0.089 A 
HETATM   34  C9  UNL     1      17.679  50.827 -10.498  1.00  0.00     0.116 A 
HETATM   35  C10 UNL     1      17.724  51.718 -11.565  1.00  0.00     0.110 A 
HETATM   36  N13 UNL     1      18.933  51.988 -12.101  1.00  0.00    -0.313 N 
HETATM   37  C12 UNL     1      20.052  51.416 -11.622  1.00  0.00     0.280 A 
ATOM     38  H13 UNL     1      19.000  52.637 -12.885  1.00  0.00     0.170 HD
HETATM   39  O5  UNL     1      21.190  51.675 -12.134  1.00  0.00    -0.265 OA
HETATM   40  C13 UNL     1      20.026  50.533 -10.569  1.00  0.00     0.151 A 
BRANCH  34  41
HETATM   41  O4  UNL     1      16.440  50.566  -9.960  1.00  0.00    -0.357 OA
ATOM     42  H4  UNL     1      15.677  51.068 -10.225  1.00  0.00     0.217 HD
ENDBRANCH  34  41
BRANCH  35  43
HETATM   43  S2  UNL     1      16.218  52.445 -12.185  1.00  0.00    -0.049 SA
BRANCH  43  44
HETATM   44  C11 UNL     1      15.694  53.727 -11.003  1.00  0.00     0.446 C 
BRANCH  44  45
HETATM   45  N11 UNL     1      16.860  54.586 -10.760  1.00  0.00    -0.041 N 
ATOM     46 3H11 UNL     1      17.712  54.061 -10.567  1.00  0.00     0.277 HD
ATOM     47 2H11 UNL     1      17.189  55.062 -11.600  1.00  0.00     0.277 HD
ATOM     48 1H11 UNL     1      16.605  55.227 -10.009  1.00  0.00     0.277 HD
ENDBRANCH  44  45
BRANCH  44  49
HETATM   49  N12 UNL     1      14.596  54.511 -11.557  1.00  0.00    -0.041 N 
ATOM     50 3H12 UNL     1      14.926  55.204 -12.229  1.00  0.00     0.277 HD
ATOM     51 2H12 UNL     1      14.012  53.958 -12.185  1.00  0.00     0.277 HD
ATOM     52 1H12 UNL     1      14.051  54.938 -10.809  1.00  0.00     0.277 HD
ENDBRANCH  44  49
ENDBRANCH  43  44
ENDBRANCH  35  43
BRANCH  40  53
HETATM   53  O6  UNL     1      21.173  49.936 -10.064  1.00  0.00    -0.355 OA
ATOM     54  H6  UNL     1      21.823  50.491  -9.651  1.00  0.00     0.218 HD
ENDBRANCH  40  53
ENDBRANCH  31  33
ENDBRANCH  30  31
ENDBRANCH   3  30
TORSDOF 14
ENDMDL
MODEL 3
REMARK VINA RESULT: -8.163575090      7.365     15.134
REMARK  14 active torsions:
REMARK  status: ('A' for Active; 'I' for Inactive)
REMARK    1  A    between atoms: N1_1  and  C1_4 
REMARK    2  A    between atoms: C2_10  and  N4_11 
REMARK    3  A    between atoms: C3_16  and  C4_17 
REMARK       I    between atoms: C4_17  and  N7_19 
REMARK    4  A    between atoms: N7_19  and  N8_21 
REMARK    5  A    between atoms: C5_23  and  C6_24 
REMARK       I    between atoms: C6_24  and  N9_26 
REMARK    6  A    between atoms: N9_26  and  N10_28 
REMARK    7  A    between atoms: N10_28  and  C7_29 
REMARK    8  A    between atoms: C7_29  and  C8_31 
REMARK    9  A    between atoms: C9_32  and  O4_33 
REMARK   10  A    between atoms: C10_35  and  S2_36 
REMARK   11  A    between atoms: S2_36  and  C11_37 
REMARK   12  A    between atoms: C11_37  and  N11_38 
REMARK   13  A    between atoms: C11_37  and  N12_42 
REMARK   14  A    between atoms: C13_50  and  O6_51 
ROOT
HETATM    1  C6  UNL     1      17.209  51.740 -10.531  1.00  0.00     0.286 C 
HETATM    2  O3  UNL     1      16.772  51.524  -9.366  1.00  0.00    -0.264 OA
HETATM    3  N9  UNL     1      18.012  50.677 -11.108  1.00  0.00    -0.197 N 
ATOM      4  H9  UNL     1      18.365  50.848 -12.050  1.00  0.00     0.205 HD
ENDROOT
BRANCH   1   5
HETATM    5  C5  UNL     1      16.919  52.971 -11.235  1.00  0.00     0.183 C 
HETATM    6  N8  UNL     1      16.168  53.825 -10.699  1.00  0.00    -0.304 N 
ATOM      7  H8  UNL     1      15.808  53.571  -9.779  1.00  0.00     0.186 HD
BRANCH   6   8
HETATM    8  N7  UNL     1      15.759  55.056 -11.174  1.00  0.00    -0.263 N 
HETATM    9  C4  UNL     1      14.388  55.293 -11.412  1.00  0.00     0.306 C 
HETATM   10  O2  UNL     1      13.568  54.373 -11.188  1.00  0.00    -0.262 OA
ATOM     11  H7  UNL     1      16.444  55.790 -11.353  1.00  0.00     0.190 HD
BRANCH   9  12
HETATM   12  C3  UNL     1      13.885  56.570 -11.908  1.00  0.00     0.208 A 
HETATM   13  N6  UNL     1      14.279  57.792 -11.504  1.00  0.00    -0.264 N 
HETATM   14  N5  UNL     1      13.616  58.711 -12.180  1.00  0.00    -0.218 N 
ATOM     15  H6  UNL     1      14.981  57.979 -10.787  1.00  0.00     0.190 HD
HETATM   16  N4  UNL     1      12.790  58.099 -13.026  1.00  0.00    -0.158 N 
ATOM     17  H5  UNL     1      13.719  59.720 -12.072  1.00  0.00     0.210 HD
HETATM   18  N14 UNL     1      12.961  56.805 -12.852  1.00  0.00    -0.255 N 
ATOM     19  H14 UNL     1      12.458  56.080 -13.365  1.00  0.00     0.191 HD
BRANCH  16  20
HETATM   20  C2  UNL     1      11.914  58.803 -13.925  1.00  0.00     0.214 A 
HETATM   21  C1  UNL     1      10.742  59.396 -13.513  1.00  0.00     0.171 A 
HETATM   22  N2  UNL     1      10.210  59.944 -14.616  1.00  0.00    -0.222 N 
HETATM   23  O1  UNL     1      11.011  59.693 -15.618  1.00  0.00    -0.153 OA
ATOM     24  H2  UNL     1       9.334  60.465 -14.665  1.00  0.00     0.198 HD
HETATM   25  N3  UNL     1      12.045  59.009 -15.228  1.00  0.00    -0.219 N 
ATOM     26  H3  UNL     1      12.814  58.689 -15.817  1.00  0.00     0.198 HD
BRANCH  21  27
HETATM   27  N1  UNL     1      10.212  59.451 -12.335  1.00  0.00    -0.381 N 
ATOM     28  H12 UNL     1       9.352  59.904 -12.026  1.00  0.00     0.157 HD
ATOM     29  H11 UNL     1      10.608  59.020 -11.499  1.00  0.00     0.157 HD
ENDBRANCH  21  27
ENDBRANCH  16  20
ENDBRANCH   9  12
ENDBRANCH   6   8
ENDBRANCH   1   5
BRANCH   3  30
HETATM   30  N10 UNL     1      18.336  49.545 -10.586  1.00  0.00    -0.314 NA
BRANCH  30  31
HETATM   31  C7  UNL     1      18.633  48.497 -10.112  1.00  0.00     0.195 C 
HETATM   32  S1  UNL     1      19.044  47.142 -11.276  1.00  0.00    -0.014 SA
BRANCH  31  33
HETATM   33  C8  UNL     1      18.703  48.151  -8.679  1.00  0.00     0.089 A 
HETATM   34  C9  UNL     1      17.557  47.865  -7.951  1.00  0.00     0.116 A 
HETATM   35  C10 UNL     1      17.596  47.547  -6.597  1.00  0.00     0.110 A 
HETATM   36  N13 UNL     1      18.804  47.523  -5.996  1.00  0.00    -0.313 N 
HETATM   37  C12 UNL     1      19.929  47.798  -6.681  1.00  0.00     0.280 A 
ATOM     38  H13 UNL     1      18.866  47.294  -5.004  1.00  0.00     0.170 HD
HETATM   39  O5  UNL     1      21.066  47.774  -6.107  1.00  0.00    -0.265 OA
HETATM   40  C13 UNL     1      19.909  48.114  -8.018  1.00  0.00     0.151 A 
BRANCH  34  41
HETATM   41  O4  UNL     1      16.318  47.880  -8.548  1.00  0.00    -0.357 OA
ATOM     42  H4  UNL     1      16.130  48.470  -9.269  1.00  0.00     0.217 HD
ENDBRANCH  34  41
BRANCH  35  43
HETATM   43  S2  UNL     1      16.082  47.205  -5.717  1.00  0.00    -0.049 SA
BRANCH  43  44
HETATM   44  C11 UNL     1      15.127  48.754  -5.637  1.00  0.00     0.446 C 
BRANCH  44  45
HETATM   45  N11 UNL     1      16.061  49.848  -5.931  1.00  0.00    -0.041 N 
ATOM     46 3H11 UNL     1      15.673  50.770  -5.735  1.00  0.00     0.277 HD
ATOM     47 2H11 UNL     1      16.843  49.894  -5.278  1.00  0.00     0.277 HD
ATOM     48 1H11 UNL     1      16.354  49.734  -6.901  1.00  0.00     0.277 HD
ENDBRANCH  44  45
BRANCH  44  49
HETATM   49  N12 UNL     1      14.047  48.735  -6.617  1.00  0.00    -0.041 N 
ATOM     50 3H12 UNL     1      14.178  48.002  -7.313  1.00  0.00     0.277 HD
ATOM     51 2H12 UNL     1      13.171  48.404  -6.211  1.00  0.00     0.277 HD
ATOM     52 1H12 UNL     1      13.942  49.654  -7.048  1.00  0.00     0.277 HD
ENDBRANCH  44  49
ENDBRANCH  43  44
ENDBRANCH  35  43
BRANCH  40  53
HETATM   53  O6  UNL     1      21.062  48.398  -8.737  1.00  0.00    -0.355 OA
ATOM     54  H6  UNL     1      21.706  48.974  -8.343  1.00  0.00     0.218 HD
ENDBRANCH  40  53
ENDBRANCH  31  33
ENDBRANCH  30  31
ENDBRANCH   3  30
TORSDOF 14
ENDMDL
MODEL 4
REMARK VINA RESULT: -8.107256359      2.873      3.959
REMARK  14 active torsions:
REMARK  status: ('A' for Active; 'I' for Inactive)
REMARK    1  A    between atoms: N1_1  and  C1_4 
REMARK    2  A    between atoms: C2_10  and  N4_11 
REMARK    3  A    between atoms: C3_16  and  C4_17 
REMARK       I    between atoms: C4_17  and  N7_19 
REMARK    4  A    between atoms: N7_19  and  N8_21 
REMARK    5  A    between atoms: C5_23  and  C6_24 
REMARK       I    between atoms: C6_24  and  N9_26 
REMARK    6  A    between atoms: N9_26  and  N10_28 
REMARK    7  A    between atoms: N10_28  and  C7_29 
REMARK    8  A    between atoms: C7_29  and  C8_31 
REMARK    9  A    between atoms: C9_32  and  O4_33 
REMARK   10  A    between atoms: C10_35  and  S2_36 
REMARK   11  A    between atoms: S2_36  and  C11_37 
REMARK   12  A    between atoms: C11_37  and  N11_38 
REMARK   13  A    between atoms: C11_37  and  N12_42 
REMARK   14  A    between atoms: C13_50  and  O6_51 
ROOT
HETATM    1  C6  UNL     1      20.239  45.435  -9.836  1.00  0.00     0.286 C 
HETATM    2  O3  UNL     1      19.287  45.535 -10.660  1.00  0.00    -0.264 OA
HETATM    3  N9  UNL     1      20.437  46.578  -8.963  1.00  0.00    -0.197 N 
ATOM      4  H9  UNL     1      21.205  46.499  -8.296  1.00  0.00     0.205 HD
ENDROOT
BRANCH   1   5
HETATM    5  C5  UNL     1      21.069  44.251  -9.775  1.00  0.00     0.183 C 
HETATM    6  N8  UNL     1      21.506  43.862  -8.662  1.00  0.00    -0.304 N 
ATOM      7  H8  UNL     1      21.233  44.434  -7.863  1.00  0.00     0.186 HD
BRANCH   6   8
HETATM    8  N7  UNL     1      22.302  42.773  -8.364  1.00  0.00    -0.263 N 
HETATM    9  C4  UNL     1      22.323  42.262  -7.048  1.00  0.00     0.306 C 
HETATM   10  O2  UNL     1      21.616  42.815  -6.174  1.00  0.00    -0.262 OA
ATOM     11  H7  UNL     1      22.872  42.340  -9.090  1.00  0.00     0.190 HD
BRANCH   9  12
HETATM   12  C3  UNL     1      23.136  41.112  -6.664  1.00  0.00     0.208 A 
HETATM   13  N6  UNL     1      24.375  40.829  -7.106  1.00  0.00    -0.264 N 
HETATM   14  N5  UNL     1      24.800  39.719  -6.535  1.00  0.00    -0.218 N 
ATOM     15  H6  UNL     1      24.903  41.386  -7.778  1.00  0.00     0.190 HD
HETATM   16  N4  UNL     1      23.847  39.272  -5.719  1.00  0.00    -0.158 N 
ATOM     17  H5  UNL     1      25.706  39.277  -6.692  1.00  0.00     0.210 HD
HETATM   18  N14 UNL     1      22.845  40.122  -5.806  1.00  0.00    -0.255 N 
ATOM     19  H14 UNL     1      21.967  40.038  -5.292  1.00  0.00     0.191 HD
BRANCH  16  20
HETATM   20  C2  UNL     1      23.978  38.076  -4.929  1.00  0.00     0.214 A 
HETATM   21  C1  UNL     1      24.805  37.995  -3.830  1.00  0.00     0.171 A 
HETATM   22  N2  UNL     1      24.659  36.746  -3.362  1.00  0.00    -0.222 N 
HETATM   23  O1  UNL     1      23.804  36.125  -4.131  1.00  0.00    -0.153 OA
ATOM     24  H2  UNL     1      25.133  36.351  -2.550  1.00  0.00     0.198 HD
HETATM   25  N3  UNL     1      23.378  36.904  -5.080  1.00  0.00    -0.219 N 
ATOM     26  H3  UNL     1      22.707  36.658  -5.808  1.00  0.00     0.198 HD
BRANCH  21  27
HETATM   27  N1  UNL     1      25.579  38.891  -3.308  1.00  0.00    -0.381 N 
ATOM     28  H12 UNL     1      26.597  38.933  -3.272  1.00  0.00     0.157 HD
ATOM     29  H11 UNL     1      25.254  39.732  -2.832  1.00  0.00     0.157 HD
ENDBRANCH  21  27
ENDBRANCH  16  20
ENDBRANCH   9  12
ENDBRANCH   6   8
ENDBRANCH   1   5
BRANCH   3  30
HETATM   30  N10 UNL     1      19.769  47.678  -8.922  1.00  0.00    -0.314 NA
BRANCH  30  31
HETATM   31  C7  UNL     1      19.160  48.697  -8.879  1.00  0.00     0.195 C 
HETATM   32  S1  UNL     1      18.143  49.000  -7.384  1.00  0.00    -0.014 SA
BRANCH  31  33
HETATM   33  C8  UNL     1      19.117  49.756  -9.906  1.00  0.00     0.089 A 
HETATM   34  C9  UNL     1      17.916  50.327 -10.302  1.00  0.00     0.116 A 
HETATM   35  C10 UNL     1      17.849  51.319 -11.275  1.00  0.00     0.110 A 
HETATM   36  N13 UNL     1      19.009  51.722 -11.836  1.00  0.00    -0.313 N 
HETATM   37  C12 UNL     1      20.185  51.183 -11.469  1.00  0.00     0.280 A 
ATOM     38  H13 UNL     1      18.992  52.448 -12.553  1.00  0.00     0.170 HD
HETATM   39  O5  UNL     1      21.276  51.567 -12.004  1.00  0.00    -0.265 OA
HETATM   40  C13 UNL     1      20.269  50.202 -10.510  1.00  0.00     0.151 A 
BRANCH  34  41
HETATM   41  O4  UNL     1      16.725  49.932  -9.737  1.00  0.00    -0.357 OA
ATOM     42  H4  UNL     1      16.661  49.118  -9.251  1.00  0.00     0.217 HD
ENDBRANCH  34  41
BRANCH  35  43
HETATM   43  S2  UNL     1      16.269  51.999 -11.749  1.00  0.00    -0.049 SA
BRANCH  43  44
HETATM   44  C11 UNL     1      15.897  53.376 -10.618  1.00  0.00     0.446 C 
BRANCH  44  45
HETATM   45  N11 UNL     1      16.164  52.895  -9.257  1.00  0.00    -0.041 N 
ATOM     46 3H11 UNL     1      16.942  52.238  -9.209  1.00  0.00     0.277 HD
ATOM     47 2H11 UNL     1      16.562  53.611  -8.649  1.00  0.00     0.277 HD
ATOM     48 1H11 UNL     1      15.290  52.508  -8.901  1.00  0.00     0.277 HD
ENDBRANCH  44  45
BRANCH  44  49
HETATM   49  N12 UNL     1      16.743  54.526 -10.921  1.00  0.00    -0.041 N 
ATOM     50 3H12 UNL     1      17.334  54.358 -11.735  1.00  0.00     0.277 HD
ATOM     51 2H12 UNL     1      16.202  55.311 -11.286  1.00  0.00     0.277 HD
ATOM     52 1H12 UNL     1      17.291  54.790 -10.102  1.00  0.00     0.277 HD
ENDBRANCH  44  49
ENDBRANCH  43  44
ENDBRANCH  35  43
BRANCH  40  53
HETATM   53  O6  UNL     1      21.477  49.638 -10.121  1.00  0.00    -0.355 OA
ATOM     54  H6  UNL     1      22.275  49.973 -10.511  1.00  0.00     0.218 HD
ENDBRANCH  40  53
ENDBRANCH  31  33
ENDBRANCH  30  31
ENDBRANCH   3  30
TORSDOF 14
ENDMDL
MODEL 5
REMARK VINA RESULT: -8.054323503      7.294     15.244
REMARK  14 active torsions:
REMARK  status: ('A' for Active; 'I' for Inactive)
REMARK    1  A    between atoms: N1_1  and  C1_4 
REMARK    2  A    between atoms: C2_10  and  N4_11 
REMARK    3  A    between atoms: C3_16  and  C4_17 
REMARK       I    between atoms: C4_17  and  N7_19 
REMARK    4  A    between atoms: N7_19  and  N8_21 
REMARK    5  A    between atoms: C5_23  and  C6_24 
REMARK       I    between atoms: C6_24  and  N9_26 
REMARK    6  A    between atoms: N9_26  and  N10_28 
REMARK    7  A    between atoms: N10_28  and  C7_29 
REMARK    8  A    between atoms: C7_29  and  C8_31 
REMARK    9  A    between atoms: C9_32  and  O4_33 
REMARK   10  A    between atoms: C10_35  and  S2_36 
REMARK   11  A    between atoms: S2_36  and  C11_37 
REMARK   12  A    between atoms: C11_37  and  N11_38 
REMARK   13  A    between atoms: C11_37  and  N12_42 
REMARK   14  A    between atoms: C13_50  and  O6_51 
ROOT
HETATM    1  C6  UNL     1      16.355  51.259  -9.552  1.00  0.00     0.286 C 
HETATM    2  O3  UNL     1      16.238  51.582  -8.337  1.00  0.00    -0.264 OA
HETATM    3  N9  UNL     1      16.785  49.894  -9.801  1.00  0.00    -0.197 N 
ATOM      4  H9  UNL     1      16.879  49.630 -10.782  1.00  0.00     0.205 HD
ENDROOT
BRANCH   1   5
HETATM    5  C5  UNL     1      16.072  52.196 -10.618  1.00  0.00     0.183 C 
HETATM    6  N8  UNL     1      15.937  53.416 -10.346  1.00  0.00    -0.304 N 
ATOM      7  H8  UNL     1      16.037  53.656  -9.360  1.00  0.00     0.186 HD
BRANCH   6   8
HETATM    8  N7  UNL     1      15.671  54.479 -11.188  1.00  0.00    -0.263 N 
HETATM    9  C4  UNL     1      14.414  55.119 -11.129  1.00  0.00     0.306 C 
HETATM   10  O2  UNL     1      13.562  54.703 -10.311  1.00  0.00    -0.262 OA
ATOM     11  H7  UNL     1      16.379  54.799 -11.848  1.00  0.00     0.190 HD
BRANCH   9  12
HETATM   12  C3  UNL     1      14.069  56.250 -11.984  1.00  0.00     0.208 A 
HETATM   13  N6  UNL     1      14.509  57.515 -11.849  1.00  0.00    -0.264 N 
HETATM   14  N5  UNL     1      13.995  58.262 -12.808  1.00  0.00    -0.218 N 
ATOM     15  H6  UNL     1      15.140  57.845 -11.119  1.00  0.00     0.190 HD
HETATM   16  N4  UNL     1      13.222  57.494 -13.573  1.00  0.00    -0.158 N 
ATOM     17  H5  UNL     1      14.163  59.259 -12.941  1.00  0.00     0.210 HD
HETATM   18  N14 UNL     1      13.273  56.280 -13.064  1.00  0.00    -0.255 N 
ATOM     19  H14 UNL     1      12.775  55.473 -13.441  1.00  0.00     0.191 HD
BRANCH  16  20
HETATM   20  C2  UNL     1      12.506  57.986 -14.720  1.00  0.00     0.214 A 
HETATM   21  C1  UNL     1      11.174  58.334 -14.675  1.00  0.00     0.171 A 
HETATM   22  N2  UNL     1      10.867  58.740 -15.916  1.00  0.00    -0.222 N 
HETATM   23  O1  UNL     1      11.943  58.639 -16.652  1.00  0.00    -0.153 OA
ATOM     24  H2  UNL     1       9.954  59.069 -16.231  1.00  0.00     0.198 HD
HETATM   25  N3  UNL     1      12.943  58.189 -15.955  1.00  0.00    -0.219 N 
ATOM     26  H3  UNL     1      13.890  58.022 -16.295  1.00  0.00     0.198 HD
BRANCH  21  27
HETATM   27  N1  UNL     1      10.343  58.302 -13.684  1.00  0.00    -0.381 N 
ATOM     28  H12 UNL     1       9.995  57.507 -13.149  1.00  0.00     0.157 HD
ATOM     29  H11 UNL     1       9.894  59.123 -13.277  1.00  0.00     0.157 HD
ENDBRANCH  21  27
ENDBRANCH  16  20
ENDBRANCH   9  12
ENDBRANCH   6   8
ENDBRANCH   1   5
BRANCH   3  30
HETATM   30  N10 UNL     1      17.063  48.974  -8.944  1.00  0.00    -0.314 NA
BRANCH  30  31
HETATM   31  C7  UNL     1      17.328  48.128  -8.153  1.00  0.00     0.195 C 
HETATM   32  S1  UNL     1      15.955  47.490  -7.120  1.00  0.00    -0.014 SA
BRANCH  31  33
HETATM   33  C8  UNL     1      18.653  47.531  -7.894  1.00  0.00     0.089 A 
HETATM   34  C9  UNL     1      19.253  46.683  -8.814  1.00  0.00     0.116 A 
HETATM   35  C10 UNL     1      20.495  46.098  -8.588  1.00  0.00     0.110 A 
HETATM   36  N13 UNL     1      21.117  46.385  -7.424  1.00  0.00    -0.313 N 
HETATM   37  C12 UNL     1      20.555  47.204  -6.518  1.00  0.00     0.280 A 
ATOM     38  H13 UNL     1      22.029  45.972  -7.229  1.00  0.00     0.170 HD
HETATM   39  O5  UNL     1      21.148  47.470  -5.421  1.00  0.00    -0.265 OA
HETATM   40  C13 UNL     1      19.329  47.789  -6.724  1.00  0.00     0.151 A 
BRANCH  34  41
HETATM   41  O4  UNL     1      18.636  46.383 -10.006  1.00  0.00    -0.357 OA
ATOM     42  H4  UNL     1      19.137  46.073 -10.752  1.00  0.00     0.217 HD
ENDBRANCH  34  41
BRANCH  35  43
HETATM   43  S2  UNL     1      21.202  45.004  -9.806  1.00  0.00    -0.049 SA
BRANCH  43  44
HETATM   44  C11 UNL     1      21.947  46.034 -11.110  1.00  0.00     0.446 C 
BRANCH  44  45
HETATM   45  N11 UNL     1      22.884  45.177 -11.848  1.00  0.00    -0.041 N 
ATOM     46 3H11 UNL     1      23.564  44.714 -11.245  1.00  0.00     0.277 HD
ATOM     47 2H11 UNL     1      22.448  44.335 -12.222  1.00  0.00     0.277 HD
ATOM     48 1H11 UNL     1      23.316  45.759 -12.566  1.00  0.00     0.277 HD
ENDBRANCH  44  45
BRANCH  44  49
HETATM   49  N12 UNL     1      20.915  46.542 -12.008  1.00  0.00    -0.041 N 
ATOM     50 3H12 UNL     1      21.255  46.629 -12.966  1.00  0.00     0.277 HD
ATOM     51 2H12 UNL     1      20.179  45.854 -12.170  1.00  0.00     0.277 HD
ATOM     52 1H12 UNL     1      20.540  47.423 -11.656  1.00  0.00     0.277 HD
ENDBRANCH  44  49
ENDBRANCH  43  44
ENDBRANCH  35  43
BRANCH  40  53
HETATM   53  O6  UNL     1      18.738  48.637  -5.797  1.00  0.00    -0.355 OA
ATOM     54  H6  UNL     1      18.895  48.473  -4.875  1.00  0.00     0.218 HD
ENDBRANCH  40  53
ENDBRANCH  31  33
ENDBRANCH  30  31
ENDBRANCH   3  30
TORSDOF 14
ENDMDL
