MODEL 1
REMARK VINA RESULT: -9.287253170      0.000      0.000
REMARK  13 active torsions:
REMARK  status: ('A' for Active; 'I' for Inactive)
REMARK    1  A    between atoms: C3_5  and  N2_6 
REMARK    2  A    between atoms: C4_9  and  N3_10 
REMARK    3  A    between atoms: N3_10  and  N4_12 
REMARK       I    between atoms: N7_17  and  C6_18 
REMARK    4  A    between atoms: C6_18  and  C7_20 
REMARK    5  A    between atoms: C8_26  and  N10_27 
REMARK    6  A    between atoms: N10_27  and  C9_29 
REMARK    7  A    between atoms: C11_34  and  N12_35 
REMARK    8  A    between atoms: N12_35  and  C12_37 
REMARK    9  A    between atoms: C12_37  and  C13_41 
REMARK   10  A    between atoms: C13_41  and  C15_43 
REMARK   11  A    between atoms: C15_43  and  O2_44 
REMARK   12  A    between atoms: C15_43  and  O3_46 
REMARK   13  A    between atoms: C17_50  and  O5_51 
ROOT
HETATM    1  C7  UNL     1      18.530  46.518  -8.386  1.00  0.00     0.155 A 
HETATM    2  N8  UNL     1      17.490  46.422  -7.537  1.00  0.00    -0.305 N 
ATOM      3  H8  UNL     1      16.533  46.742  -7.683  1.00  0.00     0.176 HD
HETATM    4  S1  UNL     1      18.116  45.664  -6.196  1.00  0.00     0.069 SA
HETATM    5  N9  UNL     1      19.688  45.473  -6.712  1.00  0.00    -0.297 N 
ATOM      6  H9  UNL     1      20.463  45.044  -6.206  1.00  0.00     0.177 HD
HETATM    7  C8  UNL     1      19.709  46.010  -7.945  1.00  0.00     0.142 A 
ENDROOT
BRANCH   1   8
HETATM    8  C6  UNL     1      18.323  47.159  -9.718  1.00  0.00     0.301 C 
HETATM    9  N7  UNL     1      17.732  48.472  -9.790  1.00  0.00    -0.162 N 
HETATM   10  N6  UNL     1      17.348  49.168  -8.735  1.00  0.00    -0.258 N 
HETATM   11  C16 UNL     1      17.463  49.209 -10.848  1.00  0.00     0.372 A 
HETATM   12  C5  UNL     1      16.835  50.347  -9.107  1.00  0.00     0.233 A 
ATOM     13  H6  UNL     1      17.430  48.850  -7.770  1.00  0.00     0.190 HD
HETATM   14  N4  UNL     1      16.906  50.381 -10.465  1.00  0.00    -0.172 N 
HETATM   15  N5  UNL     1      16.333  51.327  -8.225  1.00  0.00    -0.060 NA
HETATM   16  O4  UNL     1      17.697  48.863 -12.036  1.00  0.00    -0.242 OA
HETATM   17  O1  UNL     1      18.628  46.638 -10.789  1.00  0.00    -0.263 OA
BRANCH  14  18
HETATM   18  N3  UNL     1      16.479  51.434 -11.284  1.00  0.00    -0.280 N 
ATOM     19  H3  UNL     1      15.672  51.318 -11.898  1.00  0.00     0.188 HD
BRANCH  18  20
HETATM   20  C4  UNL     1      17.180  52.659 -11.250  1.00  0.00     0.143 A 
HETATM   21  C3  UNL     1      16.613  53.772 -10.674  1.00  0.00     0.133 A 
HETATM   22  N1  UNL     1      17.324  54.912 -10.669  1.00  0.00    -0.331 N 
HETATM   23  C2  UNL     1      18.560  54.993 -11.203  1.00  0.00     0.080 A 
ATOM     24  H1  UNL     1      16.914  55.745 -10.247  1.00  0.00     0.168 HD
HETATM   25  C1  UNL     1      19.275  56.289 -11.156  1.00  0.00     0.089 C 
HETATM   26  N14 UNL     1      19.135  53.921 -11.771  1.00  0.00    -0.325 N 
HETATM   27  C17 UNL     1      18.441  52.772 -11.786  1.00  0.00     0.174 A 
ATOM     28  H14 UNL     1      20.069  53.978 -12.177  1.00  0.00     0.169 HD
BRANCH  21  29
HETATM   29  N2  UNL     1      15.431  53.733 -10.151  1.00  0.00    -0.383 N 
ATOM     30  H22 UNL     1      15.297  53.630  -9.145  1.00  0.00     0.157 HD
ATOM     31  H21 UNL     1      14.601  53.804 -10.741  1.00  0.00     0.157 HD
ENDBRANCH  21  29
BRANCH  27  32
HETATM   32  O5  UNL     1      18.997  51.645 -12.360  1.00  0.00    -0.344 OA
ATOM     33  H5  UNL     1      19.924  51.666 -12.564  1.00  0.00     0.219 HD
ENDBRANCH  27  32
ENDBRANCH  18  20
ENDBRANCH  14  18
ENDBRANCH   1   8
BRANCH   7  34
HETATM   34  N10 UNL     1      20.959  45.999  -8.677  1.00  0.00    -0.364 N 
ATOM     35  H10 UNL     1      21.514  46.852  -8.743  1.00  0.00     0.161 HD
BRANCH  34  36
HETATM   36  C9  UNL     1      21.431  44.776  -9.321  1.00  0.00     0.159 C 
HETATM   37  C10 UNL     1      20.401  43.723  -9.519  1.00  0.00     0.263 C 
HETATM   38  N11 UNL     1      20.299  44.097 -10.911  1.00  0.00    -0.050 N 
HETATM   39  C11 UNL     1      21.525  44.855 -10.808  1.00  0.00     0.309 C 
ATOM     40 2H11 UNL     1      20.208  43.374 -11.625  1.00  0.00     0.279 HD
ATOM     41 1H11 UNL     1      19.451  44.547 -11.255  1.00  0.00     0.279 HD
BRANCH  39  42
HETATM   42  N12 UNL     1      22.721  44.224 -11.301  1.00  0.00    -0.350 N 
ATOM     43  H12 UNL     1      23.066  43.377 -10.849  1.00  0.00     0.163 HD
BRANCH  42  44
HETATM   44  C12 UNL     1      23.424  44.762 -12.400  1.00  0.00     0.080 C 
HETATM   45  N13 UNL     1      22.986  45.823 -13.016  1.00  0.00    -0.389 N 
ATOM     46 2H13 UNL     1      22.132  46.287 -12.706  1.00  0.00     0.157 HD
ATOM     47 1H13 UNL     1      23.494  46.211 -13.811  1.00  0.00     0.157 HD
BRANCH  44  48
HETATM   48  C13 UNL     1      24.666  44.086 -12.852  1.00  0.00     0.103 C 
HETATM   49  C14 UNL     1      25.026  42.920 -11.972  1.00  0.00     0.023 C 
BRANCH  48  50
HETATM   50  C15 UNL     1      25.758  45.135 -12.870  1.00  0.00     0.264 C 
BRANCH  50  51
HETATM   51  O2  UNL     1      27.027  44.582 -12.713  1.00  0.00    -0.371 OA
ATOM     52  H2  UNL     1      27.394  44.276 -13.535  1.00  0.00     0.212 HD
ENDBRANCH  50  51
BRANCH  50  53
HETATM   53  O3  UNL     1      25.741  45.767 -14.112  1.00  0.00    -0.371 OA
ATOM     54  H3  UNL     1      26.407  46.445 -14.113  1.00  0.00     0.212 HD
ENDBRANCH  50  53
ENDBRANCH  48  50
ENDBRANCH  44  48
ENDBRANCH  42  44
ENDBRANCH  39  42
ENDBRANCH  34  36
ENDBRANCH   7  34
TORSDOF 13
ENDMDL
MODEL 2
REMARK VINA RESULT: -9.117086683      2.608      3.731
REMARK  13 active torsions:
REMARK  status: ('A' for Active; 'I' for Inactive)
REMARK    1  A    between atoms: C3_5  and  N2_6 
REMARK    2  A    between atoms: C4_9  and  N3_10 
REMARK    3  A    between atoms: N3_10  and  N4_12 
REMARK       I    between atoms: N7_17  and  C6_18 
REMARK    4  A    between atoms: C6_18  and  C7_20 
REMARK    5  A    between atoms: C8_26  and  N10_27 
REMARK    6  A    between atoms: N10_27  and  C9_29 
REMARK    7  A    between atoms: C11_34  and  N12_35 
REMARK    8  A    between atoms: N12_35  and  C12_37 
REMARK    9  A    between atoms: C12_37  and  C13_41 
REMARK   10  A    between atoms: C13_41  and  C15_43 
REMARK   11  A    between atoms: C15_43  and  O2_44 
REMARK   12  A    between atoms: C15_43  and  O3_46 
REMARK   13  A    between atoms: C17_50  and  O5_51 
ROOT
HETATM    1  C7  UNL     1      16.399  47.693  -6.839  1.00  0.00     0.155 A 
HETATM    2  N8  UNL     1      15.451  46.779  -7.118  1.00  0.00    -0.305 N 
ATOM      3  H8  UNL     1      14.554  46.931  -7.579  1.00  0.00     0.176 HD
HETATM    4  S1  UNL     1      16.068  45.347  -6.541  1.00  0.00     0.069 SA
HETATM    5  N9  UNL     1      17.521  45.908  -5.949  1.00  0.00    -0.297 N 
ATOM      6  H9  UNL     1      18.256  45.371  -5.489  1.00  0.00     0.177 HD
HETATM    7  C8  UNL     1      17.510  47.227  -6.212  1.00  0.00     0.142 A 
ENDROOT
BRANCH   1   8
HETATM    8  C6  UNL     1      16.173  49.116  -7.227  1.00  0.00     0.301 C 
HETATM    9  N7  UNL     1      16.226  49.491  -8.618  1.00  0.00    -0.162 N 
HETATM   10  N6  UNL     1      16.468  48.644  -9.602  1.00  0.00    -0.258 N 
HETATM   11  C16 UNL     1      16.059  50.674  -9.170  1.00  0.00     0.372 A 
HETATM   12  C5  UNL     1      16.457  49.274 -10.783  1.00  0.00     0.233 A 
ATOM     13  H6  UNL     1      16.640  47.646  -9.478  1.00  0.00     0.190 HD
HETATM   14  N4  UNL     1      16.194  50.581 -10.513  1.00  0.00    -0.172 N 
HETATM   15  N5  UNL     1      16.680  48.658 -12.032  1.00  0.00    -0.060 NA
HETATM   16  O4  UNL     1      15.808  51.731  -8.531  1.00  0.00    -0.242 OA
HETATM   17  O1  UNL     1      15.937  50.020  -6.426  1.00  0.00    -0.263 OA
BRANCH  14  18
HETATM   18  N3  UNL     1      16.089  51.610 -11.458  1.00  0.00    -0.280 N 
ATOM     19  H3  UNL     1      15.403  51.551 -12.211  1.00  0.00     0.188 HD
BRANCH  18  20
HETATM   20  C4  UNL     1      16.943  52.728 -11.354  1.00  0.00     0.143 A 
HETATM   21  C3  UNL     1      16.467  53.929 -10.882  1.00  0.00     0.133 A 
HETATM   22  N1  UNL     1      17.322  54.962 -10.805  1.00  0.00    -0.331 N 
HETATM   23  C2  UNL     1      18.616  54.854 -11.171  1.00  0.00     0.080 A 
ATOM     24  H1  UNL     1      16.982  55.859 -10.457  1.00  0.00     0.168 HD
HETATM   25  C1  UNL     1      19.493  56.042 -11.053  1.00  0.00     0.089 C 
HETATM   26  N14 UNL     1      19.106  53.694 -11.635  1.00  0.00    -0.325 N 
HETATM   27  C17 UNL     1      18.266  52.649 -11.720  1.00  0.00     0.174 A 
ATOM     28  H14 UNL     1      20.082  53.608 -11.913  1.00  0.00     0.169 HD
BRANCH  21  29
HETATM   29  N2  UNL     1      15.233  54.071 -10.521  1.00  0.00    -0.383 N 
ATOM     30  H22 UNL     1      14.971  54.150  -9.538  1.00  0.00     0.157 HD
ATOM     31  H21 UNL     1      14.490  54.105 -11.219  1.00  0.00     0.157 HD
ENDBRANCH  21  29
BRANCH  27  32
HETATM   32  O5  UNL     1      18.729  51.436 -12.192  1.00  0.00    -0.344 OA
ATOM     33  H5  UNL     1      19.311  50.939 -11.630  1.00  0.00     0.219 HD
ENDBRANCH  27  32
ENDBRANCH  18  20
ENDBRANCH  14  18
ENDBRANCH   1   8
BRANCH   7  34
HETATM   34  N10 UNL     1      18.657  48.016  -5.814  1.00  0.00    -0.364 N 
ATOM     35  H10 UNL     1      18.573  48.675  -5.040  1.00  0.00     0.161 HD
BRANCH  34  36
HETATM   36  C9  UNL     1      19.932  47.876  -6.511  1.00  0.00     0.159 C 
HETATM   37  C10 UNL     1      21.066  47.401  -5.675  1.00  0.00     0.263 C 
HETATM   38  N11 UNL     1      20.918  46.079  -6.241  1.00  0.00    -0.050 N 
HETATM   39  C11 UNL     1      20.078  46.611  -7.290  1.00  0.00     0.309 C 
ATOM     40 2H11 UNL     1      21.746  45.535  -6.482  1.00  0.00     0.279 HD
ATOM     41 1H11 UNL     1      20.580  45.313  -5.660  1.00  0.00     0.279 HD
BRANCH  39  42
HETATM   42  N12 UNL     1      20.701  46.841  -8.567  1.00  0.00    -0.350 N 
ATOM     43  H12 UNL     1      21.129  47.746  -8.762  1.00  0.00     0.163 HD
BRANCH  42  44
HETATM   44  C12 UNL     1      20.728  45.831  -9.553  1.00  0.00     0.080 C 
HETATM   45  N13 UNL     1      21.727  44.997  -9.624  1.00  0.00    -0.389 N 
ATOM     46 2H13 UNL     1      22.500  45.057  -8.962  1.00  0.00     0.157 HD
ATOM     47 1H13 UNL     1      21.746  44.268 -10.336  1.00  0.00     0.157 HD
BRANCH  44  48
HETATM   48  C13 UNL     1      19.603  45.744 -10.516  1.00  0.00     0.103 C 
HETATM   49  C14 UNL     1      19.537  44.399 -11.187  1.00  0.00     0.023 C 
BRANCH  48  50
HETATM   50  C15 UNL     1      19.790  46.864 -11.518  1.00  0.00     0.264 C 
BRANCH  50  51
HETATM   51  O2  UNL     1      19.475  48.111 -10.984  1.00  0.00    -0.371 OA
ATOM     52  H2  UNL     1      19.038  48.675 -11.613  1.00  0.00     0.212 HD
ENDBRANCH  50  51
BRANCH  50  53
HETATM   53  O3  UNL     1      21.133  46.906 -11.885  1.00  0.00    -0.371 OA
ATOM     54  H3  UNL     1      21.661  46.858 -11.097  1.00  0.00     0.212 HD
ENDBRANCH  50  53
ENDBRANCH  48  50
ENDBRANCH  44  48
ENDBRANCH  42  44
ENDBRANCH  39  42
ENDBRANCH  34  36
ENDBRANCH   7  34
TORSDOF 13
ENDMDL
MODEL 3
REMARK VINA RESULT: -8.972190416      2.453      3.490
REMARK  13 active torsions:
REMARK  status: ('A' for Active; 'I' for Inactive)
REMARK    1  A    between atoms: C3_5  and  N2_6 
REMARK    2  A    between atoms: C4_9  and  N3_10 
REMARK    3  A    between atoms: N3_10  and  N4_12 
REMARK       I    between atoms: N7_17  and  C6_18 
REMARK    4  A    between atoms: C6_18  and  C7_20 
REMARK    5  A    between atoms: C8_26  and  N10_27 
REMARK    6  A    between atoms: N10_27  and  C9_29 
REMARK    7  A    between atoms: C11_34  and  N12_35 
REMARK    8  A    between atoms: N12_35  and  C12_37 
REMARK    9  A    between atoms: C12_37  and  C13_41 
REMARK   10  A    between atoms: C13_41  and  C15_43 
REMARK   11  A    between atoms: C15_43  and  O2_44 
REMARK   12  A    between atoms: C15_43  and  O3_46 
REMARK   13  A    between atoms: C17_50  and  O5_51 
ROOT
HETATM    1  C7  UNL     1      16.362  47.731  -7.226  1.00  0.00     0.155 A 
HETATM    2  N8  UNL     1      15.256  47.054  -6.865  1.00  0.00    -0.305 N 
ATOM      3  H8  UNL     1      14.309  47.417  -6.754  1.00  0.00     0.176 HD
HETATM    4  S1  UNL     1      15.779  45.492  -6.637  1.00  0.00     0.069 SA
HETATM    5  N9  UNL     1      17.391  45.701  -6.999  1.00  0.00    -0.297 N 
ATOM      6  H9  UNL     1      18.128  44.995  -6.994  1.00  0.00     0.177 HD
HETATM    7  C8  UNL     1      17.507  47.007  -7.299  1.00  0.00     0.142 A 
ENDROOT
BRANCH   1   8
HETATM    8  C6  UNL     1      16.257  49.192  -7.516  1.00  0.00     0.301 C 
HETATM    9  N7  UNL     1      16.110  49.637  -8.879  1.00  0.00    -0.162 N 
HETATM   10  N6  UNL     1      16.062  48.825  -9.920  1.00  0.00    -0.258 N 
HETATM   11  C16 UNL     1      16.003  50.862  -9.350  1.00  0.00     0.372 A 
HETATM   12  C5  UNL     1      15.923  49.519 -11.056  1.00  0.00     0.233 A 
ATOM     13  H6  UNL     1      16.122  47.809  -9.865  1.00  0.00     0.190 HD
HETATM   14  N4  UNL     1      15.884  50.831 -10.697  1.00  0.00    -0.172 N 
HETATM   15  N5  UNL     1      15.839  48.955 -12.346  1.00  0.00    -0.060 NA
HETATM   16  O4  UNL     1      16.009  51.902  -8.639  1.00  0.00    -0.242 OA
HETATM   17  O1  UNL     1      16.286  50.069  -6.655  1.00  0.00    -0.263 OA
BRANCH  14  18
HETATM   18  N3  UNL     1      15.747  51.918 -11.570  1.00  0.00    -0.280 N 
ATOM     19  H3  UNL     1      15.012  51.923 -12.277  1.00  0.00     0.188 HD
BRANCH  18  20
HETATM   20  C4  UNL     1      16.639  53.006 -11.459  1.00  0.00     0.143 A 
HETATM   21  C3  UNL     1      16.212  54.209 -10.949  1.00  0.00     0.133 A 
HETATM   22  N1  UNL     1      17.102  55.212 -10.865  1.00  0.00    -0.331 N 
HETATM   23  C2  UNL     1      18.384  55.072 -11.261  1.00  0.00     0.080 A 
ATOM     24  H1  UNL     1      16.798  56.111 -10.490  1.00  0.00     0.168 HD
HETATM   25  C1  UNL     1      19.301  56.228 -11.135  1.00  0.00     0.089 C 
HETATM   26  N14 UNL     1      18.826  53.908 -11.762  1.00  0.00    -0.325 N 
HETATM   27  C17 UNL     1      17.951  52.893 -11.854  1.00  0.00     0.174 A 
ATOM     28  H14 UNL     1      19.793  53.797 -12.064  1.00  0.00     0.169 HD
BRANCH  21  29
HETATM   29  N2  UNL     1      14.991  54.382 -10.558  1.00  0.00    -0.383 N 
ATOM     30  H22 UNL     1      14.766  54.973  -9.757  1.00  0.00     0.157 HD
ATOM     31  H21 UNL     1      14.221  53.926 -11.048  1.00  0.00     0.157 HD
ENDBRANCH  21  29
BRANCH  27  32
HETATM   32  O5  UNL     1      18.364  51.677 -12.364  1.00  0.00    -0.344 OA
ATOM     33  H5  UNL     1      18.484  51.612 -13.304  1.00  0.00     0.219 HD
ENDBRANCH  27  32
ENDBRANCH  18  20
ENDBRANCH  14  18
ENDBRANCH   1   8
BRANCH   7  34
HETATM   34  N10 UNL     1      18.814  47.513  -7.665  1.00  0.00    -0.364 N 
ATOM     35  H10 UNL     1      19.542  47.594  -6.955  1.00  0.00     0.161 HD
BRANCH  34  36
HETATM   36  C9  UNL     1      19.097  47.911  -9.041  1.00  0.00     0.159 C 
HETATM   37  C10 UNL     1      19.489  49.332  -9.225  1.00  0.00     0.263 C 
HETATM   38  N11 UNL     1      20.871  48.928  -9.342  1.00  0.00    -0.050 N 
HETATM   39  C11 UNL     1      20.464  47.553  -9.521  1.00  0.00     0.309 C 
ATOM     40 2H11 UNL     1      21.473  49.373 -10.034  1.00  0.00     0.279 HD
ATOM     41 1H11 UNL     1      21.534  49.169  -8.605  1.00  0.00     0.279 HD
BRANCH  39  42
HETATM   42  N12 UNL     1      20.442  47.053 -10.871  1.00  0.00    -0.350 N 
ATOM     43  H12 UNL     1      19.827  47.489 -11.558  1.00  0.00     0.163 HD
BRANCH  42  44
HETATM   44  C12 UNL     1      21.259  45.969 -11.256  1.00  0.00     0.080 C 
HETATM   45  N13 UNL     1      21.781  45.921 -12.449  1.00  0.00    -0.389 N 
ATOM     46 2H13 UNL     1      21.615  46.671 -13.119  1.00  0.00     0.157 HD
ATOM     47 1H13 UNL     1      22.372  45.137 -12.727  1.00  0.00     0.157 HD
BRANCH  44  48
HETATM   48  C13 UNL     1      21.502  44.877 -10.281  1.00  0.00     0.103 C 
HETATM   49  C14 UNL     1      22.627  43.975 -10.712  1.00  0.00     0.023 C 
BRANCH  48  50
HETATM   50  C15 UNL     1      20.199  44.119 -10.132  1.00  0.00     0.264 C 
BRANCH  50  51
HETATM   51  O2  UNL     1      19.491  44.499  -8.995  1.00  0.00    -0.371 OA
ATOM     52  H2  UNL     1      19.443  43.804  -8.349  1.00  0.00     0.212 HD
ENDBRANCH  50  51
BRANCH  50  53
HETATM   53  O3  UNL     1      19.392  44.410 -11.230  1.00  0.00    -0.371 OA
ATOM     54  H3  UNL     1      18.797  43.681 -11.366  1.00  0.00     0.212 HD
ENDBRANCH  50  53
ENDBRANCH  48  50
ENDBRANCH  44  48
ENDBRANCH  42  44
ENDBRANCH  39  42
ENDBRANCH  34  36
ENDBRANCH   7  34
TORSDOF 13
ENDMDL
MODEL 4
REMARK VINA RESULT: -8.858573809      1.517      1.765
REMARK  13 active torsions:
REMARK  status: ('A' for Active; 'I' for Inactive)
REMARK    1  A    between atoms: C3_5  and  N2_6 
REMARK    2  A    between atoms: C4_9  and  N3_10 
REMARK    3  A    between atoms: N3_10  and  N4_12 
REMARK       I    between atoms: N7_17  and  C6_18 
REMARK    4  A    between atoms: C6_18  and  C7_20 
REMARK    5  A    between atoms: C8_26  and  N10_27 
REMARK    6  A    between atoms: N10_27  and  C9_29 
REMARK    7  A    between atoms: C11_34  and  N12_35 
REMARK    8  A    between atoms: N12_35  and  C12_37 
REMARK    9  A    between atoms: C12_37  and  C13_41 
REMARK   10  A    between atoms: C13_41  and  C15_43 
REMARK   11  A    between atoms: C15_43  and  O2_44 
REMARK   12  A    between atoms: C15_43  and  O3_46 
REMARK   13  A    between atoms: C17_50  and  O5_51 
ROOT
HETATM    1  C7  UNL     1      19.397  47.124  -7.154  1.00  0.00     0.155 A 
HETATM    2  N8  UNL     1      19.825  47.541  -5.948  1.00  0.00    -0.305 N 
ATOM      3  H8  UNL     1      19.449  48.301  -5.380  1.00  0.00     0.176 HD
HETATM    4  S1  UNL     1      21.105  46.542  -5.591  1.00  0.00     0.069 SA
HETATM    5  N9  UNL     1      21.094  45.601  -6.966  1.00  0.00    -0.297 N 
ATOM      6  H9  UNL     1      21.720  44.830  -7.199  1.00  0.00     0.177 HD
HETATM    7  C8  UNL     1      20.076  46.084  -7.701  1.00  0.00     0.142 A 
ENDROOT
BRANCH   1   8
HETATM    8  C6  UNL     1      18.236  47.813  -7.791  1.00  0.00     0.301 C 
HETATM    9  N7  UNL     1      18.455  48.668  -8.930  1.00  0.00    -0.162 N 
HETATM   10  N6  UNL     1      19.641  48.893  -9.467  1.00  0.00    -0.258 N 
HETATM   11  C16 UNL     1      17.584  49.362  -9.633  1.00  0.00     0.372 A 
HETATM   12  C5  UNL     1      19.539  49.726 -10.510  1.00  0.00     0.233 A 
ATOM     13  H6  UNL     1      20.515  48.488  -9.132  1.00  0.00     0.190 HD
HETATM   14  N4  UNL     1      18.217  50.032 -10.623  1.00  0.00    -0.172 N 
HETATM   15  N5  UNL     1      20.618  50.170 -11.303  1.00  0.00    -0.060 NA
HETATM   16  O4  UNL     1      16.345  49.388  -9.408  1.00  0.00    -0.242 OA
HETATM   17  O1  UNL     1      17.073  47.703  -7.406  1.00  0.00    -0.263 OA
BRANCH  14  18
HETATM   18  N3  UNL     1      17.649  50.877 -11.585  1.00  0.00    -0.280 N 
ATOM     19  H3  UNL     1      17.136  50.488 -12.376  1.00  0.00     0.188 HD
BRANCH  18  20
HETATM   20  C4  UNL     1      17.797  52.274 -11.445  1.00  0.00     0.143 A 
HETATM   21  C3  UNL     1      16.948  52.987 -10.633  1.00  0.00     0.133 A 
HETATM   22  N1  UNL     1      17.132  54.315 -10.536  1.00  0.00    -0.331 N 
HETATM   23  C2  UNL     1      18.113  54.956 -11.204  1.00  0.00     0.080 A 
ATOM     24  H1  UNL     1      16.508  54.857  -9.938  1.00  0.00     0.168 HD
HETATM   25  C1  UNL     1      18.247  56.422 -11.042  1.00  0.00     0.089 C 
HETATM   26  N14 UNL     1      18.955  54.283 -12.003  1.00  0.00    -0.325 N 
HETATM   27  C17 UNL     1      18.787  52.955 -12.113  1.00  0.00     0.174 A 
ATOM     28  H14 UNL     1      19.697  54.763 -12.511  1.00  0.00     0.169 HD
BRANCH  21  29
HETATM   29  N2  UNL     1      15.996  52.408  -9.976  1.00  0.00    -0.383 N 
ATOM     30  H22 UNL     1      15.638  52.796  -9.103  1.00  0.00     0.157 HD
ATOM     31  H21 UNL     1      15.581  51.542 -10.322  1.00  0.00     0.157 HD
ENDBRANCH  21  29
BRANCH  27  32
HETATM   32  O5  UNL     1      19.632  52.223 -12.925  1.00  0.00    -0.344 OA
ATOM     33  H5  UNL     1      19.249  51.526 -13.444  1.00  0.00     0.219 HD
ENDBRANCH  27  32
ENDBRANCH  18  20
ENDBRANCH  14  18
ENDBRANCH   1   8
BRANCH   7  34
HETATM   34  N10 UNL     1      19.801  45.465  -8.981  1.00  0.00    -0.364 N 
ATOM     35  H10 UNL     1      18.994  45.769  -9.526  1.00  0.00     0.161 HD
BRANCH  34  36
HETATM   36  C9  UNL     1      20.668  44.410  -9.497  1.00  0.00     0.159 C 
HETATM   37  C10 UNL     1      19.979  43.150  -9.880  1.00  0.00     0.263 C 
HETATM   38  N11 UNL     1      20.069  43.534 -11.271  1.00  0.00    -0.050 N 
HETATM   39  C11 UNL     1      21.034  44.556 -10.937  1.00  0.00     0.309 C 
ATOM     40 2H11 UNL     1      20.296  42.833 -11.976  1.00  0.00     0.279 HD
ATOM     41 1H11 UNL     1      19.223  43.782 -11.784  1.00  0.00     0.279 HD
BRANCH  39  42
HETATM   42  N12 UNL     1      22.419  44.243 -11.170  1.00  0.00    -0.350 N 
ATOM     43  H12 UNL     1      22.902  43.601 -10.541  1.00  0.00     0.163 HD
BRANCH  42  44
HETATM   44  C12 UNL     1      23.118  44.811 -12.257  1.00  0.00     0.080 C 
HETATM   45  N13 UNL     1      22.699  45.910 -12.817  1.00  0.00    -0.389 N 
ATOM     46 2H13 UNL     1      21.863  46.381 -12.472  1.00  0.00     0.157 HD
ATOM     47 1H13 UNL     1      23.204  46.320 -13.602  1.00  0.00     0.157 HD
BRANCH  44  48
HETATM   48  C13 UNL     1      24.334  44.124 -12.759  1.00  0.00     0.103 C 
HETATM   49  C14 UNL     1      24.787  43.029 -11.832  1.00  0.00     0.023 C 
BRANCH  48  50
HETATM   50  C15 UNL     1      25.399  45.185 -12.938  1.00  0.00     0.264 C 
BRANCH  50  51
HETATM   51  O2  UNL     1      26.687  44.656 -12.904  1.00  0.00    -0.371 OA
ATOM     52  H2  UNL     1      27.252  45.116 -12.295  1.00  0.00     0.212 HD
ENDBRANCH  50  51
BRANCH  50  53
HETATM   53  O3  UNL     1      25.233  45.769 -14.192  1.00  0.00    -0.371 OA
ATOM     54  H3  UNL     1      24.809  46.611 -14.077  1.00  0.00     0.212 HD
ENDBRANCH  50  53
ENDBRANCH  48  50
ENDBRANCH  44  48
ENDBRANCH  42  44
ENDBRANCH  39  42
ENDBRANCH  34  36
ENDBRANCH   7  34
TORSDOF 13
ENDMDL
MODEL 5
REMARK VINA RESULT: -8.821880821      2.264      2.852
REMARK  13 active torsions:
REMARK  status: ('A' for Active; 'I' for Inactive)
REMARK    1  A    between atoms: C3_5  and  N2_6 
REMARK    2  A    between atoms: C4_9  and  N3_10 
REMARK    3  A    between atoms: N3_10  and  N4_12 
REMARK       I    between atoms: N7_17  and  C6_18 
REMARK    4  A    between atoms: C6_18  and  C7_20 
REMARK    5  A    between atoms: C8_26  and  N10_27 
REMARK    6  A    between atoms: N10_27  and  C9_29 
REMARK    7  A    between atoms: C11_34  and  N12_35 
REMARK    8  A    between atoms: N12_35  and  C12_37 
REMARK    9  A    between atoms: C12_37  and  C13_41 
REMARK   10  A    between atoms: C13_41  and  C15_43 
REMARK   11  A    between atoms: C15_43  and  O2_44 
REMARK   12  A    between atoms: C15_43  and  O3_46 
REMARK   13  A    between atoms: C17_50  and  O5_51 
ROOT
HETATM    1  C7  UNL     1      18.622  47.706  -6.447  1.00  0.00     0.155 A 
HETATM    2  N8  UNL     1      18.330  48.421  -5.344  1.00  0.00    -0.305 N 
ATOM      3  H8  UNL     1      18.440  49.426  -5.205  1.00  0.00     0.176 HD
HETATM    4  S1  UNL     1      17.750  47.301  -4.261  1.00  0.00     0.069 SA
HETATM    5  N9  UNL     1      17.880  45.934  -5.204  1.00  0.00    -0.297 N 
ATOM      6  H9  UNL     1      17.634  44.977  -4.951  1.00  0.00     0.177 HD
HETATM    7  C8  UNL     1      18.381  46.372  -6.373  1.00  0.00     0.142 A 
ENDROOT
BRANCH   1   8
HETATM    8  C6  UNL     1      19.175  48.407  -7.642  1.00  0.00     0.301 C 
HETATM    9  N7  UNL     1      18.285  49.127  -8.519  1.00  0.00    -0.162 N 
HETATM   10  N6  UNL     1      16.980  49.213  -8.337  1.00  0.00    -0.258 N 
HETATM   11  C16 UNL     1      18.560  49.805  -9.613  1.00  0.00     0.372 A 
HETATM   12  C5  UNL     1      16.413  49.942  -9.306  1.00  0.00     0.233 A 
ATOM     13  H6  UNL     1      16.473  48.783  -7.564  1.00  0.00     0.190 HD
HETATM   14  N4  UNL     1      17.424  50.327 -10.132  1.00  0.00    -0.172 N 
HETATM   15  N5  UNL     1      15.035  50.226  -9.407  1.00  0.00    -0.060 NA
HETATM   16  O4  UNL     1      19.715  49.942 -10.097  1.00  0.00    -0.242 OA
HETATM   17  O1  UNL     1      20.367  48.418  -7.945  1.00  0.00    -0.263 OA
BRANCH  14  18
HETATM   18  N3  UNL     1      17.290  51.110 -11.285  1.00  0.00    -0.280 N 
ATOM     19  H3  UNL     1      16.899  50.709 -12.139  1.00  0.00     0.188 HD
BRANCH  18  20
HETATM   20  C4  UNL     1      17.701  52.459 -11.252  1.00  0.00     0.143 A 
HETATM   21  C3  UNL     1      16.900  53.419 -10.680  1.00  0.00     0.133 A 
HETATM   22  N1  UNL     1      17.339  54.689 -10.675  1.00  0.00    -0.331 N 
HETATM   23  C2  UNL     1      18.528  55.041 -11.208  1.00  0.00     0.080 A 
ATOM     24  H1  UNL     1      16.754  55.411 -10.255  1.00  0.00     0.168 HD
HETATM   25  C1  UNL     1      18.937  56.463 -11.161  1.00  0.00     0.089 C 
HETATM   26  N14 UNL     1      19.328  54.123 -11.772  1.00  0.00    -0.325 N 
HETATM   27  C17 UNL     1      18.906  52.849 -11.786  1.00  0.00     0.174 A 
ATOM     28  H14 UNL     1      20.226  54.385 -12.177  1.00  0.00     0.169 HD
BRANCH  21  29
HETATM   29  N2  UNL     1      15.754  53.119 -10.159  1.00  0.00    -0.383 N 
ATOM     30  H22 UNL     1      14.879  53.336 -10.637  1.00  0.00     0.157 HD
ATOM     31  H21 UNL     1      15.704  52.657  -9.251  1.00  0.00     0.157 HD
ENDBRANCH  21  29
BRANCH  27  32
HETATM   32  O5  UNL     1      19.700  51.872 -12.357  1.00  0.00    -0.344 OA
ATOM     33  H5  UNL     1      19.488  51.594 -13.240  1.00  0.00     0.219 HD
ENDBRANCH  27  32
ENDBRANCH  18  20
ENDBRANCH  14  18
ENDBRANCH   1   8
BRANCH   7  34
HETATM   34  N10 UNL     1      18.614  45.404  -7.425  1.00  0.00    -0.364 N 
ATOM     35  H10 UNL     1      17.821  44.984  -7.910  1.00  0.00     0.161 HD
BRANCH  34  36
HETATM   36  C9  UNL     1      19.974  45.025  -7.797  1.00  0.00     0.159 C 
HETATM   37  C10 UNL     1      20.650  44.085  -6.865  1.00  0.00     0.263 C 
HETATM   38  N11 UNL     1      20.385  43.000  -7.782  1.00  0.00    -0.050 N 
HETATM   39  C11 UNL     1      20.058  43.946  -8.824  1.00  0.00     0.309 C 
ATOM     40 2H11 UNL     1      21.097  42.290  -7.947  1.00  0.00     0.279 HD
ATOM     41 1H11 UNL     1      19.715  42.274  -7.528  1.00  0.00     0.279 HD
BRANCH  39  42
HETATM   42  N12 UNL     1      21.082  44.216  -9.799  1.00  0.00    -0.350 N 
ATOM     43  H12 UNL     1      22.050  44.323  -9.495  1.00  0.00     0.163 HD
BRANCH  42  44
HETATM   44  C12 UNL     1      20.765  44.335 -11.169  1.00  0.00     0.080 C 
HETATM   45  N13 UNL     1      19.994  43.462 -11.752  1.00  0.00    -0.389 N 
ATOM     46 2H13 UNL     1      19.600  42.684 -11.224  1.00  0.00     0.157 HD
ATOM     47 1H13 UNL     1      19.765  43.548 -12.743  1.00  0.00     0.157 HD
BRANCH  44  48
HETATM   48  C13 UNL     1      21.338  45.468 -11.938  1.00  0.00     0.103 C 
HETATM   49  C14 UNL     1      22.823  45.596 -11.733  1.00  0.00     0.023 C 
BRANCH  48  50
HETATM   50  C15 UNL     1      20.601  46.717 -11.502  1.00  0.00     0.264 C 
BRANCH  50  51
HETATM   51  O2  UNL     1      19.280  46.456 -11.143  1.00  0.00    -0.371 OA
ATOM     52  H2  UNL     1      19.066  46.792 -10.281  1.00  0.00     0.212 HD
ENDBRANCH  50  51
BRANCH  50  53
HETATM   53  O3  UNL     1      21.235  47.231 -10.372  1.00  0.00    -0.371 OA
ATOM     54  H3  UNL     1      21.272  48.177 -10.454  1.00  0.00     0.212 HD
ENDBRANCH  50  53
ENDBRANCH  48  50
ENDBRANCH  44  48
ENDBRANCH  42  44
ENDBRANCH  39  42
ENDBRANCH  34  36
ENDBRANCH   7  34
TORSDOF 13
ENDMDL
