MODEL 1
REMARK VINA RESULT: -8.318031685      0.000      0.000
REMARK  14 active torsions:
REMARK  status: ('A' for Active; 'I' for Inactive)
REMARK    1  A    between atoms: N1_1  and  C1_4 
REMARK    2  A    between atoms: C2_7  and  N3_8 
REMARK    3  A    between atoms: N3_8  and  N4_10 
REMARK    4  A    between atoms: C3_13  and  C4_14 
REMARK    5  A    between atoms: C4_14  and  N6_15 
REMARK    6  A    between atoms: C4_14  and  C5_19 
REMARK    7  A    between atoms: C6_24  and  C7_25 
REMARK    8  A    between atoms: C8_28  and  C9_29 
REMARK    9  A    between atoms: C10_34  and  C11_35 
REMARK   10  A    between atoms: C11_35  and  O3_36 
REMARK   11  A    between atoms: C11_35  and  C12_38 
REMARK   12  A    between atoms: C12_38  and  O4_39 
REMARK   13  A    between atoms: C12_38  and  C13_41 
REMARK   14  A    between atoms: C13_41  and  O5_42 
ROOT
HETATM    1  N4  UNL     1      16.876  50.405  -9.250  1.00  0.00    -0.174 N 
HETATM    2  N5  UNL     1      16.551  51.402 -10.086  1.00  0.00    -0.263 N 
ATOM      3  H5  UNL     1      15.877  52.145  -9.901  1.00  0.00     0.190 HD
HETATM    4  C3  UNL     1      17.255  51.252 -11.189  1.00  0.00     0.141 A 
HETATM    5  N7  UNL     1      18.037  50.158 -11.068  1.00  0.00    -0.324 N 
ATOM      6  H7  UNL     1      18.688  49.793 -11.763  1.00  0.00     0.169 HD
HETATM    7  C6  UNL     1      17.787  49.640  -9.845  1.00  0.00     0.181 A 
ENDROOT
BRANCH   7   8
HETATM    8  C7  UNL     1      18.442  48.432  -9.297  1.00  0.00     0.122 A 
HETATM    9  N8  UNL     1      18.854  48.288  -8.032  1.00  0.00    -0.344 N 
HETATM   10  C8  UNL     1      19.419  47.202  -7.647  1.00  0.00     0.085 A 
ATOM     11  H8  UNL     1      18.718  49.049  -7.367  1.00  0.00     0.167 HD
HETATM   12  C14 UNL     1      19.581  46.201  -8.591  1.00  0.00     0.085 A 
HETATM   13  S1  UNL     1      18.891  46.939  -9.961  1.00  0.00    -0.078 SA
BRANCH  10  14
HETATM   14  C9  UNL     1      19.888  46.953  -6.265  1.00  0.00     0.149 A 
HETATM   15  N9  UNL     1      21.159  47.174  -5.859  1.00  0.00    -0.282 N 
HETATM   16  N10 UNL     1      21.254  46.869  -4.559  1.00  0.00    -0.285 N 
ATOM     17  H9  UNL     1      21.920  47.516  -6.446  1.00  0.00     0.188 HD
HETATM   18  C10 UNL     1      20.046  46.456  -4.140  1.00  0.00     0.129 A 
ATOM     19  H10 UNL     1      22.096  46.938  -3.987  1.00  0.00     0.188 HD
HETATM   20  N11 UNL     1      19.229  46.515  -5.200  1.00  0.00    -0.326 N 
ATOM     21  H11 UNL     1      18.241  46.259  -5.189  1.00  0.00     0.169 HD
BRANCH  18  22
HETATM   22  C11 UNL     1      19.701  46.034  -2.760  1.00  0.00     0.217 C 
BRANCH  22  23
HETATM   23  O3  UNL     1      19.033  44.788  -2.829  1.00  0.00    -0.385 OA
ATOM     24  H3  UNL     1      19.670  44.119  -3.048  1.00  0.00     0.210 HD
ENDBRANCH  22  23
BRANCH  22  25
HETATM   25  C12 UNL     1      18.765  47.049  -2.110  1.00  0.00     0.177 C 
BRANCH  25  26
HETATM   26  O4  UNL     1      18.734  48.203  -2.887  1.00  0.00    -0.390 OA
ATOM     27  H4  UNL     1      18.058  48.113  -3.549  1.00  0.00     0.210 HD
ENDBRANCH  25  26
BRANCH  25  28
HETATM   28  C13 UNL     1      17.352  46.460  -2.039  1.00  0.00     0.198 C 
BRANCH  28  29
HETATM   29  O5  UNL     1      16.736  46.527  -3.284  1.00  0.00    -0.398 OA
ATOM     30  H5  UNL     1      15.798  46.638  -3.183  1.00  0.00     0.209 HD
ENDBRANCH  28  29
ENDBRANCH  25  28
ENDBRANCH  22  25
ENDBRANCH  18  22
ENDBRANCH  10  14
ENDBRANCH   7   8
BRANCH   1  31
HETATM   31  N3  UNL     1      16.277  50.265  -7.999  1.00  0.00    -0.260 N 
ATOM     32  H3  UNL     1      15.514  49.588  -7.984  1.00  0.00     0.191 HD
BRANCH  31  33
HETATM   33  C2  UNL     1      16.515  50.868  -6.770  1.00  0.00     0.170 A 
HETATM   34  N2  UNL     1      16.987  52.174  -6.812  1.00  0.00    -0.173 N 
HETATM   35  C1  UNL     1      17.293  52.851  -5.707  1.00  0.00     0.679 A 
ATOM     36  H2  UNL     1      17.101  52.629  -7.719  1.00  0.00     0.186 HD
HETATM   37  N14 UNL     1      17.158  52.298  -4.512  1.00  0.00    -0.173 N 
HETATM   38  C16 UNL     1      16.712  51.050  -4.392  1.00  0.00     0.175 A 
ATOM     39  H14 UNL     1      17.397  52.833  -3.677  1.00  0.00     0.186 HD
HETATM   40  C15 UNL     1      16.383  50.316  -5.543  1.00  0.00     0.148 A 
HETATM   41  N13 UNL     1      16.486  50.221  -3.352  1.00  0.00    -0.223 N 
HETATM   42  N12 UNL     1      15.998  49.139  -5.087  1.00  0.00    -0.234 N 
HETATM   43  O6  UNL     1      16.062  49.096  -3.813  1.00  0.00    -0.155 OA
ATOM     44  H12 UNL     1      15.689  48.364  -5.675  1.00  0.00     0.197 HD
ATOM     45  H13 UNL     1      16.626  50.447  -2.367  1.00  0.00     0.198 HD
BRANCH  35  46
HETATM   46  N1  UNL     1      17.730  54.070  -5.874  1.00  0.00    -0.234 N 
ATOM     47  H12 UNL     1      18.696  54.279  -6.126  1.00  0.00     0.174 HD
ATOM     48  H11 UNL     1      17.051  54.819  -5.742  1.00  0.00     0.174 HD
ENDBRANCH  35  46
ENDBRANCH  31  33
ENDBRANCH   1  31
BRANCH   4  49
HETATM   49  C4  UNL     1      17.192  52.175 -12.383  1.00  0.00     0.351 C 
BRANCH  49  50
HETATM   50  N6  UNL     1      16.093  53.074 -12.149  1.00  0.00    -0.058 N 
ATOM     51  H63 UNL     1      15.196  52.599 -12.051  1.00  0.00     0.275 HD
ATOM     52  H62 UNL     1      16.112  53.503 -11.224  1.00  0.00     0.275 HD
ATOM     53  H61 UNL     1      16.107  53.755 -12.909  1.00  0.00     0.275 HD
ENDBRANCH  49  50
BRANCH  49  54
HETATM   54  C5  UNL     1      18.487  52.865 -12.503  1.00  0.00     0.212 C 
HETATM   55  O1  UNL     1      18.563  54.111 -12.488  1.00  0.00    -0.646 OA
HETATM   56  O2  UNL     1      19.650  52.130 -12.639  1.00  0.00    -0.646 OA
ENDBRANCH  49  54
ENDBRANCH   4  49
TORSDOF 14
ENDMDL
MODEL 2
REMARK VINA RESULT: -8.266751756      1.302      1.605
REMARK  14 active torsions:
REMARK  status: ('A' for Active; 'I' for Inactive)
REMARK    1  A    between atoms: N1_1  and  C1_4 
REMARK    2  A    between atoms: C2_7  and  N3_8 
REMARK    3  A    between atoms: N3_8  and  N4_10 
REMARK    4  A    between atoms: C3_13  and  C4_14 
REMARK    5  A    between atoms: C4_14  and  N6_15 
REMARK    6  A    between atoms: C4_14  and  C5_19 
REMARK    7  A    between atoms: C6_24  and  C7_25 
REMARK    8  A    between atoms: C8_28  and  C9_29 
REMARK    9  A    between atoms: C10_34  and  C11_35 
REMARK   10  A    between atoms: C11_35  and  O3_36 
REMARK   11  A    between atoms: C11_35  and  C12_38 
REMARK   12  A    between atoms: C12_38  and  O4_39 
REMARK   13  A    between atoms: C12_38  and  C13_41 
REMARK   14  A    between atoms: C13_41  and  O5_42 
ROOT
HETATM    1  N4  UNL     1      16.497  50.502  -9.208  1.00  0.00    -0.174 N 
HETATM    2  N5  UNL     1      16.268  51.725  -9.708  1.00  0.00    -0.263 N 
ATOM      3  H5  UNL     1      15.570  52.388  -9.374  1.00  0.00     0.190 HD
HETATM    4  C3  UNL     1      17.103  51.918 -10.709  1.00  0.00     0.141 A 
HETATM    5  N7  UNL     1      17.875  50.820 -10.857  1.00  0.00    -0.324 N 
ATOM      6  H7  UNL     1      18.610  50.680 -11.550  1.00  0.00     0.169 HD
HETATM    7  C6  UNL     1      17.482  49.943  -9.907  1.00  0.00     0.181 A 
ENDROOT
BRANCH   7   8
HETATM    8  C7  UNL     1      18.077  48.602  -9.707  1.00  0.00     0.122 A 
HETATM    9  N8  UNL     1      18.458  48.100  -8.527  1.00  0.00    -0.344 N 
HETATM   10  C8  UNL     1      18.971  46.926  -8.451  1.00  0.00     0.085 A 
ATOM     11  H8  UNL     1      18.341  48.655  -7.680  1.00  0.00     0.167 HD
HETATM   12  C14 UNL     1      19.110  46.216  -9.632  1.00  0.00     0.085 A 
HETATM   13  S1  UNL     1      18.476  47.330 -10.752  1.00  0.00    -0.078 SA
BRANCH  10  14
HETATM   14  C9  UNL     1      19.404  46.287  -7.187  1.00  0.00     0.149 A 
HETATM   15  N9  UNL     1      20.551  45.581  -7.064  1.00  0.00    -0.282 N 
HETATM   16  N10 UNL     1      20.659  45.154  -5.800  1.00  0.00    -0.285 N 
ATOM     17  H9  UNL     1      21.223  45.404  -7.811  1.00  0.00     0.188 HD
HETATM   18  C10 UNL     1      19.583  45.588  -5.122  1.00  0.00     0.129 A 
ATOM     19  H10 UNL     1      21.424  44.596  -5.419  1.00  0.00     0.188 HD
HETATM   20  N11 UNL     1      18.831  46.276  -5.990  1.00  0.00    -0.326 N 
ATOM     21  H11 UNL     1      17.944  46.727  -5.763  1.00  0.00     0.169 HD
BRANCH  18  22
HETATM   22  C11 UNL     1      19.308  45.351  -3.684  1.00  0.00     0.217 C 
BRANCH  22  23
HETATM   23  O3  UNL     1      17.907  45.405  -3.482  1.00  0.00    -0.385 OA
ATOM     24  H3  UNL     1      17.736  45.332  -2.551  1.00  0.00     0.210 HD
ENDBRANCH  22  23
BRANCH  22  25
HETATM   25  C12 UNL     1      19.961  46.433  -2.829  1.00  0.00     0.177 C 
BRANCH  25  26
HETATM   26  O4  UNL     1      20.355  47.485  -3.651  1.00  0.00    -0.390 OA
ATOM     27  H4  UNL     1      19.827  48.249  -3.452  1.00  0.00     0.210 HD
ENDBRANCH  25  26
BRANCH  25  28
HETATM   28  C13 UNL     1      18.943  46.955  -1.809  1.00  0.00     0.198 C 
BRANCH  28  29
HETATM   29  O5  UNL     1      18.491  48.217  -2.178  1.00  0.00    -0.398 OA
ATOM     30  H5  UNL     1      18.824  48.875  -1.579  1.00  0.00     0.209 HD
ENDBRANCH  28  29
ENDBRANCH  25  28
ENDBRANCH  22  25
ENDBRANCH  18  22
ENDBRANCH  10  14
ENDBRANCH   7   8
BRANCH   1  31
HETATM   31  N3  UNL     1      15.751  49.984  -8.152  1.00  0.00    -0.260 N 
ATOM     32  H3  UNL     1      14.853  49.592  -8.437  1.00  0.00     0.191 HD
BRANCH  31  33
HETATM   33  C2  UNL     1      15.990  49.896  -6.786  1.00  0.00     0.170 A 
HETATM   34  N2  UNL     1      16.336  51.082  -6.151  1.00  0.00    -0.173 N 
HETATM   35  C1  UNL     1      16.630  51.129  -4.853  1.00  0.00     0.679 A 
ATOM     36  H2  UNL     1      16.364  51.945  -6.695  1.00  0.00     0.186 HD
HETATM   37  N14 UNL     1      16.604  50.034  -4.109  1.00  0.00    -0.173 N 
HETATM   38  C16 UNL     1      16.283  48.861  -4.648  1.00  0.00     0.175 A 
ATOM     39  H14 UNL     1      16.832  50.090  -3.117  1.00  0.00     0.186 HD
HETATM   40  C15 UNL     1      15.969  48.785  -6.015  1.00  0.00     0.148 A 
HETATM   41  N13 UNL     1      16.184  47.599  -4.181  1.00  0.00    -0.223 N 
HETATM   42  N12 UNL     1      15.717  47.508  -6.229  1.00  0.00    -0.234 N 
HETATM   43  O6  UNL     1      15.846  46.829  -5.156  1.00  0.00    -0.155 OA
ATOM     44  H12 UNL     1      15.454  47.114  -7.133  1.00  0.00     0.197 HD
ATOM     45  H13 UNL     1      16.349  47.304  -3.219  1.00  0.00     0.198 HD
BRANCH  35  46
HETATM   46  N1  UNL     1      16.943  52.302  -4.369  1.00  0.00    -0.234 N 
ATOM     47  H12 UNL     1      17.847  52.743  -4.537  1.00  0.00     0.174 HD
ATOM     48  H11 UNL     1      16.231  52.766  -3.806  1.00  0.00     0.174 HD
ENDBRANCH  35  46
ENDBRANCH  31  33
ENDBRANCH   1  31
BRANCH   4  49
HETATM   49  C4  UNL     1      17.178  53.179 -11.537  1.00  0.00     0.351 C 
BRANCH  49  50
HETATM   50  N6  UNL     1      16.943  54.277 -10.636  1.00  0.00    -0.058 N 
ATOM     51  H63 UNL     1      15.996  54.652 -10.697  1.00  0.00     0.275 HD
ATOM     52  H62 UNL     1      16.905  53.994  -9.657  1.00  0.00     0.275 HD
ATOM     53  H61 UNL     1      17.665  54.971 -10.829  1.00  0.00     0.275 HD
ENDBRANCH  49  50
BRANCH  49  54
HETATM   54  C5  UNL     1      18.502  53.233 -12.179  1.00  0.00     0.212 C 
HETATM   55  O1  UNL     1      18.620  53.330 -13.418  1.00  0.00    -0.646 OA
HETATM   56  O2  UNL     1      19.646  53.173 -11.405  1.00  0.00    -0.646 OA
ENDBRANCH  49  54
ENDBRANCH   4  49
TORSDOF 14
ENDMDL
MODEL 3
REMARK VINA RESULT: -8.266001238      3.604      4.121
REMARK  14 active torsions:
REMARK  status: ('A' for Active; 'I' for Inactive)
REMARK    1  A    between atoms: N1_1  and  C1_4 
REMARK    2  A    between atoms: C2_7  and  N3_8 
REMARK    3  A    between atoms: N3_8  and  N4_10 
REMARK    4  A    between atoms: C3_13  and  C4_14 
REMARK    5  A    between atoms: C4_14  and  N6_15 
REMARK    6  A    between atoms: C4_14  and  C5_19 
REMARK    7  A    between atoms: C6_24  and  C7_25 
REMARK    8  A    between atoms: C8_28  and  C9_29 
REMARK    9  A    between atoms: C10_34  and  C11_35 
REMARK   10  A    between atoms: C11_35  and  O3_36 
REMARK   11  A    between atoms: C11_35  and  C12_38 
REMARK   12  A    between atoms: C12_38  and  O4_39 
REMARK   13  A    between atoms: C12_38  and  C13_41 
REMARK   14  A    between atoms: C13_41  and  O5_42 
ROOT
HETATM    1  N4  UNL     1      17.165  50.122  -8.500  1.00  0.00    -0.174 N 
HETATM    2  N5  UNL     1      17.291  50.945  -9.552  1.00  0.00    -0.263 N 
ATOM      3  H5  UNL     1      16.739  51.784  -9.727  1.00  0.00     0.190 HD
HETATM    4  C3  UNL     1      18.256  50.478 -10.318  1.00  0.00     0.141 A 
HETATM    5  N7  UNL     1      18.755  49.353  -9.764  1.00  0.00    -0.324 N 
ATOM      6  H7  UNL     1      19.509  48.773 -10.133  1.00  0.00     0.169 HD
HETATM    7  C6  UNL     1      18.059  49.145  -8.624  1.00  0.00     0.181 A 
ENDROOT
BRANCH   7   8
HETATM    8  C7  UNL     1      18.290  48.016  -7.695  1.00  0.00     0.122 A 
HETATM    9  N8  UNL     1      17.488  46.954  -7.561  1.00  0.00    -0.344 N 
HETATM   10  C8  UNL     1      17.768  46.024  -6.723  1.00  0.00     0.085 A 
ATOM     11  H8  UNL     1      16.645  46.884  -8.130  1.00  0.00     0.167 HD
HETATM   12  C14 UNL     1      18.924  46.171  -5.974  1.00  0.00     0.085 A 
HETATM   13  S1  UNL     1      19.500  47.660  -6.564  1.00  0.00    -0.078 SA
BRANCH  10  14
HETATM   14  C9  UNL     1      16.946  44.808  -6.523  1.00  0.00     0.149 A 
HETATM   15  N9  UNL     1      17.458  43.556  -6.514  1.00  0.00    -0.282 N 
HETATM   16  N10 UNL     1      16.464  42.687  -6.294  1.00  0.00    -0.285 N 
ATOM     17  H9  UNL     1      18.439  43.314  -6.651  1.00  0.00     0.188 HD
HETATM   18  C10 UNL     1      15.323  43.386  -6.163  1.00  0.00     0.129 A 
ATOM     19  H10 UNL     1      16.556  41.673  -6.236  1.00  0.00     0.188 HD
HETATM   20  N11 UNL     1      15.643  44.678  -6.309  1.00  0.00    -0.326 N 
ATOM     21  H11 UNL     1      14.979  45.452  -6.261  1.00  0.00     0.169 HD
BRANCH  18  22
HETATM   22  C11 UNL     1      13.980  42.816  -5.896  1.00  0.00     0.217 C 
BRANCH  22  23
HETATM   23  O3  UNL     1      14.004  42.194  -4.624  1.00  0.00    -0.385 OA
ATOM     24  H3  UNL     1      14.635  41.484  -4.651  1.00  0.00     0.210 HD
ENDBRANCH  22  23
BRANCH  22  25
HETATM   25  C12 UNL     1      13.629  41.762  -6.943  1.00  0.00     0.177 C 
BRANCH  25  26
HETATM   26  O4  UNL     1      14.149  40.534  -6.544  1.00  0.00    -0.390 OA
ATOM     27  H4  UNL     1      14.476  40.073  -7.308  1.00  0.00     0.210 HD
ENDBRANCH  25  26
BRANCH  25  28
HETATM   28  C13 UNL     1      12.104  41.645  -7.050  1.00  0.00     0.198 C 
BRANCH  28  29
HETATM   29  O5  UNL     1      11.571  41.156  -5.863  1.00  0.00    -0.398 OA
ATOM     30  H5  UNL     1      10.651  41.383  -5.795  1.00  0.00     0.209 HD
ENDBRANCH  28  29
ENDBRANCH  25  28
ENDBRANCH  22  25
ENDBRANCH  18  22
ENDBRANCH  10  14
ENDBRANCH   7   8
BRANCH   1  31
HETATM   31  N3  UNL     1      16.202  50.326  -7.514  1.00  0.00    -0.260 N 
ATOM     32  H3  UNL     1      15.246  50.343  -7.871  1.00  0.00     0.191 HD
BRANCH  31  33
HETATM   33  C2  UNL     1      16.289  50.512  -6.140  1.00  0.00     0.170 A 
HETATM   34  N2  UNL     1      16.786  51.740  -5.721  1.00  0.00    -0.173 N 
HETATM   35  C1  UNL     1      16.958  52.031  -4.433  1.00  0.00     0.679 A 
ATOM     36  H2  UNL     1      17.026  52.441  -6.423  1.00  0.00     0.186 HD
HETATM   37  N14 UNL     1      16.658  51.150  -3.491  1.00  0.00    -0.173 N 
HETATM   38  C16 UNL     1      16.178  49.953  -3.816  1.00  0.00     0.175 A 
ATOM     39  H14 UNL     1      16.796  51.392  -2.510  1.00  0.00     0.186 HD
HETATM   40  C15 UNL     1      15.987  49.622  -5.167  1.00  0.00     0.148 A 
HETATM   41  N13 UNL     1      15.802  48.862  -3.117  1.00  0.00    -0.223 N 
HETATM   42  N12 UNL     1      15.525  48.387  -5.146  1.00  0.00    -0.234 N 
HETATM   43  O6  UNL     1      15.422  47.956  -3.949  1.00  0.00    -0.155 OA
ATOM     44  H12 UNL     1      15.282  47.847  -5.977  1.00  0.00     0.197 HD
ATOM     45  H13 UNL     1      15.817  48.769  -2.101  1.00  0.00     0.198 HD
BRANCH  35  46
HETATM   46  N1  UNL     1      17.435  53.217  -4.163  1.00  0.00    -0.234 N 
ATOM     47  H12 UNL     1      16.926  54.076  -4.371  1.00  0.00     0.174 HD
ATOM     48  H11 UNL     1      18.356  53.247  -3.724  1.00  0.00     0.174 HD
ENDBRANCH  35  46
ENDBRANCH  31  33
ENDBRANCH   1  31
BRANCH   4  49
HETATM   49  C4  UNL     1      18.723  51.122 -11.602  1.00  0.00     0.351 C 
BRANCH  49  50
HETATM   50  N6  UNL     1      17.967  52.338 -11.751  1.00  0.00    -0.058 N 
ATOM     51  H63 UNL     1      18.062  52.971 -10.957  1.00  0.00     0.275 HD
ATOM     52  H62 UNL     1      18.347  52.965 -12.460  1.00  0.00     0.275 HD
ATOM     53  H61 UNL     1      17.002  52.061 -11.933  1.00  0.00     0.275 HD
ENDBRANCH  49  50
BRANCH  49  54
HETATM   54  C5  UNL     1      20.173  51.353 -11.504  1.00  0.00     0.212 C 
HETATM   55  O1  UNL     1      20.928  51.180 -12.484  1.00  0.00    -0.646 OA
HETATM   56  O2  UNL     1      20.726  51.769 -10.306  1.00  0.00    -0.646 OA
ENDBRANCH  49  54
ENDBRANCH   4  49
TORSDOF 14
ENDMDL
MODEL 4
REMARK VINA RESULT: -8.261702174      3.709      4.458
REMARK  14 active torsions:
REMARK  status: ('A' for Active; 'I' for Inactive)
REMARK    1  A    between atoms: N1_1  and  C1_4 
REMARK    2  A    between atoms: C2_7  and  N3_8 
REMARK    3  A    between atoms: N3_8  and  N4_10 
REMARK    4  A    between atoms: C3_13  and  C4_14 
REMARK    5  A    between atoms: C4_14  and  N6_15 
REMARK    6  A    between atoms: C4_14  and  C5_19 
REMARK    7  A    between atoms: C6_24  and  C7_25 
REMARK    8  A    between atoms: C8_28  and  C9_29 
REMARK    9  A    between atoms: C10_34  and  C11_35 
REMARK   10  A    between atoms: C11_35  and  O3_36 
REMARK   11  A    between atoms: C11_35  and  C12_38 
REMARK   12  A    between atoms: C12_38  and  O4_39 
REMARK   13  A    between atoms: C12_38  and  C13_41 
REMARK   14  A    between atoms: C13_41  and  O5_42 
ROOT
HETATM    1  N4  UNL     1      17.388  49.999  -8.512  1.00  0.00    -0.174 N 
HETATM    2  N5  UNL     1      17.523  50.822  -9.563  1.00  0.00    -0.263 N 
ATOM      3  H5  UNL     1      16.998  51.680  -9.724  1.00  0.00     0.190 HD
HETATM    4  C3  UNL     1      18.455  50.324 -10.351  1.00  0.00     0.141 A 
HETATM    5  N7  UNL     1      18.925  49.179  -9.810  1.00  0.00    -0.324 N 
ATOM      6  H7  UNL     1      19.650  48.574 -10.196  1.00  0.00     0.169 HD
HETATM    7  C6  UNL     1      18.245  48.991  -8.658  1.00  0.00     0.181 A 
ENDROOT
BRANCH   7   8
HETATM    8  C7  UNL     1      18.454  47.851  -7.737  1.00  0.00     0.122 A 
HETATM    9  N8  UNL     1      17.607  46.829  -7.575  1.00  0.00    -0.344 N 
HETATM   10  C8  UNL     1      17.872  45.884  -6.748  1.00  0.00     0.085 A 
ATOM     11  H8  UNL     1      16.742  46.800  -8.115  1.00  0.00     0.167 HD
HETATM   12  C14 UNL     1      19.059  45.975  -6.039  1.00  0.00     0.085 A 
HETATM   13  S1  UNL     1      19.684  47.436  -6.649  1.00  0.00    -0.078 SA
BRANCH  10  14
HETATM   14  C9  UNL     1      17.000  44.709  -6.520  1.00  0.00     0.149 A 
HETATM   15  N9  UNL     1      17.458  43.437  -6.486  1.00  0.00    -0.282 N 
HETATM   16  N10 UNL     1      16.430  42.616  -6.244  1.00  0.00    -0.285 N 
ATOM     17  H9  UNL     1      18.428  43.151  -6.622  1.00  0.00     0.188 HD
HETATM   18  C10 UNL     1      15.320  43.365  -6.124  1.00  0.00     0.129 A 
ATOM     19  H10 UNL     1      16.479  41.600  -6.165  1.00  0.00     0.188 HD
HETATM   20  N11 UNL     1      15.693  44.639  -6.297  1.00  0.00    -0.326 N 
ATOM     21  H11 UNL     1      15.063  45.441  -6.263  1.00  0.00     0.169 HD
BRANCH  18  22
HETATM   22  C11 UNL     1      13.955  42.858  -5.839  1.00  0.00     0.217 C 
BRANCH  22  23
HETATM   23  O3  UNL     1      13.984  42.170  -4.601  1.00  0.00    -0.385 OA
ATOM     24  H3  UNL     1      13.454  42.654  -3.979  1.00  0.00     0.210 HD
ENDBRANCH  22  23
BRANCH  22  25
HETATM   25  C12 UNL     1      13.512  41.881  -6.924  1.00  0.00     0.177 C 
BRANCH  25  26
HETATM   26  O4  UNL     1      14.047  40.625  -6.653  1.00  0.00    -0.390 OA
ATOM     27  H4  UNL     1      13.395  40.100  -6.203  1.00  0.00     0.210 HD
ENDBRANCH  25  26
BRANCH  25  28
HETATM   28  C13 UNL     1      11.982  41.780  -6.919  1.00  0.00     0.198 C 
BRANCH  28  29
HETATM   29  O5  UNL     1      11.550  41.042  -5.823  1.00  0.00    -0.398 OA
ATOM     30  H5  UNL     1      10.857  41.504  -5.365  1.00  0.00     0.209 HD
ENDBRANCH  28  29
ENDBRANCH  25  28
ENDBRANCH  22  25
ENDBRANCH  18  22
ENDBRANCH  10  14
ENDBRANCH   7   8
BRANCH   1  31
HETATM   31  N3  UNL     1      16.453  50.234  -7.506  1.00  0.00    -0.260 N 
ATOM     32  H3  UNL     1      15.490  50.062  -7.793  1.00  0.00     0.191 HD
BRANCH  31  33
HETATM   33  C2  UNL     1      16.577  50.657  -6.189  1.00  0.00     0.170 A 
HETATM   34  N2  UNL     1      16.274  49.715  -5.214  1.00  0.00    -0.173 N 
HETATM   35  C1  UNL     1      16.313  50.004  -3.915  1.00  0.00     0.679 A 
ATOM     36  H2  UNL     1      16.013  48.771  -5.504  1.00  0.00     0.186 HD
HETATM   37  N14 UNL     1      16.647  51.215  -3.497  1.00  0.00    -0.173 N 
HETATM   38  C16 UNL     1      16.950  52.170  -4.372  1.00  0.00     0.175 A 
ATOM     39  H14 UNL     1      16.672  51.417  -2.498  1.00  0.00     0.186 HD
HETATM   40  C15 UNL     1      16.916  51.890  -5.748  1.00  0.00     0.148 A 
HETATM   41  N13 UNL     1      17.303  53.469  -4.273  1.00  0.00    -0.223 N 
HETATM   42  N12 UNL     1      17.245  53.029  -6.328  1.00  0.00    -0.234 N 
HETATM   43  O6  UNL     1      17.467  53.938  -5.460  1.00  0.00    -0.155 OA
ATOM     44  H12 UNL     1      17.314  53.165  -7.336  1.00  0.00     0.197 HD
ATOM     45  H13 UNL     1      17.419  53.991  -3.404  1.00  0.00     0.198 HD
BRANCH  35  46
HETATM   46  N1  UNL     1      16.004  49.036  -3.094  1.00  0.00    -0.234 N 
ATOM     47  H12 UNL     1      15.165  48.467  -3.205  1.00  0.00     0.174 HD
ATOM     48  H11 UNL     1      16.651  48.869  -2.323  1.00  0.00     0.174 HD
ENDBRANCH  35  46
ENDBRANCH  31  33
ENDBRANCH   1  31
BRANCH   4  49
HETATM   49  C4  UNL     1      18.919  50.956 -11.642  1.00  0.00     0.351 C 
BRANCH  49  50
HETATM   50  N6  UNL     1      18.059  52.086 -11.878  1.00  0.00    -0.058 N 
ATOM     51  H63 UNL     1      17.155  51.829 -12.273  1.00  0.00     0.275 HD
ATOM     52  H62 UNL     1      17.707  52.511 -11.021  1.00  0.00     0.275 HD
ATOM     53  H61 UNL     1      18.585  52.735 -12.464  1.00  0.00     0.275 HD
ENDBRANCH  49  50
BRANCH  49  54
HETATM   54  C5  UNL     1      20.335  51.330 -11.492  1.00  0.00     0.212 C 
HETATM   55  O1  UNL     1      20.799  51.691 -10.390  1.00  0.00    -0.646 OA
HETATM   56  O2  UNL     1      21.179  51.287 -12.586  1.00  0.00    -0.646 OA
ENDBRANCH  49  54
ENDBRANCH   4  49
TORSDOF 14
ENDMDL
MODEL 5
REMARK VINA RESULT: -8.180797504      1.047      1.822
REMARK  14 active torsions:
REMARK  status: ('A' for Active; 'I' for Inactive)
REMARK    1  A    between atoms: N1_1  and  C1_4 
REMARK    2  A    between atoms: C2_7  and  N3_8 
REMARK    3  A    between atoms: N3_8  and  N4_10 
REMARK    4  A    between atoms: C3_13  and  C4_14 
REMARK    5  A    between atoms: C4_14  and  N6_15 
REMARK    6  A    between atoms: C4_14  and  C5_19 
REMARK    7  A    between atoms: C6_24  and  C7_25 
REMARK    8  A    between atoms: C8_28  and  C9_29 
REMARK    9  A    between atoms: C10_34  and  C11_35 
REMARK   10  A    between atoms: C11_35  and  O3_36 
REMARK   11  A    between atoms: C11_35  and  C12_38 
REMARK   12  A    between atoms: C12_38  and  O4_39 
REMARK   13  A    between atoms: C12_38  and  C13_41 
REMARK   14  A    between atoms: C13_41  and  O5_42 
ROOT
HETATM    1  N4  UNL     1      16.666  50.441  -9.163  1.00  0.00    -0.174 N 
HETATM    2  N5  UNL     1      16.370  51.467  -9.974  1.00  0.00    -0.263 N 
ATOM      3  H5  UNL     1      15.688  52.202  -9.788  1.00  0.00     0.190 HD
HETATM    4  C3  UNL     1      17.117  51.359 -11.055  1.00  0.00     0.141 A 
HETATM    5  N7  UNL     1      17.897  50.262 -10.943  1.00  0.00    -0.324 N 
ATOM      6  H7  UNL     1      18.575  49.924 -11.626  1.00  0.00     0.169 HD
HETATM    7  C6  UNL     1      17.601  49.699  -9.751  1.00  0.00     0.181 A 
ENDROOT
BRANCH   7   8
HETATM    8  C7  UNL     1      18.239  48.473  -9.221  1.00  0.00     0.122 A 
HETATM    9  N8  UNL     1      18.747  48.341  -7.991  1.00  0.00    -0.344 N 
HETATM   10  C8  UNL     1      19.287  47.237  -7.621  1.00  0.00     0.085 A 
ATOM     11  H8  UNL     1      18.705  49.125  -7.341  1.00  0.00     0.167 HD
HETATM   12  C14 UNL     1      19.320  46.205  -8.545  1.00  0.00     0.085 A 
HETATM   13  S1  UNL     1      18.556  46.942  -9.875  1.00  0.00    -0.078 SA
BRANCH  10  14
HETATM   14  C9  UNL     1      19.857  46.999  -6.275  1.00  0.00     0.149 A 
HETATM   15  N9  UNL     1      21.119  47.342  -5.929  1.00  0.00    -0.282 N 
HETATM   16  N10 UNL     1      21.318  47.012  -4.648  1.00  0.00    -0.285 N 
ATOM     17  H9  UNL     1      21.805  47.779  -6.544  1.00  0.00     0.188 HD
HETATM   18  C10 UNL     1      20.184  46.461  -4.180  1.00  0.00     0.129 A 
ATOM     19  H10 UNL     1      22.179  47.153  -4.119  1.00  0.00     0.188 HD
HETATM   20  N11 UNL     1      19.308  46.464  -5.192  1.00  0.00    -0.326 N 
ATOM     21  H11 UNL     1      18.354  46.105  -5.138  1.00  0.00     0.169 HD
BRANCH  18  22
HETATM   22  C11 UNL     1      19.964  45.966  -2.799  1.00  0.00     0.217 C 
BRANCH  22  23
HETATM   23  O3  UNL     1      19.331  44.701  -2.875  1.00  0.00    -0.385 OA
ATOM     24  H3  UNL     1      18.909  44.528  -2.042  1.00  0.00     0.210 HD
ENDBRANCH  22  23
BRANCH  22  25
HETATM   25  C12 UNL     1      19.052  46.917  -2.030  1.00  0.00     0.177 C 
BRANCH  25  26
HETATM   26  O4  UNL     1      18.866  48.075  -2.780  1.00  0.00    -0.390 OA
ATOM     27  H4  UNL     1      18.809  48.820  -2.193  1.00  0.00     0.210 HD
ENDBRANCH  25  26
BRANCH  25  28
HETATM   28  C13 UNL     1      17.692  46.245  -1.809  1.00  0.00     0.198 C 
BRANCH  28  29
HETATM   29  O5  UNL     1      17.021  46.100  -3.018  1.00  0.00    -0.398 OA
ATOM     30  H5  UNL     1      16.128  46.417  -2.940  1.00  0.00     0.209 HD
ENDBRANCH  28  29
ENDBRANCH  25  28
ENDBRANCH  22  25
ENDBRANCH  18  22
ENDBRANCH  10  14
ENDBRANCH   7   8
BRANCH   1  31
HETATM   31  N3  UNL     1      16.020  50.255  -7.942  1.00  0.00    -0.260 N 
ATOM     32  H3  UNL     1      15.135  49.752  -8.019  1.00  0.00     0.191 HD
BRANCH  31  33
HETATM   33  C2  UNL     1      16.345  50.619  -6.642  1.00  0.00     0.170 A 
HETATM   34  N2  UNL     1      16.056  49.684  -5.656  1.00  0.00    -0.173 N 
HETATM   35  C1  UNL     1      16.280  49.925  -4.366  1.00  0.00     0.679 A 
ATOM     36  H2  UNL     1      15.660  48.784  -5.929  1.00  0.00     0.186 HD
HETATM   37  N14 UNL     1      16.794  51.079  -3.968  1.00  0.00    -0.173 N 
HETATM   38  C16 UNL     1      17.096  52.023  -4.855  1.00  0.00     0.175 A 
ATOM     39  H14 UNL     1      16.959  51.244  -2.975  1.00  0.00     0.186 HD
HETATM   40  C15 UNL     1      16.869  51.793  -6.221  1.00  0.00     0.148 A 
HETATM   41  N13 UNL     1      17.600  53.272  -4.774  1.00  0.00    -0.223 N 
HETATM   42  N12 UNL     1      17.252  52.908  -6.815  1.00  0.00    -0.234 N 
HETATM   43  O6  UNL     1      17.675  53.759  -5.963  1.00  0.00    -0.155 OA
ATOM     44  H12 UNL     1      17.215  53.068  -7.822  1.00  0.00     0.197 HD
ATOM     45  H13 UNL     1      17.876  53.750  -3.916  1.00  0.00     0.198 HD
BRANCH  35  46
HETATM   46  N1  UNL     1      15.964  48.970  -3.532  1.00  0.00    -0.234 N 
ATOM     47  H12 UNL     1      14.999  48.740  -3.298  1.00  0.00     0.174 HD
ATOM     48  H11 UNL     1      16.740  48.452  -3.118  1.00  0.00     0.174 HD
ENDBRANCH  35  46
ENDBRANCH  31  33
ENDBRANCH   1  31
BRANCH   4  49
HETATM   49  C4  UNL     1      17.096  52.324 -12.216  1.00  0.00     0.351 C 
BRANCH  49  50
HETATM   50  N6  UNL     1      16.046  53.270 -11.945  1.00  0.00    -0.058 N 
ATOM     51  H63 UNL     1      15.189  52.835 -11.605  1.00  0.00     0.275 HD
ATOM     52  H62 UNL     1      16.227  53.851 -11.126  1.00  0.00     0.275 HD
ATOM     53  H61 UNL     1      15.912  53.810 -12.800  1.00  0.00     0.275 HD
ENDBRANCH  49  50
BRANCH  49  54
HETATM   54  C5  UNL     1      18.424  52.950 -12.320  1.00  0.00     0.212 C 
HETATM   55  O1  UNL     1      18.585  54.172 -12.118  1.00  0.00    -0.646 OA
HETATM   56  O2  UNL     1      19.526  52.182 -12.649  1.00  0.00    -0.646 OA
ENDBRANCH  49  54
ENDBRANCH   4  49
TORSDOF 14
ENDMDL
