MODEL 1
REMARK VINA RESULT: -8.636719856      0.000      0.000
REMARK  13 active torsions:
REMARK  status: ('A' for Active; 'I' for Inactive)
REMARK    1  A    between atoms: O1_2  and  C2_3 
REMARK    2  A    between atoms: C3_4  and  O2_5 
REMARK    3  A    between atoms: C6_9  and  O3_10 
REMARK    4  A    between atoms: C7_12  and  O4_13 
REMARK    5  A    between atoms: O4_13  and  C8_14 
REMARK    6  A    between atoms: C8_14  and  O5_15 
REMARK    7  A    between atoms: C11_20  and  S1_21 
REMARK    8  A    between atoms: S1_21  and  C12_22 
REMARK    9  A    between atoms: C12_22  and  C13_23 
REMARK   10  A    between atoms: N2_25  and  C15_26 
REMARK   11  A    between atoms: C15_26  and  O6_27 
REMARK   12  A    between atoms: C17_42  and  C18_43 
REMARK   13  A    between atoms: C18_43  and  O7_44 
ROOT
HETATM    1  C2  UNL     1      17.461  51.149 -10.227  1.00  0.00     0.138 A 
HETATM    2  C3  UNL     1      16.907  50.377  -9.173  1.00  0.00     0.115 A 
HETATM    3  C4  UNL     1      17.436  49.157  -8.939  1.00  0.00     0.038 A 
HETATM    4  C5  UNL     1      18.486  48.644  -9.687  1.00  0.00    -0.005 A 
HETATM    5  C6  UNL     1      19.016  49.402 -10.708  1.00  0.00     0.109 A 
HETATM    6  C7  UNL     1      18.492  50.649 -10.963  1.00  0.00     0.141 A 
HETATM    7  C9  UNL     1      19.100  47.339  -9.477  1.00  0.00     0.063 A 
HETATM    8  C10 UNL     1      18.538  46.515  -8.414  1.00  0.00     0.136 A 
HETATM    9  N1  UNL     1      17.463  47.087  -7.675  1.00  0.00    -0.325 N 
HETATM   10  C11 UNL     1      16.812  46.516  -6.655  1.00  0.00     0.147 A 
HETATM   11  N9  UNL     1      15.884  47.348  -6.230  1.00  0.00    -0.336 N 
ATOM     12  H9  UNL     1      15.242  47.162  -5.459  1.00  0.00     0.168 HD
HETATM   13  C17 UNL     1      15.905  48.507  -6.976  1.00  0.00     0.063 A 
HETATM   14  C19 UNL     1      16.905  48.313  -7.872  1.00  0.00     0.075 A 
ENDROOT
BRANCH  10  15
HETATM   15  S1  UNL     1      17.124  44.896  -5.959  1.00  0.00    -0.087 SA
BRANCH  15  16
HETATM   16  C12 UNL     1      15.574  44.341  -5.159  1.00  0.00     0.142 C 
BRANCH  16  17
HETATM   17  C13 UNL     1      15.060  43.163  -5.897  1.00  0.00     0.054 A 
HETATM   18  C14 UNL     1      13.762  42.796  -6.171  1.00  0.00     0.145 A 
HETATM   19  N2  UNL     1      13.793  41.641  -6.874  1.00  0.00    -0.211 N 
HETATM   20  N7  UNL     1      15.070  41.337  -7.011  1.00  0.00    -0.235 N 
HETATM   21  N8  UNL     1      15.850  42.227  -6.438  1.00  0.00    -0.288 N 
ATOM     22  H7  UNL     1      15.411  40.510  -7.503  1.00  0.00     0.208 HD
ATOM     23  H8  UNL     1      16.870  42.207  -6.411  1.00  0.00     0.188 HD
BRANCH  19  24
HETATM   24  C15 UNL     1      12.676  40.875  -7.385  1.00  0.00     0.422 C 
HETATM   25  N3  UNL     1      13.038  39.499  -7.514  1.00  0.00     0.010 N 
HETATM   26  C16 UNL     1      13.059  39.098  -8.888  1.00  0.00     0.371 C 
ATOM     27  H32 UNL     1      13.924  39.299  -7.051  1.00  0.00     0.286 HD
ATOM     28  H31 UNL     1      12.433  38.897  -6.957  1.00  0.00     0.286 HD
HETATM   29  N4  UNL     1      13.654  40.111  -9.730  1.00  0.00    -0.102 NA
HETATM   30  N5  UNL     1      12.956  41.314  -9.693  1.00  0.00    -0.032 NA
HETATM   31  N6  UNL     1      12.137  41.455  -8.594  1.00  0.00    -0.040 NA
BRANCH  24  32
HETATM   32  O6  UNL     1      11.660  40.959  -6.410  1.00  0.00    -0.333 OA
ATOM     33  H6  UNL     1      11.998  40.525  -5.635  1.00  0.00     0.216 HD
ENDBRANCH  24  32
ENDBRANCH  19  24
ENDBRANCH  16  17
ENDBRANCH  15  16
ENDBRANCH  10  15
BRANCH  13  34
HETATM   34  C18 UNL     1      14.960  49.570  -6.671  1.00  0.00     0.223 C 
BRANCH  34  35
HETATM   35  O7  UNL     1      13.659  49.203  -7.180  1.00  0.00    -0.395 OA
ATOM     36  H7  UNL     1      13.409  48.363  -6.814  1.00  0.00     0.209 HD
ENDBRANCH  34  35
ENDBRANCH  13  34
BRANCH   2  37
HETATM   37  O2  UNL     1      15.911  50.994  -8.547  1.00  0.00    -0.357 OA
ATOM     38  H2  UNL     1      16.030  51.935  -8.494  1.00  0.00     0.217 HD
ENDBRANCH   2  37
BRANCH   5  39
HETATM   39  O3  UNL     1      20.066  48.940 -11.486  1.00  0.00    -0.357 OA
ATOM     40  H3  UNL     1      20.055  48.071 -11.870  1.00  0.00     0.217 HD
ENDBRANCH   5  39
BRANCH   1  41
HETATM   41  O1  UNL     1      16.922  52.410 -10.470  1.00  0.00    -0.351 OA
HETATM   42  C1  UNL     1      15.965  52.727 -11.426  1.00  0.00     0.210 C 
ENDBRANCH   1  41
BRANCH   6  43
HETATM   43  O4  UNL     1      19.044  51.381 -11.992  1.00  0.00    -0.321 OA
BRANCH  43  44
HETATM   44  C8  UNL     1      20.304  51.983 -11.927  1.00  0.00     0.341 C 
BRANCH  44  45
HETATM   45  O5  UNL     1      21.272  51.366 -12.727  1.00  0.00    -0.377 OA
ATOM     46  H5  UNL     1      22.062  51.881 -12.846  1.00  0.00     0.212 HD
ENDBRANCH  44  45
ENDBRANCH  43  44
ENDBRANCH   6  43
TORSDOF 13
ENDMDL
MODEL 2
REMARK VINA RESULT: -8.634350644      4.619      5.454
REMARK  13 active torsions:
REMARK  status: ('A' for Active; 'I' for Inactive)
REMARK    1  A    between atoms: O1_2  and  C2_3 
REMARK    2  A    between atoms: C3_4  and  O2_5 
REMARK    3  A    between atoms: C6_9  and  O3_10 
REMARK    4  A    between atoms: C7_12  and  O4_13 
REMARK    5  A    between atoms: O4_13  and  C8_14 
REMARK    6  A    between atoms: C8_14  and  O5_15 
REMARK    7  A    between atoms: C11_20  and  S1_21 
REMARK    8  A    between atoms: S1_21  and  C12_22 
REMARK    9  A    between atoms: C12_22  and  C13_23 
REMARK   10  A    between atoms: N2_25  and  C15_26 
REMARK   11  A    between atoms: C15_26  and  O6_27 
REMARK   12  A    between atoms: C17_42  and  C18_43 
REMARK   13  A    between atoms: C18_43  and  O7_44 
ROOT
HETATM    1  C2  UNL     1      16.664  51.421 -10.705  1.00  0.00     0.138 A 
HETATM    2  C3  UNL     1      16.507  50.631  -9.536  1.00  0.00     0.115 A 
HETATM    3  C4  UNL     1      17.551  49.871  -9.144  1.00  0.00     0.038 A 
HETATM    4  C5  UNL     1      18.753  49.838  -9.838  1.00  0.00    -0.005 A 
HETATM    5  C6  UNL     1      18.893  50.609 -10.971  1.00  0.00     0.109 A 
HETATM    6  C7  UNL     1      17.842  51.392 -11.389  1.00  0.00     0.141 A 
HETATM    7  C9  UNL     1      19.913  49.042  -9.460  1.00  0.00     0.063 A 
HETATM    8  C10 UNL     1      19.774  48.205  -8.275  1.00  0.00     0.136 A 
HETATM    9  N1  UNL     1      18.522  48.275  -7.597  1.00  0.00    -0.325 N 
HETATM   10  C11 UNL     1      18.185  47.606  -6.489  1.00  0.00     0.147 A 
HETATM   11  N9  UNL     1      16.951  47.928  -6.163  1.00  0.00    -0.336 N 
ATOM     12  H9  UNL     1      16.445  47.561  -5.357  1.00  0.00     0.168 HD
HETATM   13  C17 UNL     1      16.440  48.834  -7.068  1.00  0.00     0.063 A 
HETATM   14  C19 UNL     1      17.448  49.031  -7.953  1.00  0.00     0.075 A 
ENDROOT
BRANCH  10  15
HETATM   15  S1  UNL     1      19.213  46.458  -5.576  1.00  0.00    -0.087 SA
BRANCH  15  16
HETATM   16  C12 UNL     1      19.055  44.825  -6.386  1.00  0.00     0.142 C 
BRANCH  16  17
HETATM   17  C13 UNL     1      19.861  44.838  -7.630  1.00  0.00     0.054 A 
HETATM   18  C14 UNL     1      19.480  44.580  -8.927  1.00  0.00     0.145 A 
HETATM   19  N2  UNL     1      20.568  44.715  -9.718  1.00  0.00    -0.211 N 
HETATM   20  N7  UNL     1      21.561  45.044  -8.912  1.00  0.00    -0.235 N 
HETATM   21  N8  UNL     1      21.170  45.124  -7.660  1.00  0.00    -0.288 N 
ATOM     22  H7  UNL     1      22.518  45.216  -9.224  1.00  0.00     0.208 HD
ATOM     23  H8  UNL     1      21.755  45.361  -6.859  1.00  0.00     0.188 HD
BRANCH  19  24
HETATM   24  C15 UNL     1      20.658  44.544 -11.153  1.00  0.00     0.422 C 
HETATM   25  N3  UNL     1      21.898  43.927 -11.501  1.00  0.00     0.010 N 
HETATM   26  C16 UNL     1      22.731  44.824 -12.243  1.00  0.00     0.371 C 
ATOM     27  H32 UNL     1      22.378  43.561 -10.679  1.00  0.00     0.286 HD
ATOM     28  H31 UNL     1      21.754  43.049 -11.999  1.00  0.00     0.286 HD
HETATM   29  N4  UNL     1      22.687  46.163 -11.702  1.00  0.00    -0.102 NA
HETATM   30  N5  UNL     1      21.409  46.712 -11.734  1.00  0.00    -0.032 NA
HETATM   31  N6  UNL     1      20.401  45.780 -11.857  1.00  0.00    -0.040 NA
BRANCH  24  32
HETATM   32  O6  UNL     1      19.623  43.654 -11.510  1.00  0.00    -0.333 OA
ATOM     33  H6  UNL     1      19.197  44.033 -12.270  1.00  0.00     0.216 HD
ENDBRANCH  24  32
ENDBRANCH  19  24
ENDBRANCH  16  17
ENDBRANCH  15  16
ENDBRANCH  10  15
BRANCH  13  34
HETATM   34  C18 UNL     1      15.083  49.331  -6.894  1.00  0.00     0.223 C 
BRANCH  34  35
HETATM   35  O7  UNL     1      15.130  50.590  -6.188  1.00  0.00    -0.395 OA
ATOM     36  H7  UNL     1      14.905  51.290  -6.790  1.00  0.00     0.209 HD
ENDBRANCH  34  35
ENDBRANCH  13  34
BRANCH   2  37
HETATM   37  O2  UNL     1      15.308  50.762  -8.979  1.00  0.00    -0.357 OA
ATOM     38  H2  UNL     1      15.113  50.075  -8.352  1.00  0.00     0.217 HD
ENDBRANCH   2  37
BRANCH   5  39
HETATM   39  O3  UNL     1      20.071  50.616 -11.703  1.00  0.00    -0.357 OA
ATOM     40  H3  UNL     1      20.075  50.787 -12.637  1.00  0.00     0.217 HD
ENDBRANCH   5  39
BRANCH   1  41
HETATM   41  O1  UNL     1      15.591  52.210 -11.111  1.00  0.00    -0.351 OA
HETATM   42  C1  UNL     1      15.425  53.567 -10.861  1.00  0.00     0.210 C 
ENDBRANCH   1  41
BRANCH   6  43
HETATM   43  O4  UNL     1      18.015  52.150 -12.526  1.00  0.00    -0.321 OA
BRANCH  43  44
HETATM   44  C8  UNL     1      18.515  53.456 -12.520  1.00  0.00     0.341 C 
BRANCH  44  45
HETATM   45  O5  UNL     1      19.463  53.698 -11.520  1.00  0.00    -0.377 OA
ATOM     46  H5  UNL     1      20.363  53.647 -11.819  1.00  0.00     0.212 HD
ENDBRANCH  44  45
ENDBRANCH  43  44
ENDBRANCH   6  43
TORSDOF 13
ENDMDL
MODEL 3
REMARK VINA RESULT: -8.609936008      1.887      2.890
REMARK  13 active torsions:
REMARK  status: ('A' for Active; 'I' for Inactive)
REMARK    1  A    between atoms: O1_2  and  C2_3 
REMARK    2  A    between atoms: C3_4  and  O2_5 
REMARK    3  A    between atoms: C6_9  and  O3_10 
REMARK    4  A    between atoms: C7_12  and  O4_13 
REMARK    5  A    between atoms: O4_13  and  C8_14 
REMARK    6  A    between atoms: C8_14  and  O5_15 
REMARK    7  A    between atoms: C11_20  and  S1_21 
REMARK    8  A    between atoms: S1_21  and  C12_22 
REMARK    9  A    between atoms: C12_22  and  C13_23 
REMARK   10  A    between atoms: N2_25  and  C15_26 
REMARK   11  A    between atoms: C15_26  and  O6_27 
REMARK   12  A    between atoms: C17_42  and  C18_43 
REMARK   13  A    between atoms: C18_43  and  O7_44 
ROOT
HETATM    1  C2  UNL     1      16.949  52.662 -10.736  1.00  0.00     0.138 A 
HETATM    2  C3  UNL     1      16.720  51.533  -9.907  1.00  0.00     0.115 A 
HETATM    3  C4  UNL     1      17.613  50.522  -9.957  1.00  0.00     0.038 A 
HETATM    4  C5  UNL     1      18.730  50.554 -10.780  1.00  0.00    -0.005 A 
HETATM    5  C6  UNL     1      18.942  51.656 -11.580  1.00  0.00     0.109 A 
HETATM    6  C7  UNL     1      18.044  52.697 -11.544  1.00  0.00     0.141 A 
HETATM    7  C9  UNL     1      19.729  49.498 -10.872  1.00  0.00     0.063 A 
HETATM    8  C10 UNL     1      19.509  48.315 -10.048  1.00  0.00     0.136 A 
HETATM    9  N1  UNL     1      18.350  48.332  -9.219  1.00  0.00    -0.325 N 
HETATM   10  C11 UNL     1      17.964  47.364  -8.380  1.00  0.00     0.147 A 
HETATM   11  N9  UNL     1      16.848  47.739  -7.791  1.00  0.00    -0.336 N 
ATOM     12  H9  UNL     1      16.337  47.187  -7.102  1.00  0.00     0.168 HD
HETATM   13  C17 UNL     1      16.467  48.986  -8.240  1.00  0.00     0.063 A 
HETATM   14  C19 UNL     1      17.429  49.330  -9.133  1.00  0.00     0.075 A 
ENDROOT
BRANCH  10  15
HETATM   15  S1  UNL     1      18.801  45.810  -8.080  1.00  0.00    -0.087 SA
BRANCH  15  16
HETATM   16  C12 UNL     1      18.511  45.365  -6.329  1.00  0.00     0.142 C 
BRANCH  16  17
HETATM   17  C13 UNL     1      17.270  44.558  -6.248  1.00  0.00     0.054 A 
HETATM   18  C14 UNL     1      17.065  43.230  -6.543  1.00  0.00     0.145 A 
HETATM   19  N2  UNL     1      15.762  42.946  -6.314  1.00  0.00    -0.211 N 
HETATM   20  N7  UNL     1      15.217  44.073  -5.895  1.00  0.00    -0.235 N 
HETATM   21  N8  UNL     1      16.092  45.053  -5.846  1.00  0.00    -0.288 N 
ATOM     22  H7  UNL     1      14.233  44.172  -5.640  1.00  0.00     0.208 HD
ATOM     23  H8  UNL     1      15.907  46.013  -5.556  1.00  0.00     0.188 HD
BRANCH  19  24
HETATM   24  C15 UNL     1      15.079  41.680  -6.481  1.00  0.00     0.422 C 
HETATM   25  N3  UNL     1      13.996  41.821  -7.401  1.00  0.00     0.010 N 
HETATM   26  C16 UNL     1      12.736  41.635  -6.746  1.00  0.00     0.371 C 
ATOM     27  H32 UNL     1      14.035  42.713  -7.893  1.00  0.00     0.286 HD
ATOM     28  H31 UNL     1      14.099  41.198  -8.201  1.00  0.00     0.286 HD
HETATM   29  N4  UNL     1      12.708  42.277  -5.452  1.00  0.00    -0.102 NA
HETATM   30  N5  UNL     1      13.670  41.772  -4.582  1.00  0.00    -0.032 NA
HETATM   31  N6  UNL     1      14.700  41.105  -5.211  1.00  0.00    -0.040 NA
BRANCH  24  32
HETATM   32  O6  UNL     1      16.017  40.799  -7.059  1.00  0.00    -0.333 OA
ATOM     33  H6  UNL     1      16.812  40.883  -6.545  1.00  0.00     0.216 HD
ENDBRANCH  24  32
ENDBRANCH  19  24
ENDBRANCH  16  17
ENDBRANCH  15  16
ENDBRANCH  10  15
BRANCH  13  34
HETATM   34  C18 UNL     1      15.255  49.596  -7.715  1.00  0.00     0.223 C 
BRANCH  34  35
HETATM   35  O7  UNL     1      15.611  50.509  -6.653  1.00  0.00    -0.395 OA
ATOM     36  H7  UNL     1      14.888  51.107  -6.504  1.00  0.00     0.209 HD
ENDBRANCH  34  35
ENDBRANCH  13  34
BRANCH   2  37
HETATM   37  O2  UNL     1      15.615  51.641  -9.176  1.00  0.00    -0.357 OA
ATOM     38  H2  UNL     1      15.780  51.969  -8.300  1.00  0.00     0.217 HD
ENDBRANCH   2  37
BRANCH   5  39
HETATM   39  O3  UNL     1      20.042  51.742 -12.421  1.00  0.00    -0.357 OA
ATOM     40  H3  UNL     1      20.741  52.365 -12.262  1.00  0.00     0.217 HD
ENDBRANCH   5  39
BRANCH   1  41
HETATM   41  O1  UNL     1      16.032  53.709 -10.685  1.00  0.00    -0.351 OA
HETATM   42  C1  UNL     1      14.995  53.941 -11.581  1.00  0.00     0.210 C 
ENDBRANCH   1  41
BRANCH   6  43
HETATM   43  O4  UNL     1      18.285  53.783 -12.357  1.00  0.00    -0.321 OA
BRANCH  43  44
HETATM   44  C8  UNL     1      18.880  54.968 -11.913  1.00  0.00     0.341 C 
BRANCH  44  45
HETATM   45  O5  UNL     1      17.989  55.862 -11.311  1.00  0.00    -0.377 OA
ATOM     46  H5  UNL     1      18.008  56.737 -11.682  1.00  0.00     0.212 HD
ENDBRANCH  44  45
ENDBRANCH  43  44
ENDBRANCH   6  43
TORSDOF 13
ENDMDL
MODEL 4
REMARK VINA RESULT: -8.583603327      4.292      6.211
REMARK  13 active torsions:
REMARK  status: ('A' for Active; 'I' for Inactive)
REMARK    1  A    between atoms: O1_2  and  C2_3 
REMARK    2  A    between atoms: C3_4  and  O2_5 
REMARK    3  A    between atoms: C6_9  and  O3_10 
REMARK    4  A    between atoms: C7_12  and  O4_13 
REMARK    5  A    between atoms: O4_13  and  C8_14 
REMARK    6  A    between atoms: C8_14  and  O5_15 
REMARK    7  A    between atoms: C11_20  and  S1_21 
REMARK    8  A    between atoms: S1_21  and  C12_22 
REMARK    9  A    between atoms: C12_22  and  C13_23 
REMARK   10  A    between atoms: N2_25  and  C15_26 
REMARK   11  A    between atoms: C15_26  and  O6_27 
REMARK   12  A    between atoms: C17_42  and  C18_43 
REMARK   13  A    between atoms: C18_43  and  O7_44 
ROOT
HETATM    1  C2  UNL     1      17.833  50.286 -10.963  1.00  0.00     0.138 A 
HETATM    2  C3  UNL     1      18.632  49.153 -10.660  1.00  0.00     0.115 A 
HETATM    3  C4  UNL     1      18.202  48.320  -9.689  1.00  0.00     0.038 A 
HETATM    4  C5  UNL     1      17.023  48.535  -8.989  1.00  0.00    -0.005 A 
HETATM    5  C6  UNL     1      16.256  49.639  -9.293  1.00  0.00     0.109 A 
HETATM    6  C7  UNL     1      16.675  50.501 -10.280  1.00  0.00     0.141 A 
HETATM    7  C9  UNL     1      16.507  47.669  -7.938  1.00  0.00     0.063 A 
HETATM    8  C10 UNL     1      17.317  46.509  -7.590  1.00  0.00     0.136 A 
HETATM    9  N1  UNL     1      18.517  46.331  -8.337  1.00  0.00    -0.325 N 
HETATM   10  C11 UNL     1      19.397  45.333  -8.195  1.00  0.00     0.147 A 
HETATM   11  N9  UNL     1      20.375  45.509  -9.058  1.00  0.00    -0.336 N 
ATOM     12  H9  UNL     1      21.180  44.891  -9.162  1.00  0.00     0.168 HD
HETATM   13  C17 UNL     1      20.155  46.649  -9.802  1.00  0.00     0.063 A 
HETATM   14  C19 UNL     1      18.984  47.140  -9.327  1.00  0.00     0.075 A 
ENDROOT
BRANCH  10  15
HETATM   15  S1  UNL     1      19.294  43.971  -7.036  1.00  0.00    -0.087 SA
BRANCH  15  16
HETATM   16  C12 UNL     1      20.318  44.414  -5.585  1.00  0.00     0.142 C 
BRANCH  16  17
HETATM   17  C13 UNL     1      19.546  45.348  -4.732  1.00  0.00     0.054 A 
HETATM   18  C14 UNL     1      18.190  45.420  -4.511  1.00  0.00     0.145 A 
HETATM   19  N2  UNL     1      17.958  46.440  -3.654  1.00  0.00    -0.211 N 
HETATM   20  N7  UNL     1      19.143  46.954  -3.378  1.00  0.00    -0.235 N 
HETATM   21  N8  UNL     1      20.110  46.324  -4.007  1.00  0.00    -0.288 N 
ATOM     22  H7  UNL     1      19.290  47.746  -2.750  1.00  0.00     0.208 HD
ATOM     23  H8  UNL     1      21.105  46.538  -3.953  1.00  0.00     0.188 HD
BRANCH  19  24
HETATM   24  C15 UNL     1      16.689  46.897  -3.129  1.00  0.00     0.422 C 
HETATM   25  N3  UNL     1      16.033  47.735  -4.081  1.00  0.00     0.010 N 
HETATM   26  C16 UNL     1      15.938  49.082  -3.603  1.00  0.00     0.371 C 
ATOM     27  H32 UNL     1      16.485  47.692  -4.993  1.00  0.00     0.286 HD
ATOM     28  H31 UNL     1      15.120  47.365  -4.342  1.00  0.00     0.286 HD
HETATM   29  N4  UNL     1      17.155  49.502  -2.949  1.00  0.00    -0.102 NA
HETATM   30  N5  UNL     1      17.462  48.723  -1.837  1.00  0.00    -0.032 NA
HETATM   31  N6  UNL     1      16.835  47.496  -1.821  1.00  0.00    -0.040 NA
BRANCH  24  32
HETATM   32  O6  UNL     1      15.894  45.744  -2.957  1.00  0.00    -0.333 OA
ATOM     33  H6  UNL     1      15.975  45.244  -3.761  1.00  0.00     0.216 HD
ENDBRANCH  24  32
ENDBRANCH  19  24
ENDBRANCH  16  17
ENDBRANCH  15  16
ENDBRANCH  10  15
BRANCH  13  34
HETATM   34  C18 UNL     1      21.117  47.033 -10.824  1.00  0.00     0.223 C 
BRANCH  34  35
HETATM   35  O7  UNL     1      20.723  46.447 -12.084  1.00  0.00    -0.395 OA
ATOM     36  H7  UNL     1      20.771  45.501 -12.014  1.00  0.00     0.209 HD
ENDBRANCH  34  35
ENDBRANCH  13  34
BRANCH   2  37
HETATM   37  O2  UNL     1      19.728  49.076 -11.407  1.00  0.00    -0.357 OA
ATOM     38  H2  UNL     1      20.081  48.196 -11.459  1.00  0.00     0.217 HD
ENDBRANCH   2  37
BRANCH   5  39
HETATM   39  O3  UNL     1      15.068  49.903  -8.627  1.00  0.00    -0.357 OA
ATOM     40  H3  UNL     1      14.356  49.274  -8.613  1.00  0.00     0.217 HD
ENDBRANCH   5  39
BRANCH   1  41
HETATM   41  O1  UNL     1      18.270  51.147 -11.967  1.00  0.00    -0.351 OA
HETATM   42  C1  UNL     1      19.129  52.228 -11.810  1.00  0.00     0.210 C 
ENDBRANCH   1  41
BRANCH   6  43
HETATM   43  O4  UNL     1      15.885  51.595 -10.557  1.00  0.00    -0.321 OA
BRANCH  43  44
HETATM   44  C8  UNL     1      16.093  52.862 -10.004  1.00  0.00     0.341 C 
BRANCH  44  45
HETATM   45  O5  UNL     1      16.415  52.845  -8.643  1.00  0.00    -0.377 OA
ATOM     46  H5  UNL     1      16.848  53.634  -8.337  1.00  0.00     0.212 HD
ENDBRANCH  44  45
ENDBRANCH  43  44
ENDBRANCH   6  43
TORSDOF 13
ENDMDL
MODEL 5
REMARK VINA RESULT: -8.503097097      4.909      8.421
REMARK  13 active torsions:
REMARK  status: ('A' for Active; 'I' for Inactive)
REMARK    1  A    between atoms: O1_2  and  C2_3 
REMARK    2  A    between atoms: C3_4  and  O2_5 
REMARK    3  A    between atoms: C6_9  and  O3_10 
REMARK    4  A    between atoms: C7_12  and  O4_13 
REMARK    5  A    between atoms: O4_13  and  C8_14 
REMARK    6  A    between atoms: C8_14  and  O5_15 
REMARK    7  A    between atoms: C11_20  and  S1_21 
REMARK    8  A    between atoms: S1_21  and  C12_22 
REMARK    9  A    between atoms: C12_22  and  C13_23 
REMARK   10  A    between atoms: N2_25  and  C15_26 
REMARK   11  A    between atoms: C15_26  and  O6_27 
REMARK   12  A    between atoms: C17_42  and  C18_43 
REMARK   13  A    between atoms: C18_43  and  O7_44 
ROOT
HETATM    1  C2  UNL     1      20.726  43.070  -6.870  1.00  0.00     0.138 A 
HETATM    2  C3  UNL     1      20.405  43.775  -8.059  1.00  0.00     0.115 A 
HETATM    3  C4  UNL     1      20.398  45.124  -8.009  1.00  0.00     0.038 A 
HETATM    4  C5  UNL     1      20.690  45.830  -6.850  1.00  0.00    -0.005 A 
HETATM    5  C6  UNL     1      21.001  45.133  -5.703  1.00  0.00     0.109 A 
HETATM    6  C7  UNL     1      21.014  43.758  -5.731  1.00  0.00     0.141 A 
HETATM    7  C9  UNL     1      20.704  47.282  -6.739  1.00  0.00     0.063 A 
HETATM    8  C10 UNL     1      20.356  48.034  -7.938  1.00  0.00     0.136 A 
HETATM    9  N1  UNL     1      20.067  47.264  -9.102  1.00  0.00    -0.325 N 
HETATM   10  C11 UNL     1      19.740  47.745 -10.307  1.00  0.00     0.147 A 
HETATM   11  N9  UNL     1      19.545  46.732 -11.125  1.00  0.00    -0.336 N 
ATOM     12  H9  UNL     1      19.285  46.817 -12.108  1.00  0.00     0.168 HD
HETATM   13  C17 UNL     1      19.742  45.539 -10.462  1.00  0.00     0.063 A 
HETATM   14  C19 UNL     1      20.069  45.907  -9.198  1.00  0.00     0.075 A 
ENDROOT
BRANCH  10  15
HETATM   15  S1  UNL     1      19.586  49.469 -10.766  1.00  0.00    -0.087 SA
BRANCH  15  16
HETATM   16  C12 UNL     1      17.801  49.819 -10.972  1.00  0.00     0.142 C 
BRANCH  16  17
HETATM   17  C13 UNL     1      17.084  49.330  -9.771  1.00  0.00     0.054 A 
HETATM   18  C14 UNL     1      16.814  49.974  -8.585  1.00  0.00     0.145 A 
HETATM   19  N2  UNL     1      16.134  49.119  -7.789  1.00  0.00    -0.211 N 
HETATM   20  N7  UNL     1      16.005  48.004  -8.485  1.00  0.00    -0.235 N 
HETATM   21  N8  UNL     1      16.563  48.100  -9.672  1.00  0.00    -0.288 N 
ATOM     22  H7  UNL     1      15.529  47.169  -8.143  1.00  0.00     0.208 HD
ATOM     23  H8  UNL     1      16.593  47.371 -10.385  1.00  0.00     0.188 HD
BRANCH  19  24
HETATM   24  C15 UNL     1      15.634  49.349  -6.450  1.00  0.00     0.422 C 
HETATM   25  N3  UNL     1      16.661  49.097  -5.490  1.00  0.00     0.010 N 
HETATM   26  C16 UNL     1      16.342  47.962  -4.678  1.00  0.00     0.371 C 
ATOM     27  H32 UNL     1      17.573  48.996  -5.934  1.00  0.00     0.286 HD
ATOM     28  H31 UNL     1      16.855  49.922  -4.922  1.00  0.00     0.286 HD
HETATM   29  N4  UNL     1      15.771  46.890  -5.461  1.00  0.00    -0.102 NA
HETATM   30  N5  UNL     1      14.584  47.259  -6.087  1.00  0.00    -0.032 NA
HETATM   31  N6  UNL     1      14.410  48.621  -6.203  1.00  0.00    -0.040 NA
BRANCH  24  32
HETATM   32  O6  UNL     1      15.310  50.720  -6.379  1.00  0.00    -0.333 OA
ATOM     33  H6  UNL     1      15.804  51.072  -5.648  1.00  0.00     0.216 HD
ENDBRANCH  24  32
ENDBRANCH  19  24
ENDBRANCH  16  17
ENDBRANCH  15  16
ENDBRANCH  10  15
BRANCH  13  34
HETATM   34  C18 UNL     1      19.581  44.286 -11.183  1.00  0.00     0.223 C 
BRANCH  34  35
HETATM   35  O7  UNL     1      20.820  43.966 -11.854  1.00  0.00    -0.395 OA
ATOM     36  H7  UNL     1      21.300  43.333 -11.332  1.00  0.00     0.209 HD
ENDBRANCH  34  35
ENDBRANCH  13  34
BRANCH   2  37
HETATM   37  O2  UNL     1      20.148  42.972  -9.086  1.00  0.00    -0.357 OA
ATOM     38  H2  UNL     1      19.612  43.384  -9.754  1.00  0.00     0.217 HD
ENDBRANCH   2  37
BRANCH   5  39
HETATM   39  O3  UNL     1      21.302  45.787  -4.516  1.00  0.00    -0.357 OA
ATOM     40  H3  UNL     1      21.440  45.308  -3.707  1.00  0.00     0.217 HD
ENDBRANCH   5  39
BRANCH   1  41
HETATM   41  O1  UNL     1      20.739  41.678  -6.917  1.00  0.00    -0.351 OA
HETATM   42  C1  UNL     1      21.860  40.867  -7.038  1.00  0.00     0.210 C 
ENDBRANCH   1  41
BRANCH   6  43
HETATM   43  O4  UNL     1      21.328  43.093  -4.565  1.00  0.00    -0.321 OA
BRANCH  43  44
HETATM   44  C8  UNL     1      20.374  42.649  -3.645  1.00  0.00     0.341 C 
BRANCH  44  45
HETATM   45  O5  UNL     1      19.622  41.555  -4.085  1.00  0.00    -0.377 OA
ATOM     46  H5  UNL     1      18.769  41.786  -4.434  1.00  0.00     0.212 HD
ENDBRANCH  44  45
ENDBRANCH  43  44
ENDBRANCH   6  43
TORSDOF 13
ENDMDL
