MODEL 1
REMARK VINA RESULT: -7.985029887      0.000      0.000
REMARK  11 active torsions:
REMARK  status: ('A' for Active; 'I' for Inactive)
REMARK    1  A    between atoms: C2_2  and  O1_3 
REMARK    2  A    between atoms: O1_3  and  C3_4 
REMARK    3  A    between atoms: C3_4  and  C4_5 
REMARK    4  A    between atoms: C4_5  and  N1_6 
REMARK    5  A    between atoms: N2_9  and  C7_10 
REMARK    6  A    between atoms: C7_10  and  C8_11 
REMARK    7  A    between atoms: C8_11  and  N3_12 
REMARK    8  A    between atoms: C12_23  and  C13_24 
REMARK    9  A    between atoms: C13_24  and  C14_25 
REMARK   10  A    between atoms: C14_25  and  C15_26 
REMARK   11  A    between atoms: C15_26  and  O2_27 
ROOT
HETATM    1  N3  UNL     1     -17.395   6.353  -8.632  1.00  0.00    -0.326 N 
HETATM    2  C9  UNL     1     -17.141   6.450  -9.934  1.00  0.00     0.185 A 
HETATM    3  N4  UNL     1     -17.786   7.520 -10.447  1.00  0.00    -0.346 N 
ATOM      4  H4  UNL     1     -17.761   7.821 -11.421  1.00  0.00     0.167 HD
HETATM    5  C10 UNL     1     -18.464   8.117  -9.455  1.00  0.00     0.122 A 
HETATM    6  C11 UNL     1     -19.292   9.241  -9.386  1.00  0.00     0.132 A 
HETATM    7  N5  UNL     1     -19.499   9.902 -10.466  1.00  0.00    -0.383 N 
ATOM      8  H51 UNL     1     -20.103  10.722 -10.415  1.00  0.00     0.157 HD
ATOM      9  H52 UNL     1     -19.102   9.664 -11.375  1.00  0.00     0.157 HD
HETATM   10  N6  UNL     1     -19.813   9.553  -8.194  1.00  0.00    -0.320 N 
ATOM     11  H6  UNL     1     -20.418  10.371  -8.131  1.00  0.00     0.169 HD
HETATM   12  C12 UNL     1     -19.585   8.854  -7.084  1.00  0.00     0.164 A 
HETATM   13  N7  UNL     1     -18.778   7.760  -7.158  1.00  0.00    -0.319 N 
ATOM     14  H7  UNL     1     -18.594   7.214  -6.316  1.00  0.00     0.169 HD
HETATM   15  C20 UNL     1     -18.224   7.390  -8.314  1.00  0.00     0.141 A 
ENDROOT
BRANCH   1  16
HETATM   16  C8  UNL     1     -16.922   5.362  -7.691  1.00  0.00     0.161 C 
BRANCH  16  17
HETATM   17  C7  UNL     1     -16.363   4.132  -8.302  1.00  0.00     0.292 C 
BRANCH  17  18
HETATM   18  N2  UNL     1     -15.204   4.268  -9.113  1.00  0.00     0.093 N 
HETATM   19  C6  UNL     1     -14.147   4.970  -8.405  1.00  0.00     0.302 C 
HETATM   20  C5  UNL     1     -12.872   4.788  -9.230  1.00  0.00     0.302 C 
HETATM   21  N1  UNL     1     -12.434   3.451  -8.979  1.00  0.00     0.093 N 
HETATM   22  C22 UNL     1     -13.484   2.501  -9.164  1.00  0.00     0.302 C 
HETATM   23  C21 UNL     1     -14.739   3.074  -9.755  1.00  0.00     0.302 C 
BRANCH  21  24
HETATM   24  C4  UNL     1     -11.198   3.096  -9.623  1.00  0.00     0.298 C 
BRANCH  24  25
HETATM   25  C3  UNL     1     -10.000   3.245  -8.747  1.00  0.00     0.198 C 
BRANCH  25  26
HETATM   26  O1  UNL     1      -9.328   4.403  -9.075  1.00  0.00    -0.390 OA
BRANCH  26  27
HETATM   27  C2  UNL     1      -8.924   4.487 -10.390  1.00  0.00     0.163 C 
HETATM   28  C1  UNL     1      -7.887   5.579 -10.586  1.00  0.00     0.033 C 
ENDBRANCH  26  27
ENDBRANCH  25  26
ENDBRANCH  24  25
ENDBRANCH  21  24
ENDBRANCH  17  18
ENDBRANCH  16  17
ENDBRANCH   1  16
BRANCH  12  29
HETATM   29  C13 UNL     1     -20.165   9.224  -5.831  1.00  0.00    -0.027 C 
BRANCH  29  30
HETATM   30  C14 UNL     1     -20.673   9.534  -4.784  1.00  0.00    -0.060 C 
BRANCH  30  31
HETATM   31  C15 UNL     1     -21.306   9.914  -3.540  1.00  0.00     0.121 C 
HETATM   32  C16 UNL     1     -21.943  11.257  -3.703  1.00  0.00     0.051 C 
HETATM   33  C17 UNL     1     -21.184  12.177  -2.804  1.00  0.00     0.004 C 
HETATM   34  C18 UNL     1     -20.712  11.273  -1.679  1.00  0.00     0.004 C 
HETATM   35  C19 UNL     1     -20.247  10.058  -2.461  1.00  0.00     0.051 C 
BRANCH  31  36
HETATM   36  O2  UNL     1     -22.279   8.991  -3.157  1.00  0.00    -0.378 OA
ATOM     37  H2  UNL     1     -22.364   8.945  -2.213  1.00  0.00     0.211 HD
ENDBRANCH  31  36
ENDBRANCH  30  31
ENDBRANCH  29  30
ENDBRANCH  12  29
TORSDOF 11
ENDMDL
MODEL 2
REMARK VINA RESULT: -7.714056282      0.902      1.582
REMARK  11 active torsions:
REMARK  status: ('A' for Active; 'I' for Inactive)
REMARK    1  A    between atoms: C2_2  and  O1_3 
REMARK    2  A    between atoms: O1_3  and  C3_4 
REMARK    3  A    between atoms: C3_4  and  C4_5 
REMARK    4  A    between atoms: C4_5  and  N1_6 
REMARK    5  A    between atoms: N2_9  and  C7_10 
REMARK    6  A    between atoms: C7_10  and  C8_11 
REMARK    7  A    between atoms: C8_11  and  N3_12 
REMARK    8  A    between atoms: C12_23  and  C13_24 
REMARK    9  A    between atoms: C13_24  and  C14_25 
REMARK   10  A    between atoms: C14_25  and  C15_26 
REMARK   11  A    between atoms: C15_26  and  O2_27 
ROOT
HETATM    1  N3  UNL     1     -17.394   6.328  -8.632  1.00  0.00    -0.326 N 
HETATM    2  C9  UNL     1     -17.142   6.413  -9.936  1.00  0.00     0.185 A 
HETATM    3  N4  UNL     1     -17.782   7.480 -10.458  1.00  0.00    -0.346 N 
ATOM      4  H4  UNL     1     -17.758   7.773 -11.434  1.00  0.00     0.167 HD
HETATM    5  C10 UNL     1     -18.455   8.090  -9.470  1.00  0.00     0.122 A 
HETATM    6  C11 UNL     1     -19.278   9.218  -9.410  1.00  0.00     0.132 A 
HETATM    7  N5  UNL     1     -19.484   9.871 -10.495  1.00  0.00    -0.383 N 
ATOM      8  H51 UNL     1     -20.083  10.694 -10.451  1.00  0.00     0.157 HD
ATOM      9  H52 UNL     1     -19.090   9.623 -11.403  1.00  0.00     0.157 HD
HETATM   10  N6  UNL     1     -19.795   9.543  -8.219  1.00  0.00    -0.320 N 
ATOM     11  H6  UNL     1     -20.396  10.365  -8.163  1.00  0.00     0.169 HD
HETATM   12  C12 UNL     1     -19.569   8.853  -7.104  1.00  0.00     0.164 A 
HETATM   13  N7  UNL     1     -18.767   7.755  -7.169  1.00  0.00    -0.319 N 
ATOM     14  H7  UNL     1     -18.584   7.216  -6.323  1.00  0.00     0.169 HD
HETATM   15  C20 UNL     1     -18.216   7.372  -8.322  1.00  0.00     0.141 A 
ENDROOT
BRANCH   1  16
HETATM   16  C8  UNL     1     -16.924   5.344  -7.684  1.00  0.00     0.161 C 
BRANCH  16  17
HETATM   17  C7  UNL     1     -16.377   4.103  -8.284  1.00  0.00     0.292 C 
BRANCH  17  18
HETATM   18  N2  UNL     1     -15.237   4.225  -9.124  1.00  0.00     0.093 N 
HETATM   19  C6  UNL     1     -14.152   4.908  -8.441  1.00  0.00     0.302 C 
HETATM   20  C5  UNL     1     -12.901   4.709  -9.299  1.00  0.00     0.302 C 
HETATM   21  N1  UNL     1     -12.478   3.364  -9.065  1.00  0.00     0.093 N 
HETATM   22  C22 UNL     1     -13.547   2.432  -9.226  1.00  0.00     0.302 C 
HETATM   23  C21 UNL     1     -14.808   3.027  -9.782  1.00  0.00     0.302 C 
BRANCH  21  24
HETATM   24  C4  UNL     1     -11.264   2.994  -9.742  1.00  0.00     0.298 C 
BRANCH  24  25
HETATM   25  C3  UNL     1     -10.041   3.125  -8.898  1.00  0.00     0.198 C 
BRANCH  25  26
HETATM   26  O1  UNL     1     -10.285   2.600  -7.647  1.00  0.00    -0.390 OA
BRANCH  26  27
HETATM   27  C2  UNL     1     -10.161   1.231  -7.557  1.00  0.00     0.163 C 
HETATM   28  C1  UNL     1     -11.256   0.627  -6.696  1.00  0.00     0.033 C 
ENDBRANCH  26  27
ENDBRANCH  25  26
ENDBRANCH  24  25
ENDBRANCH  21  24
ENDBRANCH  17  18
ENDBRANCH  16  17
ENDBRANCH   1  16
BRANCH  12  29
HETATM   29  C13 UNL     1     -20.144   9.238  -5.853  1.00  0.00    -0.027 C 
BRANCH  29  30
HETATM   30  C14 UNL     1     -20.646   9.548  -4.803  1.00  0.00    -0.060 C 
BRANCH  30  31
HETATM   31  C15 UNL     1     -21.266   9.901  -3.544  1.00  0.00     0.121 C 
HETATM   32  C16 UNL     1     -21.876  11.261  -3.661  1.00  0.00     0.051 C 
HETATM   33  C17 UNL     1     -21.095  12.136  -2.737  1.00  0.00     0.004 C 
HETATM   34  C18 UNL     1     -20.636  11.187  -1.644  1.00  0.00     0.004 C 
HETATM   35  C19 UNL     1     -20.200   9.988  -2.466  1.00  0.00     0.051 C 
BRANCH  31  36
HETATM   36  O2  UNL     1     -22.256   8.987  -3.187  1.00  0.00    -0.378 OA
ATOM     37  H2  UNL     1     -22.959   9.404  -2.705  1.00  0.00     0.211 HD
ENDBRANCH  31  36
ENDBRANCH  30  31
ENDBRANCH  29  30
ENDBRANCH  12  29
TORSDOF 11
ENDMDL
MODEL 3
REMARK VINA RESULT: -7.646161813      2.356      2.879
REMARK  11 active torsions:
REMARK  status: ('A' for Active; 'I' for Inactive)
REMARK    1  A    between atoms: C2_2  and  O1_3 
REMARK    2  A    between atoms: O1_3  and  C3_4 
REMARK    3  A    between atoms: C3_4  and  C4_5 
REMARK    4  A    between atoms: C4_5  and  N1_6 
REMARK    5  A    between atoms: N2_9  and  C7_10 
REMARK    6  A    between atoms: C7_10  and  C8_11 
REMARK    7  A    between atoms: C8_11  and  N3_12 
REMARK    8  A    between atoms: C12_23  and  C13_24 
REMARK    9  A    between atoms: C13_24  and  C14_25 
REMARK   10  A    between atoms: C14_25  and  C15_26 
REMARK   11  A    between atoms: C15_26  and  O2_27 
ROOT
HETATM    1  N3  UNL     1     -17.209   6.506  -8.569  1.00  0.00    -0.326 N 
HETATM    2  C9  UNL     1     -16.981   6.571  -9.878  1.00  0.00     0.185 A 
HETATM    3  N4  UNL     1     -17.712   7.567 -10.421  1.00  0.00    -0.346 N 
ATOM      4  H4  UNL     1     -17.724   7.831 -11.406  1.00  0.00     0.167 HD
HETATM    5  C10 UNL     1     -18.420   8.150  -9.442  1.00  0.00     0.122 A 
HETATM    6  C11 UNL     1     -19.330   9.211  -9.402  1.00  0.00     0.132 A 
HETATM    7  N5  UNL     1     -19.601   9.811 -10.503  1.00  0.00    -0.383 N 
ATOM      8  H51 UNL     1     -20.265  10.585 -10.474  1.00  0.00     0.157 HD
ATOM      9  H52 UNL     1     -19.200   9.568 -11.409  1.00  0.00     0.157 HD
HETATM   10  N6  UNL     1     -19.856   9.529  -8.214  1.00  0.00    -0.320 N 
ATOM     11  H6  UNL     1     -20.521  10.302  -8.173  1.00  0.00     0.169 HD
HETATM   12  C12 UNL     1     -19.561   8.894  -7.082  1.00  0.00     0.164 A 
HETATM   13  N7  UNL     1     -18.674   7.862  -7.127  1.00  0.00    -0.319 N 
ATOM     14  H7  UNL     1     -18.437   7.366  -6.268  1.00  0.00     0.169 HD
HETATM   15  C20 UNL     1     -18.109   7.490  -8.277  1.00  0.00     0.141 A 
ENDROOT
BRANCH   1  16
HETATM   16  C8  UNL     1     -16.650   5.592  -7.599  1.00  0.00     0.161 C 
BRANCH  16  17
HETATM   17  C7  UNL     1     -16.857   4.154  -7.897  1.00  0.00     0.292 C 
BRANCH  17  18
HETATM   18  N2  UNL     1     -16.170   3.608  -9.016  1.00  0.00     0.093 N 
HETATM   19  C6  UNL     1     -14.743   3.872  -8.935  1.00  0.00     0.302 C 
HETATM   20  C5  UNL     1     -14.076   2.992  -9.994  1.00  0.00     0.302 C 
HETATM   21  N1  UNL     1     -14.071   1.669  -9.453  1.00  0.00     0.093 N 
HETATM   22  C22 UNL     1     -15.362   1.278  -8.985  1.00  0.00     0.302 C 
HETATM   23  C21 UNL     1     -16.461   2.240  -9.328  1.00  0.00     0.302 C 
BRANCH  21  24
HETATM   24  C4  UNL     1     -13.421   0.688 -10.281  1.00  0.00     0.298 C 
BRANCH  24  25
HETATM   25  C3  UNL     1     -13.511   0.980 -11.741  1.00  0.00     0.198 C 
BRANCH  25  26
HETATM   26  O1  UNL     1     -14.453   0.156 -12.319  1.00  0.00    -0.390 OA
BRANCH  26  27
HETATM   27  C2  UNL     1     -15.437   0.808 -13.031  1.00  0.00     0.163 C 
HETATM   28  C1  UNL     1     -14.855   1.599 -14.190  1.00  0.00     0.033 C 
ENDBRANCH  26  27
ENDBRANCH  25  26
ENDBRANCH  24  25
ENDBRANCH  21  24
ENDBRANCH  17  18
ENDBRANCH  16  17
ENDBRANCH   1  16
BRANCH  12  29
HETATM   29  C13 UNL     1     -20.150   9.269  -5.835  1.00  0.00    -0.027 C 
BRANCH  29  30
HETATM   30  C14 UNL     1     -20.665   9.579  -4.791  1.00  0.00    -0.060 C 
BRANCH  30  31
HETATM   31  C15 UNL     1     -21.309   9.950  -3.550  1.00  0.00     0.121 C 
HETATM   32  C16 UNL     1     -21.940  11.296  -3.707  1.00  0.00     0.051 C 
HETATM   33  C17 UNL     1     -21.187  12.206  -2.793  1.00  0.00     0.004 C 
HETATM   34  C18 UNL     1     -20.728  11.290  -1.671  1.00  0.00     0.004 C 
HETATM   35  C19 UNL     1     -20.260  10.081  -2.460  1.00  0.00     0.051 C 
BRANCH  31  36
HETATM   36  O2  UNL     1     -22.288   9.027  -3.185  1.00  0.00    -0.378 OA
ATOM     37  H2  UNL     1     -22.958   9.425  -2.642  1.00  0.00     0.211 HD
ENDBRANCH  31  36
ENDBRANCH  30  31
ENDBRANCH  29  30
ENDBRANCH  12  29
TORSDOF 11
ENDMDL
MODEL 4
REMARK VINA RESULT: -7.543628100      2.309      2.979
REMARK  11 active torsions:
REMARK  status: ('A' for Active; 'I' for Inactive)
REMARK    1  A    between atoms: C2_2  and  O1_3 
REMARK    2  A    between atoms: O1_3  and  C3_4 
REMARK    3  A    between atoms: C3_4  and  C4_5 
REMARK    4  A    between atoms: C4_5  and  N1_6 
REMARK    5  A    between atoms: N2_9  and  C7_10 
REMARK    6  A    between atoms: C7_10  and  C8_11 
REMARK    7  A    between atoms: C8_11  and  N3_12 
REMARK    8  A    between atoms: C12_23  and  C13_24 
REMARK    9  A    between atoms: C13_24  and  C14_25 
REMARK   10  A    between atoms: C14_25  and  C15_26 
REMARK   11  A    between atoms: C15_26  and  O2_27 
ROOT
HETATM    1  N3  UNL     1     -17.477   6.369  -8.703  1.00  0.00    -0.326 N 
HETATM    2  C9  UNL     1     -17.217   6.496 -10.001  1.00  0.00     0.185 A 
HETATM    3  N4  UNL     1     -17.832   7.595 -10.486  1.00  0.00    -0.346 N 
ATOM      4  H4  UNL     1     -17.797   7.922 -11.452  1.00  0.00     0.167 HD
HETATM    5  C10 UNL     1     -18.498   8.182  -9.480  1.00  0.00     0.122 A 
HETATM    6  C11 UNL     1     -19.297   9.325  -9.382  1.00  0.00     0.132 A 
HETATM    7  N5  UNL     1     -19.484  10.020 -10.444  1.00  0.00    -0.383 N 
ATOM      8  H51 UNL     1     -20.066  10.854 -10.373  1.00  0.00     0.157 HD
ATOM      9  H52 UNL     1     -19.090   9.797 -11.359  1.00  0.00     0.157 HD
HETATM   10  N6  UNL     1     -19.813   9.617  -8.183  1.00  0.00    -0.320 N 
ATOM     11  H6  UNL     1     -20.397  10.449  -8.100  1.00  0.00     0.169 HD
HETATM   12  C12 UNL     1     -19.607   8.883  -7.093  1.00  0.00     0.164 A 
HETATM   13  N7  UNL     1     -18.828   7.771  -7.194  1.00  0.00    -0.319 N 
ATOM     14  H7  UNL     1     -18.661   7.198  -6.367  1.00  0.00     0.169 HD
HETATM   15  C20 UNL     1     -18.280   7.418  -8.358  1.00  0.00     0.141 A 
ENDROOT
BRANCH   1  16
HETATM   16  C8  UNL     1     -17.033   5.341  -7.789  1.00  0.00     0.161 C 
BRANCH  16  17
HETATM   17  C7  UNL     1     -15.660   4.838  -8.028  1.00  0.00     0.292 C 
BRANCH  17  18
HETATM   18  N2  UNL     1     -15.453   3.999  -9.157  1.00  0.00     0.093 N 
HETATM   19  C6  UNL     1     -14.040   3.720  -9.351  1.00  0.00     0.302 C 
HETATM   20  C5  UNL     1     -13.956   2.584 -10.373  1.00  0.00     0.302 C 
HETATM   21  N1  UNL     1     -14.305   1.394  -9.661  1.00  0.00     0.093 N 
HETATM   22  C22 UNL     1     -15.525   1.543  -8.935  1.00  0.00     0.302 C 
HETATM   23  C21 UNL     1     -16.263   2.819  -9.223  1.00  0.00     0.302 C 
BRANCH  21  24
HETATM   24  C4  UNL     1     -14.225   0.187 -10.439  1.00  0.00     0.298 C 
BRANCH  24  25
HETATM   25  C3  UNL     1     -13.003  -0.624 -10.166  1.00  0.00     0.198 C 
BRANCH  25  26
HETATM   26  O1  UNL     1     -13.299  -1.610  -9.249  1.00  0.00    -0.390 OA
BRANCH  26  27
HETATM   27  C2  UNL     1     -12.814  -1.387  -7.979  1.00  0.00     0.163 C 
HETATM   28  C1  UNL     1     -13.938  -1.246  -6.968  1.00  0.00     0.033 C 
ENDBRANCH  26  27
ENDBRANCH  25  26
ENDBRANCH  24  25
ENDBRANCH  21  24
ENDBRANCH  17  18
ENDBRANCH  16  17
ENDBRANCH   1  16
BRANCH  12  29
HETATM   29  C13 UNL     1     -20.181   9.233  -5.831  1.00  0.00    -0.027 C 
BRANCH  29  30
HETATM   30  C14 UNL     1     -20.682   9.536  -4.779  1.00  0.00    -0.060 C 
BRANCH  30  31
HETATM   31  C15 UNL     1     -21.307   9.907  -3.528  1.00  0.00     0.121 C 
HETATM   32  C16 UNL     1     -21.932  11.258  -3.673  1.00  0.00     0.051 C 
HETATM   33  C17 UNL     1     -21.161  12.160  -2.766  1.00  0.00     0.004 C 
HETATM   34  C18 UNL     1     -20.693  11.239  -1.653  1.00  0.00     0.004 C 
HETATM   35  C19 UNL     1     -20.243  10.029  -2.452  1.00  0.00     0.051 C 
BRANCH  31  36
HETATM   36  O2  UNL     1     -22.287   8.990  -3.152  1.00  0.00    -0.378 OA
ATOM     37  H2  UNL     1     -23.125   9.192  -3.549  1.00  0.00     0.211 HD
ENDBRANCH  31  36
ENDBRANCH  30  31
ENDBRANCH  29  30
ENDBRANCH  12  29
TORSDOF 11
ENDMDL
MODEL 5
REMARK VINA RESULT: -7.282836009      6.170      9.122
REMARK  11 active torsions:
REMARK  status: ('A' for Active; 'I' for Inactive)
REMARK    1  A    between atoms: C2_2  and  O1_3 
REMARK    2  A    between atoms: O1_3  and  C3_4 
REMARK    3  A    between atoms: C3_4  and  C4_5 
REMARK    4  A    between atoms: C4_5  and  N1_6 
REMARK    5  A    between atoms: N2_9  and  C7_10 
REMARK    6  A    between atoms: C7_10  and  C8_11 
REMARK    7  A    between atoms: C8_11  and  N3_12 
REMARK    8  A    between atoms: C12_23  and  C13_24 
REMARK    9  A    between atoms: C13_24  and  C14_25 
REMARK   10  A    between atoms: C14_25  and  C15_26 
REMARK   11  A    between atoms: C15_26  and  O2_27 
ROOT
HETATM    1  N3  UNL     1     -15.846   2.557  -9.148  1.00  0.00    -0.326 N 
HETATM    2  C9  UNL     1     -16.925   3.211  -8.723  1.00  0.00     0.185 A 
HETATM    3  N4  UNL     1     -16.603   4.491  -8.442  1.00  0.00    -0.346 N 
ATOM      4  H4  UNL     1     -17.244   5.206  -8.099  1.00  0.00     0.167 HD
HETATM    5  C10 UNL     1     -15.296   4.660  -8.692  1.00  0.00     0.122 A 
HETATM    6  C11 UNL     1     -14.421   5.746  -8.591  1.00  0.00     0.132 A 
HETATM    7  N5  UNL     1     -14.896   6.863  -8.176  1.00  0.00    -0.383 N 
ATOM      8  H51 UNL     1     -14.259   7.656  -8.103  1.00  0.00     0.157 HD
ATOM      9  H52 UNL     1     -15.870   7.016  -7.912  1.00  0.00     0.157 HD
HETATM   10  N6  UNL     1     -13.145   5.546  -8.937  1.00  0.00    -0.320 N 
ATOM     11  H6  UNL     1     -12.498   6.331  -8.868  1.00  0.00     0.169 HD
HETATM   12  C12 UNL     1     -12.671   4.378  -9.367  1.00  0.00     0.164 A 
HETATM   13  N7  UNL     1     -13.528   3.325  -9.463  1.00  0.00    -0.319 N 
ATOM     14  H7  UNL     1     -13.180   2.423  -9.790  1.00  0.00     0.169 HD
HETATM   15  C20 UNL     1     -14.815   3.451  -9.135  1.00  0.00     0.141 A 
ENDROOT
BRANCH   1  16
HETATM   16  C8  UNL     1     -15.729   1.174  -9.549  1.00  0.00     0.161 C 
BRANCH  16  17
HETATM   17  C7  UNL     1     -15.286   0.245  -8.483  1.00  0.00     0.292 C 
BRANCH  17  18
HETATM   18  N2  UNL     1     -14.083  -0.481  -8.699  1.00  0.00     0.093 N 
HETATM   19  C6  UNL     1     -13.592  -0.290 -10.053  1.00  0.00     0.302 C 
HETATM   20  C5  UNL     1     -12.166  -0.843 -10.082  1.00  0.00     0.302 C 
HETATM   21  N1  UNL     1     -11.355   0.137  -9.428  1.00  0.00     0.093 N 
HETATM   22  C22 UNL     1     -11.893   0.516  -8.161  1.00  0.00     0.302 C 
HETATM   23  C21 UNL     1     -13.059  -0.314  -7.711  1.00  0.00     0.302 C 
BRANCH  21  24
HETATM   24  C4  UNL     1      -9.950  -0.169  -9.405  1.00  0.00     0.298 C 
BRANCH  24  25
HETATM   25  C3  UNL     1      -9.386  -0.505 -10.745  1.00  0.00     0.198 C 
BRANCH  25  26
HETATM   26  O1  UNL     1      -9.266   0.644 -11.497  1.00  0.00    -0.390 OA
BRANCH  26  27
HETATM   27  C2  UNL     1      -9.916   0.614 -12.711  1.00  0.00     0.163 C 
HETATM   28  C1  UNL     1     -11.086   1.582 -12.742  1.00  0.00     0.033 C 
ENDBRANCH  26  27
ENDBRANCH  25  26
ENDBRANCH  24  25
ENDBRANCH  21  24
ENDBRANCH  17  18
ENDBRANCH  16  17
ENDBRANCH   1  16
BRANCH  12  29
HETATM   29  C13 UNL     1     -11.297   4.211  -9.725  1.00  0.00    -0.027 C 
BRANCH  29  30
HETATM   30  C14 UNL     1     -10.137   4.091 -10.023  1.00  0.00    -0.060 C 
BRANCH  30  31
HETATM   31  C15 UNL     1      -8.742   3.972 -10.388  1.00  0.00     0.121 C 
HETATM   32  C16 UNL     1      -7.979   5.108  -9.786  1.00  0.00     0.051 C 
HETATM   33  C17 UNL     1      -7.503   5.932 -10.938  1.00  0.00     0.004 C 
HETATM   34  C18 UNL     1      -7.340   4.922 -12.060  1.00  0.00     0.004 C 
HETATM   35  C19 UNL     1      -8.605   4.101 -11.895  1.00  0.00     0.051 C 
BRANCH  31  36
HETATM   36  O2  UNL     1      -8.196   2.770  -9.943  1.00  0.00    -0.378 OA
ATOM     37  H2  UNL     1      -8.010   2.794  -9.012  1.00  0.00     0.211 HD
ENDBRANCH  31  36
ENDBRANCH  30  31
ENDBRANCH  29  30
ENDBRANCH  12  29
TORSDOF 11
ENDMDL
