MODEL 1
REMARK VINA RESULT: -6.711280339      0.000      0.000
REMARK  10 active torsions:
REMARK  status: ('A' for Active; 'I' for Inactive)
REMARK    1  A    between atoms: C2_2  and  C3_3 
REMARK    2  A    between atoms: C3_3  and  C4_4 
REMARK    3  A    between atoms: C4_4  and  N1_5 
REMARK    4  A    between atoms: C5_6  and  N2_7 
REMARK    5  A    between atoms: N2_7  and  C6_9 
REMARK    6  A    between atoms: C6_9  and  C7_10 
REMARK    7  A    between atoms: C7_10  and  O1_11 
REMARK    8  A    between atoms: C12_22  and  N6_23 
REMARK    9  A    between atoms: N6_23  and  C13_25 
REMARK   10  A    between atoms: C13_25  and  C14_26 
ROOT
HETATM    1  N1  UNL     1      -9.196   2.858  -8.939  1.00  0.00    -0.167 N 
HETATM    2  C5  UNL     1      -8.167   3.698  -8.660  1.00  0.00     0.683 A 
HETATM    3  N3  UNL     1      -7.542   4.339  -9.646  1.00  0.00    -0.174 N 
ATOM      4  H3  UNL     1      -6.771   4.967  -9.417  1.00  0.00     0.186 HD
HETATM    5  C8  UNL     1      -7.894   4.183 -10.929  1.00  0.00     0.152 A 
HETATM    6  C9  UNL     1      -8.937   3.334 -11.223  1.00  0.00     0.072 A 
HETATM    7  C10 UNL     1      -9.052   3.388 -12.594  1.00  0.00     0.126 A 
HETATM    8  N4  UNL     1      -8.113   4.238 -13.099  1.00  0.00    -0.307 N 
ATOM      9  H4  UNL     1      -7.969   4.469 -14.083  1.00  0.00     0.186 HD
HETATM   10  N5  UNL     1      -7.428   4.704 -12.078  1.00  0.00    -0.280 N 
HETATM   11  C11 UNL     1      -6.310   5.653 -12.108  1.00  0.00     0.179 C 
HETATM   12  C12 UNL     1      -9.619   2.643 -10.202  1.00  0.00     0.139 A 
ENDROOT
BRANCH  12  13
HETATM   13  N6  UNL     1     -10.571   1.920 -10.499  1.00  0.00    -0.347 N 
ATOM     14  H6  UNL     1     -10.266   0.956 -10.363  1.00  0.00     0.167 HD
BRANCH  13  15
HETATM   15  C13 UNL     1     -11.867   1.871 -10.934  1.00  0.00     0.138 C 
BRANCH  15  16
HETATM   16  C14 UNL     1     -12.793   2.842 -10.248  1.00  0.00     0.121 A 
HETATM   17  N7  UNL     1     -14.124   2.771 -10.307  1.00  0.00    -0.343 N 
HETATM   18  C15 UNL     1     -14.651   3.765  -9.603  1.00  0.00     0.035 A 
ATOM     19  H7  UNL     1     -14.654   2.062 -10.814  1.00  0.00     0.167 HD
HETATM   20  C16 UNL     1     -13.589   4.490  -9.078  1.00  0.00     0.035 A 
HETATM   21  C21 UNL     1     -16.112   4.018  -9.431  1.00  0.00     0.089 C 
HETATM   22  N8  UNL     1     -12.482   3.895  -9.495  1.00  0.00    -0.343 N 
HETATM   23  C17 UNL     1     -13.714   5.701  -8.215  1.00  0.00     0.089 C 
ATOM     24  H8  UNL     1     -11.534   4.198  -9.272  1.00  0.00     0.167 HD
HETATM   25  C18 UNL     1     -14.901   6.532  -8.625  1.00  0.00     0.278 C 
HETATM   26  N9  UNL     1     -16.144   6.078  -8.089  1.00  0.00     0.084 N 
HETATM   27  C19 UNL     1     -17.249   6.613  -8.878  1.00  0.00     0.309 C 
HETATM   28  C20 UNL     1     -16.296   4.652  -8.055  1.00  0.00     0.278 C 
ENDBRANCH  15  16
ENDBRANCH  13  15
ENDBRANCH  12  13
BRANCH   1  29
HETATM   29  C4  UNL     1      -9.836   2.252  -7.814  1.00  0.00     0.149 C 
BRANCH  29  30
HETATM   30  C3  UNL     1      -9.500   0.855  -7.499  1.00  0.00     0.020 C 
BRANCH  30  31
HETATM   31  C2  UNL     1     -10.535  -0.161  -7.276  1.00  0.00    -0.003 C 
HETATM   32  C1  UNL     1     -11.569   0.200  -6.239  1.00  0.00     0.005 C 
ENDBRANCH  30  31
ENDBRANCH  29  30
ENDBRANCH   1  29
BRANCH   2  33
HETATM   33  N2  UNL     1      -7.774   3.896  -7.445  1.00  0.00    -0.224 N 
ATOM     34  H2  UNL     1      -7.098   3.256  -7.027  1.00  0.00     0.177 HD
BRANCH  33  35
HETATM   35  C6  UNL     1      -8.274   5.004  -6.670  1.00  0.00     0.164 C 
BRANCH  35  36
HETATM   36  C7  UNL     1      -7.217   6.066  -6.474  1.00  0.00     0.184 C 
BRANCH  36  37
HETATM   37  O1  UNL     1      -7.261   6.949  -7.552  1.00  0.00    -0.399 OA
ATOM     38  H1  UNL     1      -6.516   7.536  -7.499  1.00  0.00     0.209 HD
ENDBRANCH  36  37
ENDBRANCH  35  36
ENDBRANCH  33  35
ENDBRANCH   2  33
TORSDOF 10
ENDMDL
MODEL 2
REMARK VINA RESULT: -6.709328420      2.893      6.244
REMARK  10 active torsions:
REMARK  status: ('A' for Active; 'I' for Inactive)
REMARK    1  A    between atoms: C2_2  and  C3_3 
REMARK    2  A    between atoms: C3_3  and  C4_4 
REMARK    3  A    between atoms: C4_4  and  N1_5 
REMARK    4  A    between atoms: C5_6  and  N2_7 
REMARK    5  A    between atoms: N2_7  and  C6_9 
REMARK    6  A    between atoms: C6_9  and  C7_10 
REMARK    7  A    between atoms: C7_10  and  O1_11 
REMARK    8  A    between atoms: C12_22  and  N6_23 
REMARK    9  A    between atoms: N6_23  and  C13_25 
REMARK   10  A    between atoms: C13_25  and  C14_26 
ROOT
HETATM    1  N1  UNL     1     -12.912   2.417 -10.096  1.00  0.00    -0.167 N 
HETATM    2  C5  UNL     1     -12.530   3.658  -9.699  1.00  0.00     0.683 A 
HETATM    3  N3  UNL     1     -11.247   3.915  -9.454  1.00  0.00    -0.174 N 
ATOM      4  H3  UNL     1     -10.978   4.853  -9.157  1.00  0.00     0.186 HD
HETATM    5  C8  UNL     1     -10.298   2.978  -9.587  1.00  0.00     0.152 A 
HETATM    6  C9  UNL     1     -10.674   1.717  -9.990  1.00  0.00     0.072 A 
HETATM    7  C10 UNL     1      -9.499   1.001 -10.030  1.00  0.00     0.126 A 
HETATM    8  N4  UNL     1      -8.460   1.804  -9.664  1.00  0.00    -0.307 N 
ATOM      9  H4  UNL     1      -7.477   1.537  -9.605  1.00  0.00     0.186 HD
HETATM   10  N5  UNL     1      -8.966   2.989  -9.402  1.00  0.00    -0.280 N 
HETATM   11  C11 UNL     1      -8.247   4.193  -8.968  1.00  0.00     0.179 C 
HETATM   12  C12 UNL     1     -12.024   1.414 -10.257  1.00  0.00     0.139 A 
ENDROOT
BRANCH  12  13
HETATM   13  N6  UNL     1     -12.320   0.286 -10.651  1.00  0.00    -0.347 N 
ATOM     14  H6  UNL     1     -12.421   0.341 -11.665  1.00  0.00     0.167 HD
BRANCH  13  15
HETATM   15  C13 UNL     1     -12.569  -1.012 -10.295  1.00  0.00     0.138 C 
BRANCH  15  16
HETATM   16  C14 UNL     1     -12.583  -1.260  -8.809  1.00  0.00     0.121 A 
HETATM   17  N7  UNL     1     -11.486  -1.460  -8.076  1.00  0.00    -0.343 N 
HETATM   18  C15 UNL     1     -11.830  -1.649  -6.808  1.00  0.00     0.035 A 
ATOM     19  H7  UNL     1     -10.531  -1.467  -8.434  1.00  0.00     0.167 HD
HETATM   20  C16 UNL     1     -13.215  -1.560  -6.752  1.00  0.00     0.035 A 
HETATM   21  C21 UNL     1     -10.879  -1.905  -5.687  1.00  0.00     0.089 C 
HETATM   22  N8  UNL     1     -13.629  -1.322  -7.988  1.00  0.00    -0.343 N 
HETATM   23  C17 UNL     1     -14.040  -1.707  -5.517  1.00  0.00     0.089 C 
ATOM     24  H8  UNL     1     -14.603  -1.205  -8.268  1.00  0.00     0.167 HD
HETATM   25  C18 UNL     1     -13.439  -2.729  -4.590  1.00  0.00     0.278 C 
HETATM   26  N9  UNL     1     -12.384  -2.224  -3.770  1.00  0.00     0.084 N 
HETATM   27  C19 UNL     1     -11.570  -3.328  -3.273  1.00  0.00     0.309 C 
HETATM   28  C20 UNL     1     -11.501  -1.305  -4.429  1.00  0.00     0.278 C 
ENDBRANCH  15  16
ENDBRANCH  13  15
ENDBRANCH  12  13
BRANCH   1  29
HETATM   29  C4  UNL     1     -14.303   2.249 -10.380  1.00  0.00     0.149 C 
BRANCH  29  30
HETATM   30  C3  UNL     1     -15.162   1.702  -9.319  1.00  0.00     0.020 C 
BRANCH  30  31
HETATM   31  C2  UNL     1     -16.286   2.462  -8.760  1.00  0.00    -0.003 C 
HETATM   32  C1  UNL     1     -16.816   3.559  -9.648  1.00  0.00     0.005 C 
ENDBRANCH  30  31
ENDBRANCH  29  30
ENDBRANCH   1  29
BRANCH   2  33
HETATM   33  N2  UNL     1     -13.392   4.609  -9.550  1.00  0.00    -0.224 N 
ATOM     34  H2  UNL     1     -13.932   4.926 -10.355  1.00  0.00     0.177 HD
BRANCH  33  35
HETATM   35  C6  UNL     1     -13.602   5.230  -8.266  1.00  0.00     0.164 C 
BRANCH  35  36
HETATM   36  C7  UNL     1     -14.274   6.577  -8.403  1.00  0.00     0.184 C 
BRANCH  36  37
HETATM   37  O1  UNL     1     -13.584   7.505  -7.626  1.00  0.00    -0.399 OA
ATOM     38  H1  UNL     1     -13.769   7.336  -6.709  1.00  0.00     0.209 HD
ENDBRANCH  36  37
ENDBRANCH  35  36
ENDBRANCH  33  35
ENDBRANCH   2  33
TORSDOF 10
ENDMDL
MODEL 3
REMARK VINA RESULT: -6.631211887      1.996      3.026
REMARK  10 active torsions:
REMARK  status: ('A' for Active; 'I' for Inactive)
REMARK    1  A    between atoms: C2_2  and  C3_3 
REMARK    2  A    between atoms: C3_3  and  C4_4 
REMARK    3  A    between atoms: C4_4  and  N1_5 
REMARK    4  A    between atoms: C5_6  and  N2_7 
REMARK    5  A    between atoms: N2_7  and  C6_9 
REMARK    6  A    between atoms: C6_9  and  C7_10 
REMARK    7  A    between atoms: C7_10  and  O1_11 
REMARK    8  A    between atoms: C12_22  and  N6_23 
REMARK    9  A    between atoms: N6_23  and  C13_25 
REMARK   10  A    between atoms: C13_25  and  C14_26 
ROOT
HETATM    1  N1  UNL     1      -9.857   3.037 -10.958  1.00  0.00    -0.167 N 
HETATM    2  C5  UNL     1      -8.695   3.350 -11.588  1.00  0.00     0.683 A 
HETATM    3  N3  UNL     1      -8.356   2.722 -12.712  1.00  0.00    -0.174 N 
ATOM      4  H3  UNL     1      -7.480   2.970 -13.172  1.00  0.00     0.186 HD
HETATM    5  C8  UNL     1      -9.130   1.773 -13.256  1.00  0.00     0.152 A 
HETATM    6  C9  UNL     1     -10.309   1.449 -12.626  1.00  0.00     0.072 A 
HETATM    7  C10 UNL     1     -10.864   0.464 -13.413  1.00  0.00     0.126 A 
HETATM    8  N4  UNL     1     -10.045   0.210 -14.473  1.00  0.00    -0.307 N 
ATOM      9  H4  UNL     1     -10.207  -0.471 -15.215  1.00  0.00     0.186 HD
HETATM   10  N5  UNL     1      -9.008   1.010 -14.357  1.00  0.00    -0.280 N 
HETATM   11  C11 UNL     1      -7.852   1.112 -15.255  1.00  0.00     0.179 C 
HETATM   12  C12 UNL     1     -10.697   2.097 -11.436  1.00  0.00     0.139 A 
ENDROOT
BRANCH  12  13
HETATM   13  N6  UNL     1     -11.777   1.807 -10.919  1.00  0.00    -0.347 N 
ATOM     14  H6  UNL     1     -11.574   1.450  -9.986  1.00  0.00     0.167 HD
BRANCH  13  15
HETATM   15  C13 UNL     1     -13.136   1.766 -11.076  1.00  0.00     0.138 C 
BRANCH  15  16
HETATM   16  C14 UNL     1     -13.885   2.826 -10.310  1.00  0.00     0.121 A 
HETATM   17  N7  UNL     1     -15.215   2.912 -10.265  1.00  0.00    -0.343 N 
HETATM   18  C15 UNL     1     -15.565   3.948  -9.512  1.00  0.00     0.035 A 
ATOM     19  H7  UNL     1     -15.863   2.280 -10.735  1.00  0.00     0.167 HD
HETATM   20  C16 UNL     1     -14.388   4.535  -9.067  1.00  0.00     0.035 A 
HETATM   21  C21 UNL     1     -16.968   4.368  -9.224  1.00  0.00     0.089 C 
HETATM   22  N8  UNL     1     -13.394   3.822  -9.575  1.00  0.00    -0.343 N 
HETATM   23  C17 UNL     1     -14.302   5.736  -8.186  1.00  0.00     0.089 C 
ATOM     24  H8  UNL     1     -12.403   4.007  -9.425  1.00  0.00     0.167 HD
HETATM   25  C18 UNL     1     -15.409   6.708  -8.494  1.00  0.00     0.278 C 
HETATM   26  N9  UNL     1     -16.653   6.393  -7.866  1.00  0.00     0.084 N 
HETATM   27  C19 UNL     1     -17.744   7.068  -8.560  1.00  0.00     0.309 C 
HETATM   28  C20 UNL     1     -16.969   4.994  -7.832  1.00  0.00     0.278 C 
ENDBRANCH  15  16
ENDBRANCH  13  15
ENDBRANCH  12  13
BRANCH   1  29
HETATM   29  C4  UNL     1     -10.159   3.796  -9.785  1.00  0.00     0.149 C 
BRANCH  29  30
HETATM   30  C3  UNL     1      -9.756   3.245  -8.483  1.00  0.00     0.020 C 
BRANCH  30  31
HETATM   31  C2  UNL     1     -10.739   2.857  -7.464  1.00  0.00    -0.003 C 
HETATM   32  C1  UNL     1     -11.287   3.997  -6.644  1.00  0.00     0.005 C 
ENDBRANCH  30  31
ENDBRANCH  29  30
ENDBRANCH   1  29
BRANCH   2  33
HETATM   33  N2  UNL     1      -7.901   4.254 -11.119  1.00  0.00    -0.224 N 
ATOM     34  H2  UNL     1      -7.925   4.475 -10.123  1.00  0.00     0.177 HD
BRANCH  33  35
HETATM   35  C6  UNL     1      -6.981   4.957 -11.979  1.00  0.00     0.164 C 
BRANCH  35  36
HETATM   36  C7  UNL     1      -6.890   6.421 -11.617  1.00  0.00     0.184 C 
BRANCH  36  37
HETATM   37  O1  UNL     1      -6.576   7.149 -12.763  1.00  0.00    -0.399 OA
ATOM     38  H1  UNL     1      -7.097   7.943 -12.775  1.00  0.00     0.209 HD
ENDBRANCH  36  37
ENDBRANCH  35  36
ENDBRANCH  33  35
ENDBRANCH   2  33
TORSDOF 10
ENDMDL
MODEL 4
REMARK VINA RESULT: -6.593480592      2.687      6.216
REMARK  10 active torsions:
REMARK  status: ('A' for Active; 'I' for Inactive)
REMARK    1  A    between atoms: C2_2  and  C3_3 
REMARK    2  A    between atoms: C3_3  and  C4_4 
REMARK    3  A    between atoms: C4_4  and  N1_5 
REMARK    4  A    between atoms: C5_6  and  N2_7 
REMARK    5  A    between atoms: N2_7  and  C6_9 
REMARK    6  A    between atoms: C6_9  and  C7_10 
REMARK    7  A    between atoms: C7_10  and  O1_11 
REMARK    8  A    between atoms: C12_22  and  N6_23 
REMARK    9  A    between atoms: N6_23  and  C13_25 
REMARK   10  A    between atoms: C13_25  and  C14_26 
ROOT
HETATM    1  N1  UNL     1     -12.270   2.643 -10.361  1.00  0.00    -0.167 N 
HETATM    2  C5  UNL     1     -11.600   3.747  -9.941  1.00  0.00     0.683 A 
HETATM    3  N3  UNL     1     -12.257   4.741  -9.348  1.00  0.00    -0.174 N 
ATOM      4  H3  UNL     1     -11.738   5.563  -9.039  1.00  0.00     0.186 HD
HETATM    5  C8  UNL     1     -13.581   4.695  -9.145  1.00  0.00     0.152 A 
HETATM    6  C9  UNL     1     -14.269   3.581  -9.565  1.00  0.00     0.072 A 
HETATM    7  C10 UNL     1     -15.579   3.831  -9.221  1.00  0.00     0.126 A 
HETATM    8  N4  UNL     1     -15.668   5.051  -8.617  1.00  0.00    -0.307 N 
ATOM      9  H4  UNL     1     -16.517   5.492  -8.261  1.00  0.00     0.186 HD
HETATM   10  N5  UNL     1     -14.453   5.552  -8.583  1.00  0.00    -0.280 N 
HETATM   11  C11 UNL     1     -14.033   6.845  -8.031  1.00  0.00     0.179 C 
HETATM   12  C12 UNL     1     -13.603   2.511 -10.195  1.00  0.00     0.139 A 
ENDROOT
BRANCH  12  13
HETATM   13  N6  UNL     1     -14.245   1.514 -10.525  1.00  0.00    -0.347 N 
ATOM     14  H6  UNL     1     -14.238   1.480 -11.545  1.00  0.00     0.167 HD
BRANCH  13  15
HETATM   15  C13 UNL     1     -14.963   0.432 -10.094  1.00  0.00     0.138 C 
BRANCH  15  16
HETATM   16  C14 UNL     1     -14.438  -0.204  -8.832  1.00  0.00     0.121 A 
HETATM   17  N7  UNL     1     -15.211  -0.616  -7.827  1.00  0.00    -0.343 N 
HETATM   18  C15 UNL     1     -14.452  -1.129  -6.867  1.00  0.00     0.035 A 
ATOM     19  H7  UNL     1     -16.228  -0.549  -7.800  1.00  0.00     0.167 HD
HETATM   20  C16 UNL     1     -13.137  -1.030  -7.301  1.00  0.00     0.035 A 
HETATM   21  C21 UNL     1     -14.955  -1.694  -5.581  1.00  0.00     0.089 C 
HETATM   22  N8  UNL     1     -13.175  -0.463  -8.498  1.00  0.00    -0.343 N 
HETATM   23  C17 UNL     1     -11.938  -1.486  -6.537  1.00  0.00     0.089 C 
ATOM     24  H8  UNL     1     -12.360  -0.257  -9.076  1.00  0.00     0.167 HD
HETATM   25  C18 UNL     1     -12.130  -1.269  -5.060  1.00  0.00     0.278 C 
HETATM   26  N9  UNL     1     -12.879  -2.298  -4.411  1.00  0.00     0.084 N 
HETATM   27  C19 UNL     1     -13.409  -1.802  -3.146  1.00  0.00     0.309 C 
HETATM   28  C20 UNL     1     -13.987  -2.801  -5.170  1.00  0.00     0.278 C 
ENDBRANCH  15  16
ENDBRANCH  13  15
ENDBRANCH  12  13
BRANCH   1  29
HETATM   29  C4  UNL     1     -11.475   1.609 -10.944  1.00  0.00     0.149 C 
BRANCH  29  30
HETATM   30  C3  UNL     1     -11.361   1.569 -12.410  1.00  0.00     0.020 C 
BRANCH  30  31
HETATM   31  C2  UNL     1     -10.059   1.552 -13.088  1.00  0.00    -0.003 C 
HETATM   32  C1  UNL     1      -9.526   2.908 -13.476  1.00  0.00     0.005 C 
ENDBRANCH  30  31
ENDBRANCH  29  30
ENDBRANCH   1  29
BRANCH   2  33
HETATM   33  N2  UNL     1     -10.323   3.859 -10.106  1.00  0.00    -0.224 N 
ATOM     34  H2  UNL     1      -9.949   3.995 -11.045  1.00  0.00     0.177 HD
BRANCH  33  35
HETATM   35  C6  UNL     1      -9.419   3.794  -8.985  1.00  0.00     0.164 C 
BRANCH  35  36
HETATM   36  C7  UNL     1      -8.026   4.234  -9.368  1.00  0.00     0.184 C 
BRANCH  36  37
HETATM   37  O1  UNL     1      -7.970   5.627  -9.337  1.00  0.00    -0.399 OA
ATOM     38  H1  UNL     1      -7.882   5.951 -10.226  1.00  0.00     0.209 HD
ENDBRANCH  36  37
ENDBRANCH  35  36
ENDBRANCH  33  35
ENDBRANCH   2  33
TORSDOF 10
ENDMDL
MODEL 5
REMARK VINA RESULT: -6.551842579      2.626      6.262
REMARK  10 active torsions:
REMARK  status: ('A' for Active; 'I' for Inactive)
REMARK    1  A    between atoms: C2_2  and  C3_3 
REMARK    2  A    between atoms: C3_3  and  C4_4 
REMARK    3  A    between atoms: C4_4  and  N1_5 
REMARK    4  A    between atoms: C5_6  and  N2_7 
REMARK    5  A    between atoms: N2_7  and  C6_9 
REMARK    6  A    between atoms: C6_9  and  C7_10 
REMARK    7  A    between atoms: C7_10  and  O1_11 
REMARK    8  A    between atoms: C12_22  and  N6_23 
REMARK    9  A    between atoms: N6_23  and  C13_25 
REMARK   10  A    between atoms: C13_25  and  C14_26 
ROOT
HETATM    1  N1  UNL     1     -12.188   2.637 -10.447  1.00  0.00    -0.167 N 
HETATM    2  C5  UNL     1     -11.532   3.712  -9.938  1.00  0.00     0.683 A 
HETATM    3  N3  UNL     1     -12.211   4.680  -9.327  1.00  0.00    -0.174 N 
ATOM      4  H3  UNL     1     -11.702   5.480  -8.951  1.00  0.00     0.186 HD
HETATM    5  C8  UNL     1     -13.544   4.636  -9.192  1.00  0.00     0.152 A 
HETATM    6  C9  UNL     1     -14.218   3.551  -9.703  1.00  0.00     0.072 A 
HETATM    7  C10 UNL     1     -15.541   3.796  -9.412  1.00  0.00     0.126 A 
HETATM    8  N4  UNL     1     -15.652   4.984  -8.751  1.00  0.00    -0.307 N 
ATOM      9  H4  UNL     1     -16.514   5.414  -8.414  1.00  0.00     0.186 HD
HETATM   10  N5  UNL     1     -14.436   5.471  -8.631  1.00  0.00    -0.280 N 
HETATM   11  C11 UNL     1     -14.035   6.730  -7.993  1.00  0.00     0.179 C 
HETATM   12  C12 UNL     1     -13.528   2.509 -10.354  1.00  0.00     0.139 A 
ENDROOT
BRANCH  12  13
HETATM   13  N6  UNL     1     -14.159   1.536 -10.767  1.00  0.00    -0.347 N 
ATOM     14  H6  UNL     1     -14.217   1.627 -11.781  1.00  0.00     0.167 HD
BRANCH  13  15
HETATM   15  C13 UNL     1     -14.815   0.383 -10.431  1.00  0.00     0.138 C 
BRANCH  15  16
HETATM   16  C14 UNL     1     -14.456  -0.168  -9.075  1.00  0.00     0.121 A 
HETATM   17  N7  UNL     1     -13.209  -0.428  -8.683  1.00  0.00    -0.343 N 
HETATM   18  C15 UNL     1     -13.225  -0.902  -7.443  1.00  0.00     0.035 A 
ATOM     19  H7  UNL     1     -12.371  -0.286  -9.247  1.00  0.00     0.167 HD
HETATM   20  C16 UNL     1     -14.555  -0.935  -7.045  1.00  0.00     0.035 A 
HETATM   21  C21 UNL     1     -12.021  -1.308  -6.661  1.00  0.00     0.089 C 
HETATM   22  N8  UNL     1     -15.267  -0.481  -8.066  1.00  0.00    -0.343 N 
HETATM   23  C17 UNL     1     -15.047  -1.400  -5.715  1.00  0.00     0.089 C 
ATOM     24  H8  UNL     1     -16.282  -0.386  -8.077  1.00  0.00     0.167 HD
HETATM   25  C18 UNL     1     -14.210  -2.541  -5.202  1.00  0.00     0.278 C 
HETATM   26  N9  UNL     1     -12.999  -2.135  -4.562  1.00  0.00     0.084 N 
HETATM   27  C19 UNL     1     -12.059  -3.250  -4.525  1.00  0.00     0.309 C 
HETATM   28  C20 UNL     1     -12.330  -1.034  -5.191  1.00  0.00     0.278 C 
ENDBRANCH  15  16
ENDBRANCH  13  15
ENDBRANCH  12  13
BRANCH   1  29
HETATM   29  C4  UNL     1     -11.371   1.627 -11.043  1.00  0.00     0.149 C 
BRANCH  29  30
HETATM   30  C3  UNL     1     -11.207   1.645 -12.504  1.00  0.00     0.020 C 
BRANCH  30  31
HETATM   31  C2  UNL     1      -9.884   1.663 -13.138  1.00  0.00    -0.003 C 
HETATM   32  C1  UNL     1      -9.367   3.034 -13.494  1.00  0.00     0.005 C 
ENDBRANCH  30  31
ENDBRANCH  29  30
ENDBRANCH   1  29
BRANCH   2  33
HETATM   33  N2  UNL     1     -10.248   3.820 -10.033  1.00  0.00    -0.224 N 
ATOM     34  H2  UNL     1      -9.821   3.929 -10.953  1.00  0.00     0.177 HD
BRANCH  33  35
HETATM   35  C6  UNL     1      -9.409   3.788  -8.862  1.00  0.00     0.164 C 
BRANCH  35  36
HETATM   36  C7  UNL     1      -8.000   4.237  -9.174  1.00  0.00     0.184 C 
BRANCH  36  37
HETATM   37  O1  UNL     1      -7.992   5.624  -9.317  1.00  0.00    -0.399 OA
ATOM     38  H1  UNL     1      -7.251   5.872  -9.858  1.00  0.00     0.209 HD
ENDBRANCH  36  37
ENDBRANCH  35  36
ENDBRANCH  33  35
ENDBRANCH   2  33
TORSDOF 10
ENDMDL
