MODEL 1
REMARK VINA RESULT: -6.866768328      0.000      0.000
REMARK  9 active torsions:
REMARK  status: ('A' for Active; 'I' for Inactive)
REMARK    1  A    between atoms: C2_2  and  N1_3 
REMARK    2  A    between atoms: N1_3  and  C3_5 
REMARK    3  A    between atoms: C9_11  and  C10_12 
REMARK    4  A    between atoms: C14_18  and  N2_19 
REMARK    5  A    between atoms: C17_22  and  O3_23 
REMARK    6  A    between atoms: O3_23  and  C18_24 
REMARK    7  A    between atoms: C18_24  and  C19_25 
REMARK    8  A    between atoms: C19_25  and  O4_26 
REMARK    9  A    between atoms: C19_25  and  C20_28 
ROOT
HETATM    1  C3  UNL     1     -12.956   2.240  -8.858  1.00  0.00     0.112 C 
HETATM    2  C4  UNL     1     -12.390   0.938  -9.128  1.00  0.00     0.016 C 
HETATM    3  C5  UNL     1     -10.926   1.215  -9.384  1.00  0.00     0.050 C 
HETATM    4  C6  UNL     1     -10.549   1.773  -8.082  1.00  0.00     0.119 C 
HETATM    5  C7  UNL     1      -9.378   0.977  -7.681  1.00  0.00     0.051 C 
HETATM    6  C8  UNL     1      -9.966  -0.048  -6.814  1.00  0.00     0.034 A 
HETATM    7  C9  UNL     1     -10.536  -1.308  -6.821  1.00  0.00     0.030 A 
HETATM    8  C12 UNL     1     -11.388  -0.221  -7.059  1.00  0.00     0.105 A 
HETATM    9  C13 UNL     1     -12.250  -0.174  -8.161  1.00  0.00     0.049 C 
HETATM   10  O1  UNL     1     -11.851   0.865  -6.348  1.00  0.00    -0.228 OA
HETATM   11  O2  UNL     1     -11.368   1.799  -6.995  1.00  0.00    -0.227 OA
HETATM   12  C14 UNL     1     -10.573   3.217  -8.312  1.00  0.00     0.147 C 
HETATM   13  C17 UNL     1     -12.073   3.475  -8.722  1.00  0.00     0.169 C 
ENDROOT
BRANCH  13  14
HETATM   14  O3  UNL     1     -12.597   4.418  -8.061  1.00  0.00    -0.379 OA
BRANCH  14  15
HETATM   15  C18 UNL     1     -13.119   5.316  -7.406  1.00  0.00     0.204 C 
BRANCH  15  16
HETATM   16  C19 UNL     1     -13.947   6.271  -8.310  1.00  0.00     0.198 C 
BRANCH  16  17
HETATM   17  O4  UNL     1     -13.665   7.580  -8.034  1.00  0.00    -0.389 OA
ATOM     18  H4  UNL     1     -14.411   8.137  -8.218  1.00  0.00     0.210 HD
ENDBRANCH  16  17
BRANCH  16  19
HETATM   19  C20 UNL     1     -15.408   5.897  -8.233  1.00  0.00     0.352 C 
HETATM   20  N3  UNL     1     -15.917   5.412  -9.480  1.00  0.00    -0.044 N 
HETATM   21  C21 UNL     1     -16.998   6.305  -9.864  1.00  0.00     0.261 C 
ATOM     22  H32 UNL     1     -15.199   5.316 -10.198  1.00  0.00     0.280 HD
ATOM     23  H31 UNL     1     -16.196   4.432  -9.447  1.00  0.00     0.280 HD
HETATM   24  C22 UNL     1     -17.319   7.012  -8.563  1.00  0.00     0.198 C 
HETATM   25  O5  UNL     1     -16.116   7.029  -7.865  1.00  0.00    -0.355 OA
ENDBRANCH  16  19
ENDBRANCH  15  16
ENDBRANCH  14  15
ENDBRANCH  13  14
BRANCH   1  26
HETATM   26  N1  UNL     1     -13.921   2.554  -9.895  1.00  0.00    -0.414 N 
ATOM     27  H1  UNL     1     -13.796   3.399 -10.453  1.00  0.00     0.153 HD
BRANCH  26  28
HETATM   28  C2  UNL     1     -15.002   1.736 -10.143  1.00  0.00     0.110 C 
HETATM   29  C1  UNL     1     -15.926   1.818  -8.902  1.00  0.00     0.026 C 
ENDBRANCH  26  28
ENDBRANCH   1  26
BRANCH  12  30
HETATM   30  N2  UNL     1      -9.630   3.866  -9.051  1.00  0.00    -0.411 N 
HETATM   31  C15 UNL     1      -9.613   4.291 -10.359  1.00  0.00     0.143 C 
HETATM   32  C16 UNL     1      -8.379   4.214  -8.400  1.00  0.00     0.143 C 
ENDBRANCH  12  30
BRANCH   7  33
HETATM   33  C10 UNL     1     -10.233  -2.332  -7.876  1.00  0.00     0.004 C 
HETATM   34  C11 UNL     1     -10.934  -3.657  -7.575  1.00  0.00     0.005 C 
ENDBRANCH   7  33
TORSDOF 9
ENDMDL
MODEL 2
REMARK VINA RESULT: -6.719935642      2.152      4.433
REMARK  9 active torsions:
REMARK  status: ('A' for Active; 'I' for Inactive)
REMARK    1  A    between atoms: C2_2  and  N1_3 
REMARK    2  A    between atoms: N1_3  and  C3_5 
REMARK    3  A    between atoms: C9_11  and  C10_12 
REMARK    4  A    between atoms: C14_18  and  N2_19 
REMARK    5  A    between atoms: C17_22  and  O3_23 
REMARK    6  A    between atoms: O3_23  and  C18_24 
REMARK    7  A    between atoms: C18_24  and  C19_25 
REMARK    8  A    between atoms: C19_25  and  O4_26 
REMARK    9  A    between atoms: C19_25  and  C20_28 
ROOT
HETATM    1  C3  UNL     1     -11.807   1.801  -8.352  1.00  0.00     0.112 C 
HETATM    2  C4  UNL     1     -10.382   1.759  -8.585  1.00  0.00     0.016 C 
HETATM    3  C5  UNL     1     -10.250   1.233  -9.996  1.00  0.00     0.050 C 
HETATM    4  C6  UNL     1     -10.943   2.300 -10.723  1.00  0.00     0.119 C 
HETATM    5  C7  UNL     1      -9.987   2.696 -11.769  1.00  0.00     0.051 C 
HETATM    6  C8  UNL     1      -9.316   3.854 -11.169  1.00  0.00     0.034 A 
HETATM    7  C9  UNL     1      -8.250   4.223 -10.370  1.00  0.00     0.030 A 
HETATM    8  C12 UNL     1      -9.440   3.868  -9.721  1.00  0.00     0.105 A 
HETATM    9  C13 UNL     1      -9.476   2.926  -8.688  1.00  0.00     0.049 C 
HETATM   10  O1  UNL     1     -10.721   4.370  -9.631  1.00  0.00    -0.228 OA
HETATM   11  O2  UNL     1     -11.372   3.460 -10.155  1.00  0.00    -0.227 OA
HETATM   12  C14 UNL     1     -12.281   1.748 -10.943  1.00  0.00     0.147 C 
HETATM   13  C17 UNL     1     -12.802   1.516  -9.473  1.00  0.00     0.169 C 
ENDROOT
BRANCH  13  14
HETATM   14  O3  UNL     1     -13.951   2.010  -9.285  1.00  0.00    -0.379 OA
BRANCH  14  15
HETATM   15  C18 UNL     1     -15.058   2.512  -9.113  1.00  0.00     0.204 C 
BRANCH  15  16
HETATM   16  C19 UNL     1     -15.080   4.003  -9.554  1.00  0.00     0.198 C 
BRANCH  16  17
HETATM   17  O4  UNL     1     -13.899   4.623  -9.257  1.00  0.00    -0.389 OA
ATOM     18  H4  UNL     1     -13.311   4.614 -10.003  1.00  0.00     0.210 HD
ENDBRANCH  16  17
BRANCH  16  19
HETATM   19  C20 UNL     1     -16.315   4.672  -9.001  1.00  0.00     0.352 C 
HETATM   20  N3  UNL     1     -17.059   5.369 -10.007  1.00  0.00    -0.044 N 
HETATM   21  C21 UNL     1     -17.104   6.764  -9.600  1.00  0.00     0.261 C 
ATOM     22  H32 UNL     1     -16.687   5.236 -10.948  1.00  0.00     0.280 HD
ATOM     23  H31 UNL     1     -17.980   4.968 -10.177  1.00  0.00     0.280 HD
HETATM   24  C22 UNL     1     -16.735   6.691  -8.132  1.00  0.00     0.198 C 
HETATM   25  O5  UNL     1     -15.910   5.574  -8.031  1.00  0.00    -0.355 OA
ENDBRANCH  16  19
ENDBRANCH  15  16
ENDBRANCH  14  15
ENDBRANCH  13  14
BRANCH   1  26
HETATM   26  N1  UNL     1     -12.134   0.874  -7.286  1.00  0.00    -0.414 N 
ATOM     27  H1  UNL     1     -13.114   0.705  -7.055  1.00  0.00     0.153 HD
BRANCH  26  28
HETATM   28  C2  UNL     1     -11.151   0.216  -6.579  1.00  0.00     0.110 C 
HETATM   29  C1  UNL     1     -11.863  -0.646  -5.507  1.00  0.00     0.026 C 
ENDBRANCH  26  28
ENDBRANCH   1  26
BRANCH  12  30
HETATM   30  N2  UNL     1     -12.533   0.749 -11.832  1.00  0.00    -0.411 N 
HETATM   31  C15 UNL     1     -12.482   0.699 -13.206  1.00  0.00     0.143 C 
HETATM   32  C16 UNL     1     -12.933  -0.544 -11.306  1.00  0.00     0.143 C 
ENDBRANCH  12  30
BRANCH   7  33
HETATM   33  C10 UNL     1      -7.000   3.401 -10.252  1.00  0.00     0.004 C 
HETATM   34  C11 UNL     1      -6.135   3.530 -11.507  1.00  0.00     0.005 C 
ENDBRANCH   7  33
TORSDOF 9
ENDMDL
MODEL 3
REMARK VINA RESULT: -6.496763803      2.291      4.145
REMARK  9 active torsions:
REMARK  status: ('A' for Active; 'I' for Inactive)
REMARK    1  A    between atoms: C2_2  and  N1_3 
REMARK    2  A    between atoms: N1_3  and  C3_5 
REMARK    3  A    between atoms: C9_11  and  C10_12 
REMARK    4  A    between atoms: C14_18  and  N2_19 
REMARK    5  A    between atoms: C17_22  and  O3_23 
REMARK    6  A    between atoms: O3_23  and  C18_24 
REMARK    7  A    between atoms: C18_24  and  C19_25 
REMARK    8  A    between atoms: C19_25  and  O4_26 
REMARK    9  A    between atoms: C19_25  and  C20_28 
ROOT
HETATM    1  C3  UNL     1     -13.914   1.105  -8.689  1.00  0.00     0.112 C 
HETATM    2  C4  UNL     1     -12.511   0.843  -8.460  1.00  0.00     0.016 C 
HETATM    3  C5  UNL     1     -11.933   0.667  -9.845  1.00  0.00     0.050 C 
HETATM    4  C6  UNL     1     -12.210   1.995 -10.399  1.00  0.00     0.119 C 
HETATM    5  C7  UNL     1     -10.908   2.442 -10.917  1.00  0.00     0.051 C 
HETATM    6  C8  UNL     1     -10.387   3.260  -9.817  1.00  0.00     0.034 A 
HETATM    7  C9  UNL     1      -9.649   3.203  -8.650  1.00  0.00     0.030 A 
HETATM    8  C12 UNL     1     -11.021   2.940  -8.550  1.00  0.00     0.105 A 
HETATM    9  C13 UNL     1     -11.519   1.797  -7.915  1.00  0.00     0.049 C 
HETATM   10  O1  UNL     1     -12.193   3.645  -8.724  1.00  0.00    -0.228 OA
HETATM   11  O2  UNL     1     -12.698   3.039  -9.674  1.00  0.00    -0.227 OA
HETATM   12  C14 UNL     1     -13.427   1.789 -11.185  1.00  0.00     0.147 C 
HETATM   13  C17 UNL     1     -14.461   1.307 -10.098  1.00  0.00     0.169 C 
ENDROOT
BRANCH  13  14
HETATM   14  O3  UNL     1     -15.547   1.956 -10.145  1.00  0.00    -0.379 OA
BRANCH  14  15
HETATM   15  C18 UNL     1     -16.609   2.567 -10.205  1.00  0.00     0.204 C 
BRANCH  15  16
HETATM   16  C19 UNL     1     -16.740   3.596  -9.047  1.00  0.00     0.198 C 
BRANCH  16  17
HETATM   17  O4  UNL     1     -18.045   3.755  -8.674  1.00  0.00    -0.389 OA
ATOM     18  H4  UNL     1     -18.154   4.527  -8.132  1.00  0.00     0.210 HD
ENDBRANCH  16  17
BRANCH  16  19
HETATM   19  C20 UNL     1     -16.016   4.867  -9.419  1.00  0.00     0.352 C 
HETATM   20  N3  UNL     1     -14.686   4.916  -8.891  1.00  0.00    -0.044 N 
HETATM   21  C21 UNL     1     -14.622   6.087  -8.032  1.00  0.00     0.261 C 
ATOM     22  H32 UNL     1     -14.407   4.055  -8.420  1.00  0.00     0.280 HD
ATOM     23  H31 UNL     1     -13.966   4.906  -9.613  1.00  0.00     0.280 HD
HETATM   24  C22 UNL     1     -15.831   6.887  -8.474  1.00  0.00     0.198 C 
HETATM   25  O5  UNL     1     -16.743   5.932  -8.914  1.00  0.00    -0.355 OA
ENDBRANCH  16  19
ENDBRANCH  15  16
ENDBRANCH  14  15
ENDBRANCH  13  14
BRANCH   1  26
HETATM   26  N1  UNL     1     -14.692   0.026  -8.112  1.00  0.00    -0.414 N 
ATOM     27  H1  UNL     1     -15.698  -0.008  -8.278  1.00  0.00     0.153 HD
BRANCH  26  28
HETATM   28  C2  UNL     1     -14.101  -0.955  -7.344  1.00  0.00     0.110 C 
HETATM   29  C1  UNL     1     -15.106  -1.317  -6.221  1.00  0.00     0.026 C 
ENDBRANCH  26  28
ENDBRANCH   1  26
BRANCH  12  30
HETATM   30  N2  UNL     1     -13.439   1.110 -12.366  1.00  0.00    -0.411 N 
HETATM   31  C15 UNL     1     -12.651   0.096 -12.858  1.00  0.00     0.143 C 
HETATM   32  C16 UNL     1     -14.455   1.465 -13.342  1.00  0.00     0.143 C 
ENDBRANCH  12  30
BRANCH   7  33
HETATM   33  C10 UNL     1      -8.612   2.148  -8.395  1.00  0.00     0.004 C 
HETATM   34  C11 UNL     1      -7.219   2.637  -8.793  1.00  0.00     0.005 C 
ENDBRANCH   7  33
TORSDOF 9
ENDMDL
MODEL 4
REMARK VINA RESULT: -6.491975029      2.435      3.349
REMARK  9 active torsions:
REMARK  status: ('A' for Active; 'I' for Inactive)
REMARK    1  A    between atoms: C2_2  and  N1_3 
REMARK    2  A    between atoms: N1_3  and  C3_5 
REMARK    3  A    between atoms: C9_11  and  C10_12 
REMARK    4  A    between atoms: C14_18  and  N2_19 
REMARK    5  A    between atoms: C17_22  and  O3_23 
REMARK    6  A    between atoms: O3_23  and  C18_24 
REMARK    7  A    between atoms: C18_24  and  C19_25 
REMARK    8  A    between atoms: C19_25  and  O4_26 
REMARK    9  A    between atoms: C19_25  and  C20_28 
ROOT
HETATM    1  C3  UNL     1     -14.495   1.345 -11.103  1.00  0.00     0.112 C 
HETATM    2  C4  UNL     1     -13.306   0.694 -11.602  1.00  0.00     0.016 C 
HETATM    3  C5  UNL     1     -12.174   1.363 -10.855  1.00  0.00     0.050 C 
HETATM    4  C6  UNL     1     -12.529   0.989  -9.483  1.00  0.00     0.119 C 
HETATM    5  C7  UNL     1     -11.297   0.388  -8.949  1.00  0.00     0.051 C 
HETATM    6  C8  UNL     1     -11.522  -1.046  -9.155  1.00  0.00     0.034 A 
HETATM    7  C9  UNL     1     -11.358  -2.072 -10.067  1.00  0.00     0.030 A 
HETATM    8  C12 UNL     1     -12.523  -1.301 -10.177  1.00  0.00     0.105 A 
HETATM    9  C13 UNL     1     -12.924  -0.720 -11.384  1.00  0.00     0.049 C 
HETATM   10  O1  UNL     1     -13.652  -1.076  -9.418  1.00  0.00    -0.228 OA
HETATM   11  O2  UNL     1     -13.531   0.127  -9.160  1.00  0.00    -0.227 OA
HETATM   12  C14 UNL     1     -13.200   2.183  -8.969  1.00  0.00     0.147 C 
HETATM   13  C17 UNL     1     -14.430   2.333  -9.942  1.00  0.00     0.169 C 
ENDROOT
BRANCH  13  14
HETATM   14  O3  UNL     1     -15.522   2.476  -9.320  1.00  0.00    -0.379 OA
BRANCH  14  15
HETATM   15  C18 UNL     1     -16.569   2.615  -8.695  1.00  0.00     0.204 C 
BRANCH  15  16
HETATM   16  C19 UNL     1     -17.348   3.875  -9.165  1.00  0.00     0.198 C 
BRANCH  16  17
HETATM   17  O4  UNL     1     -16.958   4.257 -10.418  1.00  0.00    -0.389 OA
ATOM     18  H4  UNL     1     -17.330   5.100 -10.651  1.00  0.00     0.210 HD
ENDBRANCH  16  17
BRANCH  16  19
HETATM   19  C20 UNL     1     -17.257   4.948  -8.107  1.00  0.00     0.352 C 
HETATM   20  N3  UNL     1     -18.373   5.844  -8.136  1.00  0.00    -0.044 N 
HETATM   21  C21 UNL     1     -17.833   7.172  -8.380  1.00  0.00     0.261 C 
ATOM     22  H32 UNL     1     -19.091   5.572  -8.807  1.00  0.00     0.280 HD
ATOM     23  H31 UNL     1     -18.953   5.792  -7.300  1.00  0.00     0.280 HD
HETATM   24  C22 UNL     1     -16.366   6.999  -8.042  1.00  0.00     0.198 C 
HETATM   25  O5  UNL     1     -16.094   5.665  -8.330  1.00  0.00    -0.355 OA
ENDBRANCH  16  19
ENDBRANCH  15  16
ENDBRANCH  14  15
ENDBRANCH  13  14
BRANCH   1  26
HETATM   26  N1  UNL     1     -15.132   2.058 -12.195  1.00  0.00    -0.414 N 
ATOM     27  H1  UNL     1     -15.110   3.078 -12.205  1.00  0.00     0.153 HD
BRANCH  26  28
HETATM   28  C2  UNL     1     -15.765   1.386 -13.218  1.00  0.00     0.110 C 
HETATM   29  C1  UNL     1     -15.183   1.931 -14.546  1.00  0.00     0.026 C 
ENDBRANCH  26  28
ENDBRANCH   1  26
BRANCH  12  30
HETATM   30  N2  UNL     1     -12.535   3.332  -8.662  1.00  0.00    -0.411 N 
HETATM   31  C15 UNL     1     -11.538   3.609  -7.757  1.00  0.00     0.143 C 
HETATM   32  C16 UNL     1     -12.889   4.536  -9.393  1.00  0.00     0.143 C 
ENDBRANCH  12  30
BRANCH   7  33
HETATM   33  C10 UNL     1     -10.290  -2.059 -11.121  1.00  0.00     0.004 C 
HETATM   34  C11 UNL     1      -8.899  -2.184 -10.496  1.00  0.00     0.005 C 
ENDBRANCH   7  33
TORSDOF 9
ENDMDL
MODEL 5
REMARK VINA RESULT: -6.453312157      3.671      5.656
REMARK  9 active torsions:
REMARK  status: ('A' for Active; 'I' for Inactive)
REMARK    1  A    between atoms: C2_2  and  N1_3 
REMARK    2  A    between atoms: N1_3  and  C3_5 
REMARK    3  A    between atoms: C9_11  and  C10_12 
REMARK    4  A    between atoms: C14_18  and  N2_19 
REMARK    5  A    between atoms: C17_22  and  O3_23 
REMARK    6  A    between atoms: O3_23  and  C18_24 
REMARK    7  A    between atoms: C18_24  and  C19_25 
REMARK    8  A    between atoms: C19_25  and  O4_26 
REMARK    9  A    between atoms: C19_25  and  C20_28 
ROOT
HETATM    1  C3  UNL     1     -13.617   2.514 -10.217  1.00  0.00     0.112 C 
HETATM    2  C4  UNL     1     -12.847   2.949  -9.075  1.00  0.00     0.016 C 
HETATM    3  C5  UNL     1     -12.257   1.675  -8.515  1.00  0.00     0.050 C 
HETATM    4  C6  UNL     1     -11.443   1.257  -9.660  1.00  0.00     0.119 C 
HETATM    5  C7  UNL     1     -10.107   1.036  -9.084  1.00  0.00     0.051 C 
HETATM    6  C8  UNL     1      -9.426   2.305  -9.355  1.00  0.00     0.034 A 
HETATM    7  C9  UNL     1      -9.191   3.567  -8.839  1.00  0.00     0.030 A 
HETATM    8  C12 UNL     1     -10.363   3.391  -9.587  1.00  0.00     0.105 A 
HETATM    9  C13 UNL     1     -11.620   3.777  -9.108  1.00  0.00     0.049 C 
HETATM   10  O1  UNL     1     -10.684   3.107 -10.897  1.00  0.00    -0.228 OA
HETATM   11  O2  UNL     1     -11.245   2.013 -10.775  1.00  0.00    -0.227 OA
HETATM   12  C14 UNL     1     -12.275   0.250 -10.319  1.00  0.00     0.147 C 
HETATM   13  C17 UNL     1     -13.567   1.068 -10.702  1.00  0.00     0.169 C 
ENDROOT
BRANCH  13  14
HETATM   14  O3  UNL     1     -13.891   0.917 -11.915  1.00  0.00    -0.379 OA
BRANCH  14  15
HETATM   15  C18 UNL     1     -14.231   0.772 -13.086  1.00  0.00     0.204 C 
BRANCH  15  16
HETATM   16  C19 UNL     1     -15.167   1.923 -13.552  1.00  0.00     0.198 C 
BRANCH  16  17
HETATM   17  O4  UNL     1     -16.326   1.940 -12.828  1.00  0.00    -0.389 OA
ATOM     18  H4  UNL     1     -16.938   2.577 -13.176  1.00  0.00     0.210 HD
ENDBRANCH  16  17
BRANCH  16  19
HETATM   19  C20 UNL     1     -15.343   1.853 -15.049  1.00  0.00     0.352 C 
HETATM   20  N3  UNL     1     -15.253   3.138 -15.673  1.00  0.00    -0.044 N 
HETATM   21  C21 UNL     1     -16.522   3.364 -16.346  1.00  0.00     0.261 C 
ATOM     22  H32 UNL     1     -15.002   3.885 -15.025  1.00  0.00     0.280 HD
ATOM     23  H31 UNL     1     -14.447   3.231 -16.291  1.00  0.00     0.280 HD
HETATM   24  C22 UNL     1     -17.111   1.970 -16.416  1.00  0.00     0.198 C 
HETATM   25  O5  UNL     1     -16.592   1.313 -15.304  1.00  0.00    -0.355 OA
ENDBRANCH  16  19
ENDBRANCH  15  16
ENDBRANCH  14  15
ENDBRANCH  13  14
BRANCH   1  26
HETATM   26  N1  UNL     1     -15.018   2.803  -9.975  1.00  0.00    -0.414 N 
ATOM     27  H1  UNL     1     -15.729   2.180 -10.360  1.00  0.00     0.153 HD
BRANCH  26  28
HETATM   28  C2  UNL     1     -15.408   3.900  -9.237  1.00  0.00     0.110 C 
HETATM   29  C1  UNL     1     -16.903   3.699  -8.884  1.00  0.00     0.026 C 
ENDBRANCH  26  28
ENDBRANCH   1  26
BRANCH  12  30
HETATM   30  N2  UNL     1     -12.485  -0.992  -9.802  1.00  0.00    -0.411 N 
HETATM   31  C15 UNL     1     -12.951  -1.417  -8.579  1.00  0.00     0.143 C 
HETATM   32  C16 UNL     1     -12.189  -2.138 -10.643  1.00  0.00     0.143 C 
ENDBRANCH  12  30
BRANCH   7  33
HETATM   33  C10 UNL     1      -9.219   3.861  -7.368  1.00  0.00     0.004 C 
HETATM   34  C11 UNL     1      -8.078   4.801  -6.973  1.00  0.00     0.005 C 
ENDBRANCH   7  33
TORSDOF 9
ENDMDL
