MODEL 1
REMARK VINA RESULT: -8.030929531      0.000      0.000
REMARK  10 active torsions:
REMARK  status: ('A' for Active; 'I' for Inactive)
REMARK    1  A    between atoms: N1_2  and  C2_4 
REMARK    2  A    between atoms: C3_5  and  C4_6 
REMARK    3  A    between atoms: C6_10  and  N3_11 
REMARK    4  A    between atoms: C9_18  and  N5_19 
REMARK    5  A    between atoms: N5_19  and  C10_21 
REMARK    6  A    between atoms: C10_21  and  C11_22 
REMARK    7  A    between atoms: N7_29  and  C15_30 
REMARK    8  A    between atoms: C15_30  and  C16_31 
REMARK    9  A    between atoms: C16_31  and  C17_32 
REMARK   10  A    between atoms: C17_32  and  N8_33 
ROOT
HETATM    1  C2  UNL     1     -13.027   2.155 -10.475  1.00  0.00     0.132 A 
HETATM    2  C3  UNL     1     -12.684   3.220  -9.700  1.00  0.00     0.026 A 
HETATM    3  C8  UNL     1     -13.682   4.131  -9.297  1.00  0.00     0.065 A 
HETATM    4  C9  UNL     1     -14.989   3.964  -9.673  1.00  0.00     0.116 A 
HETATM    5  N6  UNL     1     -15.265   2.893 -10.440  1.00  0.00    -0.282 N 
ATOM      6  H6  UNL     1     -16.230   2.745 -10.734  1.00  0.00     0.189 HD
HETATM    7  N7  UNL     1     -14.360   2.033 -10.827  1.00  0.00    -0.274 N 
ENDROOT
BRANCH   2   8
HETATM    8  C4  UNL     1     -11.311   3.475  -9.320  1.00  0.00     0.010 A 
HETATM    9  C5  UNL     1     -10.951   3.239  -7.983  1.00  0.00     0.120 A 
HETATM   10  N2  UNL     1      -9.706   3.509  -7.567  1.00  0.00    -0.201 N 
HETATM   11  C6  UNL     1      -8.761   4.006  -8.384  1.00  0.00     0.675 A 
ATOM     12  H2  UNL     1      -9.465   3.331  -6.592  1.00  0.00     0.183 HD
HETATM   13  N4  UNL     1      -9.093   4.235  -9.657  1.00  0.00    -0.201 N 
HETATM   14  C7  UNL     1     -10.320   3.979 -10.108  1.00  0.00     0.120 A 
ATOM     15  H4  UNL     1      -8.394   4.612 -10.297  1.00  0.00     0.183 HD
BRANCH  11  16
HETATM   16  N3  UNL     1      -7.575   4.252  -7.937  1.00  0.00    -0.234 N 
ATOM     17  H32 UNL     1      -6.985   3.516  -7.549  1.00  0.00     0.174 HD
ATOM     18  H31 UNL     1      -7.200   5.200  -7.964  1.00  0.00     0.174 HD
ENDBRANCH  11  16
ENDBRANCH   2   8
BRANCH   1  19
HETATM   19  N1  UNL     1     -12.313   1.237 -10.881  1.00  0.00    -0.360 N 
HETATM   20  C1  UNL     1     -11.487   0.194 -10.562  1.00  0.00     0.120 C 
ATOM     21  H1  UNL     1     -12.356   1.269 -11.899  1.00  0.00     0.165 HD
ENDBRANCH   1  19
BRANCH   7  22
HETATM   22  C15 UNL     1     -14.809   0.922 -11.661  1.00  0.00     0.152 C 
BRANCH  22  23
HETATM   23  C16 UNL     1     -15.693   1.524 -12.723  1.00  0.00     0.039 C 
BRANCH  23  24
HETATM   24  C17 UNL     1     -15.579   0.717 -14.014  1.00  0.00     0.122 C 
BRANCH  24  25
HETATM   25  N8  UNL     1     -16.244   1.407 -15.104  1.00  0.00    -0.197 NA
HETATM   26  C18 UNL     1     -15.634   2.696 -15.364  1.00  0.00     0.120 C 
HETATM   27  C19 UNL     1     -16.452   3.445 -16.365  1.00  0.00     0.019 C 
HETATM   28  C20 UNL     1     -17.482   2.482 -16.954  1.00  0.00     0.029 C 
HETATM   29  C21 UNL     1     -16.686   1.235 -17.335  1.00  0.00     0.194 C 
HETATM   30  O2  UNL     1     -16.242   0.608 -16.197  1.00  0.00    -0.303 OA
ENDBRANCH  24  25
ENDBRANCH  23  24
ENDBRANCH  22  23
ENDBRANCH   7  22
BRANCH   4  31
HETATM   31  N5  UNL     1     -15.872   4.808  -9.293  1.00  0.00    -0.373 N 
ATOM     32  H5  UNL     1     -16.778   4.847  -9.760  1.00  0.00     0.161 HD
BRANCH  31  33
HETATM   33  C10 UNL     1     -15.582   5.707  -8.200  1.00  0.00     0.153 C 
BRANCH  33  34
HETATM   34  C11 UNL     1     -16.310   7.011  -8.449  1.00  0.00     0.139 C 
HETATM   35  C12 UNL     1     -17.194   6.828  -9.651  1.00  0.00     0.035 C 
HETATM   36  C13 UNL     1     -18.257   7.884  -9.403  1.00  0.00     0.029 C 
HETATM   37  C14 UNL     1     -17.944   8.352  -8.013  1.00  0.00     0.168 C 
HETATM   38  O1  UNL     1     -17.255   7.270  -7.449  1.00  0.00    -0.384 OA
ENDBRANCH  33  34
ENDBRANCH  31  33
ENDBRANCH   4  31
TORSDOF 10
ENDMDL
MODEL 2
REMARK VINA RESULT: -7.899387905      2.678      7.717
REMARK  10 active torsions:
REMARK  status: ('A' for Active; 'I' for Inactive)
REMARK    1  A    between atoms: N1_2  and  C2_4 
REMARK    2  A    between atoms: C3_5  and  C4_6 
REMARK    3  A    between atoms: C6_10  and  N3_11 
REMARK    4  A    between atoms: C9_18  and  N5_19 
REMARK    5  A    between atoms: N5_19  and  C10_21 
REMARK    6  A    between atoms: C10_21  and  C11_22 
REMARK    7  A    between atoms: N7_29  and  C15_30 
REMARK    8  A    between atoms: C15_30  and  C16_31 
REMARK    9  A    between atoms: C16_31  and  C17_32 
REMARK   10  A    between atoms: C17_32  and  N8_33 
ROOT
HETATM    1  C2  UNL     1     -14.069   4.167  -9.245  1.00  0.00     0.132 A 
HETATM    2  C3  UNL     1     -15.346   3.876  -9.617  1.00  0.00     0.026 A 
HETATM    3  C8  UNL     1     -15.580   2.802 -10.499  1.00  0.00     0.065 A 
HETATM    4  C9  UNL     1     -14.546   2.048 -10.991  1.00  0.00     0.116 A 
HETATM    5  N6  UNL     1     -13.308   2.386 -10.588  1.00  0.00    -0.282 N 
ATOM      6  H6  UNL     1     -12.520   1.841 -10.938  1.00  0.00     0.189 HD
HETATM    7  N7  UNL     1     -13.062   3.376  -9.770  1.00  0.00    -0.274 N 
ENDROOT
BRANCH   2   8
HETATM    8  C4  UNL     1     -16.470   4.673  -9.172  1.00  0.00     0.010 A 
HETATM    9  C5  UNL     1     -16.682   5.908  -9.805  1.00  0.00     0.120 A 
HETATM   10  N2  UNL     1     -17.676   6.709  -9.395  1.00  0.00    -0.201 N 
HETATM   11  C6  UNL     1     -18.500   6.380  -8.385  1.00  0.00     0.675 A 
ATOM     12  H2  UNL     1     -17.813   7.602  -9.867  1.00  0.00     0.183 HD
HETATM   13  N4  UNL     1     -18.307   5.208  -7.776  1.00  0.00    -0.201 N 
HETATM   14  C7  UNL     1     -17.329   4.385  -8.156  1.00  0.00     0.120 A 
ATOM     15  H4  UNL     1     -18.919   4.936  -7.007  1.00  0.00     0.183 HD
BRANCH  11  16
HETATM   16  N3  UNL     1     -19.444   7.185  -8.025  1.00  0.00    -0.234 N 
ATOM     17  H32 UNL     1     -20.125   7.547  -8.693  1.00  0.00     0.174 HD
ATOM     18  H31 UNL     1     -19.529   7.476  -7.051  1.00  0.00     0.174 HD
ENDBRANCH  11  16
ENDBRANCH   2   8
BRANCH   1  19
HETATM   19  N1  UNL     1     -13.675   5.026  -8.455  1.00  0.00    -0.360 N 
HETATM   20  C1  UNL     1     -13.770   6.319  -8.019  1.00  0.00     0.120 C 
ATOM     21  H1  UNL     1     -12.971   4.576  -7.871  1.00  0.00     0.165 HD
ENDBRANCH   1  19
BRANCH   7  22
HETATM   22  C15 UNL     1     -11.666   3.626  -9.425  1.00  0.00     0.152 C 
BRANCH  22  23
HETATM   23  C16 UNL     1     -11.057   2.278  -9.136  1.00  0.00     0.039 C 
BRANCH  23  24
HETATM   24  C17 UNL     1     -11.305   1.896  -7.680  1.00  0.00     0.122 C 
BRANCH  24  25
HETATM   25  N8  UNL     1     -11.861   0.557  -7.593  1.00  0.00    -0.197 NA
HETATM   26  C18 UNL     1     -11.844   0.066  -6.229  1.00  0.00     0.120 C 
HETATM   27  C19 UNL     1     -12.257  -1.370  -6.208  1.00  0.00     0.019 C 
HETATM   28  C20 UNL     1     -12.805  -1.727  -7.589  1.00  0.00     0.029 C 
HETATM   29  C21 UNL     1     -13.792  -0.611  -7.925  1.00  0.00     0.194 C 
HETATM   30  O2  UNL     1     -13.107   0.564  -8.122  1.00  0.00    -0.303 OA
ENDBRANCH  24  25
ENDBRANCH  23  24
ENDBRANCH  22  23
ENDBRANCH   7  22
BRANCH   4  31
HETATM   31  N5  UNL     1     -14.791   1.080 -11.791  1.00  0.00    -0.373 N 
ATOM     32  H5  UNL     1     -14.228   0.230 -11.754  1.00  0.00     0.161 HD
BRANCH  31  33
HETATM   33  C10 UNL     1     -15.866   1.196 -12.749  1.00  0.00     0.153 C 
BRANCH  33  34
HETATM   34  C11 UNL     1     -15.313   1.822 -14.013  1.00  0.00     0.139 C 
HETATM   35  C12 UNL     1     -15.288   0.766 -15.082  1.00  0.00     0.035 C 
HETATM   36  C13 UNL     1     -15.344   1.614 -16.340  1.00  0.00     0.029 C 
HETATM   37  C14 UNL     1     -15.608   2.990 -15.803  1.00  0.00     0.168 C 
HETATM   38  O1  UNL     1     -16.209   2.748 -14.561  1.00  0.00    -0.384 OA
ENDBRANCH  33  34
ENDBRANCH  31  33
ENDBRANCH   4  31
TORSDOF 10
ENDMDL
MODEL 3
REMARK VINA RESULT: -7.807505303      2.645      7.855
REMARK  10 active torsions:
REMARK  status: ('A' for Active; 'I' for Inactive)
REMARK    1  A    between atoms: N1_2  and  C2_4 
REMARK    2  A    between atoms: C3_5  and  C4_6 
REMARK    3  A    between atoms: C6_10  and  N3_11 
REMARK    4  A    between atoms: C9_18  and  N5_19 
REMARK    5  A    between atoms: N5_19  and  C10_21 
REMARK    6  A    between atoms: C10_21  and  C11_22 
REMARK    7  A    between atoms: N7_29  and  C15_30 
REMARK    8  A    between atoms: C15_30  and  C16_31 
REMARK    9  A    between atoms: C16_31  and  C17_32 
REMARK   10  A    between atoms: C17_32  and  N8_33 
ROOT
HETATM    1  C2  UNL     1     -14.584   4.647  -8.913  1.00  0.00     0.132 A 
HETATM    2  C3  UNL     1     -15.844   4.511  -9.408  1.00  0.00     0.026 A 
HETATM    3  C8  UNL     1     -16.157   3.386 -10.199  1.00  0.00     0.065 A 
HETATM    4  C9  UNL     1     -15.215   2.430 -10.479  1.00  0.00     0.116 A 
HETATM    5  N6  UNL     1     -13.988   2.623  -9.962  1.00  0.00    -0.282 N 
ATOM      6  H6  UNL     1     -13.268   1.927 -10.155  1.00  0.00     0.189 HD
HETATM    7  N7  UNL     1     -13.671   3.656  -9.226  1.00  0.00    -0.274 N 
ENDROOT
BRANCH   2   8
HETATM    8  C4  UNL     1     -16.862   5.517  -9.190  1.00  0.00     0.010 A 
HETATM    9  C5  UNL     1     -17.037   6.492 -10.185  1.00  0.00     0.120 A 
HETATM   10  N2  UNL     1     -17.929   7.477 -10.008  1.00  0.00    -0.201 N 
HETATM   11  C6  UNL     1     -18.683   7.579  -8.900  1.00  0.00     0.675 A 
ATOM     12  H2  UNL     1     -18.041   8.175 -10.743  1.00  0.00     0.183 HD
HETATM   13  N4  UNL     1     -18.525   6.657  -7.948  1.00  0.00    -0.201 N 
HETATM   14  C7  UNL     1     -17.648   5.664  -8.088  1.00  0.00     0.120 A 
ATOM     15  H4  UNL     1     -19.085   6.714  -7.098  1.00  0.00     0.183 HD
BRANCH  11  16
HETATM   16  N3  UNL     1     -19.530   8.547  -8.774  1.00  0.00    -0.234 N 
ATOM     17  H32 UNL     1     -20.533   8.401  -8.888  1.00  0.00     0.174 HD
ATOM     18  H31 UNL     1     -19.206   9.489  -8.555  1.00  0.00     0.174 HD
ENDBRANCH  11  16
ENDBRANCH   2   8
BRANCH   1  19
HETATM   19  N1  UNL     1     -14.140   5.526  -8.173  1.00  0.00    -0.360 N 
HETATM   20  C1  UNL     1     -13.936   6.862  -7.966  1.00  0.00     0.120 C 
ATOM     21  H1  UNL     1     -13.757   5.047  -7.358  1.00  0.00     0.165 HD
ENDBRANCH   1  19
BRANCH   7  22
HETATM   22  C15 UNL     1     -12.297   3.731  -8.739  1.00  0.00     0.152 C 
BRANCH  22  23
HETATM   23  C16 UNL     1     -11.413   3.462  -9.930  1.00  0.00     0.039 C 
BRANCH  23  24
HETATM   24  C17 UNL     1     -10.067   2.913  -9.467  1.00  0.00     0.122 C 
BRANCH  24  25
HETATM   25  N8  UNL     1      -8.981   3.556 -10.185  1.00  0.00    -0.197 NA
HETATM   26  C18 UNL     1      -9.206   3.526 -11.617  1.00  0.00     0.120 C 
HETATM   27  C19 UNL     1      -7.992   4.034 -12.325  1.00  0.00     0.019 C 
HETATM   28  C20 UNL     1      -7.058   4.652 -11.285  1.00  0.00     0.029 C 
HETATM   29  C21 UNL     1      -7.948   5.572 -10.450  1.00  0.00     0.194 C 
HETATM   30  O2  UNL     1      -8.828   4.816  -9.715  1.00  0.00    -0.303 OA
ENDBRANCH  24  25
ENDBRANCH  23  24
ENDBRANCH  22  23
ENDBRANCH   7  22
BRANCH   4  31
HETATM   31  N5  UNL     1     -15.529   1.422 -11.200  1.00  0.00    -0.373 N 
ATOM     32  H5  UNL     1     -16.479   1.051 -11.177  1.00  0.00     0.161 HD
BRANCH  31  33
HETATM   33  C10 UNL     1     -14.533   0.809 -12.049  1.00  0.00     0.153 C 
BRANCH  33  34
HETATM   34  C11 UNL     1     -14.587   1.478 -13.406  1.00  0.00     0.139 C 
HETATM   35  C12 UNL     1     -14.448   0.411 -14.456  1.00  0.00     0.035 C 
HETATM   36  C13 UNL     1     -15.126   1.071 -15.643  1.00  0.00     0.029 C 
HETATM   37  C14 UNL     1     -15.730   2.305 -15.039  1.00  0.00     0.168 C 
HETATM   38  O1  UNL     1     -15.866   1.974 -13.684  1.00  0.00    -0.384 OA
ENDBRANCH  33  34
ENDBRANCH  31  33
ENDBRANCH   4  31
TORSDOF 10
ENDMDL
MODEL 4
REMARK VINA RESULT: -7.796551538      4.129      6.369
REMARK  10 active torsions:
REMARK  status: ('A' for Active; 'I' for Inactive)
REMARK    1  A    between atoms: N1_2  and  C2_4 
REMARK    2  A    between atoms: C3_5  and  C4_6 
REMARK    3  A    between atoms: C6_10  and  N3_11 
REMARK    4  A    between atoms: C9_18  and  N5_19 
REMARK    5  A    between atoms: N5_19  and  C10_21 
REMARK    6  A    between atoms: C10_21  and  C11_22 
REMARK    7  A    between atoms: N7_29  and  C15_30 
REMARK    8  A    between atoms: C15_30  and  C16_31 
REMARK    9  A    between atoms: C16_31  and  C17_32 
REMARK   10  A    between atoms: C17_32  and  N8_33 
ROOT
HETATM    1  C2  UNL     1      -9.438   2.536  -9.074  1.00  0.00     0.132 A 
HETATM    2  C3  UNL     1      -9.771   3.577  -9.885  1.00  0.00     0.026 A 
HETATM    3  C8  UNL     1     -11.126   3.942 -10.018  1.00  0.00     0.065 A 
HETATM    4  C9  UNL     1     -12.113   3.267  -9.348  1.00  0.00     0.116 A 
HETATM    5  N6  UNL     1     -11.720   2.247  -8.563  1.00  0.00    -0.282 N 
ATOM      6  H6  UNL     1     -12.434   1.727  -8.052  1.00  0.00     0.189 HD
HETATM    7  N7  UNL     1     -10.471   1.888  -8.420  1.00  0.00    -0.274 N 
ENDROOT
BRANCH   2   8
HETATM    8  C4  UNL     1      -8.776   4.289 -10.659  1.00  0.00     0.010 A 
HETATM    9  C5  UNL     1      -8.144   5.387 -10.053  1.00  0.00     0.120 A 
HETATM   10  N2  UNL     1      -7.255   6.113 -10.744  1.00  0.00    -0.201 N 
HETATM   11  C6  UNL     1      -6.929   5.836 -12.019  1.00  0.00     0.675 A 
ATOM     12  H2  UNL     1      -6.807   6.907 -10.286  1.00  0.00     0.183 HD
HETATM   13  N4  UNL     1      -7.524   4.795 -12.604  1.00  0.00    -0.201 N 
HETATM   14  C7  UNL     1      -8.414   4.049 -11.950  1.00  0.00     0.120 A 
ATOM     15  H4  UNL     1      -7.294   4.565 -13.571  1.00  0.00     0.183 HD
BRANCH  11  16
HETATM   16  N3  UNL     1      -6.066   6.566 -12.645  1.00  0.00    -0.234 N 
ATOM     17  H32 UNL     1      -5.498   6.192 -13.406  1.00  0.00     0.174 HD
ATOM     18  H31 UNL     1      -5.935   7.544 -12.387  1.00  0.00     0.174 HD
ENDBRANCH  11  16
ENDBRANCH   2   8
BRANCH   1  19
HETATM   19  N1  UNL     1      -8.317   2.106  -8.796  1.00  0.00    -0.360 N 
HETATM   20  C1  UNL     1      -7.153   1.550  -9.250  1.00  0.00     0.120 C 
ATOM     21  H1  UNL     1      -8.212   2.210  -7.787  1.00  0.00     0.165 HD
ENDBRANCH   1  19
BRANCH   7  22
HETATM   22  C15 UNL     1     -10.198   0.759  -7.537  1.00  0.00     0.152 C 
BRANCH  22  23
HETATM   23  C16 UNL     1     -11.360   0.683  -6.579  1.00  0.00     0.039 C 
BRANCH  23  24
HETATM   24  C17 UNL     1     -11.404  -0.692  -5.920  1.00  0.00     0.122 C 
BRANCH  24  25
HETATM   25  N8  UNL     1     -12.777  -1.132  -5.754  1.00  0.00    -0.197 NA
HETATM   26  C18 UNL     1     -13.563  -0.871  -6.945  1.00  0.00     0.120 C 
HETATM   27  C19 UNL     1     -15.001  -1.172  -6.672  1.00  0.00     0.019 C 
HETATM   28  C20 UNL     1     -15.089  -1.899  -5.331  1.00  0.00     0.029 C 
HETATM   29  C21 UNL     1     -14.035  -3.003  -5.408  1.00  0.00     0.194 C 
HETATM   30  O2  UNL     1     -12.782  -2.442  -5.413  1.00  0.00    -0.303 OA
ENDBRANCH  24  25
ENDBRANCH  23  24
ENDBRANCH  22  23
ENDBRANCH   7  22
BRANCH   4  31
HETATM   31  N5  UNL     1     -13.334   3.620  -9.490  1.00  0.00    -0.373 N 
ATOM     32  H5  UNL     1     -13.984   3.023 -10.001  1.00  0.00     0.161 HD
BRANCH  31  33
HETATM   33  C10 UNL     1     -13.790   4.869  -8.925  1.00  0.00     0.153 C 
BRANCH  33  34
HETATM   34  C11 UNL     1     -15.288   4.965  -9.128  1.00  0.00     0.139 C 
HETATM   35  C12 UNL     1     -15.845   3.570  -9.148  1.00  0.00     0.035 C 
HETATM   36  C13 UNL     1     -17.282   3.816  -8.723  1.00  0.00     0.029 C 
HETATM   37  C14 UNL     1     -17.268   5.262  -8.323  1.00  0.00     0.168 C 
HETATM   38  O1  UNL     1     -15.925   5.501  -8.003  1.00  0.00    -0.384 OA
ENDBRANCH  33  34
ENDBRANCH  31  33
ENDBRANCH   4  31
TORSDOF 10
ENDMDL
MODEL 5
REMARK VINA RESULT: -7.718332343      4.060      7.916
REMARK  10 active torsions:
REMARK  status: ('A' for Active; 'I' for Inactive)
REMARK    1  A    between atoms: N1_2  and  C2_4 
REMARK    2  A    between atoms: C3_5  and  C4_6 
REMARK    3  A    between atoms: C6_10  and  N3_11 
REMARK    4  A    between atoms: C9_18  and  N5_19 
REMARK    5  A    between atoms: N5_19  and  C10_21 
REMARK    6  A    between atoms: C10_21  and  C11_22 
REMARK    7  A    between atoms: N7_29  and  C15_30 
REMARK    8  A    between atoms: C15_30  and  C16_31 
REMARK    9  A    between atoms: C16_31  and  C17_32 
REMARK   10  A    between atoms: C17_32  and  N8_33 
ROOT
HETATM    1  C2  UNL     1     -15.623   3.508  -9.465  1.00  0.00     0.132 A 
HETATM    2  C3  UNL     1     -15.199   4.785  -9.260  1.00  0.00     0.026 A 
HETATM    3  C8  UNL     1     -13.816   5.050  -9.186  1.00  0.00     0.065 A 
HETATM    4  C9  UNL     1     -12.893   4.045  -9.315  1.00  0.00     0.116 A 
HETATM    5  N6  UNL     1     -13.374   2.805  -9.515  1.00  0.00    -0.282 N 
ATOM      6  H6  UNL     1     -12.709   2.038  -9.614  1.00  0.00     0.189 HD
HETATM    7  N7  UNL     1     -14.651   2.531  -9.588  1.00  0.00    -0.274 N 
ENDROOT
BRANCH   2   8
HETATM    8  C4  UNL     1     -16.130   5.875  -9.062  1.00  0.00     0.010 A 
HETATM    9  C5  UNL     1     -16.298   6.359  -7.754  1.00  0.00     0.120 A 
HETATM   10  N2  UNL     1     -17.188   7.331  -7.508  1.00  0.00    -0.201 N 
HETATM   11  C6  UNL     1     -17.945   7.880  -8.474  1.00  0.00     0.675 A 
ATOM     12  H2  UNL     1     -17.295   7.667  -6.551  1.00  0.00     0.183 HD
HETATM   13  N4  UNL     1     -17.793   7.428  -9.721  1.00  0.00    -0.201 N 
HETATM   14  C7  UNL     1     -16.919   6.463 -10.004  1.00  0.00     0.120 A 
ATOM     15  H4  UNL     1     -18.356   7.829 -10.471  1.00  0.00     0.183 HD
BRANCH  11  16
HETATM   16  N3  UNL     1     -18.789   8.814  -8.188  1.00  0.00    -0.234 N 
ATOM     17  H32 UNL     1     -19.641   8.953  -8.732  1.00  0.00     0.174 HD
ATOM     18  H31 UNL     1     -18.619   9.439  -7.400  1.00  0.00     0.174 HD
ENDBRANCH  11  16
ENDBRANCH   2   8
BRANCH   1  19
HETATM   19  N1  UNL     1     -16.774   3.094  -9.606  1.00  0.00    -0.360 N 
HETATM   20  C1  UNL     1     -18.063   3.098  -9.146  1.00  0.00     0.120 C 
ATOM     21  H1  UNL     1     -16.761   2.479 -10.419  1.00  0.00     0.165 HD
ENDBRANCH   1  19
BRANCH   7  22
HETATM   22  C15 UNL     1     -15.023   1.137  -9.805  1.00  0.00     0.152 C 
BRANCH  22  23
HETATM   23  C16 UNL     1     -15.024   0.486  -8.445  1.00  0.00     0.039 C 
BRANCH  23  24
HETATM   24  C17 UNL     1     -13.771  -0.367  -8.275  1.00  0.00     0.122 C 
BRANCH  24  25
HETATM   25  N8  UNL     1     -13.804  -1.071  -7.005  1.00  0.00    -0.197 NA
HETATM   26  C18 UNL     1     -15.162  -1.217  -6.518  1.00  0.00     0.120 C 
HETATM   27  C19 UNL     1     -15.140  -1.784  -5.135  1.00  0.00     0.019 C 
HETATM   28  C20 UNL     1     -13.717  -2.256  -4.837  1.00  0.00     0.029 C 
HETATM   29  C21 UNL     1     -13.312  -3.085  -6.054  1.00  0.00     0.194 C 
HETATM   30  O2  UNL     1     -13.178  -2.263  -7.147  1.00  0.00    -0.303 OA
ENDBRANCH  24  25
ENDBRANCH  23  24
ENDBRANCH  22  23
ENDBRANCH   7  22
BRANCH   4  31
HETATM   31  N5  UNL     1     -11.645   4.316  -9.241  1.00  0.00    -0.373 N 
ATOM     32  H5  UNL     1     -11.319   5.273  -9.376  1.00  0.00     0.161 HD
BRANCH  31  33
HETATM   33  C10 UNL     1     -10.697   3.261  -8.966  1.00  0.00     0.153 C 
BRANCH  33  34
HETATM   34  C11 UNL     1      -9.392   3.601  -9.656  1.00  0.00     0.139 C 
HETATM   35  C12 UNL     1      -9.559   3.332 -11.125  1.00  0.00     0.035 C 
HETATM   36  C13 UNL     1      -8.513   4.258 -11.719  1.00  0.00     0.029 C 
HETATM   37  C14 UNL     1      -8.066   5.061 -10.532  1.00  0.00     0.168 C 
HETATM   38  O1  UNL     1      -9.154   4.980  -9.653  1.00  0.00    -0.384 OA
ENDBRANCH  33  34
ENDBRANCH  31  33
ENDBRANCH   4  31
TORSDOF 10
ENDMDL
