MODEL 1
REMARK VINA RESULT: -8.465472654      0.000      0.000
REMARK  10 active torsions:
REMARK  status: ('A' for Active; 'I' for Inactive)
REMARK    1  A    between atoms: C2_2  and  S1_5 
REMARK    2  A    between atoms: S1_5  and  C5_8 
REMARK    3  A    between atoms: C6_9  and  N1_10 
REMARK    4  A    between atoms: C11_17  and  N3_18 
REMARK    5  A    between atoms: N3_18  and  C12_20 
REMARK    6  A    between atoms: C12_20  and  C13_21 
REMARK    7  A    between atoms: C13_21  and  C14_22 
REMARK    8  A    between atoms: C14_22  and  N4_23 
REMARK    9  A    between atoms: C19_30  and  N6_31 
REMARK   10  A    between atoms: N6_31  and  N7_33 
ROOT
HETATM    1  C5  UNL     1     -22.127  11.099  -2.948  1.00  0.00     0.150 A 
HETATM    2  C6  UNL     1     -22.410  11.231  -4.261  1.00  0.00     0.144 A 
HETATM    3  N2  UNL     1     -21.713  10.493  -5.206  1.00  0.00    -0.175 N 
ATOM      4  H2  UNL     1     -21.953  10.613  -6.190  1.00  0.00     0.186 HD
HETATM    5  C11 UNL     1     -20.753   9.639  -4.890  1.00  0.00     0.681 A 
HETATM    6  N5  UNL     1     -20.451   9.493  -3.583  1.00  0.00    -0.174 N 
ATOM      7  H5  UNL     1     -19.715   8.843  -3.308  1.00  0.00     0.186 HD
HETATM    8  C19 UNL     1     -21.099  10.185  -2.644  1.00  0.00     0.160 A 
ENDROOT
BRANCH   5   9
HETATM    9  N3  UNL     1     -20.127   8.946  -5.787  1.00  0.00    -0.226 N 
ATOM     10  H3  UNL     1     -20.227   7.935  -5.704  1.00  0.00     0.177 HD
BRANCH   9  11
HETATM   11  C12 UNL     1     -19.327   9.384  -6.859  1.00  0.00     0.140 C 
BRANCH  11  12
HETATM   12  C13 UNL     1     -19.036   8.292  -7.898  1.00  0.00     0.050 C 
BRANCH  12  13
HETATM   13  C14 UNL     1     -17.561   7.951  -7.766  1.00  0.00     0.274 C 
BRANCH  13  14
HETATM   14  N4  UNL     1     -17.159   6.822  -8.541  1.00  0.00     0.088 N 
HETATM   15  C15 UNL     1     -17.674   5.566  -8.113  1.00  0.00     0.272 C 
HETATM   16  C16 UNL     1     -16.673   4.522  -8.502  1.00  0.00     0.032 C 
HETATM   17  C17 UNL     1     -15.372   5.279  -8.586  1.00  0.00     0.032 C 
HETATM   18  C18 UNL     1     -15.739   6.726  -8.599  1.00  0.00     0.272 C 
ENDBRANCH  13  14
ENDBRANCH  12  13
ENDBRANCH  11  12
ENDBRANCH   9  11
ENDBRANCH   5   9
BRANCH   2  19
HETATM   19  N1  UNL     1     -23.353  12.134  -4.802  1.00  0.00    -0.365 N 
HETATM   20  C7  UNL     1     -24.635  11.790  -5.361  1.00  0.00     0.124 C 
HETATM   21  C8  UNL     1     -25.512  12.992  -5.082  1.00  0.00     0.021 C 
HETATM   22  C9  UNL     1     -24.533  14.151  -5.161  1.00  0.00     0.021 C 
HETATM   23  C10 UNL     1     -23.164  13.554  -4.955  1.00  0.00     0.124 C 
ENDBRANCH   2  19
BRANCH   8  24
HETATM   24  N6  UNL     1     -20.773  10.055  -1.413  1.00  0.00    -0.290 N 
ATOM     25  H6  UNL     1     -21.413   9.608  -0.757  1.00  0.00     0.188 HD
BRANCH  24  26
HETATM   26  N7  UNL     1     -19.539  10.527  -0.976  1.00  0.00    -0.344 N 
ATOM     27  H72 UNL     1     -19.506  11.336  -0.356  1.00  0.00     0.176 HD
ATOM     28  H71 UNL     1     -18.684  10.060  -1.280  1.00  0.00     0.176 HD
ENDBRANCH  24  26
ENDBRANCH   8  24
BRANCH   1  29
HETATM   29  S1  UNL     1     -22.876  11.885  -1.646  1.00  0.00     0.190 S 
HETATM   30  O1  UNL     1     -22.046  11.627  -0.351  1.00  0.00    -0.222 OA
HETATM   31  O2  UNL     1     -22.815  13.410  -1.731  1.00  0.00    -0.222 OA
BRANCH  29  32
HETATM   32  C2  UNL     1     -24.524  11.490  -1.246  1.00  0.00     0.058 C 
HETATM   33  C1  UNL     1     -24.670  11.040   0.199  1.00  0.00     0.031 C 
HETATM   34  C3  UNL     1     -25.386  12.791  -1.320  1.00  0.00     0.031 C 
HETATM   35  C4  UNL     1     -25.230  10.527  -2.130  1.00  0.00     0.031 C 
ENDBRANCH  29  32
ENDBRANCH   1  29
TORSDOF 10
ENDMDL
MODEL 2
REMARK VINA RESULT: -8.252536637      1.423      2.008
REMARK  10 active torsions:
REMARK  status: ('A' for Active; 'I' for Inactive)
REMARK    1  A    between atoms: C2_2  and  S1_5 
REMARK    2  A    between atoms: S1_5  and  C5_8 
REMARK    3  A    between atoms: C6_9  and  N1_10 
REMARK    4  A    between atoms: C11_17  and  N3_18 
REMARK    5  A    between atoms: N3_18  and  C12_20 
REMARK    6  A    between atoms: C12_20  and  C13_21 
REMARK    7  A    between atoms: C13_21  and  C14_22 
REMARK    8  A    between atoms: C14_22  and  N4_23 
REMARK    9  A    between atoms: C19_30  and  N6_31 
REMARK   10  A    between atoms: N6_31  and  N7_33 
ROOT
HETATM    1  C5  UNL     1     -22.049  10.427  -3.985  1.00  0.00     0.150 A 
HETATM    2  C6  UNL     1     -22.284  10.972  -5.196  1.00  0.00     0.144 A 
HETATM    3  N2  UNL     1     -21.459  10.674  -6.271  1.00  0.00    -0.175 N 
ATOM      4  H2  UNL     1     -21.665  11.099  -7.174  1.00  0.00     0.186 HD
HETATM    5  C11 UNL     1     -20.417   9.864  -6.178  1.00  0.00     0.681 A 
HETATM    6  N5  UNL     1     -20.160   9.310  -4.974  1.00  0.00    -0.174 N 
ATOM      7  H5  UNL     1     -19.364   8.682  -4.870  1.00  0.00     0.186 HD
HETATM    8  C19 UNL     1     -20.931   9.571  -3.917  1.00  0.00     0.160 A 
ENDROOT
BRANCH   5   9
HETATM    9  N3  UNL     1     -19.669   9.585  -7.197  1.00  0.00    -0.226 N 
ATOM     10  H3  UNL     1     -19.332  10.392  -7.723  1.00  0.00     0.177 HD
BRANCH   9  11
HETATM   11  C12 UNL     1     -19.255   8.333  -7.687  1.00  0.00     0.140 C 
BRANCH  11  12
HETATM   12  C13 UNL     1     -17.729   8.161  -7.732  1.00  0.00     0.050 C 
BRANCH  12  13
HETATM   13  C14 UNL     1     -17.447   7.055  -8.734  1.00  0.00     0.274 C 
BRANCH  13  14
HETATM   14  N4  UNL     1     -16.438   6.138  -8.310  1.00  0.00     0.088 N 
HETATM   15  C15 UNL     1     -15.096   6.587  -8.457  1.00  0.00     0.272 C 
HETATM   16  C16 UNL     1     -14.245   5.373  -8.667  1.00  0.00     0.032 C 
HETATM   17  C17 UNL     1     -15.199   4.352  -9.233  1.00  0.00     0.032 C 
HETATM   18  C18 UNL     1     -16.569   4.891  -8.987  1.00  0.00     0.272 C 
ENDBRANCH  13  14
ENDBRANCH  12  13
ENDBRANCH  11  12
ENDBRANCH   9  11
ENDBRANCH   5   9
BRANCH   2  19
HETATM   19  N1  UNL     1     -23.304  11.907  -5.483  1.00  0.00    -0.365 N 
HETATM   20  C7  UNL     1     -24.597  11.608  -6.044  1.00  0.00     0.124 C 
HETATM   21  C8  UNL     1     -25.519  12.663  -5.468  1.00  0.00     0.021 C 
HETATM   22  C9  UNL     1     -24.609  13.873  -5.337  1.00  0.00     0.021 C 
HETATM   23  C10 UNL     1     -23.201  13.335  -5.330  1.00  0.00     0.124 C 
ENDBRANCH   2  19
BRANCH   8  24
HETATM   24  N6  UNL     1     -20.649   9.061  -2.777  1.00  0.00    -0.290 N 
ATOM     25  H6  UNL     1     -20.979   8.126  -2.538  1.00  0.00     0.188 HD
BRANCH  24  26
HETATM   26  N7  UNL     1     -19.890   9.790  -1.867  1.00  0.00    -0.344 N 
ATOM     27  H72 UNL     1     -18.938   9.491  -1.660  1.00  0.00     0.176 HD
ATOM     28  H71 UNL     1     -20.295  10.612  -1.418  1.00  0.00     0.176 HD
ENDBRANCH  24  26
ENDBRANCH   8  24
BRANCH   1  29
HETATM   29  S1  UNL     1     -22.948  10.642  -2.564  1.00  0.00     0.190 S 
HETATM   30  O1  UNL     1     -24.468  10.588  -2.911  1.00  0.00    -0.222 OA
HETATM   31  O2  UNL     1     -22.833   9.479  -1.580  1.00  0.00    -0.222 OA
BRANCH  29  32
HETATM   32  C2  UNL     1     -22.723  12.092  -1.625  1.00  0.00     0.058 C 
HETATM   33  C1  UNL     1     -24.024  12.850  -1.420  1.00  0.00     0.031 C 
HETATM   34  C3  UNL     1     -22.293  11.691  -0.176  1.00  0.00     0.031 C 
HETATM   35  C4  UNL     1     -21.672  13.040  -2.074  1.00  0.00     0.031 C 
ENDBRANCH  29  32
ENDBRANCH   1  29
TORSDOF 10
ENDMDL
MODEL 3
REMARK VINA RESULT: -8.194648826      1.779      3.750
REMARK  10 active torsions:
REMARK  status: ('A' for Active; 'I' for Inactive)
REMARK    1  A    between atoms: C2_2  and  S1_5 
REMARK    2  A    between atoms: S1_5  and  C5_8 
REMARK    3  A    between atoms: C6_9  and  N1_10 
REMARK    4  A    between atoms: C11_17  and  N3_18 
REMARK    5  A    between atoms: N3_18  and  C12_20 
REMARK    6  A    between atoms: C12_20  and  C13_21 
REMARK    7  A    between atoms: C13_21  and  C14_22 
REMARK    8  A    between atoms: C14_22  and  N4_23 
REMARK    9  A    between atoms: C19_30  and  N6_31 
REMARK   10  A    between atoms: N6_31  and  N7_33 
ROOT
HETATM    1  C5  UNL     1     -22.640  11.030  -4.287  1.00  0.00     0.150 A 
HETATM    2  C6  UNL     1     -21.455  10.802  -3.685  1.00  0.00     0.144 A 
HETATM    3  N2  UNL     1     -20.470  10.069  -4.330  1.00  0.00    -0.175 N 
ATOM      4  H2  UNL     1     -19.584   9.917  -3.849  1.00  0.00     0.186 HD
HETATM    5  C11 UNL     1     -20.627   9.558  -5.540  1.00  0.00     0.681 A 
HETATM    6  N5  UNL     1     -21.806   9.770  -6.161  1.00  0.00    -0.174 N 
ATOM      7  H5  UNL     1     -21.957   9.388  -7.094  1.00  0.00     0.186 HD
HETATM    8  C19 UNL     1     -22.778  10.471  -5.574  1.00  0.00     0.160 A 
ENDROOT
BRANCH   5   9
HETATM    9  N3  UNL     1     -19.688   8.892  -6.132  1.00  0.00    -0.226 N 
ATOM     10  H3  UNL     1     -19.214   8.198  -5.552  1.00  0.00     0.177 HD
BRANCH   9  11
HETATM   11  C12 UNL     1     -19.224   8.983  -7.458  1.00  0.00     0.140 C 
BRANCH  11  12
HETATM   12  C13 UNL     1     -17.772   8.517  -7.637  1.00  0.00     0.050 C 
BRANCH  12  13
HETATM   13  C14 UNL     1     -17.827   7.226  -8.436  1.00  0.00     0.274 C 
BRANCH  13  14
HETATM   14  N4  UNL     1     -16.845   6.266  -8.047  1.00  0.00     0.088 N 
HETATM   15  C15 UNL     1     -15.615   6.319  -8.760  1.00  0.00     0.272 C 
HETATM   16  C16 UNL     1     -15.050   4.932  -8.770  1.00  0.00     0.032 C 
HETATM   17  C17 UNL     1     -16.257   4.046  -8.596  1.00  0.00     0.032 C 
HETATM   18  C18 UNL     1     -17.363   4.942  -8.147  1.00  0.00     0.272 C 
ENDBRANCH  13  14
ENDBRANCH  12  13
ENDBRANCH  11  12
ENDBRANCH   9  11
ENDBRANCH   5   9
BRANCH   2  19
HETATM   19  N1  UNL     1     -21.119  11.208  -2.374  1.00  0.00    -0.365 N 
HETATM   20  C7  UNL     1     -21.052  10.359  -1.212  1.00  0.00     0.124 C 
HETATM   21  C8  UNL     1     -19.990  10.988  -0.336  1.00  0.00     0.021 C 
HETATM   22  C9  UNL     1     -20.144  12.471  -0.629  1.00  0.00     0.021 C 
HETATM   23  C10 UNL     1     -20.855  12.560  -1.955  1.00  0.00     0.124 C 
ENDBRANCH   2  19
BRANCH   8  24
HETATM   24  N6  UNL     1     -23.901  10.630  -6.168  1.00  0.00    -0.290 N 
ATOM     25  H6  UNL     1     -24.695  10.037  -5.930  1.00  0.00     0.188 HD
BRANCH  24  26
HETATM   26  N7  UNL     1     -24.030  11.619  -7.139  1.00  0.00    -0.344 N 
ATOM     27  H72 UNL     1     -24.408  11.372  -8.053  1.00  0.00     0.176 HD
ATOM     28  H71 UNL     1     -23.746  12.575  -6.925  1.00  0.00     0.176 HD
ENDBRANCH  24  26
ENDBRANCH   8  24
BRANCH   1  29
HETATM   29  S1  UNL     1     -23.953  11.916  -3.683  1.00  0.00     0.190 S 
HETATM   30  O1  UNL     1     -25.280  11.257  -4.171  1.00  0.00    -0.222 OA
HETATM   31  O2  UNL     1     -24.119  11.814  -2.167  1.00  0.00    -0.222 OA
BRANCH  29  32
HETATM   32  C2  UNL     1     -24.089  13.608  -4.070  1.00  0.00     0.058 C 
HETATM   33  C1  UNL     1     -24.039  14.486  -2.830  1.00  0.00     0.031 C 
HETATM   34  C3  UNL     1     -22.825  14.041  -4.883  1.00  0.00     0.031 C 
HETATM   35  C4  UNL     1     -25.235  14.026  -4.917  1.00  0.00     0.031 C 
ENDBRANCH  29  32
ENDBRANCH   1  29
TORSDOF 10
ENDMDL
MODEL 4
REMARK VINA RESULT: -8.097668272      1.550      3.483
REMARK  10 active torsions:
REMARK  status: ('A' for Active; 'I' for Inactive)
REMARK    1  A    between atoms: C2_2  and  S1_5 
REMARK    2  A    between atoms: S1_5  and  C5_8 
REMARK    3  A    between atoms: C6_9  and  N1_10 
REMARK    4  A    between atoms: C11_17  and  N3_18 
REMARK    5  A    between atoms: N3_18  and  C12_20 
REMARK    6  A    between atoms: C12_20  and  C13_21 
REMARK    7  A    between atoms: C13_21  and  C14_22 
REMARK    8  A    between atoms: C14_22  and  N4_23 
REMARK    9  A    between atoms: C19_30  and  N6_31 
REMARK   10  A    between atoms: N6_31  and  N7_33 
ROOT
HETATM    1  C5  UNL     1     -22.201  11.536  -4.282  1.00  0.00     0.150 A 
HETATM    2  C6  UNL     1     -21.200  10.888  -3.651  1.00  0.00     0.144 A 
HETATM    3  N2  UNL     1     -20.481   9.900  -4.307  1.00  0.00    -0.175 N 
ATOM      4  H2  UNL     1     -19.729   9.431  -3.804  1.00  0.00     0.186 HD
HETATM    5  C11 UNL     1     -20.726   9.538  -5.556  1.00  0.00     0.681 A 
HETATM    6  N5  UNL     1     -21.725  10.171  -6.207  1.00  0.00    -0.174 N 
ATOM      7  H5  UNL     1     -21.938   9.915  -7.170  1.00  0.00     0.186 HD
HETATM    8  C19 UNL     1     -22.439  11.127  -5.610  1.00  0.00     0.160 A 
ENDROOT
BRANCH   5   9
HETATM    9  N3  UNL     1     -20.031   8.626  -6.157  1.00  0.00    -0.226 N 
ATOM     10  H3  UNL     1     -19.760   7.832  -5.576  1.00  0.00     0.177 HD
BRANCH   9  11
HETATM   11  C12 UNL     1     -19.595   8.568  -7.493  1.00  0.00     0.140 C 
BRANCH  11  12
HETATM   12  C13 UNL     1     -18.067   8.517  -7.642  1.00  0.00     0.050 C 
BRANCH  12  13
HETATM   13  C14 UNL     1     -17.764   7.387  -8.611  1.00  0.00     0.274 C 
BRANCH  13  14
HETATM   14  N4  UNL     1     -16.836   6.427  -8.105  1.00  0.00     0.088 N 
HETATM   15  C15 UNL     1     -15.551   6.432  -8.715  1.00  0.00     0.272 C 
HETATM   16  C16 UNL     1     -15.014   5.037  -8.623  1.00  0.00     0.032 C 
HETATM   17  C17 UNL     1     -16.248   4.178  -8.516  1.00  0.00     0.032 C 
HETATM   18  C18 UNL     1     -17.370   5.109  -8.195  1.00  0.00     0.272 C 
ENDBRANCH  13  14
ENDBRANCH  12  13
ENDBRANCH  11  12
ENDBRANCH   9  11
ENDBRANCH   5   9
BRANCH   2  19
HETATM   19  N1  UNL     1     -20.829  11.084  -2.302  1.00  0.00    -0.365 N 
HETATM   20  C7  UNL     1     -19.561  11.582  -1.833  1.00  0.00     0.124 C 
HETATM   21  C8  UNL     1     -19.885  12.307  -0.544  1.00  0.00     0.021 C 
HETATM   22  C9  UNL     1     -21.045  11.501   0.015  1.00  0.00     0.021 C 
HETATM   23  C10 UNL     1     -21.631  10.750  -1.154  1.00  0.00     0.124 C 
ENDBRANCH   2  19
BRANCH   8  24
HETATM   24  N6  UNL     1     -23.404  11.690  -6.235  1.00  0.00    -0.290 N 
ATOM     25  H6  UNL     1     -24.369  11.515  -5.954  1.00  0.00     0.188 HD
BRANCH  24  26
HETATM   26  N7  UNL     1     -23.129  12.544  -7.299  1.00  0.00    -0.344 N 
ATOM     27  H72 UNL     1     -22.442  12.262  -7.999  1.00  0.00     0.176 HD
ATOM     28  H71 UNL     1     -23.614  13.438  -7.366  1.00  0.00     0.176 HD
ENDBRANCH  24  26
ENDBRANCH   8  24
BRANCH   1  29
HETATM   29  S1  UNL     1     -23.174  12.781  -3.668  1.00  0.00     0.190 S 
HETATM   30  O1  UNL     1     -22.339  13.627  -2.657  1.00  0.00    -0.222 OA
HETATM   31  O2  UNL     1     -23.540  13.845  -4.703  1.00  0.00    -0.222 OA
BRANCH  29  32
HETATM   32  C2  UNL     1     -24.655  12.378  -2.846  1.00  0.00     0.058 C 
HETATM   33  C1  UNL     1     -24.659  12.859  -1.404  1.00  0.00     0.031 C 
HETATM   34  C3  UNL     1     -25.829  13.171  -3.507  1.00  0.00     0.031 C 
HETATM   35  C4  UNL     1     -25.096  10.960  -2.888  1.00  0.00     0.031 C 
ENDBRANCH  29  32
ENDBRANCH   1  29
TORSDOF 10
ENDMDL
MODEL 5
REMARK VINA RESULT: -7.727056967      1.832      3.778
REMARK  10 active torsions:
REMARK  status: ('A' for Active; 'I' for Inactive)
REMARK    1  A    between atoms: C2_2  and  S1_5 
REMARK    2  A    between atoms: S1_5  and  C5_8 
REMARK    3  A    between atoms: C6_9  and  N1_10 
REMARK    4  A    between atoms: C11_17  and  N3_18 
REMARK    5  A    between atoms: N3_18  and  C12_20 
REMARK    6  A    between atoms: C12_20  and  C13_21 
REMARK    7  A    between atoms: C13_21  and  C14_22 
REMARK    8  A    between atoms: C14_22  and  N4_23 
REMARK    9  A    between atoms: C19_30  and  N6_31 
REMARK   10  A    between atoms: N6_31  and  N7_33 
ROOT
HETATM    1  C5  UNL     1     -23.246  11.144  -4.515  1.00  0.00     0.150 A 
HETATM    2  C6  UNL     1     -22.421  10.500  -3.664  1.00  0.00     0.144 A 
HETATM    3  N2  UNL     1     -21.244   9.930  -4.127  1.00  0.00    -0.175 N 
ATOM      4  H2  UNL     1     -20.640   9.452  -3.458  1.00  0.00     0.186 HD
HETATM    5  C11 UNL     1     -20.869   9.976  -5.394  1.00  0.00     0.681 A 
HETATM    6  N5  UNL     1     -21.681  10.612  -6.265  1.00  0.00    -0.174 N 
ATOM      7  H5  UNL     1     -21.420  10.664  -7.248  1.00  0.00     0.186 HD
HETATM    8  C19 UNL     1     -22.821  11.174  -5.858  1.00  0.00     0.160 A 
ENDROOT
BRANCH   5   9
HETATM    9  N3  UNL     1     -19.758   9.452  -5.802  1.00  0.00    -0.226 N 
ATOM     10  H3  UNL     1     -18.969   9.550  -5.162  1.00  0.00     0.177 HD
BRANCH   9  11
HETATM   11  C12 UNL     1     -19.477   8.767  -6.999  1.00  0.00     0.140 C 
BRANCH  11  12
HETATM   12  C13 UNL     1     -17.983   8.716  -7.346  1.00  0.00     0.050 C 
BRANCH  12  13
HETATM   13  C14 UNL     1     -17.810   7.593  -8.354  1.00  0.00     0.274 C 
BRANCH  13  14
HETATM   14  N4  UNL     1     -16.884   6.587  -7.942  1.00  0.00     0.088 N 
HETATM   15  C15 UNL     1     -15.586   6.672  -8.519  1.00  0.00     0.272 C 
HETATM   16  C16 UNL     1     -15.037   5.279  -8.579  1.00  0.00     0.032 C 
HETATM   17  C17 UNL     1     -16.266   4.405  -8.599  1.00  0.00     0.032 C 
HETATM   18  C18 UNL     1     -17.403   5.285  -8.197  1.00  0.00     0.272 C 
ENDBRANCH  13  14
ENDBRANCH  12  13
ENDBRANCH  11  12
ENDBRANCH   9  11
ENDBRANCH   5   9
BRANCH   2  19
HETATM   19  N1  UNL     1     -22.674  10.288  -2.290  1.00  0.00    -0.365 N 
HETATM   20  C7  UNL     1     -22.418  11.224  -1.225  1.00  0.00     0.124 C 
HETATM   21  C8  UNL     1     -23.476  10.921  -0.185  1.00  0.00     0.021 C 
HETATM   22  C9  UNL     1     -23.677   9.422  -0.332  1.00  0.00     0.021 C 
HETATM   23  C10 UNL     1     -23.167   9.068  -1.706  1.00  0.00     0.124 C 
ENDBRANCH   2  19
BRANCH   8  24
HETATM   24  N6  UNL     1     -23.592  11.743  -6.707  1.00  0.00    -0.290 N 
ATOM     25  H6  UNL     1     -24.515  11.355  -6.902  1.00  0.00     0.188 HD
BRANCH  24  26
HETATM   26  N7  UNL     1     -23.164  12.895  -7.361  1.00  0.00    -0.344 N 
ATOM     27  H72 UNL     1     -23.397  13.807  -6.969  1.00  0.00     0.176 HD
ATOM     28  H71 UNL     1     -22.624  12.813  -8.223  1.00  0.00     0.176 HD
ENDBRANCH  24  26
ENDBRANCH   8  24
BRANCH   1  29
HETATM   29  S1  UNL     1     -24.706  11.924  -4.146  1.00  0.00     0.190 S 
HETATM   30  O1  UNL     1     -25.636  11.881  -5.397  1.00  0.00    -0.222 OA
HETATM   31  O2  UNL     1     -25.561  11.178  -3.122  1.00  0.00    -0.222 OA
BRANCH  29  32
HETATM   32  C2  UNL     1     -24.675  13.587  -3.629  1.00  0.00     0.058 C 
HETATM   33  C1  UNL     1     -23.260  14.084  -3.379  1.00  0.00     0.031 C 
HETATM   34  C3  UNL     1     -25.185  14.488  -4.801  1.00  0.00     0.031 C 
HETATM   35  C4  UNL     1     -25.533  13.960  -2.476  1.00  0.00     0.031 C 
ENDBRANCH  29  32
ENDBRANCH   1  29
TORSDOF 10
ENDMDL
