MODEL 1
REMARK VINA RESULT: -7.065387218      0.000      0.000
REMARK  6 active torsions:
REMARK  status: ('A' for Active; 'I' for Inactive)
REMARK    1  A    between atoms: N3_8  and  C5_10 
REMARK    2  A    between atoms: C5_10  and  C6_11 
REMARK    3  A    between atoms: C6_11  and  O1_12 
REMARK    4  A    between atoms: O1_12  and  C7_13 
REMARK    5  A    between atoms: C10_19  and  C11_20 
REMARK    6  A    between atoms: C11_20  and  N5_21 
ROOT
HETATM    1  C1  UNL     1      26.267   3.787   7.756  1.00  0.00     0.229 C 
HETATM    2  N1  UNL     1      25.886   4.030   8.842  1.00  0.00    -0.426 NA
HETATM    3  C2  UNL     1      25.442   4.273  10.133  1.00  0.00     0.149 A 
HETATM    4  C3  UNL     1      24.226   3.842  10.562  1.00  0.00     0.153 A 
HETATM    5  N2  UNL     1      23.758   4.148  11.782  1.00  0.00    -0.198 N 
ATOM      6  H2  UNL     1      22.833   3.816  12.054  1.00  0.00     0.183 HD
HETATM    7  C4  UNL     1      24.488   4.898  12.676  1.00  0.00     0.682 A 
HETATM    8  N3  UNL     1      24.056   5.050  13.817  1.00  0.00    -0.203 N 
ATOM      9  H3  UNL     1      23.169   4.552  13.897  1.00  0.00     0.183 HD
HETATM   10  N4  UNL     1      25.709   5.325  12.238  1.00  0.00    -0.187 N 
ATOM     11  H4  UNL     1      26.278   5.888  12.869  1.00  0.00     0.184 HD
HETATM   12  C10 UNL     1      26.196   5.044  11.027  1.00  0.00     0.101 A 
ENDROOT
BRANCH  12  13
HETATM   13  C11 UNL     1      27.577   5.313  10.609  1.00  0.00     0.093 C 
BRANCH  13  14
HETATM   14  N5  UNL     1      27.902   6.486   9.969  1.00  0.00    -0.286 NA
HETATM   15  C12 UNL     1      29.364   6.453   9.774  1.00  0.00     0.121 C 
HETATM   16  C13 UNL     1      29.654   7.371   8.634  1.00  0.00     0.182 C 
HETATM   17  O2  UNL     1      29.304   8.691   8.955  1.00  0.00    -0.389 OA
HETATM   18  C14 UNL     1      27.962   8.729   9.251  1.00  0.00     0.182 C 
HETATM   19  C15 UNL     1      27.598   7.773  10.434  1.00  0.00     0.121 C 
ENDBRANCH  13  14
ENDBRANCH  12  13
BRANCH   8  20
HETATM   20  C5  UNL     1      24.338   5.654  15.037  1.00  0.00     0.105 C 
BRANCH  20  21
HETATM   21  C6  UNL     1      23.456   6.859  15.388  1.00  0.00     0.215 C 
BRANCH  21  22
HETATM   22  O1  UNL     1      24.245   7.923  15.795  1.00  0.00    -0.361 OA
BRANCH  22  23
HETATM   23  C7  UNL     1      24.670   8.814  14.879  1.00  0.00     0.130 C 
HETATM   24  C8  UNL     1      24.719  10.189  15.560  1.00  0.00     0.064 C 
HETATM   25  C9  UNL     1      23.942   8.953  13.589  1.00  0.00     0.064 C 
HETATM   26 CL1  UNL     1      26.405   8.521  14.444  1.00  0.00    -0.089 Cl
ENDBRANCH  22  23
ENDBRANCH  21  22
ENDBRANCH  20  21
ENDBRANCH   8  20
TORSDOF 6
ENDMDL
MODEL 2
REMARK VINA RESULT: -6.948300976      2.982      7.116
REMARK  6 active torsions:
REMARK  status: ('A' for Active; 'I' for Inactive)
REMARK    1  A    between atoms: N3_8  and  C5_10 
REMARK    2  A    between atoms: C5_10  and  C6_11 
REMARK    3  A    between atoms: C6_11  and  O1_12 
REMARK    4  A    between atoms: O1_12  and  C7_13 
REMARK    5  A    between atoms: C10_19  and  C11_20 
REMARK    6  A    between atoms: C11_20  and  N5_21 
ROOT
HETATM    1  C1  UNL     1      24.070  11.507  13.542  1.00  0.00     0.229 C 
HETATM    2  N1  UNL     1      24.644  10.671  12.946  1.00  0.00    -0.426 NA
HETATM    3  C2  UNL     1      25.361   9.700  12.264  1.00  0.00     0.149 A 
HETATM    4  C3  UNL     1      26.248  10.022  11.285  1.00  0.00     0.153 A 
HETATM    5  N2  UNL     1      26.879   9.082  10.566  1.00  0.00    -0.198 N 
ATOM      6  H2  UNL     1      27.525   9.371   9.831  1.00  0.00     0.183 HD
HETATM    7  C4  UNL     1      26.681   7.737  10.789  1.00  0.00     0.682 A 
HETATM    8  N3  UNL     1      27.372   6.925  10.176  1.00  0.00    -0.203 N 
ATOM      9  H3  UNL     1      28.014   7.437   9.571  1.00  0.00     0.183 HD
HETATM   10  N4  UNL     1      25.791   7.423  11.775  1.00  0.00    -0.187 N 
ATOM     11  H4  UNL     1      25.613   6.437  11.967  1.00  0.00     0.184 HD
HETATM   12  C10 UNL     1      25.141   8.336  12.500  1.00  0.00     0.101 A 
ENDROOT
BRANCH  12  13
HETATM   13  C11 UNL     1      24.342   8.029  13.692  1.00  0.00     0.093 C 
BRANCH  13  14
HETATM   14  N5  UNL     1      24.447   6.806  14.313  1.00  0.00    -0.286 NA
HETATM   15  C12 UNL     1      23.428   6.802  15.380  1.00  0.00     0.121 C 
HETATM   16  C13 UNL     1      23.132   5.368  15.669  1.00  0.00     0.182 C 
HETATM   17  O2  UNL     1      24.267   4.715  16.171  1.00  0.00    -0.389 OA
HETATM   18  C14 UNL     1      25.272   4.802  15.236  1.00  0.00     0.182 C 
HETATM   19  C15 UNL     1      25.616   6.287  14.885  1.00  0.00     0.121 C 
ENDBRANCH  13  14
ENDBRANCH  12  13
BRANCH   8  20
HETATM   20  C5  UNL     1      27.593   5.563  10.010  1.00  0.00     0.105 C 
BRANCH  20  21
HETATM   21  C6  UNL     1      26.563   4.837   9.137  1.00  0.00     0.215 C 
BRANCH  21  22
HETATM   22  O1  UNL     1      25.884   3.891   9.889  1.00  0.00    -0.361 OA
BRANCH  22  23
HETATM   23  C7  UNL     1      24.839   3.242   9.340  1.00  0.00     0.130 C 
HETATM   24  C8  UNL     1      25.024   3.276   7.815  1.00  0.00     0.064 C 
HETATM   25  C9  UNL     1      23.451   3.674   9.654  1.00  0.00     0.064 C 
HETATM   26 CL1  UNL     1      24.908   1.470   9.711  1.00  0.00    -0.089 Cl
ENDBRANCH  22  23
ENDBRANCH  21  22
ENDBRANCH  20  21
ENDBRANCH   8  20
TORSDOF 6
ENDMDL
MODEL 3
REMARK VINA RESULT: -6.856006430      1.133      1.298
REMARK  6 active torsions:
REMARK  status: ('A' for Active; 'I' for Inactive)
REMARK    1  A    between atoms: N3_8  and  C5_10 
REMARK    2  A    between atoms: C5_10  and  C6_11 
REMARK    3  A    between atoms: C6_11  and  O1_12 
REMARK    4  A    between atoms: O1_12  and  C7_13 
REMARK    5  A    between atoms: C10_19  and  C11_20 
REMARK    6  A    between atoms: C11_20  and  N5_21 
ROOT
HETATM    1  C1  UNL     1      26.196   3.734   7.725  1.00  0.00     0.229 C 
HETATM    2  N1  UNL     1      25.789   3.949   8.807  1.00  0.00    -0.426 NA
HETATM    3  C2  UNL     1      25.315   4.157  10.094  1.00  0.00     0.149 A 
HETATM    4  C3  UNL     1      24.106   3.682  10.495  1.00  0.00     0.153 A 
HETATM    5  N2  UNL     1      23.607   3.954  11.710  1.00  0.00    -0.198 N 
ATOM      6  H2  UNL     1      22.689   3.588  11.961  1.00  0.00     0.183 HD
HETATM    7  C4  UNL     1      24.297   4.713  12.629  1.00  0.00     0.682 A 
HETATM    8  N3  UNL     1      23.841   4.833  13.764  1.00  0.00    -0.203 N 
ATOM      9  H3  UNL     1      22.969   4.306  13.821  1.00  0.00     0.183 HD
HETATM   10  N4  UNL     1      25.511   5.184  12.218  1.00  0.00    -0.187 N 
ATOM     11  H4  UNL     1      26.051   5.756  12.868  1.00  0.00     0.184 HD
HETATM   12  C10 UNL     1      26.028   4.938  11.013  1.00  0.00     0.101 A 
ENDROOT
BRANCH  12  13
HETATM   13  C11 UNL     1      27.407   5.257  10.624  1.00  0.00     0.093 C 
BRANCH  13  14
HETATM   14  N5  UNL     1      27.853   6.558  10.620  1.00  0.00    -0.286 NA
HETATM   15  C12 UNL     1      28.012   6.931   9.201  1.00  0.00     0.121 C 
HETATM   16  C13 UNL     1      27.931   8.419   9.148  1.00  0.00     0.182 C 
HETATM   17  O2  UNL     1      28.992   9.003   9.856  1.00  0.00    -0.389 OA
HETATM   18  C14 UNL     1      28.931   8.581  11.163  1.00  0.00     0.182 C 
HETATM   19  C15 UNL     1      29.000   7.023  11.278  1.00  0.00     0.121 C 
ENDBRANCH  13  14
ENDBRANCH  12  13
BRANCH   8  20
HETATM   20  C5  UNL     1      24.082   5.427  14.997  1.00  0.00     0.105 C 
BRANCH  20  21
HETATM   21  C6  UNL     1      23.841   6.940  15.051  1.00  0.00     0.215 C 
BRANCH  21  22
HETATM   22  O1  UNL     1      23.843   7.468  13.770  1.00  0.00    -0.361 OA
BRANCH  22  23
HETATM   23  C7  UNL     1      24.530   8.602  13.528  1.00  0.00     0.130 C 
HETATM   24  C8  UNL     1      25.858   8.510  14.293  1.00  0.00     0.064 C 
HETATM   25  C9  UNL     1      23.908   9.921  13.823  1.00  0.00     0.064 C 
HETATM   26 CL1  UNL     1      25.068   8.679  11.800  1.00  0.00    -0.089 Cl
ENDBRANCH  22  23
ENDBRANCH  21  22
ENDBRANCH  20  21
ENDBRANCH   8  20
TORSDOF 6
ENDMDL
MODEL 4
REMARK VINA RESULT: -6.845215345      2.524      5.744
REMARK  6 active torsions:
REMARK  status: ('A' for Active; 'I' for Inactive)
REMARK    1  A    between atoms: N3_8  and  C5_10 
REMARK    2  A    between atoms: C5_10  and  C6_11 
REMARK    3  A    between atoms: C6_11  and  O1_12 
REMARK    4  A    between atoms: O1_12  and  C7_13 
REMARK    5  A    between atoms: C10_19  and  C11_20 
REMARK    6  A    between atoms: C11_20  and  N5_21 
ROOT
HETATM    1  C1  UNL     1      23.960   4.478  14.621  1.00  0.00     0.229 C 
HETATM    2  N1  UNL     1      24.304   5.395  13.970  1.00  0.00    -0.426 NA
HETATM    3  C2  UNL     1      24.740   6.487  13.235  1.00  0.00     0.149 A 
HETATM    4  C3  UNL     1      24.467   7.762  13.622  1.00  0.00     0.153 A 
HETATM    5  N2  UNL     1      24.813   8.818  12.869  1.00  0.00    -0.198 N 
ATOM      6  H2  UNL     1      24.574   9.755  13.192  1.00  0.00     0.183 HD
HETATM    7  C4  UNL     1      25.481   8.674  11.674  1.00  0.00     0.682 A 
HETATM    8  N3  UNL     1      25.871   9.681  11.086  1.00  0.00    -0.203 N 
ATOM      9  H3  UNL     1      25.610  10.499  11.636  1.00  0.00     0.183 HD
HETATM   10  N4  UNL     1      25.753   7.391  11.295  1.00  0.00    -0.187 N 
ATOM     11  H4  UNL     1      26.242   7.242  10.412  1.00  0.00     0.184 HD
HETATM   12  C10 UNL     1      25.413   6.321  12.017  1.00  0.00     0.101 A 
ENDROOT
BRANCH  12  13
HETATM   13  C11 UNL     1      25.870   4.955  11.737  1.00  0.00     0.093 C 
BRANCH  13  14
HETATM   14  N5  UNL     1      25.330   4.232  10.699  1.00  0.00    -0.286 NA
HETATM   15  C12 UNL     1      26.136   4.564   9.508  1.00  0.00     0.121 C 
HETATM   16  C13 UNL     1      25.965   3.426   8.558  1.00  0.00     0.182 C 
HETATM   17  O2  UNL     1      24.629   3.319   8.143  1.00  0.00    -0.389 OA
HETATM   18  C14 UNL     1      23.841   3.120   9.251  1.00  0.00     0.182 C 
HETATM   19  C15 UNL     1      23.990   4.280  10.290  1.00  0.00     0.121 C 
ENDBRANCH  13  14
ENDBRANCH  12  13
BRANCH   8  20
HETATM   20  C5  UNL     1      26.539  10.107   9.944  1.00  0.00     0.105 C 
BRANCH  20  21
HETATM   21  C6  UNL     1      27.994   9.637   9.825  1.00  0.00     0.215 C 
BRANCH  21  22
HETATM   22  O1  UNL     1      28.034   8.307   9.440  1.00  0.00    -0.361 OA
BRANCH  22  23
HETATM   23  C7  UNL     1      29.199   7.634   9.525  1.00  0.00     0.130 C 
HETATM   24  C8  UNL     1      30.299   8.654   9.851  1.00  0.00     0.064 C 
HETATM   25  C9  UNL     1      29.655   6.799   8.380  1.00  0.00     0.064 C 
HETATM   26 CL1  UNL     1      29.217   6.548  10.975  1.00  0.00    -0.089 Cl
ENDBRANCH  22  23
ENDBRANCH  21  22
ENDBRANCH  20  21
ENDBRANCH   8  20
TORSDOF 6
ENDMDL
MODEL 5
REMARK VINA RESULT: -6.713050758      2.915      5.362
REMARK  6 active torsions:
REMARK  status: ('A' for Active; 'I' for Inactive)
REMARK    1  A    between atoms: N3_8  and  C5_10 
REMARK    2  A    between atoms: C5_10  and  C6_11 
REMARK    3  A    between atoms: C6_11  and  O1_12 
REMARK    4  A    between atoms: O1_12  and  C7_13 
REMARK    5  A    between atoms: C10_19  and  C11_20 
REMARK    6  A    between atoms: C11_20  and  N5_21 
ROOT
HETATM    1  C1  UNL     1      27.850   9.933  13.686  1.00  0.00     0.229 C 
HETATM    2  N1  UNL     1      27.170   8.997  13.474  1.00  0.00    -0.426 NA
HETATM    3  C2  UNL     1      26.332   7.920  13.229  1.00  0.00     0.149 A 
HETATM    4  C3  UNL     1      25.552   7.385  14.206  1.00  0.00     0.153 A 
HETATM    5  N2  UNL     1      24.805   6.291  13.993  1.00  0.00    -0.198 N 
ATOM      6  H2  UNL     1      24.248   5.917  14.761  1.00  0.00     0.183 HD
HETATM    7  C4  UNL     1      24.768   5.658  12.771  1.00  0.00     0.682 A 
HETATM    8  N3  UNL     1      23.979   4.730  12.606  1.00  0.00    -0.203 N 
ATOM      9  H3  UNL     1      23.456   4.591  13.470  1.00  0.00     0.183 HD
HETATM   10  N4  UNL     1      25.553   6.203  11.796  1.00  0.00    -0.187 N 
ATOM     11  H4  UNL     1      25.557   5.760  10.877  1.00  0.00     0.184 HD
HETATM   12  C10 UNL     1      26.314   7.285  11.979  1.00  0.00     0.101 A 
ENDROOT
BRANCH  12  13
HETATM   13  C11 UNL     1      27.001   8.006  10.902  1.00  0.00     0.093 C 
BRANCH  13  14
HETATM   14  N5  UNL     1      28.196   7.548  10.401  1.00  0.00    -0.286 NA
HETATM   15  C12 UNL     1      27.945   7.212   8.986  1.00  0.00     0.121 C 
HETATM   16  C13 UNL     1      29.269   7.269   8.301  1.00  0.00     0.182 C 
HETATM   17  O2  UNL     1      30.139   6.296   8.815  1.00  0.00    -0.389 OA
HETATM   18  C14 UNL     1      30.303   6.521  10.161  1.00  0.00     0.182 C 
HETATM   19  C15 UNL     1      28.942   6.484  10.930  1.00  0.00     0.121 C 
ENDBRANCH  13  14
ENDBRANCH  12  13
BRANCH   8  20
HETATM   20  C5  UNL     1      23.543   3.802  11.667  1.00  0.00     0.105 C 
BRANCH  20  21
HETATM   21  C6  UNL     1      23.347   4.351  10.249  1.00  0.00     0.215 C 
BRANCH  21  22
HETATM   22  O1  UNL     1      23.290   3.307   9.339  1.00  0.00    -0.361 OA
BRANCH  22  23
HETATM   23  C7  UNL     1      24.437   2.739   8.918  1.00  0.00     0.130 C 
HETATM   24  C8  UNL     1      24.363   2.629   7.388  1.00  0.00     0.064 C 
HETATM   25  C9  UNL     1      24.853   1.419   9.464  1.00  0.00     0.064 C 
HETATM   26 CL1  UNL     1      25.844   3.852   9.172  1.00  0.00    -0.089 Cl
ENDBRANCH  22  23
ENDBRANCH  21  22
ENDBRANCH  20  21
ENDBRANCH   8  20
TORSDOF 6
ENDMDL
