MODEL 1
REMARK VINA RESULT: -7.001885763      0.000      0.000
REMARK  5 active torsions:
REMARK  status: ('A' for Active; 'I' for Inactive)
REMARK    1  A    between atoms: C2_2  and  O1_3 
REMARK    2  A    between atoms: O1_3  and  C3_4 
REMARK    3  A    between atoms: C4_5  and  N1_6 
REMARK    4  A    between atoms: C11_15  and  O3_16 
REMARK    5  A    between atoms: C13_18  and  N2_19 
ROOT
HETATM    1  C3  UNL     1      26.903   6.408  12.227  1.00  0.00     0.127 A 
HETATM    2  C4  UNL     1      27.378   6.337  10.913  1.00  0.00     0.105 A 
HETATM    3  C9  UNL     1      26.603   5.606  10.025  1.00  0.00     0.148 A 
HETATM    4  F1  UNL     1      26.942   5.474   8.727  1.00  0.00    -0.203 F 
HETATM    5  C10 UNL     1      25.436   4.990  10.414  1.00  0.00     0.083 A 
HETATM    6  C11 UNL     1      25.013   5.095  11.705  1.00  0.00     0.100 A 
HETATM    7  C13 UNL     1      25.736   5.820  12.673  1.00  0.00     0.100 A 
ENDROOT
BRANCH   7   8
HETATM    8  N2  UNL     1      25.158   6.018  13.933  1.00  0.00    -0.373 N 
HETATM    9  C14 UNL     1      24.127   7.022  14.148  1.00  0.00     0.142 C 
HETATM   10  C15 UNL     1      23.226   6.558  15.339  1.00  0.00     0.133 C 
HETATM   11  N3  UNL     1      23.079   5.156  15.396  1.00  0.00    -0.418 N 
HETATM   12  C16 UNL     1      24.314   4.410  15.469  1.00  0.00     0.133 C 
ATOM     13  H3  UNL     1      22.166   4.701  15.388  1.00  0.00     0.153 HD
HETATM   14  C17 UNL     1      25.446   5.349  15.162  1.00  0.00     0.142 C 
ENDBRANCH   7   8
BRANCH   1  15
HETATM   15  O1  UNL     1      27.706   7.119  13.162  1.00  0.00    -0.347 OA
BRANCH  15  16
HETATM   16  C2  UNL     1      27.257   8.498  13.319  1.00  0.00     0.171 C 
HETATM   17  C1  UNL     1      27.309   8.929  14.761  1.00  0.00     0.034 C 
ENDBRANCH  15  16
ENDBRANCH   1  15
BRANCH   6  18
HETATM   18  O3  UNL     1      23.858   4.481  12.059  1.00  0.00    -0.353 OA
HETATM   19  C12 UNL     1      23.213   3.559  11.208  1.00  0.00     0.210 C 
ENDBRANCH   6  18
BRANCH   2  20
HETATM   20  N1  UNL     1      28.465   7.092  10.439  1.00  0.00    -0.372 N 
HETATM   21  C5  UNL     1      28.403   8.496   9.990  1.00  0.00     0.149 C 
HETATM   22  C6  UNL     1      29.472   8.603   8.885  1.00  0.00     0.187 C 
HETATM   23  O2  UNL     1      29.598   7.405   8.177  1.00  0.00    -0.388 OA
HETATM   24  C7  UNL     1      30.243   6.442   8.972  1.00  0.00     0.187 C 
HETATM   25  C8  UNL     1      29.838   6.580  10.398  1.00  0.00     0.149 C 
ENDBRANCH   2  20
TORSDOF 5
ENDMDL
MODEL 2
REMARK VINA RESULT: -6.994368621      1.789      5.824
REMARK  5 active torsions:
REMARK  status: ('A' for Active; 'I' for Inactive)
REMARK    1  A    between atoms: C2_2  and  O1_3 
REMARK    2  A    between atoms: O1_3  and  C3_4 
REMARK    3  A    between atoms: C4_5  and  N1_6 
REMARK    4  A    between atoms: C11_15  and  O3_16 
REMARK    5  A    between atoms: C13_18  and  N2_19 
ROOT
HETATM    1  C3  UNL     1      26.671   6.270  12.082  1.00  0.00     0.127 A 
HETATM    2  C4  UNL     1      25.529   5.704  12.659  1.00  0.00     0.105 A 
HETATM    3  C9  UNL     1      24.803   4.841  11.851  1.00  0.00     0.148 A 
HETATM    4  F1  UNL     1      23.691   4.220  12.291  1.00  0.00    -0.203 F 
HETATM    5  C10 UNL     1      25.187   4.556  10.561  1.00  0.00     0.083 A 
HETATM    6  C11 UNL     1      26.314   5.127  10.049  1.00  0.00     0.100 A 
HETATM    7  C13 UNL     1      27.112   6.014  10.799  1.00  0.00     0.100 A 
ENDROOT
BRANCH   7   8
HETATM    8  N2  UNL     1      28.336   6.432  10.263  1.00  0.00    -0.373 N 
HETATM    9  C14 UNL     1      28.422   7.566   9.355  1.00  0.00     0.142 C 
HETATM   10  C15 UNL     1      29.841   8.206   9.496  1.00  0.00     0.133 C 
HETATM   11  N3  UNL     1      30.348   8.124  10.811  1.00  0.00    -0.418 N 
HETATM   12  C16 UNL     1      30.415   6.790  11.362  1.00  0.00     0.133 C 
ATOM     13  H3  UNL     1      30.645   8.947  11.335  1.00  0.00     0.153 HD
HETATM   14  C17 UNL     1      29.635   5.873  10.463  1.00  0.00     0.142 C 
ENDBRANCH   7   8
BRANCH   1  15
HETATM   15  O1  UNL     1      27.406   7.189  12.882  1.00  0.00    -0.347 OA
BRANCH  15  16
HETATM   16  C2  UNL     1      27.031   8.570  12.599  1.00  0.00     0.171 C 
HETATM   17  C1  UNL     1      28.027   9.537  13.182  1.00  0.00     0.034 C 
ENDBRANCH  15  16
ENDBRANCH   1  15
BRANCH   6  18
HETATM   18  O3  UNL     1      26.671   4.825   8.776  1.00  0.00    -0.353 OA
HETATM   19  C12 UNL     1      26.141   3.706   8.101  1.00  0.00     0.210 C 
ENDBRANCH   6  18
BRANCH   2  20
HETATM   20  N1  UNL     1      25.201   5.834  14.020  1.00  0.00    -0.372 N 
HETATM   21  C5  UNL     1      25.615   4.909  15.092  1.00  0.00     0.149 C 
HETATM   22  C6  UNL     1      24.457   4.942  16.109  1.00  0.00     0.187 C 
HETATM   23  O2  UNL     1      23.227   5.142  15.477  1.00  0.00    -0.388 OA
HETATM   24  C7  UNL     1      23.127   6.471  15.031  1.00  0.00     0.187 C 
HETATM   25  C8  UNL     1      24.447   6.970  14.559  1.00  0.00     0.149 C 
ENDBRANCH   2  20
TORSDOF 5
ENDMDL
MODEL 3
REMARK VINA RESULT: -6.967661838      1.854      6.049
REMARK  5 active torsions:
REMARK  status: ('A' for Active; 'I' for Inactive)
REMARK    1  A    between atoms: C2_2  and  O1_3 
REMARK    2  A    between atoms: O1_3  and  C3_4 
REMARK    3  A    between atoms: C4_5  and  N1_6 
REMARK    4  A    between atoms: C11_15  and  O3_16 
REMARK    5  A    between atoms: C13_18  and  N2_19 
ROOT
HETATM    1  C3  UNL     1      26.358   6.291  12.441  1.00  0.00     0.127 A 
HETATM    2  C4  UNL     1      25.261   5.612  12.980  1.00  0.00     0.105 A 
HETATM    3  C9  UNL     1      24.611   4.731  12.128  1.00  0.00     0.148 A 
HETATM    4  F1  UNL     1      23.549   4.005  12.529  1.00  0.00    -0.203 F 
HETATM    5  C10 UNL     1      25.025   4.536  10.830  1.00  0.00     0.083 A 
HETATM    6  C11 UNL     1      26.106   5.216  10.355  1.00  0.00     0.100 A 
HETATM    7  C13 UNL     1      26.827   6.129  11.152  1.00  0.00     0.100 A 
ENDROOT
BRANCH   7   8
HETATM    8  N2  UNL     1      28.017   6.666  10.648  1.00  0.00    -0.373 N 
HETATM    9  C14 UNL     1      29.287   5.968  10.789  1.00  0.00     0.142 C 
HETATM   10  C15 UNL     1      30.215   6.387   9.603  1.00  0.00     0.133 C 
HETATM   11  N3  UNL     1      29.500   6.628   8.410  1.00  0.00    -0.418 N 
HETATM   12  C16 UNL     1      28.451   7.616   8.511  1.00  0.00     0.133 C 
ATOM     13  H3  UNL     1      29.710   6.140   7.539  1.00  0.00     0.153 HD
HETATM   14  C17 UNL     1      28.219   7.905   9.967  1.00  0.00     0.142 C 
ENDBRANCH   7   8
BRANCH   1  15
HETATM   15  O1  UNL     1      27.012   7.228  13.288  1.00  0.00    -0.347 OA
BRANCH  15  16
HETATM   16  C2  UNL     1      26.453   8.567  13.144  1.00  0.00     0.171 C 
HETATM   17  C1  UNL     1      26.378   9.275  14.472  1.00  0.00     0.034 C 
ENDBRANCH  15  16
ENDBRANCH   1  15
BRANCH   6  18
HETATM   18  O3  UNL     1      26.494   5.001   9.074  1.00  0.00    -0.353 OA
HETATM   19  C12 UNL     1      26.122   3.837   8.369  1.00  0.00     0.210 C 
ENDBRANCH   6  18
BRANCH   2  20
HETATM   20  N1  UNL     1      24.915   5.653  14.343  1.00  0.00    -0.372 N 
HETATM   21  C5  UNL     1      25.563   4.874  15.414  1.00  0.00     0.149 C 
HETATM   22  C6  UNL     1      24.441   4.601  16.436  1.00  0.00     0.187 C 
HETATM   23  O2  UNL     1      23.200   4.467  15.808  1.00  0.00    -0.388 OA
HETATM   24  C7  UNL     1      22.749   5.721  15.361  1.00  0.00     0.187 C 
HETATM   25  C8  UNL     1      23.889   6.550  14.882  1.00  0.00     0.149 C 
ENDBRANCH   2  20
TORSDOF 5
ENDMDL
MODEL 4
REMARK VINA RESULT: -6.863297382      0.804      1.230
REMARK  5 active torsions:
REMARK  status: ('A' for Active; 'I' for Inactive)
REMARK    1  A    between atoms: C2_2  and  O1_3 
REMARK    2  A    between atoms: O1_3  and  C3_4 
REMARK    3  A    between atoms: C4_5  and  N1_6 
REMARK    4  A    between atoms: C11_15  and  O3_16 
REMARK    5  A    between atoms: C13_18  and  N2_19 
ROOT
HETATM    1  C3  UNL     1      26.875   6.272  11.838  1.00  0.00     0.127 A 
HETATM    2  C4  UNL     1      27.278   6.097  10.510  1.00  0.00     0.105 A 
HETATM    3  C9  UNL     1      26.469   5.284   9.730  1.00  0.00     0.148 A 
HETATM    4  F1  UNL     1      26.740   5.046   8.431  1.00  0.00    -0.203 F 
HETATM    5  C10 UNL     1      25.335   4.689  10.233  1.00  0.00     0.083 A 
HETATM    6  C11 UNL     1      24.980   4.899  11.532  1.00  0.00     0.100 A 
HETATM    7  C13 UNL     1      25.743   5.711  12.395  1.00  0.00     0.100 A 
ENDROOT
BRANCH   7   8
HETATM    8  N2  UNL     1      25.230   6.008  13.664  1.00  0.00    -0.373 N 
HETATM    9  C14 UNL     1      24.221   7.040  13.855  1.00  0.00     0.142 C 
HETATM   10  C15 UNL     1      23.376   6.676  15.118  1.00  0.00     0.133 C 
HETATM   11  N3  UNL     1      23.217   5.284  15.286  1.00  0.00    -0.418 N 
HETATM   12  C16 UNL     1      24.447   4.528  15.353  1.00  0.00     0.133 C 
ATOM     13  H3  UNL     1      22.300   4.843  15.355  1.00  0.00     0.153 HD
HETATM   14  C17 UNL     1      25.571   5.426  14.923  1.00  0.00     0.142 C 
ENDBRANCH   7   8
BRANCH   1  15
HETATM   15  O1  UNL     1      27.714   7.070  12.664  1.00  0.00    -0.347 OA
BRANCH  15  16
HETATM   16  C2  UNL     1      27.215   8.435  12.783  1.00  0.00     0.171 C 
HETATM   17  C1  UNL     1      27.423   8.974  14.174  1.00  0.00     0.034 C 
ENDBRANCH  15  16
ENDBRANCH   1  15
BRANCH   6  18
HETATM   18  O3  UNL     1      23.856   4.303  12.000  1.00  0.00    -0.353 OA
HETATM   19  C12 UNL     1      23.058   3.474  11.183  1.00  0.00     0.210 C 
ENDBRANCH   6  18
BRANCH   2  20
HETATM   20  N1  UNL     1      28.327   6.821   9.915  1.00  0.00    -0.372 N 
HETATM   21  C5  UNL     1      29.765   6.594  10.149  1.00  0.00     0.149 C 
HETATM   22  C6  UNL     1      30.411   7.987  10.011  1.00  0.00     0.187 C 
HETATM   23  O2  UNL     1      29.546   8.996  10.443  1.00  0.00    -0.388 OA
HETATM   24  C7  UNL     1      28.510   9.174   9.510  1.00  0.00     0.187 C 
HETATM   25  C8  UNL     1      28.109   7.870   8.914  1.00  0.00     0.149 C 
ENDBRANCH   2  20
TORSDOF 5
ENDMDL
MODEL 5
REMARK VINA RESULT: -6.521159399      1.708      3.464
REMARK  5 active torsions:
REMARK  status: ('A' for Active; 'I' for Inactive)
REMARK    1  A    between atoms: C2_2  and  O1_3 
REMARK    2  A    between atoms: O1_3  and  C3_4 
REMARK    3  A    between atoms: C4_5  and  N1_6 
REMARK    4  A    between atoms: C11_15  and  O3_16 
REMARK    5  A    between atoms: C13_18  and  N2_19 
ROOT
HETATM    1  C3  UNL     1      26.478   6.148  12.371  1.00  0.00     0.127 A 
HETATM    2  C4  UNL     1      27.273   7.047  11.651  1.00  0.00     0.105 A 
HETATM    3  C9  UNL     1      27.353   8.333  12.162  1.00  0.00     0.148 A 
HETATM    4  F1  UNL     1      28.097   9.289  11.571  1.00  0.00    -0.203 F 
HETATM    5  C10 UNL     1      26.691   8.702  13.311  1.00  0.00     0.083 A 
HETATM    6  C11 UNL     1      25.935   7.787  13.980  1.00  0.00     0.100 A 
HETATM    7  C13 UNL     1      25.800   6.457  13.533  1.00  0.00     0.100 A 
ENDROOT
BRANCH   7   8
HETATM    8  N2  UNL     1      25.141   5.536  14.357  1.00  0.00    -0.373 N 
HETATM    9  C14 UNL     1      25.822   4.884  15.466  1.00  0.00     0.142 C 
HETATM   10  C15 UNL     1      24.760   4.524  16.555  1.00  0.00     0.133 C 
HETATM   11  N3  UNL     1      23.715   5.470  16.631  1.00  0.00    -0.418 N 
HETATM   12  C16 UNL     1      23.007   5.705  15.394  1.00  0.00     0.133 C 
ATOM     13  H3  UNL     1      23.476   5.952  17.498  1.00  0.00     0.153 HD
HETATM   14  C17 UNL     1      23.792   5.074  14.279  1.00  0.00     0.142 C 
ENDBRANCH   7   8
BRANCH   1  15
HETATM   15  O1  UNL     1      26.352   4.835  11.839  1.00  0.00    -0.347 OA
BRANCH  15  16
HETATM   16  C2  UNL     1      25.203   4.721  10.949  1.00  0.00     0.171 C 
HETATM   17  C1  UNL     1      25.531   3.893   9.734  1.00  0.00     0.034 C 
ENDBRANCH  15  16
ENDBRANCH   1  15
BRANCH   6  18
HETATM   18  O3  UNL     1      25.297   8.177  15.110  1.00  0.00    -0.353 OA
HETATM   19  C12 UNL     1      24.323   9.197  15.101  1.00  0.00     0.210 C 
ENDBRANCH   6  18
BRANCH   2  20
HETATM   20  N1  UNL     1      28.098   6.665  10.578  1.00  0.00    -0.372 N 
HETATM   21  C5  UNL     1      29.416   6.015  10.701  1.00  0.00     0.149 C 
HETATM   22  C6  UNL     1      30.222   6.527   9.490  1.00  0.00     0.187 C 
HETATM   23  O2  UNL     1      29.856   7.832   9.147  1.00  0.00    -0.388 OA
HETATM   24  C7  UNL     1      28.586   7.832   8.545  1.00  0.00     0.187 C 
HETATM   25  C8  UNL     1      27.705   6.811   9.173  1.00  0.00     0.149 C 
ENDBRANCH   2  20
TORSDOF 5
ENDMDL
