MODEL 1
REMARK VINA RESULT: -6.944807075      0.000      0.000
REMARK  6 active torsions:
REMARK  status: ('A' for Active; 'I' for Inactive)
REMARK    1  A    between atoms: C2_2  and  C3_3 
REMARK    2  A    between atoms: C3_3  and  C4_4 
REMARK    3  A    between atoms: C4_4  and  C5_5 
REMARK    4  A    between atoms: C5_5  and  C6_6 
REMARK    5  A    between atoms: C7_9  and  O1_10 
REMARK    6  A    between atoms: C10_14  and  O2_15 
ROOT
HETATM    1  C6  UNL     1       5.605  25.024  36.448  1.00  0.00     0.136 C 
HETATM    2  N1  UNL     1       4.714  25.073  37.555  1.00  0.00    -0.361 N 
ATOM      3  H1  UNL     1       3.738  24.946  37.290  1.00  0.00     0.162 HD
HETATM    4  C7  UNL     1       4.891  25.256  38.918  1.00  0.00     0.132 C 
HETATM    5  C8  UNL     1       5.508  26.222  39.783  1.00  0.00     0.033 C 
HETATM    6  C9  UNL     1       5.993  27.531  39.356  1.00  0.00     0.085 C 
HETATM    7  C10 UNL     1       5.027  28.506  38.814  1.00  0.00     0.223 C 
HETATM    8  N2  UNL     1       4.086  28.104  37.873  1.00  0.00    -0.371 N 
ATOM      9  H2  UNL     1       3.127  27.964  38.192  1.00  0.00     0.161 HD
HETATM   10  C12 UNL     1       4.357  27.882  36.541  1.00  0.00     0.117 C 
HETATM   11  C13 UNL     1       5.736  27.519  36.148  1.00  0.00     0.073 A 
HETATM   12  N3  UNL     1       6.698  28.381  35.759  1.00  0.00    -0.350 N 
ATOM     13  H3  UNL     1       6.581  29.392  35.691  1.00  0.00     0.166 HD
HETATM   14  C14 UNL     1       7.803  27.736  35.479  1.00  0.00     0.181 A 
HETATM   15  N4  UNL     1       7.567  26.438  35.687  1.00  0.00    -0.352 N 
ATOM     16  H4  UNL     1       8.239  25.681  35.555  1.00  0.00     0.166 HD
HETATM   17  C15 UNL     1       6.292  26.294  36.100  1.00  0.00     0.061 A 
ENDROOT
BRANCH   1  18
HETATM   18  C5  UNL     1       6.552  23.845  36.454  1.00  0.00     0.031 C 
BRANCH  18  19
HETATM   19  C4  UNL     1       6.647  23.085  35.188  1.00  0.00     0.002 C 
BRANCH  19  20
HETATM   20  C3  UNL     1       8.088  23.005  34.748  1.00  0.00    -0.000 C 
BRANCH  20  21
HETATM   21  C2  UNL     1       9.072  23.208  35.845  1.00  0.00    -0.005 C 
HETATM   22  C1  UNL     1      10.279  23.962  35.270  1.00  0.00     0.005 C 
ENDBRANCH  20  21
ENDBRANCH  19  20
ENDBRANCH  18  19
ENDBRANCH   1  18
BRANCH   4  23
HETATM   23  O1  UNL     1       4.355  24.295  39.630  1.00  0.00    -0.347 OA
ATOM     24  H1  UNL     1       4.948  23.953  40.288  1.00  0.00     0.219 HD
ENDBRANCH   4  23
BRANCH   7  25
HETATM   25  O2  UNL     1       5.729  29.618  38.357  1.00  0.00    -0.371 OA
HETATM   26  C11 UNL     1       6.872  29.875  39.112  1.00  0.00     0.204 C 
ENDBRANCH   7  25
TORSDOF 6
ENDMDL
MODEL 2
REMARK VINA RESULT: -6.450448994      8.498     11.430
REMARK  6 active torsions:
REMARK  status: ('A' for Active; 'I' for Inactive)
REMARK    1  A    between atoms: C2_2  and  C3_3 
REMARK    2  A    between atoms: C3_3  and  C4_4 
REMARK    3  A    between atoms: C4_4  and  C5_5 
REMARK    4  A    between atoms: C5_5  and  C6_6 
REMARK    5  A    between atoms: C7_9  and  O1_10 
REMARK    6  A    between atoms: C10_14  and  O2_15 
ROOT
HETATM    1  C6  UNL     1      15.207  21.227  35.397  1.00  0.00     0.136 C 
HETATM    2  N1  UNL     1      16.024  20.412  34.568  1.00  0.00    -0.361 N 
ATOM      3  H1  UNL     1      16.851  20.896  34.220  1.00  0.00     0.162 HD
HETATM    4  C7  UNL     1      15.934  19.099  34.131  1.00  0.00     0.132 C 
HETATM    5  C8  UNL     1      14.976  18.276  33.448  1.00  0.00     0.033 C 
HETATM    6  C9  UNL     1      13.772  18.773  32.789  1.00  0.00     0.085 C 
HETATM    7  C10 UNL     1      13.916  19.700  31.649  1.00  0.00     0.223 C 
HETATM    8  N2  UNL     1      14.795  20.772  31.731  1.00  0.00    -0.371 N 
ATOM      9  H2  UNL     1      15.685  20.694  31.237  1.00  0.00     0.161 HD
HETATM   10  C12 UNL     1      14.551  21.933  32.431  1.00  0.00     0.117 C 
HETATM   11  C13 UNL     1      13.610  21.890  33.570  1.00  0.00     0.073 A 
HETATM   12  N3  UNL     1      12.288  22.155  33.511  1.00  0.00    -0.350 N 
ATOM     13  H3  UNL     1      11.783  22.416  32.664  1.00  0.00     0.166 HD
HETATM   14  C14 UNL     1      11.744  22.028  34.696  1.00  0.00     0.181 A 
HETATM   15  N4  UNL     1      12.716  21.677  35.542  1.00  0.00    -0.352 N 
ATOM     16  H4  UNL     1      12.602  21.505  36.542  1.00  0.00     0.166 HD
HETATM   17  C15 UNL     1      13.872  21.590  34.856  1.00  0.00     0.061 A 
ENDROOT
BRANCH   1  18
HETATM   18  C5  UNL     1      15.135  20.782  36.842  1.00  0.00     0.031 C 
BRANCH  18  19
HETATM   19  C4  UNL     1      15.261  21.852  37.856  1.00  0.00     0.002 C 
BRANCH  19  20
HETATM   20  C3  UNL     1      15.927  21.305  39.094  1.00  0.00    -0.000 C 
BRANCH  20  21
HETATM   21  C2  UNL     1      15.246  21.672  40.365  1.00  0.00    -0.005 C 
HETATM   22  C1  UNL     1      16.162  21.274  41.529  1.00  0.00     0.005 C 
ENDBRANCH  20  21
ENDBRANCH  19  20
ENDBRANCH  18  19
ENDBRANCH   1  18
BRANCH   4  23
HETATM   23  O1  UNL     1      17.009  18.402  34.405  1.00  0.00    -0.347 OA
ATOM     24  H1  UNL     1      17.401  18.016  33.632  1.00  0.00     0.219 HD
ENDBRANCH   4  23
BRANCH   7  25
HETATM   25  O2  UNL     1      12.648  20.137  31.271  1.00  0.00    -0.371 OA
HETATM   26  C11 UNL     1      12.672  20.904  30.108  1.00  0.00     0.204 C 
ENDBRANCH   7  25
TORSDOF 6
ENDMDL
MODEL 3
REMARK VINA RESULT: -6.380941055      7.275      9.767
REMARK  6 active torsions:
REMARK  status: ('A' for Active; 'I' for Inactive)
REMARK    1  A    between atoms: C2_2  and  C3_3 
REMARK    2  A    between atoms: C3_3  and  C4_4 
REMARK    3  A    between atoms: C4_4  and  C5_5 
REMARK    4  A    between atoms: C5_5  and  C6_6 
REMARK    5  A    between atoms: C7_9  and  O1_10 
REMARK    6  A    between atoms: C10_14  and  O2_15 
ROOT
HETATM    1  C6  UNL     1      14.364  21.712  36.551  1.00  0.00     0.136 C 
HETATM    2  N1  UNL     1      12.962  21.498  36.453  1.00  0.00    -0.361 N 
ATOM      3  H1  UNL     1      12.706  20.511  36.455  1.00  0.00     0.162 HD
HETATM    4  C7  UNL     1      11.869  22.346  36.355  1.00  0.00     0.132 C 
HETATM    5  C8  UNL     1      11.440  23.422  35.507  1.00  0.00     0.033 C 
HETATM    6  C9  UNL     1      12.072  23.788  34.243  1.00  0.00     0.085 C 
HETATM    7  C10 UNL     1      12.080  22.808  33.140  1.00  0.00     0.223 C 
HETATM    8  N2  UNL     1      12.423  21.485  33.388  1.00  0.00    -0.371 N 
ATOM      9  H2  UNL     1      11.669  20.800  33.432  1.00  0.00     0.161 HD
HETATM   10  C12 UNL     1      13.711  21.033  33.577  1.00  0.00     0.117 C 
HETATM   11  C13 UNL     1      14.730  21.981  34.077  1.00  0.00     0.073 A 
HETATM   12  N3  UNL     1      15.559  22.722  33.312  1.00  0.00    -0.350 N 
ATOM     13  H3  UNL     1      15.576  22.712  32.292  1.00  0.00     0.166 HD
HETATM   14  C14 UNL     1      16.339  23.457  34.065  1.00  0.00     0.181 A 
HETATM   15  N4  UNL     1      16.020  23.197  35.337  1.00  0.00    -0.352 N 
ATOM     16  H4  UNL     1      16.457  23.618  36.158  1.00  0.00     0.166 HD
HETATM   17  C15 UNL     1      15.028  22.287  35.353  1.00  0.00     0.061 A 
ENDROOT
BRANCH   1  18
HETATM   18  C5  UNL     1      14.809  22.386  37.830  1.00  0.00     0.031 C 
BRANCH  18  19
HETATM   19  C4  UNL     1      15.614  21.555  38.753  1.00  0.00     0.002 C 
BRANCH  19  20
HETATM   20  C3  UNL     1      15.047  21.647  40.148  1.00  0.00    -0.000 C 
BRANCH  20  21
HETATM   21  C2  UNL     1      16.043  21.413  41.227  1.00  0.00    -0.005 C 
HETATM   22  C1  UNL     1      17.434  21.754  40.674  1.00  0.00     0.005 C 
ENDBRANCH  20  21
ENDBRANCH  19  20
ENDBRANCH  18  19
ENDBRANCH   1  18
BRANCH   4  23
HETATM   23  O1  UNL     1      10.970  22.119  37.281  1.00  0.00    -0.347 OA
ATOM     24  H1  UNL     1      10.214  22.688  37.204  1.00  0.00     0.219 HD
ENDBRANCH   4  23
BRANCH   7  25
HETATM   25  O2  UNL     1      12.843  23.323  32.095  1.00  0.00    -0.371 OA
HETATM   26  C11 UNL     1      12.257  23.106  30.849  1.00  0.00     0.204 C 
ENDBRANCH   7  25
TORSDOF 6
ENDMDL
MODEL 4
REMARK VINA RESULT: -6.339439436      7.487      9.952
REMARK  6 active torsions:
REMARK  status: ('A' for Active; 'I' for Inactive)
REMARK    1  A    between atoms: C2_2  and  C3_3 
REMARK    2  A    between atoms: C3_3  and  C4_4 
REMARK    3  A    between atoms: C4_4  and  C5_5 
REMARK    4  A    between atoms: C5_5  and  C6_6 
REMARK    5  A    between atoms: C7_9  and  O1_10 
REMARK    6  A    between atoms: C10_14  and  O2_15 
ROOT
HETATM    1  C6  UNL     1      14.593  20.920  33.684  1.00  0.00     0.136 C 
HETATM    2  N1  UNL     1      13.639  21.881  33.253  1.00  0.00    -0.361 N 
ATOM      3  H1  UNL     1      14.024  22.565  32.601  1.00  0.00     0.162 HD
HETATM    4  C7  UNL     1      12.296  22.087  33.530  1.00  0.00     0.132 C 
HETATM    5  C8  UNL     1      11.472  22.264  34.693  1.00  0.00     0.033 C 
HETATM    6  C9  UNL     1      11.978  22.496  36.043  1.00  0.00     0.085 C 
HETATM    7  C10 UNL     1      12.765  23.716  36.308  1.00  0.00     0.223 C 
HETATM    8  N2  UNL     1      13.776  24.096  35.435  1.00  0.00    -0.371 N 
ATOM      9  H2  UNL     1      13.583  24.866  34.793  1.00  0.00     0.161 HD
HETATM   10  C12 UNL     1      15.020  23.507  35.373  1.00  0.00     0.117 C 
HETATM   11  C13 UNL     1      15.165  22.107  35.827  1.00  0.00     0.073 A 
HETATM   12  N3  UNL     1      15.513  21.713  37.070  1.00  0.00    -0.350 N 
ATOM     13  H3  UNL     1      15.716  22.343  37.845  1.00  0.00     0.166 HD
HETATM   14  C14 UNL     1      15.552  20.406  37.139  1.00  0.00     0.181 A 
HETATM   15  N4  UNL     1      15.228  19.935  35.931  1.00  0.00    -0.352 N 
ATOM     16  H4  UNL     1      15.173  18.950  35.671  1.00  0.00     0.166 HD
HETATM   17  C15 UNL     1      14.988  20.979  35.115  1.00  0.00     0.061 A 
ENDROOT
BRANCH   1  18
HETATM   18  C5  UNL     1      14.312  19.506  33.227  1.00  0.00     0.031 C 
BRANCH  18  19
HETATM   19  C4  UNL     1      14.942  19.101  31.950  1.00  0.00     0.002 C 
BRANCH  19  20
HETATM   20  C3  UNL     1      15.621  17.764  32.117  1.00  0.00    -0.000 C 
BRANCH  20  21
HETATM   21  C2  UNL     1      15.749  17.318  33.531  1.00  0.00    -0.005 C 
HETATM   22  C1  UNL     1      17.236  17.346  33.907  1.00  0.00     0.005 C 
ENDBRANCH  20  21
ENDBRANCH  19  20
ENDBRANCH  18  19
ENDBRANCH   1  18
BRANCH   4  23
HETATM   23  O1  UNL     1      11.560  22.138  32.447  1.00  0.00    -0.347 OA
ATOM     24  H1  UNL     1      12.016  21.815  31.680  1.00  0.00     0.219 HD
ENDBRANCH   4  23
BRANCH   7  25
HETATM   25  O2  UNL     1      13.245  23.657  37.615  1.00  0.00    -0.371 OA
HETATM   26  C11 UNL     1      13.037  24.845  38.314  1.00  0.00     0.204 C 
ENDBRANCH   7  25
TORSDOF 6
ENDMDL
MODEL 5
REMARK VINA RESULT: -6.318242165      8.064     10.195
REMARK  6 active torsions:
REMARK  status: ('A' for Active; 'I' for Inactive)
REMARK    1  A    between atoms: C2_2  and  C3_3 
REMARK    2  A    between atoms: C3_3  and  C4_4 
REMARK    3  A    between atoms: C4_4  and  C5_5 
REMARK    4  A    between atoms: C5_5  and  C6_6 
REMARK    5  A    between atoms: C7_9  and  O1_10 
REMARK    6  A    between atoms: C10_14  and  O2_15 
ROOT
HETATM    1  C6  UNL     1      14.354  21.401  34.761  1.00  0.00     0.136 C 
HETATM    2  N1  UNL     1      13.001  21.037  34.522  1.00  0.00    -0.361 N 
ATOM      3  H1  UNL     1      12.867  20.030  34.433  1.00  0.00     0.162 HD
HETATM    4  C7  UNL     1      11.826  21.759  34.386  1.00  0.00     0.132 C 
HETATM    5  C8  UNL     1      11.340  22.844  33.579  1.00  0.00     0.033 C 
HETATM    6  C9  UNL     1      12.024  23.379  32.406  1.00  0.00     0.085 C 
HETATM    7  C10 UNL     1      12.239  22.496  31.243  1.00  0.00     0.223 C 
HETATM    8  N2  UNL     1      12.719  21.206  31.428  1.00  0.00    -0.371 N 
ATOM      9  H2  UNL     1      12.051  20.437  31.357  1.00  0.00     0.161 HD
HETATM   10  C12 UNL     1      14.032  20.890  31.701  1.00  0.00     0.117 C 
HETATM   11  C13 UNL     1      14.885  21.906  32.354  1.00  0.00     0.073 A 
HETATM   12  N3  UNL     1      15.678  22.796  31.720  1.00  0.00    -0.350 N 
ATOM     13  H3  UNL     1      15.779  22.868  30.708  1.00  0.00     0.166 HD
HETATM   14  C14 UNL     1      16.300  23.552  32.590  1.00  0.00     0.181 A 
HETATM   15  N4  UNL     1      15.913  23.158  33.806  1.00  0.00    -0.352 N 
ATOM     16  H4  UNL     1      16.227  23.559  34.691  1.00  0.00     0.166 HD
HETATM   17  C15 UNL     1      15.039  22.141  33.670  1.00  0.00     0.061 A 
ENDROOT
BRANCH   1  18
HETATM   18  C5  UNL     1      14.610  22.018  36.118  1.00  0.00     0.031 C 
BRANCH  18  19
HETATM   19  C4  UNL     1      15.275  21.145  37.111  1.00  0.00     0.002 C 
BRANCH  19  20
HETATM   20  C3  UNL     1      14.955  21.623  38.506  1.00  0.00    -0.000 C 
BRANCH  20  21
HETATM   21  C2  UNL     1      16.108  21.579  39.444  1.00  0.00    -0.005 C 
HETATM   22  C1  UNL     1      15.556  21.481  40.873  1.00  0.00     0.005 C 
ENDBRANCH  20  21
ENDBRANCH  19  20
ENDBRANCH  18  19
ENDBRANCH   1  18
BRANCH   4  23
HETATM   23  O1  UNL     1      10.888  21.358  35.209  1.00  0.00    -0.347 OA
ATOM     24  H1  UNL     1      10.105  21.893  35.159  1.00  0.00     0.219 HD
ENDBRANCH   4  23
BRANCH   7  25
HETATM   25  O2  UNL     1      13.017  23.177  30.309  1.00  0.00    -0.371 OA
HETATM   26  C11 UNL     1      12.764  24.548  30.301  1.00  0.00     0.204 C 
ENDBRANCH   7  25
TORSDOF 6
ENDMDL
