MODEL 1
REMARK VINA RESULT: -7.529412131      0.000      0.000
REMARK  5 active torsions:
REMARK  status: ('A' for Active; 'I' for Inactive)
REMARK    1  A    between atoms: C4_8  and  C5_9 
REMARK    2  A    between atoms: N3_12  and  C8_13 
REMARK    3  A    between atoms: C8_13  and  C9_14 
REMARK    4  A    between atoms: C9_14  and  C10_15 
REMARK    5  A    between atoms: C10_15  and  C11_16 
ROOT
HETATM    1  C5  UNL     1       8.226  24.054  35.348  1.00  0.00    -0.008 C 
HETATM    2  C6  UNL     1       8.032  25.334  35.247  1.00  0.00     0.028 C 
HETATM    3  C7  UNL     1       6.724  25.964  35.465  1.00  0.00     0.090 C 
HETATM    4  N3  UNL     1       5.725  25.054  35.755  1.00  0.00    -0.370 N 
HETATM    5  C15 UNL     1       5.774  23.724  35.323  1.00  0.00     0.068 C 
HETATM    6  C16 UNL     1       7.115  23.101  35.695  1.00  0.00     0.087 C 
ENDROOT
BRANCH   1   7
HETATM    7  C4  UNL     1       9.551  23.475  35.120  1.00  0.00     0.116 A 
HETATM    8  N2  UNL     1      10.219  22.921  36.180  1.00  0.00    -0.309 N 
HETATM    9  C3  UNL     1      11.428  22.381  36.006  1.00  0.00     0.250 A 
ATOM     10  H2  UNL     1       9.792  22.921  37.106  1.00  0.00     0.170 HD
HETATM   11  C2  UNL     1      12.066  22.345  34.785  1.00  0.00     0.119 A 
HETATM   12  O1  UNL     1      12.046  21.865  37.001  1.00  0.00    -0.268 OA
HETATM   13  C1  UNL     1      11.394  22.899  33.731  1.00  0.00     0.123 A 
HETATM   14  N1  UNL     1      11.914  22.935  32.414  1.00  0.00    -0.083 NA
HETATM   15  N5  UNL     1      10.177  23.436  33.941  1.00  0.00    -0.330 N 
ATOM     16  H5  UNL     1       9.697  23.843  33.139  1.00  0.00     0.168 HD
ENDBRANCH   1   7
BRANCH   4  17
HETATM   17  C8  UNL     1       4.714  25.421  36.680  1.00  0.00     0.127 C 
BRANCH  17  18
HETATM   18  C9  UNL     1       5.310  25.170  38.080  1.00  0.00     0.022 C 
BRANCH  18  19
HETATM   19  C10 UNL     1       4.599  25.952  39.122  1.00  0.00     0.034 C 
BRANCH  19  20
HETATM   20  C11 UNL     1       5.527  26.821  39.884  1.00  0.00     0.186 C 
HETATM   21  C12 UNL     1       6.272  27.846  39.071  1.00  0.00     0.034 C 
HETATM   22  C13 UNL     1       6.320  29.103  39.939  1.00  0.00     0.029 C 
HETATM   23  C14 UNL     1       5.886  28.562  41.283  1.00  0.00     0.233 C 
HETATM   24  N4  UNL     1       4.855  27.605  40.907  1.00  0.00    -0.071 N 
ATOM     25  H42 UNL     1       3.967  28.017  40.621  1.00  0.00     0.277 HD
ATOM     26  H41 UNL     1       4.466  27.064  41.680  1.00  0.00     0.277 HD
ENDBRANCH  19  20
ENDBRANCH  18  19
ENDBRANCH  17  18
ENDBRANCH   4  17
TORSDOF 5
ENDMDL
MODEL 2
REMARK VINA RESULT: -7.512914302      1.012      1.087
REMARK  5 active torsions:
REMARK  status: ('A' for Active; 'I' for Inactive)
REMARK    1  A    between atoms: C4_8  and  C5_9 
REMARK    2  A    between atoms: N3_12  and  C8_13 
REMARK    3  A    between atoms: C8_13  and  C9_14 
REMARK    4  A    between atoms: C9_14  and  C10_15 
REMARK    5  A    between atoms: C10_15  and  C11_16 
ROOT
HETATM    1  C5  UNL     1       7.857  24.584  35.084  1.00  0.00    -0.008 C 
HETATM    2  C6  UNL     1       7.572  25.848  35.167  1.00  0.00     0.028 C 
HETATM    3  C7  UNL     1       6.284  26.345  35.670  1.00  0.00     0.090 C 
HETATM    4  N3  UNL     1       5.407  25.333  36.009  1.00  0.00    -0.370 N 
HETATM    5  C15 UNL     1       5.462  24.064  35.421  1.00  0.00     0.068 C 
HETATM    6  C16 UNL     1       6.882  23.514  35.493  1.00  0.00     0.087 C 
ENDROOT
BRANCH   1   7
HETATM    7  C4  UNL     1       9.156  24.140  34.575  1.00  0.00     0.116 A 
HETATM    8  N2  UNL     1       9.646  22.929  34.987  1.00  0.00    -0.309 N 
HETATM    9  C3  UNL     1      10.826  22.492  34.540  1.00  0.00     0.250 A 
ATOM     10  H2  UNL     1       9.108  22.358  35.639  1.00  0.00     0.170 HD
HETATM   11  C2  UNL     1      11.608  23.209  33.659  1.00  0.00     0.119 A 
HETATM   12  O1  UNL     1      11.278  21.360  34.929  1.00  0.00    -0.268 OA
HETATM   13  C1  UNL     1      11.113  24.417  33.251  1.00  0.00     0.123 A 
HETATM   14  N1  UNL     1      11.795  25.267  32.346  1.00  0.00    -0.083 NA
HETATM   15  N5  UNL     1       9.920  24.828  33.722  1.00  0.00    -0.330 N 
ATOM     16  H5  UNL     1       9.573  25.732  33.403  1.00  0.00     0.168 HD
ENDBRANCH   1   7
BRANCH   4  17
HETATM   17  C8  UNL     1       4.549  25.517  37.125  1.00  0.00     0.127 C 
BRANCH  17  18
HETATM   18  C9  UNL     1       5.414  25.251  38.373  1.00  0.00     0.022 C 
BRANCH  18  19
HETATM   19  C10 UNL     1       4.869  25.938  39.569  1.00  0.00     0.034 C 
BRANCH  19  20
HETATM   20  C11 UNL     1       5.813  26.951  40.098  1.00  0.00     0.186 C 
HETATM   21  C12 UNL     1       6.236  28.017  39.122  1.00  0.00     0.034 C 
HETATM   22  C13 UNL     1       6.297  29.313  39.930  1.00  0.00     0.029 C 
HETATM   23  C14 UNL     1       6.223  28.792  41.347  1.00  0.00     0.233 C 
HETATM   24  N4  UNL     1       5.270  27.699  41.220  1.00  0.00    -0.071 N 
ATOM     25  H42 UNL     1       4.296  27.985  41.117  1.00  0.00     0.277 HD
ATOM     26  H41 UNL     1       5.122  27.154  42.070  1.00  0.00     0.277 HD
ENDBRANCH  19  20
ENDBRANCH  18  19
ENDBRANCH  17  18
ENDBRANCH   4  17
TORSDOF 5
ENDMDL
MODEL 3
REMARK VINA RESULT: -7.496384052      1.292      1.774
REMARK  5 active torsions:
REMARK  status: ('A' for Active; 'I' for Inactive)
REMARK    1  A    between atoms: C4_8  and  C5_9 
REMARK    2  A    between atoms: N3_12  and  C8_13 
REMARK    3  A    between atoms: C8_13  and  C9_14 
REMARK    4  A    between atoms: C9_14  and  C10_15 
REMARK    5  A    between atoms: C10_15  and  C11_16 
ROOT
HETATM    1  C5  UNL     1       8.023  24.410  35.435  1.00  0.00    -0.008 C 
HETATM    2  C6  UNL     1       7.742  25.674  35.332  1.00  0.00     0.028 C 
HETATM    3  C7  UNL     1       6.402  26.218  35.585  1.00  0.00     0.090 C 
HETATM    4  N3  UNL     1       5.474  25.247  35.910  1.00  0.00    -0.370 N 
HETATM    5  C15 UNL     1       5.599  23.919  35.485  1.00  0.00     0.068 C 
HETATM    6  C16 UNL     1       6.988  23.389  35.820  1.00  0.00     0.087 C 
ENDROOT
BRANCH   1   7
HETATM    7  C4  UNL     1       9.376  23.918  35.171  1.00  0.00     0.116 A 
HETATM    8  N2  UNL     1       9.982  24.258  33.990  1.00  0.00    -0.309 N 
HETATM    9  C3  UNL     1      11.217  23.829  33.720  1.00  0.00     0.250 A 
ATOM     10  H2  UNL     1       9.488  24.840  33.315  1.00  0.00     0.170 HD
HETATM   11  C2  UNL     1      11.945  23.040  34.584  1.00  0.00     0.119 A 
HETATM   12  O1  UNL     1      11.777  24.150  32.615  1.00  0.00    -0.268 OA
HETATM   13  C1  UNL     1      11.336  22.705  35.762  1.00  0.00     0.123 A 
HETATM   14  N1  UNL     1      11.954  21.905  36.754  1.00  0.00    -0.083 NA
HETATM   15  N5  UNL     1      10.089  23.154  36.003  1.00  0.00    -0.330 N 
ATOM     16  H5  UNL     1       9.656  22.889  36.888  1.00  0.00     0.168 HD
ENDBRANCH   1   7
BRANCH   4  17
HETATM   17  C8  UNL     1       4.469  25.553  36.863  1.00  0.00     0.127 C 
BRANCH  17  18
HETATM   18  C9  UNL     1       5.080  25.232  38.242  1.00  0.00     0.022 C 
BRANCH  18  19
HETATM   19  C10 UNL     1       4.546  26.130  39.296  1.00  0.00     0.034 C 
BRANCH  19  20
HETATM   20  C11 UNL     1       5.618  26.940  39.922  1.00  0.00     0.186 C 
HETATM   21  C12 UNL     1       6.195  28.030  39.059  1.00  0.00     0.034 C 
HETATM   22  C13 UNL     1       6.431  29.214  39.996  1.00  0.00     0.029 C 
HETATM   23  C14 UNL     1       6.270  28.565  41.353  1.00  0.00     0.233 C 
HETATM   24  N4  UNL     1       5.175  27.637  41.118  1.00  0.00    -0.071 N 
ATOM     25  H42 UNL     1       4.252  28.066  41.050  1.00  0.00     0.277 HD
ATOM     26  H41 UNL     1       4.943  27.034  41.908  1.00  0.00     0.277 HD
ENDBRANCH  19  20
ENDBRANCH  18  19
ENDBRANCH  17  18
ENDBRANCH   4  17
TORSDOF 5
ENDMDL
MODEL 4
REMARK VINA RESULT: -7.417032781      2.492      4.661
REMARK  5 active torsions:
REMARK  status: ('A' for Active; 'I' for Inactive)
REMARK    1  A    between atoms: C4_8  and  C5_9 
REMARK    2  A    between atoms: N3_12  and  C8_13 
REMARK    3  A    between atoms: C8_13  and  C9_14 
REMARK    4  A    between atoms: C9_14  and  C10_15 
REMARK    5  A    between atoms: C10_15  and  C11_16 
ROOT
HETATM    1  C5  UNL     1      12.174  22.293  34.060  1.00  0.00    -0.008 C 
HETATM    2  C6  UNL     1      11.634  22.348  35.239  1.00  0.00     0.028 C 
HETATM    3  C7  UNL     1      10.537  23.266  35.575  1.00  0.00     0.090 C 
HETATM    4  N3  UNL     1      10.169  24.078  34.519  1.00  0.00    -0.370 N 
HETATM    5  C15 UNL     1      11.056  24.427  33.496  1.00  0.00     0.068 C 
HETATM    6  C16 UNL     1      11.722  23.177  32.930  1.00  0.00     0.087 C 
ENDROOT
BRANCH   1   7
HETATM    7  C4  UNL     1      13.266  21.360  33.777  1.00  0.00     0.116 A 
HETATM    8  N2  UNL     1      14.114  21.010  34.794  1.00  0.00    -0.309 N 
HETATM    9  C3  UNL     1      15.118  20.158  34.572  1.00  0.00     0.250 A 
ATOM     10  H2  UNL     1      13.978  21.402  35.726  1.00  0.00     0.170 HD
HETATM   11  C2  UNL     1      15.361  19.589  33.340  1.00  0.00     0.119 A 
HETATM   12  O1  UNL     1      15.905  19.836  35.527  1.00  0.00    -0.268 OA
HETATM   13  C1  UNL     1      14.511  19.942  32.329  1.00  0.00     0.123 A 
HETATM   14  N1  UNL     1      14.628  19.440  31.009  1.00  0.00    -0.083 NA
HETATM   15  N5  UNL     1      13.509  20.804  32.587  1.00  0.00    -0.330 N 
ATOM     16  H5  UNL     1      12.890  21.052  31.815  1.00  0.00     0.168 HD
ENDBRANCH   1   7
BRANCH   4  17
HETATM   17  C8  UNL     1       8.799  24.413  34.361  1.00  0.00     0.127 C 
BRANCH  17  18
HETATM   18  C9  UNL     1       8.003  23.242  34.970  1.00  0.00     0.022 C 
BRANCH  18  19
HETATM   19  C10 UNL     1       6.579  23.603  35.181  1.00  0.00     0.034 C 
BRANCH  19  20
HETATM   20  C11 UNL     1       6.414  24.547  36.311  1.00  0.00     0.186 C 
HETATM   21  C12 UNL     1       5.884  25.909  35.948  1.00  0.00     0.034 C 
HETATM   22  C13 UNL     1       4.930  26.293  37.078  1.00  0.00     0.029 C 
HETATM   23  C14 UNL     1       5.268  25.258  38.127  1.00  0.00     0.233 C 
HETATM   24  N4  UNL     1       5.485  24.066  37.319  1.00  0.00    -0.071 N 
ATOM     25  H42 UNL     1       4.637  23.633  36.952  1.00  0.00     0.277 HD
ATOM     26  H41 UNL     1       5.797  23.245  37.837  1.00  0.00     0.277 HD
ENDBRANCH  19  20
ENDBRANCH  18  19
ENDBRANCH  17  18
ENDBRANCH   4  17
TORSDOF 5
ENDMDL
MODEL 5
REMARK VINA RESULT: -7.324377647      3.626      9.207
REMARK  5 active torsions:
REMARK  status: ('A' for Active; 'I' for Inactive)
REMARK    1  A    between atoms: C4_8  and  C5_9 
REMARK    2  A    between atoms: N3_12  and  C8_13 
REMARK    3  A    between atoms: C8_13  and  C9_14 
REMARK    4  A    between atoms: C9_14  and  C10_15 
REMARK    5  A    between atoms: C10_15  and  C11_16 
ROOT
HETATM    1  C5  UNL     1      10.665  23.520  35.333  1.00  0.00    -0.008 C 
HETATM    2  C6  UNL     1      11.194  22.964  36.380  1.00  0.00     0.028 C 
HETATM    3  C7  UNL     1      12.582  22.484  36.416  1.00  0.00     0.090 C 
HETATM    4  N3  UNL     1      13.246  22.658  35.217  1.00  0.00    -0.370 N 
HETATM    5  C15 UNL     1      12.577  22.708  33.989  1.00  0.00     0.068 C 
HETATM    6  C16 UNL     1      11.435  23.715  34.055  1.00  0.00     0.087 C 
ENDROOT
BRANCH   1   7
HETATM    7  C4  UNL     1       9.276  23.980  35.348  1.00  0.00     0.116 A 
HETATM    8  N2  UNL     1       8.314  23.156  35.870  1.00  0.00    -0.309 N 
HETATM    9  C3  UNL     1       7.037  23.547  35.904  1.00  0.00     0.250 A 
ATOM     10  H2  UNL     1       8.573  22.240  36.235  1.00  0.00     0.170 HD
HETATM   11  C2  UNL     1       6.614  24.770  35.430  1.00  0.00     0.119 A 
HETATM   12  O1  UNL     1       6.145  22.772  36.393  1.00  0.00    -0.268 OA
HETATM   13  C1  UNL     1       7.578  25.589  34.911  1.00  0.00     0.123 A 
HETATM   14  N1  UNL     1       7.302  26.877  34.390  1.00  0.00    -0.083 NA
HETATM   15  N5  UNL     1       8.856  25.164  34.892  1.00  0.00    -0.330 N 
ATOM     16  H5  UNL     1       9.556  25.792  34.498  1.00  0.00     0.168 HD
ENDBRANCH   1   7
BRANCH   4  17
HETATM   17  C8  UNL     1      14.626  22.990  35.242  1.00  0.00     0.127 C 
BRANCH  17  18
HETATM   18  C9  UNL     1      15.313  22.016  34.265  1.00  0.00     0.022 C 
BRANCH  18  19
HETATM   19  C10 UNL     1      15.549  20.692  34.891  1.00  0.00     0.034 C 
BRANCH  19  20
HETATM   20  C11 UNL     1      15.382  19.586  33.919  1.00  0.00     0.186 C 
HETATM   21  C12 UNL     1      15.928  18.252  34.352  1.00  0.00     0.034 C 
HETATM   22  C13 UNL     1      14.922  17.215  33.854  1.00  0.00     0.029 C 
HETATM   23  C14 UNL     1      14.079  18.039  32.907  1.00  0.00     0.233 C 
HETATM   24  N4  UNL     1      13.989  19.311  33.608  1.00  0.00    -0.071 N 
ATOM     25  H42 UNL     1      13.359  19.319  34.410  1.00  0.00     0.277 HD
ATOM     26  H41 UNL     1      13.507  20.052  33.098  1.00  0.00     0.277 HD
ENDBRANCH  19  20
ENDBRANCH  18  19
ENDBRANCH  17  18
ENDBRANCH   4  17
TORSDOF 5
ENDMDL
