MODEL 1
REMARK VINA RESULT: -7.042615441      0.000      0.000
REMARK  7 active torsions:
REMARK  status: ('A' for Active; 'I' for Inactive)
REMARK    1  A    between atoms: N1_2  and  C2_5 
REMARK    2  A    between atoms: C2_5  and  C3_6 
REMARK    3  A    between atoms: C3_6  and  C4_7 
REMARK    4  A    between atoms: C4_7  and  C5_8 
REMARK    5  A    between atoms: C5_8  and  N2_9 
REMARK    6  A    between atoms: N2_9  and  C6_11 
REMARK    7  A    between atoms: C8_15  and  N4_16 
ROOT
HETATM    1  C6  UNL     1       6.689  26.172  35.905  1.00  0.00     0.117 C 
HETATM    2  C7  UNL     1       6.278  24.936  36.336  1.00  0.00     0.138 C 
HETATM    3  N3  UNL     1       5.394  24.620  37.328  1.00  0.00    -0.349 N 
ATOM      4  H3  UNL     1       4.845  23.767  37.214  1.00  0.00     0.167 HD
HETATM    5  C8  UNL     1       5.185  25.354  38.460  1.00  0.00     0.106 C 
HETATM    6  C9  UNL     1       5.566  26.668  38.730  1.00  0.00     0.008 C 
HETATM    7  C10 UNL     1       6.090  27.558  37.816  1.00  0.00     0.021 C 
HETATM    8  N5  UNL     1       6.714  27.308  36.629  1.00  0.00    -0.344 N 
ATOM      9  H5  UNL     1       7.266  28.073  36.243  1.00  0.00     0.167 HD
HETATM   10  C11 UNL     1       6.202  29.008  37.714  1.00  0.00     0.057 C 
HETATM   11  C12 UNL     1       6.147  29.762  38.998  1.00  0.00     0.006 C 
HETATM   12  C13 UNL     1       6.868  29.096  40.132  1.00  0.00     0.000 C 
HETATM   13  C14 UNL     1       5.914  28.737  41.249  1.00  0.00     0.000 C 
HETATM   14  C15 UNL     1       4.762  27.893  40.752  1.00  0.00     0.005 C 
HETATM   15  C16 UNL     1       5.206  26.613  40.143  1.00  0.00     0.044 C 
ENDROOT
BRANCH   1  16
HETATM   16  N2  UNL     1       7.093  26.269  34.688  1.00  0.00    -0.375 N 
ATOM     17  H2  UNL     1       6.880  27.098  34.132  1.00  0.00     0.161 HD
BRANCH  16  18
HETATM   18  C5  UNL     1       7.852  25.183  34.126  1.00  0.00     0.121 C 
BRANCH  18  19
HETATM   19  C4  UNL     1       9.347  25.416  34.243  1.00  0.00     0.021 C 
BRANCH  19  20
HETATM   20  C3  UNL     1       9.938  24.206  34.948  1.00  0.00     0.029 C 
BRANCH  20  21
HETATM   21  C2  UNL     1       8.972  23.028  34.859  1.00  0.00     0.231 C 
BRANCH  21  22
HETATM   22  N1  UNL     1       9.796  21.864  34.514  1.00  0.00    -0.079 N 
HETATM   23  C1  UNL     1      11.141  22.143  34.944  1.00  0.00     0.266 C 
ATOM     24  H12 UNL     1       9.738  21.615  33.526  1.00  0.00     0.276 HD
ATOM     25  H11 UNL     1       9.430  20.992  34.894  1.00  0.00     0.276 HD
ENDBRANCH  21  22
ENDBRANCH  20  21
ENDBRANCH  19  20
ENDBRANCH  18  19
ENDBRANCH  16  18
ENDBRANCH   1  16
BRANCH   5  26
HETATM   26  N4  UNL     1       4.553  24.784  39.432  1.00  0.00    -0.385 N 
ATOM     27  H42 UNL     1       3.757  24.221  39.131  1.00  0.00     0.157 HD
ATOM     28  H41 UNL     1       4.899  24.946  40.377  1.00  0.00     0.157 HD
ENDBRANCH   5  26
TORSDOF 7
ENDMDL
MODEL 2
REMARK VINA RESULT: -6.811894894      2.345      4.060
REMARK  7 active torsions:
REMARK  status: ('A' for Active; 'I' for Inactive)
REMARK    1  A    between atoms: N1_2  and  C2_5 
REMARK    2  A    between atoms: C2_5  and  C3_6 
REMARK    3  A    between atoms: C3_6  and  C4_7 
REMARK    4  A    between atoms: C4_7  and  C5_8 
REMARK    5  A    between atoms: C5_8  and  N2_9 
REMARK    6  A    between atoms: N2_9  and  C6_11 
REMARK    7  A    between atoms: C8_15  and  N4_16 
ROOT
HETATM    1  C6  UNL     1       9.388  24.309  34.445  1.00  0.00     0.117 C 
HETATM    2  C7  UNL     1       8.952  23.065  34.828  1.00  0.00     0.138 C 
HETATM    3  N3  UNL     1       7.687  22.655  35.142  1.00  0.00    -0.349 N 
ATOM      4  H3  UNL     1       7.442  21.687  34.932  1.00  0.00     0.167 HD
HETATM    5  C8  UNL     1       6.726  23.437  35.714  1.00  0.00     0.106 C 
HETATM    6  C9  UNL     1       6.688  24.826  35.834  1.00  0.00     0.008 C 
HETATM    7  C10 UNL     1       7.557  25.710  35.230  1.00  0.00     0.021 C 
HETATM    8  N5  UNL     1       8.814  25.489  34.746  1.00  0.00    -0.344 N 
ATOM      9  H5  UNL     1       9.387  26.319  34.595  1.00  0.00     0.167 HD
HETATM   10  C11 UNL     1       7.530  27.123  34.872  1.00  0.00     0.057 C 
HETATM   11  C12 UNL     1       6.588  27.978  35.648  1.00  0.00     0.006 C 
HETATM   12  C13 UNL     1       6.509  27.638  37.106  1.00  0.00     0.000 C 
HETATM   13  C14 UNL     1       5.117  27.183  37.485  1.00  0.00     0.000 C 
HETATM   14  C15 UNL     1       4.649  26.034  36.621  1.00  0.00     0.005 C 
HETATM   15  C16 UNL     1       5.529  24.842  36.720  1.00  0.00     0.044 C 
ENDROOT
BRANCH   1  16
HETATM   16  N2  UNL     1      10.453  24.367  33.726  1.00  0.00    -0.375 N 
ATOM     17  H2  UNL     1      10.456  24.872  32.840  1.00  0.00     0.161 HD
BRANCH  16  18
HETATM   18  C5  UNL     1      11.639  23.702  34.198  1.00  0.00     0.121 C 
BRANCH  18  19
HETATM   19  C4  UNL     1      12.205  22.749  33.160  1.00  0.00     0.021 C 
BRANCH  19  20
HETATM   20  C3  UNL     1      13.094  21.759  33.895  1.00  0.00     0.029 C 
BRANCH  20  21
HETATM   21  C2  UNL     1      13.835  20.880  32.891  1.00  0.00     0.231 C 
BRANCH  21  22
HETATM   22  N1  UNL     1      13.749  19.514  33.420  1.00  0.00    -0.079 N 
HETATM   23  C1  UNL     1      14.249  18.625  32.406  1.00  0.00     0.266 C 
ATOM     24  H12 UNL     1      12.811  19.269  33.736  1.00  0.00     0.276 HD
ATOM     25  H11 UNL     1      14.225  19.404  34.315  1.00  0.00     0.276 HD
ENDBRANCH  21  22
ENDBRANCH  20  21
ENDBRANCH  19  20
ENDBRANCH  18  19
ENDBRANCH  16  18
ENDBRANCH   1  16
BRANCH   5  26
HETATM   26  N4  UNL     1       5.698  22.841  36.222  1.00  0.00    -0.385 N 
ATOM     27  H42 UNL     1       5.514  21.922  35.820  1.00  0.00     0.157 HD
ATOM     28  H41 UNL     1       5.185  23.331  36.955  1.00  0.00     0.157 HD
ENDBRANCH   5  26
TORSDOF 7
ENDMDL
MODEL 3
REMARK VINA RESULT: -6.606671298      2.291      3.869
REMARK  7 active torsions:
REMARK  status: ('A' for Active; 'I' for Inactive)
REMARK    1  A    between atoms: N1_2  and  C2_5 
REMARK    2  A    between atoms: C2_5  and  C3_6 
REMARK    3  A    between atoms: C3_6  and  C4_7 
REMARK    4  A    between atoms: C4_7  and  C5_8 
REMARK    5  A    between atoms: C5_8  and  N2_9 
REMARK    6  A    between atoms: N2_9  and  C6_11 
REMARK    7  A    between atoms: C8_15  and  N4_16 
ROOT
HETATM    1  C6  UNL     1       9.431  24.424  34.435  1.00  0.00     0.117 C 
HETATM    2  C7  UNL     1       9.015  23.166  34.792  1.00  0.00     0.138 C 
HETATM    3  N3  UNL     1       7.757  22.729  35.099  1.00  0.00    -0.349 N 
ATOM      4  H3  UNL     1       7.528  21.762  34.870  1.00  0.00     0.167 HD
HETATM    5  C8  UNL     1       6.784  23.484  35.687  1.00  0.00     0.106 C 
HETATM    6  C9  UNL     1       6.724  24.870  35.835  1.00  0.00     0.008 C 
HETATM    7  C10 UNL     1       7.578  25.779  35.248  1.00  0.00     0.021 C 
HETATM    8  N5  UNL     1       8.837  25.589  34.759  1.00  0.00    -0.344 N 
ATOM      9  H5  UNL     1       9.397  26.430  34.624  1.00  0.00     0.167 HD
HETATM   10  C11 UNL     1       7.528  27.199  34.919  1.00  0.00     0.057 C 
HETATM   11  C12 UNL     1       6.573  28.023  35.711  1.00  0.00     0.006 C 
HETATM   12  C13 UNL     1       6.500  27.652  37.163  1.00  0.00     0.000 C 
HETATM   13  C14 UNL     1       5.116  27.168  37.533  1.00  0.00     0.000 C 
HETATM   14  C15 UNL     1       4.666  26.029  36.646  1.00  0.00     0.005 C 
HETATM   15  C16 UNL     1       5.566  24.849  36.722  1.00  0.00     0.044 C 
ENDROOT
BRANCH   1  16
HETATM   16  N2  UNL     1      10.493  24.513  33.715  1.00  0.00    -0.375 N 
ATOM     17  H2  UNL     1      10.778  25.406  33.314  1.00  0.00     0.161 HD
BRANCH  16  18
HETATM   18  C5  UNL     1      11.272  23.324  33.489  1.00  0.00     0.121 C 
BRANCH  18  19
HETATM   19  C4  UNL     1      12.638  23.407  34.148  1.00  0.00     0.021 C 
BRANCH  19  20
HETATM   20  C3  UNL     1      12.852  22.108  34.906  1.00  0.00     0.029 C 
BRANCH  20  21
HETATM   21  C2  UNL     1      12.872  22.379  36.408  1.00  0.00     0.231 C 
BRANCH  21  22
HETATM   22  N1  UNL     1      13.665  21.293  36.996  1.00  0.00    -0.079 N 
HETATM   23  C1  UNL     1      14.868  21.876  37.529  1.00  0.00     0.266 C 
ATOM     24  H12 UNL     1      13.847  20.534  36.340  1.00  0.00     0.276 HD
ATOM     25  H11 UNL     1      13.146  20.752  37.687  1.00  0.00     0.276 HD
ENDBRANCH  21  22
ENDBRANCH  20  21
ENDBRANCH  19  20
ENDBRANCH  18  19
ENDBRANCH  16  18
ENDBRANCH   1  16
BRANCH   5  26
HETATM   26  N4  UNL     1       5.766  22.862  36.184  1.00  0.00    -0.385 N 
ATOM     27  H42 UNL     1       5.238  23.412  36.862  1.00  0.00     0.157 HD
ATOM     28  H41 UNL     1       5.593  21.910  35.860  1.00  0.00     0.157 HD
ENDBRANCH   5  26
TORSDOF 7
ENDMDL
MODEL 4
REMARK VINA RESULT: -6.604400652      2.504      3.533
REMARK  7 active torsions:
REMARK  status: ('A' for Active; 'I' for Inactive)
REMARK    1  A    between atoms: N1_2  and  C2_5 
REMARK    2  A    between atoms: C2_5  and  C3_6 
REMARK    3  A    between atoms: C3_6  and  C4_7 
REMARK    4  A    between atoms: C4_7  and  C5_8 
REMARK    5  A    between atoms: C5_8  and  N2_9 
REMARK    6  A    between atoms: N2_9  and  C6_11 
REMARK    7  A    between atoms: C8_15  and  N4_16 
ROOT
HETATM    1  C6  UNL     1       7.756  23.546  35.514  1.00  0.00     0.117 C 
HETATM    2  C7  UNL     1       6.637  23.119  36.184  1.00  0.00     0.138 C 
HETATM    3  N3  UNL     1       5.423  23.734  36.313  1.00  0.00    -0.349 N 
ATOM      4  H3  UNL     1       4.601  23.135  36.396  1.00  0.00     0.167 HD
HETATM    5  C8  UNL     1       5.224  25.084  36.340  1.00  0.00     0.106 C 
HETATM    6  C9  UNL     1       6.099  26.103  35.966  1.00  0.00     0.008 C 
HETATM    7  C10 UNL     1       7.304  25.931  35.318  1.00  0.00     0.021 C 
HETATM    8  N5  UNL     1       8.095  24.822  35.249  1.00  0.00    -0.344 N 
ATOM      9  H5  UNL     1       9.061  24.979  34.962  1.00  0.00     0.167 HD
HETATM   10  C11 UNL     1       8.181  26.764  34.504  1.00  0.00     0.057 C 
HETATM   11  C12 UNL     1       8.053  28.236  34.695  1.00  0.00     0.006 C 
HETATM   12  C13 UNL     1       7.840  28.653  36.120  1.00  0.00     0.000 C 
HETATM   13  C14 UNL     1       6.504  29.340  36.293  1.00  0.00     0.000 C 
HETATM   14  C15 UNL     1       5.364  28.483  35.789  1.00  0.00     0.005 C 
HETATM   15  C16 UNL     1       5.268  27.179  36.495  1.00  0.00     0.044 C 
ENDROOT
BRANCH   1  16
HETATM   16  N2  UNL     1       8.570  22.645  35.089  1.00  0.00    -0.375 N 
ATOM     17  H2  UNL     1       8.236  21.711  34.854  1.00  0.00     0.161 HD
BRANCH  16  18
HETATM   18  C5  UNL     1       9.962  22.985  34.955  1.00  0.00     0.121 C 
BRANCH  18  19
HETATM   19  C4  UNL     1      10.716  22.812  36.261  1.00  0.00     0.021 C 
BRANCH  19  20
HETATM   20  C3  UNL     1      12.109  22.311  35.914  1.00  0.00     0.029 C 
BRANCH  20  21
HETATM   21  C2  UNL     1      12.260  22.202  34.400  1.00  0.00     0.231 C 
BRANCH  21  22
HETATM   22  N1  UNL     1      12.983  20.947  34.163  1.00  0.00    -0.079 N 
HETATM   23  C1  UNL     1      14.075  21.238  33.273  1.00  0.00     0.266 C 
ATOM     24  H12 UNL     1      12.379  20.200  33.821  1.00  0.00     0.276 HD
ATOM     25  H11 UNL     1      13.283  20.492  35.025  1.00  0.00     0.276 HD
ENDBRANCH  21  22
ENDBRANCH  20  21
ENDBRANCH  19  20
ENDBRANCH  18  19
ENDBRANCH  16  18
ENDBRANCH   1  16
BRANCH   5  26
HETATM   26  N4  UNL     1       4.079  25.508  36.765  1.00  0.00    -0.385 N 
ATOM     27  H42 UNL     1       3.567  24.824  37.322  1.00  0.00     0.157 HD
ATOM     28  H41 UNL     1       3.807  26.458  36.511  1.00  0.00     0.157 HD
ENDBRANCH   5  26
TORSDOF 7
ENDMDL
MODEL 5
REMARK VINA RESULT: -6.582369110      5.397      8.383
REMARK  7 active torsions:
REMARK  status: ('A' for Active; 'I' for Inactive)
REMARK    1  A    between atoms: N1_2  and  C2_5 
REMARK    2  A    between atoms: C2_5  and  C3_6 
REMARK    3  A    between atoms: C3_6  and  C4_7 
REMARK    4  A    between atoms: C4_7  and  C5_8 
REMARK    5  A    between atoms: C5_8  and  N2_9 
REMARK    6  A    between atoms: N2_9  and  C6_11 
REMARK    7  A    between atoms: C8_15  and  N4_16 
ROOT
HETATM    1  C6  UNL     1      12.894  21.660  33.292  1.00  0.00     0.117 C 
HETATM    2  C7  UNL     1      13.307  22.489  32.278  1.00  0.00     0.138 C 
HETATM    3  N3  UNL     1      13.107  23.832  32.129  1.00  0.00    -0.349 N 
ATOM      4  H3  UNL     1      13.831  24.363  31.642  1.00  0.00     0.167 HD
HETATM    5  C8  UNL     1      12.018  24.521  32.580  1.00  0.00     0.106 C 
HETATM    6  C9  UNL     1      11.052  24.119  33.501  1.00  0.00     0.008 C 
HETATM    7  C10 UNL     1      11.108  22.985  34.283  1.00  0.00     0.021 C 
HETATM    8  N5  UNL     1      11.829  21.842  34.095  1.00  0.00    -0.344 N 
ATOM      9  H5  UNL     1      11.524  21.027  34.627  1.00  0.00     0.167 HD
HETATM   10  C11 UNL     1      10.491  22.542  35.528  1.00  0.00     0.057 C 
HETATM   11  C12 UNL     1       9.205  23.199  35.894  1.00  0.00     0.006 C 
HETATM   12  C13 UNL     1       8.294  23.455  34.730  1.00  0.00     0.000 C 
HETATM   13  C14 UNL     1       8.053  24.936  34.542  1.00  0.00     0.000 C 
HETATM   14  C15 UNL     1       9.349  25.703  34.411  1.00  0.00     0.005 C 
HETATM   15  C16 UNL     1      10.169  25.255  33.257  1.00  0.00     0.044 C 
ENDROOT
BRANCH   1  16
HETATM   16  N2  UNL     1      13.589  20.599  33.507  1.00  0.00    -0.375 N 
ATOM     17  H2  UNL     1      13.317  19.936  34.233  1.00  0.00     0.161 HD
BRANCH  16  18
HETATM   18  C5  UNL     1      14.758  20.367  32.700  1.00  0.00     0.121 C 
BRANCH  18  19
HETATM   19  C4  UNL     1      14.701  19.023  31.994  1.00  0.00     0.021 C 
BRANCH  19  20
HETATM   20  C3  UNL     1      14.016  18.048  32.937  1.00  0.00     0.029 C 
BRANCH  20  21
HETATM   21  C2  UNL     1      15.053  17.376  33.833  1.00  0.00     0.231 C 
BRANCH  21  22
HETATM   22  N1  UNL     1      16.214  17.119  32.973  1.00  0.00    -0.079 N 
HETATM   23  C1  UNL     1      17.390  17.211  33.796  1.00  0.00     0.266 C 
ATOM     24  H12 UNL     1      16.248  17.732  32.159  1.00  0.00     0.276 HD
ATOM     25  H11 UNL     1      16.148  16.234  32.471  1.00  0.00     0.276 HD
ENDBRANCH  21  22
ENDBRANCH  20  21
ENDBRANCH  19  20
ENDBRANCH  18  19
ENDBRANCH  16  18
ENDBRANCH   1  16
BRANCH   5  26
HETATM   26  N4  UNL     1      11.828  25.709  32.108  1.00  0.00    -0.385 N 
ATOM     27  H42 UNL     1      10.849  25.926  31.922  1.00  0.00     0.157 HD
ATOM     28  H41 UNL     1      12.650  26.297  31.971  1.00  0.00     0.157 HD
ENDBRANCH   5  26
TORSDOF 7
ENDMDL
