MODEL 1
REMARK VINA RESULT: -6.663645233      0.000      0.000
REMARK  6 active torsions:
REMARK  status: ('A' for Active; 'I' for Inactive)
REMARK    1  A    between atoms: C2_2  and  C3_3 
REMARK    2  A    between atoms: C5_10  and  N4_11 
REMARK    3  A    between atoms: C10_16  and  O1_17 
REMARK    4  A    between atoms: O1_17  and  C11_18 
REMARK    5  A    between atoms: C11_18  and  C12_19 
REMARK    6  A    between atoms: C12_19  and  O2_20 
ROOT
HETATM    1  C3  UNL     1      -1.303  18.606  -4.272  1.00  0.00     0.097 A 
HETATM    2  N1  UNL     1      -1.781  17.350  -4.163  1.00  0.00    -0.333 N 
ATOM      3  H1  UNL     1      -1.277  16.548  -3.785  1.00  0.00     0.168 HD
HETATM    4  C4  UNL     1      -3.037  17.342  -4.639  1.00  0.00     0.102 A 
HETATM    5  N2  UNL     1      -3.359  18.580  -5.048  1.00  0.00    -0.255 N 
HETATM    6  N3  UNL     1      -2.287  19.331  -4.813  1.00  0.00    -0.283 N 
ATOM      7  H3  UNL     1      -2.224  20.328  -5.019  1.00  0.00     0.188 HD
HETATM    8  C5  UNL     1      -4.637  18.951  -5.623  1.00  0.00     0.208 C 
HETATM    9  C14 UNL     1      -5.477  17.770  -5.989  1.00  0.00     0.049 C 
HETATM   10  C15 UNL     1      -4.706  16.476  -6.120  1.00  0.00     0.011 C 
HETATM   11  C16 UNL     1      -4.036  16.253  -4.771  1.00  0.00     0.078 C 
ENDROOT
BRANCH   8  12
HETATM   12  N4  UNL     1      -5.388  19.855  -4.852  1.00  0.00    -0.368 N 
HETATM   13  C6  UNL     1      -5.559  19.637  -3.481  1.00  0.00     0.060 C 
HETATM   14  C7  UNL     1      -6.043  20.836  -2.712  1.00  0.00     0.044 C 
HETATM   15  C8  UNL     1      -7.277  21.468  -3.276  1.00  0.00     0.008 C 
HETATM   16  C9  UNL     1      -7.918  20.718  -4.391  1.00  0.00     0.034 C 
HETATM   17  C10 UNL     1      -7.244  21.094  -5.685  1.00  0.00     0.139 C 
HETATM   18  C13 UNL     1      -5.749  21.096  -5.417  1.00  0.00     0.155 C 
BRANCH  17  19
HETATM   19  O1  UNL     1      -7.585  22.340  -6.141  1.00  0.00    -0.382 OA
BRANCH  19  20
HETATM   20  C11 UNL     1      -6.549  23.166  -6.466  1.00  0.00     0.194 C 
BRANCH  20  21
HETATM   21  C12 UNL     1      -6.783  24.627  -6.253  1.00  0.00     0.190 C 
BRANCH  21  22
HETATM   22  O2  UNL     1      -6.056  25.327  -7.244  1.00  0.00    -0.399 OA
ATOM     23  H2  UNL     1      -6.626  25.440  -7.995  1.00  0.00     0.209 HD
ENDBRANCH  21  22
ENDBRANCH  20  21
ENDBRANCH  19  20
ENDBRANCH  17  19
ENDBRANCH   8  12
BRANCH   1  24
HETATM   24  C2  UNL     1       0.058  19.092  -3.868  1.00  0.00     0.073 C 
HETATM   25  C1  UNL     1       0.927  17.957  -3.402  1.00  0.00     0.013 C 
ENDBRANCH   1  24
TORSDOF 6
ENDMDL
MODEL 2
REMARK VINA RESULT: -6.604363555      3.576      7.053
REMARK  6 active torsions:
REMARK  status: ('A' for Active; 'I' for Inactive)
REMARK    1  A    between atoms: C2_2  and  C3_3 
REMARK    2  A    between atoms: C5_10  and  N4_11 
REMARK    3  A    between atoms: C10_16  and  O1_17 
REMARK    4  A    between atoms: O1_17  and  C11_18 
REMARK    5  A    between atoms: C11_18  and  C12_19 
REMARK    6  A    between atoms: C12_19  and  O2_20 
ROOT
HETATM    1  C3  UNL     1      -4.909  21.062  -1.618  1.00  0.00     0.097 A 
HETATM    2  N1  UNL     1      -4.468  21.139  -0.347  1.00  0.00    -0.333 N 
ATOM      3  H1  UNL     1      -5.050  21.153   0.490  1.00  0.00     0.168 HD
HETATM    4  C4  UNL     1      -3.126  21.194  -0.377  1.00  0.00     0.102 A 
HETATM    5  N2  UNL     1      -2.714  21.152  -1.654  1.00  0.00    -0.255 N 
HETATM    6  N3  UNL     1      -3.818  21.071  -2.390  1.00  0.00    -0.283 N 
ATOM      7  H3  UNL     1      -3.832  21.023  -3.409  1.00  0.00     0.188 HD
HETATM    8  C5  UNL     1      -1.327  21.193  -2.074  1.00  0.00     0.208 C 
HETATM    9  C14 UNL     1      -0.395  21.577  -0.971  1.00  0.00     0.049 C 
HETATM   10  C15 UNL     1      -1.064  22.264   0.197  1.00  0.00     0.011 C 
HETATM   11  C16 UNL     1      -2.116  21.290   0.707  1.00  0.00     0.078 C 
ENDROOT
BRANCH   8  12
HETATM   12  N4  UNL     1      -0.870  20.024  -2.707  1.00  0.00    -0.368 N 
HETATM   13  C6  UNL     1       0.453  19.604  -2.536  1.00  0.00     0.060 C 
HETATM   14  C7  UNL     1       0.713  18.178  -2.938  1.00  0.00     0.044 C 
HETATM   15  C8  UNL     1       0.255  17.839  -4.322  1.00  0.00     0.008 C 
HETATM   16  C9  UNL     1      -0.222  18.994  -5.131  1.00  0.00     0.034 C 
HETATM   17  C10 UNL     1      -1.672  19.249  -4.812  1.00  0.00     0.139 C 
HETATM   18  C13 UNL     1      -1.811  19.159  -3.302  1.00  0.00     0.155 C 
BRANCH  17  19
HETATM   19  O1  UNL     1      -2.526  18.330  -5.362  1.00  0.00    -0.382 OA
BRANCH  19  20
HETATM   20  C11 UNL     1      -3.239  17.569  -4.483  1.00  0.00     0.194 C 
BRANCH  20  21
HETATM   21  C12 UNL     1      -3.545  16.173  -4.922  1.00  0.00     0.190 C 
BRANCH  21  22
HETATM   22  O2  UNL     1      -2.319  15.471  -5.001  1.00  0.00    -0.399 OA
ATOM     23  H2  UNL     1      -2.309  14.829  -4.300  1.00  0.00     0.209 HD
ENDBRANCH  21  22
ENDBRANCH  20  21
ENDBRANCH  19  20
ENDBRANCH  17  19
ENDBRANCH   8  12
BRANCH   1  24
HETATM   24  C2  UNL     1      -6.337  20.982  -2.074  1.00  0.00     0.073 C 
HETATM   25  C1  UNL     1      -7.255  21.693  -1.120  1.00  0.00     0.013 C 
ENDBRANCH   1  24
TORSDOF 6
ENDMDL
MODEL 3
REMARK VINA RESULT: -6.550009602      1.715      2.040
REMARK  6 active torsions:
REMARK  status: ('A' for Active; 'I' for Inactive)
REMARK    1  A    between atoms: C2_2  and  C3_3 
REMARK    2  A    between atoms: C5_10  and  N4_11 
REMARK    3  A    between atoms: C10_16  and  O1_17 
REMARK    4  A    between atoms: O1_17  and  C11_18 
REMARK    5  A    between atoms: C11_18  and  C12_19 
REMARK    6  A    between atoms: C12_19  and  O2_20 
ROOT
HETATM    1  C3  UNL     1      -0.976  18.715  -4.076  1.00  0.00     0.097 A 
HETATM    2  N1  UNL     1      -1.641  17.567  -4.309  1.00  0.00    -0.333 N 
ATOM      3  H1  UNL     1      -1.237  16.630  -4.312  1.00  0.00     0.168 HD
HETATM    4  C4  UNL     1      -2.929  17.872  -4.536  1.00  0.00     0.102 A 
HETATM    5  N2  UNL     1      -3.086  19.203  -4.448  1.00  0.00    -0.255 N 
HETATM    6  N3  UNL     1      -1.882  19.693  -4.167  1.00  0.00    -0.283 N 
ATOM      7  H3  UNL     1      -1.678  20.684  -4.038  1.00  0.00     0.188 HD
HETATM    8  C5  UNL     1      -4.344  19.898  -4.637  1.00  0.00     0.208 C 
HETATM    9  C14 UNL     1      -5.409  19.029  -5.224  1.00  0.00     0.049 C 
HETATM   10  C15 UNL     1      -4.889  17.785  -5.907  1.00  0.00     0.011 C 
HETATM   11  C16 UNL     1      -4.106  17.023  -4.847  1.00  0.00     0.078 C 
ENDROOT
BRANCH   8  12
HETATM   12  N4  UNL     1      -4.832  20.551  -3.492  1.00  0.00    -0.368 N 
HETATM   13  C6  UNL     1      -4.760  19.928  -2.242  1.00  0.00     0.060 C 
HETATM   14  C7  UNL     1      -4.956  20.850  -1.071  1.00  0.00     0.044 C 
HETATM   15  C8  UNL     1      -6.200  21.679  -1.145  1.00  0.00     0.008 C 
HETATM   16  C9  UNL     1      -7.119  21.339  -2.266  1.00  0.00     0.034 C 
HETATM   17  C10 UNL     1      -6.669  22.067  -3.505  1.00  0.00     0.139 C 
HETATM   18  C13 UNL     1      -5.159  21.921  -3.576  1.00  0.00     0.155 C 
BRANCH  17  19
HETATM   19  O1  UNL     1      -6.956  23.407  -3.490  1.00  0.00    -0.382 OA
BRANCH  19  20
HETATM   20  C11 UNL     1      -8.108  23.783  -4.117  1.00  0.00     0.194 C 
BRANCH  20  21
HETATM   21  C12 UNL     1      -8.562  22.903  -5.236  1.00  0.00     0.190 C 
BRANCH  21  22
HETATM   22  O2  UNL     1      -9.887  22.496  -4.951  1.00  0.00    -0.399 OA
ATOM     23  H2  UNL     1     -10.474  23.069  -5.430  1.00  0.00     0.209 HD
ENDBRANCH  21  22
ENDBRANCH  20  21
ENDBRANCH  19  20
ENDBRANCH  17  19
ENDBRANCH   8  12
BRANCH   1  24
HETATM   24  C2  UNL     1       0.487  18.866  -3.776  1.00  0.00     0.073 C 
HETATM   25  C1  UNL     1       1.110  17.546  -3.419  1.00  0.00     0.013 C 
ENDBRANCH   1  24
TORSDOF 6
ENDMDL
MODEL 4
REMARK VINA RESULT: -6.541029155      3.757      6.253
REMARK  6 active torsions:
REMARK  status: ('A' for Active; 'I' for Inactive)
REMARK    1  A    between atoms: C2_2  and  C3_3 
REMARK    2  A    between atoms: C5_10  and  N4_11 
REMARK    3  A    between atoms: C10_16  and  O1_17 
REMARK    4  A    between atoms: O1_17  and  C11_18 
REMARK    5  A    between atoms: C11_18  and  C12_19 
REMARK    6  A    between atoms: C12_19  and  O2_20 
ROOT
HETATM    1  C3  UNL     1      -4.362  16.225  -4.927  1.00  0.00     0.097 A 
HETATM    2  N1  UNL     1      -4.887  16.410  -3.700  1.00  0.00    -0.333 N 
ATOM      3  H1  UNL     1      -5.445  15.734  -3.179  1.00  0.00     0.168 HD
HETATM    4  C4  UNL     1      -4.545  17.641  -3.284  1.00  0.00     0.102 A 
HETATM    5  N2  UNL     1      -3.807  18.236  -4.235  1.00  0.00    -0.255 N 
HETATM    6  N3  UNL     1      -3.710  17.354  -5.225  1.00  0.00    -0.283 N 
ATOM      7  H3  UNL     1      -3.206  17.517  -6.097  1.00  0.00     0.188 HD
HETATM    8  C5  UNL     1      -3.262  19.575  -4.136  1.00  0.00     0.208 C 
HETATM    9  C14 UNL     1      -3.831  20.354  -2.995  1.00  0.00     0.049 C 
HETATM   10  C15 UNL     1      -5.134  19.808  -2.458  1.00  0.00     0.011 C 
HETATM   11  C16 UNL     1      -4.840  18.377  -2.029  1.00  0.00     0.078 C 
ENDROOT
BRANCH   8  12
HETATM   12  N4  UNL     1      -1.858  19.637  -4.109  1.00  0.00    -0.368 N 
HETATM   13  C6  UNL     1      -1.100  18.768  -4.901  1.00  0.00     0.060 C 
HETATM   14  C7  UNL     1       0.338  19.173  -5.073  1.00  0.00     0.044 C 
HETATM   15  C8  UNL     1       1.059  19.435  -3.788  1.00  0.00     0.008 C 
HETATM   16  C9  UNL     1       0.298  19.093  -2.555  1.00  0.00     0.034 C 
HETATM   17  C10 UNL     1      -0.589  20.254  -2.190  1.00  0.00     0.139 C 
HETATM   18  C13 UNL     1      -1.236  20.735  -3.477  1.00  0.00     0.155 C 
BRANCH  17  19
HETATM   19  O1  UNL     1       0.088  21.314  -1.646  1.00  0.00    -0.382 OA
BRANCH  19  20
HETATM   20  C11 UNL     1      -0.630  22.127  -0.819  1.00  0.00     0.194 C 
BRANCH  20  21
HETATM   21  C12 UNL     1      -1.283  21.461   0.349  1.00  0.00     0.190 C 
BRANCH  21  22
HETATM   22  O2  UNL     1      -0.473  21.696   1.485  1.00  0.00    -0.399 OA
ATOM     23  H2  UNL     1      -0.431  22.635   1.621  1.00  0.00     0.209 HD
ENDBRANCH  21  22
ENDBRANCH  20  21
ENDBRANCH  19  20
ENDBRANCH  17  19
ENDBRANCH   8  12
BRANCH   1  24
HETATM   24  C2  UNL     1      -4.485  15.001  -5.787  1.00  0.00     0.073 C 
HETATM   25  C1  UNL     1      -4.939  15.352  -7.175  1.00  0.00     0.013 C 
ENDBRANCH   1  24
TORSDOF 6
ENDMDL
MODEL 5
REMARK VINA RESULT: -6.537105734      3.128      6.537
REMARK  6 active torsions:
REMARK  status: ('A' for Active; 'I' for Inactive)
REMARK    1  A    between atoms: C2_2  and  C3_3 
REMARK    2  A    between atoms: C5_10  and  N4_11 
REMARK    3  A    between atoms: C10_16  and  O1_17 
REMARK    4  A    between atoms: O1_17  and  C11_18 
REMARK    5  A    between atoms: C11_18  and  C12_19 
REMARK    6  A    between atoms: C12_19  and  O2_20 
ROOT
HETATM    1  C3  UNL     1      -4.421  23.594  -4.935  1.00  0.00     0.097 A 
HETATM    2  N1  UNL     1      -5.533  22.838  -4.846  1.00  0.00    -0.333 N 
ATOM      3  H1  UNL     1      -6.367  22.927  -5.427  1.00  0.00     0.168 HD
HETATM    4  C4  UNL     1      -5.350  21.946  -3.858  1.00  0.00     0.102 A 
HETATM    5  N2  UNL     1      -4.133  22.129  -3.322  1.00  0.00    -0.255 N 
HETATM    6  N3  UNL     1      -3.588  23.138  -3.994  1.00  0.00    -0.283 N 
ATOM      7  H3  UNL     1      -2.656  23.515  -3.816  1.00  0.00     0.188 HD
HETATM    8  C5  UNL     1      -3.589  21.349  -2.228  1.00  0.00     0.208 C 
HETATM    9  C14 UNL     1      -4.615  20.499  -1.550  1.00  0.00     0.049 C 
HETATM   10  C15 UNL     1      -6.043  20.925  -1.807  1.00  0.00     0.011 C 
HETATM   11  C16 UNL     1      -6.227  20.877  -3.318  1.00  0.00     0.078 C 
ENDROOT
BRANCH   8  12
HETATM   12  N4  UNL     1      -2.466  20.573  -2.561  1.00  0.00    -0.368 N 
HETATM   13  C6  UNL     1      -1.185  20.993  -2.188  1.00  0.00     0.060 C 
HETATM   14  C7  UNL     1      -0.130  19.924  -2.262  1.00  0.00     0.044 C 
HETATM   15  C8  UNL     1      -0.061  19.221  -3.582  1.00  0.00     0.008 C 
HETATM   16  C9  UNL     1      -0.919  19.800  -4.652  1.00  0.00     0.034 C 
HETATM   17  C10 UNL     1      -2.309  19.233  -4.525  1.00  0.00     0.139 C 
HETATM   18  C13 UNL     1      -2.662  19.263  -3.048  1.00  0.00     0.155 C 
BRANCH  17  19
HETATM   19  O1  UNL     1      -2.413  17.934  -4.949  1.00  0.00    -0.382 OA
BRANCH  19  20
HETATM   20  C11 UNL     1      -3.544  17.268  -4.574  1.00  0.00     0.194 C 
BRANCH  20  21
HETATM   21  C12 UNL     1      -3.615  15.827  -4.963  1.00  0.00     0.190 C 
BRANCH  21  22
HETATM   22  O2  UNL     1      -2.294  15.321  -4.979  1.00  0.00    -0.399 OA
ATOM     23  H2  UNL     1      -2.347  14.374  -4.919  1.00  0.00     0.209 HD
ENDBRANCH  21  22
ENDBRANCH  20  21
ENDBRANCH  19  20
ENDBRANCH  17  19
ENDBRANCH   8  12
BRANCH   1  24
HETATM   24  C2  UNL     1      -4.170  24.720  -5.894  1.00  0.00     0.073 C 
HETATM   25  C1  UNL     1      -5.385  25.006  -6.730  1.00  0.00     0.013 C 
ENDBRANCH   1  24
TORSDOF 6
ENDMDL
