MODEL 1
REMARK VINA RESULT: -6.711579339      0.000      0.000
REMARK  7 active torsions:
REMARK  status: ('A' for Active; 'I' for Inactive)
REMARK    1  A    between atoms: C2_2  and  C4_4 
REMARK    2  A    between atoms: C4_4  and  N1_5 
REMARK    3  A    between atoms: C4_4  and  C8_13 
REMARK       I    between atoms: N1_5  and  C5_7 
REMARK    4  A    between atoms: C5_7  and  O2_9 
REMARK    5  A    between atoms: O2_9  and  C6_10 
REMARK    6  A    between atoms: C8_13  and  O4_15 
REMARK    7  A    between atoms: O4_15  and  C9_16 
ROOT
HETATM    1  C6  UNL     1      -5.230  14.664  -5.465  1.00  0.00     0.304 C 
HETATM    2  C7  UNL     1      -4.841  15.113  -6.819  1.00  0.00     0.086 C 
HETATM    3  N2  UNL     1      -4.531  15.479  -7.869  1.00  0.00    -0.195 NA
ENDROOT
BRANCH   1   4
HETATM    4  O2  UNL     1      -4.176  15.041  -4.605  1.00  0.00    -0.290 OA
BRANCH   4   5
HETATM    5  C5  UNL     1      -3.658  16.326  -4.546  1.00  0.00     0.362 C 
HETATM    6  N1  UNL     1      -4.463  17.437  -4.186  1.00  0.00    -0.323 N 
ATOM      7  H1  UNL     1      -5.446  17.271  -3.967  1.00  0.00     0.165 HD
HETATM    8  O1  UNL     1      -2.437  16.455  -4.828  1.00  0.00    -0.238 OA
BRANCH   6   9
HETATM    9  C4  UNL     1      -3.966  18.792  -4.111  1.00  0.00     0.190 C 
BRANCH   9  10
HETATM   10  C2  UNL     1      -4.358  19.404  -2.791  1.00  0.00     0.010 C 
HETATM   11  C1  UNL     1      -3.211  20.041  -2.084  1.00  0.00     0.012 C 
HETATM   12  C3  UNL     1      -5.006  18.401  -1.867  1.00  0.00     0.012 C 
ENDBRANCH   9  10
BRANCH   9  13
HETATM   13  C8  UNL     1      -4.460  19.641  -5.201  1.00  0.00     0.282 C 
HETATM   14  O3  UNL     1      -4.558  19.265  -6.401  1.00  0.00    -0.263 OA
BRANCH  13  15
HETATM   15  O4  UNL     1      -4.855  20.944  -4.948  1.00  0.00    -0.312 OA
BRANCH  15  16
HETATM   16  C9  UNL     1      -6.061  21.482  -5.448  1.00  0.00     0.164 C 
HETATM   17  C10 UNL     1      -6.171  22.968  -5.203  1.00  0.00     0.305 C 
HETATM   18  N3  UNL     1      -7.607  23.275  -5.121  1.00  0.00     0.090 N 
HETATM   19  C11 UNL     1      -8.359  22.468  -6.043  1.00  0.00     0.273 C 
HETATM   20  C15 UNL     1      -8.007  22.922  -3.770  1.00  0.00     0.273 C 
HETATM   21  C12 UNL     1      -8.443  21.018  -5.553  1.00  0.00     0.037 C 
HETATM   22  C13 UNL     1      -7.192  20.821  -4.688  1.00  0.00     0.020 C 
HETATM   23  C14 UNL     1      -7.350  21.588  -3.389  1.00  0.00     0.037 C 
ENDBRANCH  15  16
ENDBRANCH  13  15
ENDBRANCH   9  13
ENDBRANCH   6   9
ENDBRANCH   4   5
ENDBRANCH   1   4
TORSDOF 7
ENDMDL
MODEL 2
REMARK VINA RESULT: -6.498310900      2.376      3.372
REMARK  7 active torsions:
REMARK  status: ('A' for Active; 'I' for Inactive)
REMARK    1  A    between atoms: C2_2  and  C4_4 
REMARK    2  A    between atoms: C4_4  and  N1_5 
REMARK    3  A    between atoms: C4_4  and  C8_13 
REMARK       I    between atoms: N1_5  and  C5_7 
REMARK    4  A    between atoms: C5_7  and  O2_9 
REMARK    5  A    between atoms: O2_9  and  C6_10 
REMARK    6  A    between atoms: C8_13  and  O4_15 
REMARK    7  A    between atoms: O4_15  and  C9_16 
ROOT
HETATM    1  C6  UNL     1       0.921  18.891  -4.177  1.00  0.00     0.304 C 
HETATM    2  C7  UNL     1       1.141  17.576  -3.539  1.00  0.00     0.086 C 
HETATM    3  N2  UNL     1       1.293  16.547  -3.039  1.00  0.00    -0.195 NA
ENDROOT
BRANCH   1   4
HETATM    4  O2  UNL     1      -0.235  18.757  -4.976  1.00  0.00    -0.290 OA
BRANCH   4   5
HETATM    5  C5  UNL     1      -1.419  19.435  -4.730  1.00  0.00     0.362 C 
HETATM    6  N1  UNL     1      -2.590  18.757  -4.302  1.00  0.00    -0.323 N 
ATOM      7  H1  UNL     1      -2.544  17.745  -4.178  1.00  0.00     0.165 HD
HETATM    8  O1  UNL     1      -1.402  20.683  -4.905  1.00  0.00    -0.238 OA
BRANCH   6   9
HETATM    9  C4  UNL     1      -3.844  19.422  -4.035  1.00  0.00     0.190 C 
BRANCH   9  10
HETATM   10  C2  UNL     1      -4.780  18.474  -3.328  1.00  0.00     0.010 C 
HETATM   11  C1  UNL     1      -4.832  18.701  -1.856  1.00  0.00     0.012 C 
HETATM   12  C3  UNL     1      -4.431  17.028  -3.590  1.00  0.00     0.012 C 
ENDBRANCH   9  10
BRANCH   9  13
HETATM   13  C8  UNL     1      -4.494  19.924  -5.250  1.00  0.00     0.282 C 
HETATM   14  O3  UNL     1      -4.646  19.245  -6.303  1.00  0.00    -0.263 OA
BRANCH  13  15
HETATM   15  O4  UNL     1      -4.989  21.217  -5.296  1.00  0.00    -0.312 OA
BRANCH  15  16
HETATM   16  C9  UNL     1      -6.322  21.507  -5.659  1.00  0.00     0.164 C 
HETATM   17  C10 UNL     1      -6.583  22.992  -5.741  1.00  0.00     0.305 C 
HETATM   18  N3  UNL     1      -8.012  23.184  -5.451  1.00  0.00     0.090 N 
HETATM   19  C11 UNL     1      -8.796  22.112  -6.001  1.00  0.00     0.273 C 
HETATM   20  C15 UNL     1      -8.127  23.144  -4.004  1.00  0.00     0.273 C 
HETATM   21  C12 UNL     1      -8.605  20.827  -5.187  1.00  0.00     0.037 C 
HETATM   22  C13 UNL     1      -7.211  20.960  -4.562  1.00  0.00     0.020 C 
HETATM   23  C14 UNL     1      -7.246  22.007  -3.466  1.00  0.00     0.037 C 
ENDBRANCH  15  16
ENDBRANCH  13  15
ENDBRANCH   9  13
ENDBRANCH   6   9
ENDBRANCH   4   5
ENDBRANCH   1   4
TORSDOF 7
ENDMDL
MODEL 3
REMARK VINA RESULT: -6.484618603      2.402      3.526
REMARK  7 active torsions:
REMARK  status: ('A' for Active; 'I' for Inactive)
REMARK    1  A    between atoms: C2_2  and  C4_4 
REMARK    2  A    between atoms: C4_4  and  N1_5 
REMARK    3  A    between atoms: C4_4  and  C8_13 
REMARK       I    between atoms: N1_5  and  C5_7 
REMARK    4  A    between atoms: C5_7  and  O2_9 
REMARK    5  A    between atoms: O2_9  and  C6_10 
REMARK    6  A    between atoms: C8_13  and  O4_15 
REMARK    7  A    between atoms: O4_15  and  C9_16 
ROOT
HETATM    1  C6  UNL     1       0.689  18.979  -4.433  1.00  0.00     0.304 C 
HETATM    2  C7  UNL     1       0.906  17.750  -3.640  1.00  0.00     0.086 C 
HETATM    3  N2  UNL     1       1.056  16.790  -3.017  1.00  0.00    -0.195 NA
ENDROOT
BRANCH   1   4
HETATM    4  O2  UNL     1      -0.517  18.786  -5.141  1.00  0.00    -0.290 OA
BRANCH   4   5
HETATM    5  C5  UNL     1      -1.683  19.486  -4.872  1.00  0.00     0.362 C 
HETATM    6  N1  UNL     1      -2.905  18.819  -4.597  1.00  0.00    -0.323 N 
ATOM      7  H1  UNL     1      -2.909  17.799  -4.601  1.00  0.00     0.165 HD
HETATM    8  O1  UNL     1      -1.602  20.744  -4.884  1.00  0.00    -0.238 OA
BRANCH   6   9
HETATM    9  C4  UNL     1      -4.143  19.506  -4.312  1.00  0.00     0.190 C 
BRANCH   9  10
HETATM   10  C2  UNL     1      -4.879  18.789  -3.209  1.00  0.00     0.010 C 
HETATM   11  C1  UNL     1      -4.584  19.347  -1.858  1.00  0.00     0.012 C 
HETATM   12  C3  UNL     1      -4.591  17.307  -3.201  1.00  0.00     0.012 C 
ENDBRANCH   9  10
BRANCH   9  13
HETATM   13  C8  UNL     1      -5.018  19.614  -5.484  1.00  0.00     0.282 C 
HETATM   14  O3  UNL     1      -4.723  19.178  -6.630  1.00  0.00    -0.263 OA
BRANCH  13  15
HETATM   15  O4  UNL     1      -6.257  20.224  -5.378  1.00  0.00    -0.312 OA
BRANCH  15  16
HETATM   16  C9  UNL     1      -6.405  21.604  -5.117  1.00  0.00     0.164 C 
HETATM   17  C10 UNL     1      -7.204  21.869  -3.864  1.00  0.00     0.305 C 
HETATM   18  N3  UNL     1      -7.847  23.179  -4.046  1.00  0.00     0.090 N 
HETATM   19  C11 UNL     1      -6.983  24.082  -4.756  1.00  0.00     0.273 C 
HETATM   20  C15 UNL     1      -9.023  22.930  -4.862  1.00  0.00     0.273 C 
HETATM   21  C12 UNL     1      -6.900  23.701  -6.238  1.00  0.00     0.037 C 
HETATM   22  C13 UNL     1      -7.183  22.194  -6.274  1.00  0.00     0.020 C 
HETATM   23  C14 UNL     1      -8.651  21.949  -5.983  1.00  0.00     0.037 C 
ENDBRANCH  15  16
ENDBRANCH  13  15
ENDBRANCH   9  13
ENDBRANCH   6   9
ENDBRANCH   4   5
ENDBRANCH   1   4
TORSDOF 7
ENDMDL
MODEL 4
REMARK VINA RESULT: -6.392383426      2.741      4.609
REMARK  7 active torsions:
REMARK  status: ('A' for Active; 'I' for Inactive)
REMARK    1  A    between atoms: C2_2  and  C4_4 
REMARK    2  A    between atoms: C4_4  and  N1_5 
REMARK    3  A    between atoms: C4_4  and  C8_13 
REMARK       I    between atoms: N1_5  and  C5_7 
REMARK    4  A    between atoms: C5_7  and  O2_9 
REMARK    5  A    between atoms: O2_9  and  C6_10 
REMARK    6  A    between atoms: C8_13  and  O4_15 
REMARK    7  A    between atoms: O4_15  and  C9_16 
ROOT
HETATM    1  C6  UNL     1      -5.300  14.460  -5.695  1.00  0.00     0.304 C 
HETATM    2  C7  UNL     1      -5.072  15.071  -7.022  1.00  0.00     0.086 C 
HETATM    3  N2  UNL     1      -4.889  15.565  -8.049  1.00  0.00    -0.195 NA
ENDROOT
BRANCH   1   4
HETATM    4  O2  UNL     1      -4.238  14.892  -4.872  1.00  0.00    -0.290 OA
BRANCH   4   5
HETATM    5  C5  UNL     1      -4.208  16.129  -4.248  1.00  0.00     0.362 C 
HETATM    6  N1  UNL     1      -3.605  17.258  -4.862  1.00  0.00    -0.323 N 
ATOM      7  H1  UNL     1      -3.188  17.140  -5.785  1.00  0.00     0.165 HD
HETATM    8  O1  UNL     1      -4.743  16.201  -3.109  1.00  0.00    -0.238 OA
BRANCH   6   9
HETATM    9  C4  UNL     1      -3.551  18.565  -4.249  1.00  0.00     0.190 C 
BRANCH   9  10
HETATM   10  C2  UNL     1      -4.629  19.444  -4.832  1.00  0.00     0.010 C 
HETATM   11  C1  UNL     1      -5.683  19.801  -3.840  1.00  0.00     0.012 C 
HETATM   12  C3  UNL     1      -5.283  18.817  -6.039  1.00  0.00     0.012 C 
ENDBRANCH   9  10
BRANCH   9  13
HETATM   13  C8  UNL     1      -2.250  19.221  -4.420  1.00  0.00     0.282 C 
HETATM   14  O3  UNL     1      -1.823  19.670  -5.520  1.00  0.00    -0.263 OA
BRANCH  13  15
HETATM   15  O4  UNL     1      -1.400  19.383  -3.339  1.00  0.00    -0.312 OA
BRANCH  15  16
HETATM   16  C9  UNL     1      -1.127  20.646  -2.769  1.00  0.00     0.164 C 
HETATM   17  C10 UNL     1      -0.315  20.539  -1.501  1.00  0.00     0.305 C 
HETATM   18  N3  UNL     1      -0.656  21.713  -0.684  1.00  0.00     0.090 N 
HETATM   19  C11 UNL     1      -0.866  22.871  -1.510  1.00  0.00     0.273 C 
HETATM   20  C15 UNL     1      -1.909  21.383  -0.026  1.00  0.00     0.273 C 
HETATM   21  C12 UNL     1      -2.198  22.766  -2.262  1.00  0.00     0.037 C 
HETATM   22  C13 UNL     1      -2.459  21.261  -2.393  1.00  0.00     0.020 C 
HETATM   23  C14 UNL     1      -2.835  20.693  -1.038  1.00  0.00     0.037 C 
ENDBRANCH  15  16
ENDBRANCH  13  15
ENDBRANCH   9  13
ENDBRANCH   6   9
ENDBRANCH   4   5
ENDBRANCH   1   4
TORSDOF 7
ENDMDL
MODEL 5
REMARK VINA RESULT: -6.348716460      1.868      2.588
REMARK  7 active torsions:
REMARK  status: ('A' for Active; 'I' for Inactive)
REMARK    1  A    between atoms: C2_2  and  C4_4 
REMARK    2  A    between atoms: C4_4  and  N1_5 
REMARK    3  A    between atoms: C4_4  and  C8_13 
REMARK       I    between atoms: N1_5  and  C5_7 
REMARK    4  A    between atoms: C5_7  and  O2_9 
REMARK    5  A    between atoms: O2_9  and  C6_10 
REMARK    6  A    between atoms: C8_13  and  O4_15 
REMARK    7  A    between atoms: O4_15  and  C9_16 
ROOT
HETATM    1  C6  UNL     1      -3.723  16.747  -4.582  1.00  0.00     0.304 C 
HETATM    2  C7  UNL     1      -3.855  15.539  -5.423  1.00  0.00     0.086 C 
HETATM    3  N2  UNL     1      -3.945  14.602  -6.093  1.00  0.00    -0.195 NA
ENDROOT
BRANCH   1   4
HETATM    4  O2  UNL     1      -2.351  17.078  -4.576  1.00  0.00    -0.290 OA
BRANCH   4   5
HETATM    5  C5  UNL     1      -1.878  18.380  -4.525  1.00  0.00     0.362 C 
HETATM    6  N1  UNL     1      -2.480  19.358  -3.691  1.00  0.00    -0.323 N 
ATOM      7  H1  UNL     1      -3.278  19.081  -3.120  1.00  0.00     0.165 HD
HETATM    8  O1  UNL     1      -0.888  18.650  -5.256  1.00  0.00    -0.238 OA
BRANCH   6   9
HETATM    9  C4  UNL     1      -2.021  20.726  -3.606  1.00  0.00     0.190 C 
BRANCH   9  10
HETATM   10  C2  UNL     1      -1.558  21.018  -2.201  1.00  0.00     0.010 C 
HETATM   11  C1  UNL     1      -0.290  20.317  -1.851  1.00  0.00     0.012 C 
HETATM   12  C3  UNL     1      -2.608  20.676  -1.172  1.00  0.00     0.012 C 
ENDBRANCH   9  10
BRANCH   9  13
HETATM   13  C8  UNL     1      -3.052  21.697  -3.985  1.00  0.00     0.282 C 
HETATM   14  O3  UNL     1      -2.975  22.936  -3.756  1.00  0.00    -0.263 OA
BRANCH  13  15
HETATM   15  O4  UNL     1      -4.200  21.280  -4.639  1.00  0.00    -0.312 OA
BRANCH  15  16
HETATM   16  C9  UNL     1      -5.417  21.991  -4.566  1.00  0.00     0.164 C 
HETATM   17  C10 UNL     1      -6.233  21.608  -3.355  1.00  0.00     0.305 C 
HETATM   18  N3  UNL     1      -7.642  21.841  -3.707  1.00  0.00     0.090 N 
HETATM   19  C11 UNL     1      -7.777  23.007  -4.536  1.00  0.00     0.273 C 
HETATM   20  C15 UNL     1      -8.052  20.679  -4.475  1.00  0.00     0.273 C 
HETATM   21  C12 UNL     1      -7.269  22.726  -5.955  1.00  0.00     0.037 C 
HETATM   22  C13 UNL     1      -6.228  21.612  -5.787  1.00  0.00     0.020 C 
HETATM   23  C14 UNL     1      -6.931  20.310  -5.456  1.00  0.00     0.037 C 
ENDBRANCH  15  16
ENDBRANCH  13  15
ENDBRANCH   9  13
ENDBRANCH   6   9
ENDBRANCH   4   5
ENDBRANCH   1   4
TORSDOF 7
ENDMDL
