MODEL 1
REMARK VINA RESULT: -7.251789177      0.000      0.000
REMARK  6 active torsions:
REMARK  status: ('A' for Active; 'I' for Inactive)
REMARK    1  A    between atoms: O1_2  and  C2_3 
REMARK    2  A    between atoms: C2_3  and  C3_4 
REMARK    3  A    between atoms: C3_4  and  N1_5 
REMARK       I    between atoms: N1_5  and  C4_7 
REMARK    4  A    between atoms: C4_7  and  C5_9 
REMARK    5  A    between atoms: N2_14  and  C10_15 
REMARK    6  A    between atoms: C10_15  and  C11_16 
ROOT
HETATM    1  C5  UNL     1      -1.135  19.217  -4.138  1.00  0.00     0.255 C 
HETATM    2  C6  UNL     1      -1.969  19.668  -2.970  1.00  0.00     0.086 C 
HETATM    3  C7  UNL     1      -3.087  20.384  -3.667  1.00  0.00     0.105 C 
HETATM    4  C8  UNL     1      -3.444  21.713  -3.017  1.00  0.00     0.062 C 
HETATM    5  C9  UNL     1      -4.515  22.323  -3.944  1.00  0.00     0.130 C 
HETATM    6  N2  UNL     1      -5.676  21.602  -3.791  1.00  0.00    -0.373 N 
HETATM    7  C15 UNL     1      -5.594  20.267  -3.414  1.00  0.00     0.066 C 
HETATM    8  C16 UNL     1      -4.320  19.542  -3.802  1.00  0.00     0.086 C 
HETATM    9  O3  UNL     1      -2.534  20.692  -4.890  1.00  0.00    -0.228 OA
HETATM   10  O4  UNL     1      -1.588  19.907  -5.208  1.00  0.00    -0.225 OA
ENDROOT
BRANCH   1  11
HETATM   11  C4  UNL     1      -1.347  17.763  -4.425  1.00  0.00     0.249 C 
HETATM   12  N1  UNL     1      -2.664  17.273  -4.496  1.00  0.00    -0.357 N 
ATOM     13  H1  UNL     1      -3.452  17.904  -4.354  1.00  0.00     0.162 HD
HETATM   14  O2  UNL     1      -0.386  16.969  -4.598  1.00  0.00    -0.271 OA
BRANCH  12  15
HETATM   15  C3  UNL     1      -2.897  15.873  -4.771  1.00  0.00     0.148 C 
BRANCH  15  16
HETATM   16  C2  UNL     1      -4.198  15.755  -5.532  1.00  0.00     0.186 C 
BRANCH  16  17
HETATM   17  O1  UNL     1      -4.063  15.148  -6.763  1.00  0.00    -0.394 OA
HETATM   18  C1  UNL     1      -5.138  15.418  -7.608  1.00  0.00     0.201 C 
ENDBRANCH  16  17
ENDBRANCH  15  16
ENDBRANCH  12  15
ENDBRANCH   1  11
BRANCH   6  19
HETATM   19  C10 UNL     1      -6.931  22.174  -3.814  1.00  0.00     0.071 C 
BRANCH  19  20
HETATM   20  C11 UNL     1      -7.734  22.124  -5.083  1.00  0.00    -0.019 C 
HETATM   21  C12 UNL     1      -7.048  22.821  -6.223  1.00  0.00     0.020 C 
HETATM   22  C13 UNL     1      -9.003  22.953  -4.783  1.00  0.00     0.020 C 
HETATM   23  C14 UNL     1      -8.198  20.780  -5.517  1.00  0.00     0.020 C 
ENDBRANCH  19  20
ENDBRANCH   6  19
TORSDOF 6
ENDMDL
MODEL 2
REMARK VINA RESULT: -6.990966679      1.545      1.976
REMARK  6 active torsions:
REMARK  status: ('A' for Active; 'I' for Inactive)
REMARK    1  A    between atoms: O1_2  and  C2_3 
REMARK    2  A    between atoms: C2_3  and  C3_4 
REMARK    3  A    between atoms: C3_4  and  N1_5 
REMARK       I    between atoms: N1_5  and  C4_7 
REMARK    4  A    between atoms: C4_7  and  C5_9 
REMARK    5  A    between atoms: N2_14  and  C10_15 
REMARK    6  A    between atoms: C10_15  and  C11_16 
ROOT
HETATM    1  C5  UNL     1      -1.135  19.187  -4.579  1.00  0.00     0.255 C 
HETATM    2  C6  UNL     1      -1.138  19.752  -3.185  1.00  0.00     0.086 C 
HETATM    3  C7  UNL     1      -2.453  20.472  -3.163  1.00  0.00     0.105 C 
HETATM    4  C8  UNL     1      -2.367  21.856  -2.535  1.00  0.00     0.062 C 
HETATM    5  C9  UNL     1      -3.776  22.454  -2.718  1.00  0.00     0.130 C 
HETATM    6  N2  UNL     1      -4.634  21.800  -1.866  1.00  0.00    -0.373 N 
HETATM    7  C15 UNL     1      -4.349  20.489  -1.500  1.00  0.00     0.066 C 
HETATM    8  C16 UNL     1      -3.537  19.682  -2.493  1.00  0.00     0.086 C 
HETATM    9  O3  UNL     1      -2.711  20.674  -4.500  1.00  0.00    -0.228 OA
HETATM   10  O4  UNL     1      -2.124  19.827  -5.242  1.00  0.00    -0.225 OA
ENDROOT
BRANCH   1  11
HETATM   11  C4  UNL     1      -1.476  17.729  -4.573  1.00  0.00     0.249 C 
HETATM   12  N1  UNL     1      -2.829  17.350  -4.611  1.00  0.00    -0.357 N 
ATOM     13  H1  UNL     1      -3.558  18.062  -4.643  1.00  0.00     0.162 HD
HETATM   14  O2  UNL     1      -0.589  16.837  -4.530  1.00  0.00    -0.271 OA
BRANCH  12  15
HETATM   15  C3  UNL     1      -3.186  15.949  -4.606  1.00  0.00     0.148 C 
BRANCH  15  16
HETATM   16  C2  UNL     1      -4.379  15.765  -5.516  1.00  0.00     0.186 C 
BRANCH  16  17
HETATM   17  O1  UNL     1      -4.049  15.282  -6.766  1.00  0.00    -0.394 OA
HETATM   18  C1  UNL     1      -5.122  15.333  -7.653  1.00  0.00     0.201 C 
ENDBRANCH  16  17
ENDBRANCH  15  16
ENDBRANCH  12  15
ENDBRANCH   1  11
BRANCH   6  19
HETATM   19  C10 UNL     1      -5.670  22.427  -1.205  1.00  0.00     0.071 C 
BRANCH  19  20
HETATM   20  C11 UNL     1      -7.065  22.303  -1.749  1.00  0.00    -0.019 C 
HETATM   21  C12 UNL     1      -7.715  23.638  -1.971  1.00  0.00     0.020 C 
HETATM   22  C13 UNL     1      -7.872  21.622  -0.620  1.00  0.00     0.020 C 
HETATM   23  C14 UNL     1      -7.228  21.453  -2.958  1.00  0.00     0.020 C 
ENDBRANCH  19  20
ENDBRANCH   6  19
TORSDOF 6
ENDMDL
MODEL 3
REMARK VINA RESULT: -6.781393359      0.884      1.225
REMARK  6 active torsions:
REMARK  status: ('A' for Active; 'I' for Inactive)
REMARK    1  A    between atoms: O1_2  and  C2_3 
REMARK    2  A    between atoms: C2_3  and  C3_4 
REMARK    3  A    between atoms: C3_4  and  N1_5 
REMARK       I    between atoms: N1_5  and  C4_7 
REMARK    4  A    between atoms: C4_7  and  C5_9 
REMARK    5  A    between atoms: N2_14  and  C10_15 
REMARK    6  A    between atoms: C10_15  and  C11_16 
ROOT
HETATM    1  C5  UNL     1      -1.621  19.305  -3.538  1.00  0.00     0.255 C 
HETATM    2  C6  UNL     1      -2.946  19.587  -2.883  1.00  0.00     0.086 C 
HETATM    3  C7  UNL     1      -3.549  20.562  -3.850  1.00  0.00     0.105 C 
HETATM    4  C8  UNL     1      -4.210  21.751  -3.167  1.00  0.00     0.062 C 
HETATM    5  C9  UNL     1      -4.653  22.667  -4.326  1.00  0.00     0.130 C 
HETATM    6  N2  UNL     1      -5.714  22.071  -4.964  1.00  0.00    -0.373 N 
HETATM    7  C15 UNL     1      -5.822  20.685  -4.938  1.00  0.00     0.066 C 
HETATM    8  C16 UNL     1      -4.522  19.918  -4.792  1.00  0.00     0.086 C 
HETATM    9  O3  UNL     1      -2.447  21.061  -4.506  1.00  0.00    -0.228 OA
HETATM   10  O4  UNL     1      -1.462  20.259  -4.483  1.00  0.00    -0.225 OA
ENDROOT
BRANCH   1  11
HETATM   11  C4  UNL     1      -1.635  17.983  -4.240  1.00  0.00     0.249 C 
HETATM   12  N1  UNL     1      -2.804  17.203  -4.191  1.00  0.00    -0.357 N 
ATOM     13  H1  UNL     1      -3.622  17.541  -3.685  1.00  0.00     0.162 HD
HETATM   14  O2  UNL     1      -0.632  17.548  -4.865  1.00  0.00    -0.271 OA
BRANCH  12  15
HETATM   15  C3  UNL     1      -2.845  15.921  -4.860  1.00  0.00     0.148 C 
BRANCH  15  16
HETATM   16  C2  UNL     1      -4.179  15.799  -5.559  1.00  0.00     0.186 C 
BRANCH  16  17
HETATM   17  O1  UNL     1      -4.113  15.115  -6.755  1.00  0.00    -0.394 OA
HETATM   18  C1  UNL     1      -5.162  15.444  -7.612  1.00  0.00     0.201 C 
ENDBRANCH  16  17
ENDBRANCH  15  16
ENDBRANCH  12  15
ENDBRANCH   1  11
BRANCH   6  19
HETATM   19  C10 UNL     1      -6.783  22.776  -5.477  1.00  0.00     0.071 C 
BRANCH  19  20
HETATM   20  C11 UNL     1      -7.964  23.059  -4.594  1.00  0.00    -0.019 C 
HETATM   21  C12 UNL     1      -9.240  22.488  -5.142  1.00  0.00     0.020 C 
HETATM   22  C13 UNL     1      -8.134  24.594  -4.639  1.00  0.00     0.020 C 
HETATM   23  C14 UNL     1      -7.818  22.691  -3.161  1.00  0.00     0.020 C 
ENDBRANCH  19  20
ENDBRANCH   6  19
TORSDOF 6
ENDMDL
MODEL 4
REMARK VINA RESULT: -6.769742402      2.863      7.091
REMARK  6 active torsions:
REMARK  status: ('A' for Active; 'I' for Inactive)
REMARK    1  A    between atoms: O1_2  and  C2_3 
REMARK    2  A    between atoms: C2_3  and  C3_4 
REMARK    3  A    between atoms: C3_4  and  N1_5 
REMARK       I    between atoms: N1_5  and  C4_7 
REMARK    4  A    between atoms: C4_7  and  C5_9 
REMARK    5  A    between atoms: N2_14  and  C10_15 
REMARK    6  A    between atoms: C10_15  and  C11_16 
ROOT
HETATM    1  C5  UNL     1      -7.582  21.821  -6.048  1.00  0.00     0.255 C 
HETATM    2  C6  UNL     1      -7.492  20.543  -5.259  1.00  0.00     0.086 C 
HETATM    3  C7  UNL     1      -6.024  20.251  -5.341  1.00  0.00     0.105 C 
HETATM    4  C8  UNL     1      -5.720  18.791  -5.642  1.00  0.00     0.062 C 
HETATM    5  C9  UNL     1      -4.186  18.736  -5.796  1.00  0.00     0.130 C 
HETATM    6  N2  UNL     1      -3.624  18.901  -4.553  1.00  0.00    -0.373 N 
HETATM    7  C15 UNL     1      -4.318  19.626  -3.591  1.00  0.00     0.066 C 
HETATM    8  C16 UNL     1      -5.277  20.678  -4.113  1.00  0.00     0.086 C 
HETATM    9  O3  UNL     1      -5.635  20.960  -6.456  1.00  0.00    -0.228 OA
HETATM   10  O4  UNL     1      -6.407  21.938  -6.704  1.00  0.00    -0.225 OA
ENDROOT
BRANCH   1  11
HETATM   11  C4  UNL     1      -7.706  23.008  -5.143  1.00  0.00     0.249 C 
HETATM   12  N1  UNL     1      -8.498  22.897  -3.986  1.00  0.00    -0.357 N 
ATOM     13  H1  UNL     1      -8.975  22.020  -3.776  1.00  0.00     0.162 HD
HETATM   14  O2  UNL     1      -7.128  24.099  -5.389  1.00  0.00    -0.271 OA
BRANCH  12  15
HETATM   15  C3  UNL     1      -8.635  24.027  -3.095  1.00  0.00     0.148 C 
BRANCH  15  16
HETATM   16  C2  UNL     1      -8.234  23.583  -1.707  1.00  0.00     0.186 C 
BRANCH  16  17
HETATM   17  O1  UNL     1      -8.032  22.222  -1.602  1.00  0.00    -0.394 OA
HETATM   18  C1  UNL     1      -6.881  21.912  -0.880  1.00  0.00     0.201 C 
ENDBRANCH  16  17
ENDBRANCH  15  16
ENDBRANCH  12  15
ENDBRANCH   1  11
BRANCH   6  19
HETATM   19  C10 UNL     1      -2.487  18.236  -4.141  1.00  0.00     0.071 C 
BRANCH  19  20
HETATM   20  C11 UNL     1      -1.178  18.971  -4.118  1.00  0.00    -0.019 C 
HETATM   21  C12 UNL     1      -1.049  19.950  -5.250  1.00  0.00     0.020 C 
HETATM   22  C13 UNL     1      -0.108  17.886  -4.374  1.00  0.00     0.020 C 
HETATM   23  C14 UNL     1      -0.815  19.630  -2.836  1.00  0.00     0.020 C 
ENDBRANCH  19  20
ENDBRANCH   6  19
TORSDOF 6
ENDMDL
MODEL 5
REMARK VINA RESULT: -6.748144636      3.517      5.136
REMARK  6 active torsions:
REMARK  status: ('A' for Active; 'I' for Inactive)
REMARK    1  A    between atoms: O1_2  and  C2_3 
REMARK    2  A    between atoms: C2_3  and  C3_4 
REMARK    3  A    between atoms: C3_4  and  N1_5 
REMARK       I    between atoms: N1_5  and  C4_7 
REMARK    4  A    between atoms: C4_7  and  C5_9 
REMARK    5  A    between atoms: N2_14  and  C10_15 
REMARK    6  A    between atoms: C10_15  and  C11_16 
ROOT
HETATM    1  C5  UNL     1      -0.345  19.240  -4.145  1.00  0.00     0.255 C 
HETATM    2  C6  UNL     1      -0.107  19.250  -2.659  1.00  0.00     0.086 C 
HETATM    3  C7  UNL     1      -0.826  20.503  -2.256  1.00  0.00     0.105 C 
HETATM    4  C8  UNL     1      -0.037  21.355  -1.272  1.00  0.00     0.062 C 
HETATM    5  C9  UNL     1      -0.891  22.625  -1.086  1.00  0.00     0.130 C 
HETATM    6  N2  UNL     1      -2.005  22.290  -0.354  1.00  0.00    -0.373 N 
HETATM    7  C15 UNL     1      -2.489  20.989  -0.423  1.00  0.00     0.066 C 
HETATM    8  C16 UNL     1      -2.195  20.236  -1.705  1.00  0.00     0.086 C 
HETATM    9  O3  UNL     1      -0.871  21.218  -3.432  1.00  0.00    -0.228 OA
HETATM   10  O4  UNL     1      -0.800  20.473  -4.458  1.00  0.00    -0.225 OA
ENDROOT
BRANCH   1  11
HETATM   11  C4  UNL     1      -1.417  18.263  -4.515  1.00  0.00     0.249 C 
HETATM   12  N1  UNL     1      -2.737  18.728  -4.655  1.00  0.00    -0.357 N 
ATOM     13  H1  UNL     1      -2.950  19.714  -4.505  1.00  0.00     0.162 HD
HETATM   14  O2  UNL     1      -1.173  17.041  -4.698  1.00  0.00    -0.271 OA
BRANCH  12  15
HETATM   15  C3  UNL     1      -3.792  17.805  -5.011  1.00  0.00     0.148 C 
BRANCH  15  16
HETATM   16  C2  UNL     1      -4.339  17.203  -3.738  1.00  0.00     0.186 C 
BRANCH  16  17
HETATM   17  O1  UNL     1      -4.507  15.835  -3.804  1.00  0.00    -0.394 OA
HETATM   18  C1  UNL     1      -4.503  15.363  -5.115  1.00  0.00     0.201 C 
ENDBRANCH  16  17
ENDBRANCH  15  16
ENDBRANCH  12  15
ENDBRANCH   1  11
BRANCH   6  19
HETATM   19  C10 UNL     1      -2.569  23.122   0.591  1.00  0.00     0.071 C 
BRANCH  19  20
HETATM   20  C11 UNL     1      -2.112  23.023   2.018  1.00  0.00    -0.019 C 
HETATM   21  C12 UNL     1      -2.906  22.022   2.807  1.00  0.00     0.020 C 
HETATM   22  C13 UNL     1      -2.438  24.401   2.636  1.00  0.00     0.020 C 
HETATM   23  C14 UNL     1      -0.658  22.796   2.230  1.00  0.00     0.020 C 
ENDBRANCH  19  20
ENDBRANCH   6  19
TORSDOF 6
ENDMDL
