MODEL 1
REMARK VINA RESULT: -6.875130661      0.000      0.000
REMARK  6 active torsions:
REMARK  status: ('A' for Active; 'I' for Inactive)
REMARK    1  A    between atoms: O1_2  and  C2_3 
REMARK    2  A    between atoms: N1_6  and  C5_7 
REMARK    3  A    between atoms: C5_7  and  C6_8 
REMARK    4  A    between atoms: C6_8  and  O2_9 
REMARK    5  A    between atoms: O2_9  and  C7_10 
REMARK    6  A    between atoms: C8_13  and  N3_14 
ROOT
HETATM    1  N3  UNL     1       0.362  18.160  -4.590  1.00  0.00    -0.126 N 
ATOM      2  H3  UNL     1       0.910  18.689  -5.267  1.00  0.00     0.197 HD
HETATM    3  C9  UNL     1       0.996  17.237  -3.754  1.00  0.00     0.196 C 
HETATM    4  N4  UNL     1       1.516  16.456  -3.048  1.00  0.00    -0.171 NA
ENDROOT
BRANCH   1   5
HETATM    5  C8  UNL     1      -0.906  18.344  -4.511  1.00  0.00     0.693 A 
HETATM    6  N2  UNL     1      -1.374  19.601  -4.442  1.00  0.00    -0.169 N 
HETATM    7  C7  UNL     1      -2.678  19.909  -4.359  1.00  0.00     0.165 A 
ATOM      8  H2  UNL     1      -0.699  20.367  -4.454  1.00  0.00     0.186 HD
HETATM    9  C12 UNL     1      -3.586  18.877  -4.342  1.00  0.00     0.012 A 
HETATM   10  C10 UNL     1      -3.117  17.591  -4.411  1.00  0.00     0.033 A 
HETATM   11  C13 UNL     1      -5.052  19.087  -4.251  1.00  0.00     0.055 C 
HETATM   12  N5  UNL     1      -1.800  17.352  -4.493  1.00  0.00    -0.194 N 
HETATM   13  C11 UNL     1      -4.030  16.415  -4.401  1.00  0.00     0.069 C 
ATOM     14  H5  UNL     1      -1.472  16.388  -4.543  1.00  0.00     0.184 HD
BRANCH   7  15
HETATM   15  O2  UNL     1      -3.117  21.243  -4.289  1.00  0.00    -0.330 OA
BRANCH  15  16
HETATM   16  C6  UNL     1      -2.483  22.088  -3.376  1.00  0.00     0.221 C 
BRANCH  16  17
HETATM   17  C5  UNL     1      -3.256  22.233  -2.115  1.00  0.00     0.084 C 
BRANCH  17  18
HETATM   18  N1  UNL     1      -2.853  21.392  -1.074  1.00  0.00    -0.391 N 
HETATM   19  C4  UNL     1      -1.564  20.859  -0.984  1.00  0.00     0.124 C 
HETATM   20  C3  UNL     1      -0.588  21.792  -0.243  1.00  0.00     0.051 C 
HETATM   21  C2  UNL     1      -1.172  22.187   1.082  1.00  0.00     0.123 C 
HETATM   22  C15 UNL     1      -2.480  21.483   1.334  1.00  0.00     0.051 C 
HETATM   23  C14 UNL     1      -3.440  21.729   0.218  1.00  0.00     0.124 C 
BRANCH  21  24
HETATM   24  O1  UNL     1      -0.279  22.043   2.132  1.00  0.00    -0.391 OA
HETATM   25  C1  UNL     1       0.085  23.212   2.748  1.00  0.00     0.202 C 
ENDBRANCH  21  24
ENDBRANCH  17  18
ENDBRANCH  16  17
ENDBRANCH  15  16
ENDBRANCH   7  15
ENDBRANCH   1   5
TORSDOF 6
ENDMDL
MODEL 2
REMARK VINA RESULT: -6.869867309      3.943      6.476
REMARK  6 active torsions:
REMARK  status: ('A' for Active; 'I' for Inactive)
REMARK    1  A    between atoms: O1_2  and  C2_3 
REMARK    2  A    between atoms: N1_6  and  C5_7 
REMARK    3  A    between atoms: C5_7  and  C6_8 
REMARK    4  A    between atoms: C6_8  and  O2_9 
REMARK    5  A    between atoms: O2_9  and  C7_10 
REMARK    6  A    between atoms: C8_13  and  N3_14 
ROOT
HETATM    1  N3  UNL     1      -3.936  15.466  -5.096  1.00  0.00    -0.126 N 
ATOM      2  H3  UNL     1      -3.942  14.776  -4.344  1.00  0.00     0.197 HD
HETATM    3  C9  UNL     1      -4.482  15.139  -6.340  1.00  0.00     0.196 C 
HETATM    4  N4  UNL     1      -4.933  14.877  -7.392  1.00  0.00    -0.171 NA
ENDROOT
BRANCH   1   5
HETATM    5  C8  UNL     1      -3.427  16.626  -4.893  1.00  0.00     0.693 A 
HETATM    6  N2  UNL     1      -4.206  17.710  -5.040  1.00  0.00    -0.169 N 
HETATM    7  C7  UNL     1      -3.779  18.968  -4.852  1.00  0.00     0.165 A 
ATOM      8  H2  UNL     1      -5.180  17.568  -5.311  1.00  0.00     0.186 HD
HETATM    9  C12 UNL     1      -2.467  19.158  -4.489  1.00  0.00     0.012 A 
HETATM   10  C10 UNL     1      -1.664  18.058  -4.336  1.00  0.00     0.033 A 
HETATM   11  C13 UNL     1      -1.875  20.498  -4.253  1.00  0.00     0.055 C 
HETATM   12  N5  UNL     1      -2.154  16.826  -4.540  1.00  0.00    -0.194 N 
HETATM   13  C11 UNL     1      -0.232  18.172  -3.943  1.00  0.00     0.069 C 
ATOM     14  H5  UNL     1      -1.540  16.021  -4.422  1.00  0.00     0.184 HD
BRANCH   7  15
HETATM   15  O2  UNL     1      -4.636  20.070  -5.019  1.00  0.00    -0.330 OA
BRANCH  15  16
HETATM   16  C6  UNL     1      -5.767  19.897  -5.821  1.00  0.00     0.221 C 
BRANCH  16  17
HETATM   17  C5  UNL     1      -6.984  20.493  -5.213  1.00  0.00     0.084 C 
BRANCH  17  18
HETATM   18  N1  UNL     1      -7.517  21.584  -5.906  1.00  0.00    -0.391 N 
HETATM   19  C4  UNL     1      -8.799  22.085  -5.664  1.00  0.00     0.124 C 
HETATM   20  C3  UNL     1      -8.821  23.137  -4.539  1.00  0.00     0.051 C 
HETATM   21  C2  UNL     1      -7.801  24.201  -4.820  1.00  0.00     0.123 C 
HETATM   22  C15 UNL     1      -7.134  23.980  -6.154  1.00  0.00     0.051 C 
HETATM   23  C14 UNL     1      -6.536  22.614  -6.229  1.00  0.00     0.124 C 
BRANCH  21  24
HETATM   24  O1  UNL     1      -8.304  25.484  -4.684  1.00  0.00    -0.391 OA
HETATM   25  C1  UNL     1      -7.529  26.473  -5.231  1.00  0.00     0.202 C 
ENDBRANCH  21  24
ENDBRANCH  17  18
ENDBRANCH  16  17
ENDBRANCH  15  16
ENDBRANCH   7  15
ENDBRANCH   1   5
TORSDOF 6
ENDMDL
MODEL 3
REMARK VINA RESULT: -6.817780910      2.550      5.211
REMARK  6 active torsions:
REMARK  status: ('A' for Active; 'I' for Inactive)
REMARK    1  A    between atoms: O1_2  and  C2_3 
REMARK    2  A    between atoms: N1_6  and  C5_7 
REMARK    3  A    between atoms: C5_7  and  C6_8 
REMARK    4  A    between atoms: C6_8  and  O2_9 
REMARK    5  A    between atoms: O2_9  and  C7_10 
REMARK    6  A    between atoms: C8_13  and  N3_14 
ROOT
HETATM    1  N3  UNL     1      -3.561  17.540  -4.972  1.00  0.00    -0.126 N 
ATOM      2  H3  UNL     1      -3.999  17.993  -5.773  1.00  0.00     0.197 HD
HETATM    3  C9  UNL     1      -3.929  16.237  -4.624  1.00  0.00     0.196 C 
HETATM    4  N4  UNL     1      -4.232  15.145  -4.318  1.00  0.00    -0.171 NA
ENDROOT
BRANCH   1   5
HETATM    5  C8  UNL     1      -2.674  18.169  -4.289  1.00  0.00     0.693 A 
HETATM    6  N2  UNL     1      -3.055  19.225  -3.552  1.00  0.00    -0.169 N 
HETATM    7  C7  UNL     1      -2.214  19.952  -2.800  1.00  0.00     0.165 A 
ATOM      8  H2  UNL     1      -4.040  19.490  -3.564  1.00  0.00     0.186 HD
HETATM    9  C12 UNL     1      -0.886  19.596  -2.785  1.00  0.00     0.012 A 
HETATM   10  C10 UNL     1      -0.489  18.519  -3.535  1.00  0.00     0.033 A 
HETATM   11  C13 UNL     1       0.141  20.321  -1.997  1.00  0.00     0.055 C 
HETATM   12  N5  UNL     1      -1.381  17.834  -4.265  1.00  0.00    -0.194 N 
HETATM   13  C11 UNL     1       0.928  18.063  -3.576  1.00  0.00     0.069 C 
ATOM     14  H5  UNL     1      -1.065  17.037  -4.816  1.00  0.00     0.184 HD
BRANCH   7  15
HETATM   15  O2  UNL     1      -2.663  21.050  -2.045  1.00  0.00    -0.330 OA
BRANCH  15  16
HETATM   16  C6  UNL     1      -3.764  20.855  -1.208  1.00  0.00     0.221 C 
BRANCH  16  17
HETATM   17  C5  UNL     1      -4.593  22.082  -1.075  1.00  0.00     0.084 C 
BRANCH  17  18
HETATM   18  N1  UNL     1      -5.631  22.196  -2.004  1.00  0.00    -0.391 N 
HETATM   19  C4  UNL     1      -5.637  23.154  -3.022  1.00  0.00     0.124 C 
HETATM   20  C3  UNL     1      -4.916  22.670  -4.295  1.00  0.00     0.051 C 
HETATM   21  C2  UNL     1      -5.469  21.340  -4.715  1.00  0.00     0.123 C 
HETATM   22  C15 UNL     1      -6.619  20.923  -3.835  1.00  0.00     0.051 C 
HETATM   23  C14 UNL     1      -6.214  20.919  -2.398  1.00  0.00     0.124 C 
BRANCH  21  24
HETATM   24  O1  UNL     1      -5.784  21.285  -6.063  1.00  0.00    -0.391 OA
HETATM   25  C1  UNL     1      -6.601  22.292  -6.510  1.00  0.00     0.202 C 
ENDBRANCH  21  24
ENDBRANCH  17  18
ENDBRANCH  16  17
ENDBRANCH  15  16
ENDBRANCH   7  15
ENDBRANCH   1   5
TORSDOF 6
ENDMDL
MODEL 4
REMARK VINA RESULT: -6.789715595      2.936      5.546
REMARK  6 active torsions:
REMARK  status: ('A' for Active; 'I' for Inactive)
REMARK    1  A    between atoms: O1_2  and  C2_3 
REMARK    2  A    between atoms: N1_6  and  C5_7 
REMARK    3  A    between atoms: C5_7  and  C6_8 
REMARK    4  A    between atoms: C6_8  and  O2_9 
REMARK    5  A    between atoms: O2_9  and  C7_10 
REMARK    6  A    between atoms: C8_13  and  N3_14 
ROOT
HETATM    1  N3  UNL     1      -3.626  17.461  -4.960  1.00  0.00    -0.126 N 
ATOM      2  H3  UNL     1      -4.159  17.948  -5.679  1.00  0.00     0.197 HD
HETATM    3  C9  UNL     1      -3.901  16.119  -4.681  1.00  0.00     0.196 C 
HETATM    4  N4  UNL     1      -4.125  14.994  -4.434  1.00  0.00    -0.171 NA
ENDROOT
BRANCH   1   5
HETATM    5  C8  UNL     1      -2.706  18.083  -4.316  1.00  0.00     0.693 A 
HETATM    6  N2  UNL     1      -3.033  19.186  -3.624  1.00  0.00    -0.169 N 
HETATM    7  C7  UNL     1      -2.154  19.911  -2.915  1.00  0.00     0.165 A 
ATOM      8  H2  UNL     1      -4.007  19.491  -3.638  1.00  0.00     0.186 HD
HETATM    9  C12 UNL     1      -0.842  19.501  -2.898  1.00  0.00     0.012 A 
HETATM   10  C10 UNL     1      -0.498  18.375  -3.602  1.00  0.00     0.033 A 
HETATM   11  C13 UNL     1       0.224  20.217  -2.154  1.00  0.00     0.055 C 
HETATM   12  N5  UNL     1      -1.427  17.696  -4.290  1.00  0.00    -0.194 N 
HETATM   13  C11 UNL     1       0.898  17.859  -3.636  1.00  0.00     0.069 C 
ATOM     14  H5  UNL     1      -1.151  16.862  -4.808  1.00  0.00     0.184 HD
BRANCH   7  15
HETATM   15  O2  UNL     1      -2.547  21.060  -2.207  1.00  0.00    -0.330 OA
BRANCH  15  16
HETATM   16  C6  UNL     1      -3.797  21.609  -2.504  1.00  0.00     0.221 C 
BRANCH  16  17
HETATM   17  C5  UNL     1      -4.768  21.429  -1.394  1.00  0.00     0.084 C 
BRANCH  17  18
HETATM   18  N1  UNL     1      -6.053  21.046  -1.789  1.00  0.00    -0.391 N 
HETATM   19  C4  UNL     1      -7.213  21.620  -1.261  1.00  0.00     0.124 C 
HETATM   20  C3  UNL     1      -7.650  22.883  -2.026  1.00  0.00     0.051 C 
HETATM   21  C2  UNL     1      -7.740  22.581  -3.493  1.00  0.00     0.123 C 
HETATM   22  C15 UNL     1      -7.476  21.123  -3.768  1.00  0.00     0.051 C 
HETATM   23  C14 UNL     1      -6.159  20.706  -3.203  1.00  0.00     0.124 C 
BRANCH  21  24
HETATM   24  O1  UNL     1      -8.921  23.025  -4.066  1.00  0.00    -0.391 OA
HETATM   25  C1  UNL     1      -9.247  22.430  -5.257  1.00  0.00     0.202 C 
ENDBRANCH  21  24
ENDBRANCH  17  18
ENDBRANCH  16  17
ENDBRANCH  15  16
ENDBRANCH   7  15
ENDBRANCH   1   5
TORSDOF 6
ENDMDL
MODEL 5
REMARK VINA RESULT: -6.787218011      1.467      2.839
REMARK  6 active torsions:
REMARK  status: ('A' for Active; 'I' for Inactive)
REMARK    1  A    between atoms: O1_2  and  C2_3 
REMARK    2  A    between atoms: N1_6  and  C5_7 
REMARK    3  A    between atoms: C5_7  and  C6_8 
REMARK    4  A    between atoms: C6_8  and  O2_9 
REMARK    5  A    between atoms: O2_9  and  C7_10 
REMARK    6  A    between atoms: C8_13  and  N3_14 
ROOT
HETATM    1  N3  UNL     1      -4.261  16.154  -4.538  1.00  0.00    -0.126 N 
ATOM      2  H3  UNL     1      -4.985  16.123  -3.819  1.00  0.00     0.197 HD
HETATM    3  C9  UNL     1      -4.212  15.157  -5.515  1.00  0.00     0.196 C 
HETATM    4  N4  UNL     1      -4.156  14.324  -6.340  1.00  0.00    -0.171 NA
ENDROOT
BRANCH   1   5
HETATM    5  C8  UNL     1      -3.403  17.108  -4.538  1.00  0.00     0.693 A 
HETATM    6  N2  UNL     1      -3.844  18.377  -4.529  1.00  0.00    -0.169 N 
HETATM    7  C7  UNL     1      -3.036  19.448  -4.526  1.00  0.00     0.165 A 
ATOM      8  H2  UNL     1      -4.852  18.535  -4.524  1.00  0.00     0.186 HD
HETATM    9  C12 UNL     1      -1.678  19.235  -4.534  1.00  0.00     0.012 A 
HETATM   10  C10 UNL     1      -1.218  17.943  -4.543  1.00  0.00     0.033 A 
HETATM   11  C13 UNL     1      -0.683  20.335  -4.533  1.00  0.00     0.055 C 
HETATM   12  N5  UNL     1      -2.081  16.916  -4.545  1.00  0.00    -0.194 N 
HETATM   13  C11 UNL     1       0.235  17.621  -4.550  1.00  0.00     0.069 C 
ATOM     14  H5  UNL     1      -1.718  15.963  -4.553  1.00  0.00     0.184 HD
BRANCH   7  15
HETATM   15  O2  UNL     1      -3.549  20.757  -4.517  1.00  0.00    -0.330 OA
BRANCH  15  16
HETATM   16  C6  UNL     1      -4.245  21.173  -3.379  1.00  0.00     0.221 C 
BRANCH  16  17
HETATM   17  C5  UNL     1      -3.370  21.891  -2.416  1.00  0.00     0.084 C 
BRANCH  17  18
HETATM   18  N1  UNL     1      -3.079  21.187  -1.244  1.00  0.00    -0.391 N 
HETATM   19  C4  UNL     1      -1.885  20.485  -1.056  1.00  0.00     0.124 C 
HETATM   20  C3  UNL     1      -0.763  21.369  -0.480  1.00  0.00     0.051 C 
HETATM   21  C2  UNL     1      -1.253  22.068   0.754  1.00  0.00     0.123 C 
HETATM   22  C15 UNL     1      -2.647  21.627   1.115  1.00  0.00     0.051 C 
HETATM   23  C14 UNL     1      -3.581  21.824  -0.032  1.00  0.00     0.124 C 
BRANCH  21  24
HETATM   24  O1  UNL     1      -0.371  21.969   1.819  1.00  0.00    -0.391 OA
HETATM   25  C1  UNL     1      -0.255  23.101   2.583  1.00  0.00     0.202 C 
ENDBRANCH  21  24
ENDBRANCH  17  18
ENDBRANCH  16  17
ENDBRANCH  15  16
ENDBRANCH   7  15
ENDBRANCH   1   5
TORSDOF 6
ENDMDL
