MODEL 1
REMARK VINA RESULT: -6.779167697      0.000      0.000
REMARK  5 active torsions:
REMARK  status: ('A' for Active; 'I' for Inactive)
REMARK    1  A    between atoms: O1_2  and  C2_3 
REMARK    2  A    between atoms: C3_4  and  C4_5 
REMARK    3  A    between atoms: C4_5  and  C5_6 
REMARK    4  A    between atoms: N1_12  and  C10_13 
REMARK    5  A    between atoms: C10_13  and  C11_14 
ROOT
HETATM    1  C2  UNL     1      -3.627  20.533  -3.213  1.00  0.00     0.156 C 
HETATM    2  C3  UNL     1      -2.883  19.391  -3.828  1.00  0.00     0.119 C 
HETATM    3  N1  UNL     1      -3.891  18.691  -4.541  1.00  0.00    -0.358 N 
HETATM    4  C12 UNL     1      -4.842  19.586  -5.044  1.00  0.00     0.075 C 
HETATM    5  C13 UNL     1      -4.946  20.636  -3.954  1.00  0.00     0.013 C 
HETATM    6  C14 UNL     1      -5.157  22.017  -4.523  1.00  0.00     0.023 C 
HETATM    7  C15 UNL     1      -6.122  20.256  -3.068  1.00  0.00     0.023 C 
ENDROOT
BRANCH   3   8
HETATM    8  C10 UNL     1      -4.256  17.427  -4.115  1.00  0.00     0.141 C 
BRANCH   8   9
HETATM    9  C11 UNL     1      -4.430  16.376  -5.102  1.00  0.00     0.152 A 
HETATM   10  N2  UNL     1      -4.937  16.371  -6.354  1.00  0.00    -0.268 N 
HETATM   11  N3  UNL     1      -4.882  15.171  -6.858  1.00  0.00    -0.227 N 
ATOM     12  H2  UNL     1      -5.309  17.189  -6.836  1.00  0.00     0.190 HD
HETATM   13  N4  UNL     1      -4.346  14.390  -5.952  1.00  0.00    -0.227 N 
ATOM     14  H3  UNL     1      -5.198  14.890  -7.787  1.00  0.00     0.210 HD
HETATM   15  N5  UNL     1      -4.070  15.095  -4.893  1.00  0.00    -0.268 N 
ATOM     16  H4  UNL     1      -4.173  13.391  -6.059  1.00  0.00     0.210 HD
ATOM     17  H5  UNL     1      -3.646  14.734  -4.038  1.00  0.00     0.190 HD
ENDBRANCH   8   9
ENDBRANCH   3   8
BRANCH   2  18
HETATM   18  C4  UNL     1      -1.815  19.824  -4.803  1.00  0.00     0.033 C 
BRANCH  18  19
HETATM   19  C5  UNL     1      -0.426  19.752  -4.225  1.00  0.00    -0.009 C 
HETATM   20  C6  UNL     1       0.374  18.826  -5.144  1.00  0.00     0.031 C 
HETATM   21  C7  UNL     1       0.144  17.398  -4.655  1.00  0.00     0.168 C 
HETATM   22  O2  UNL     1       0.771  17.175  -3.444  1.00  0.00    -0.391 OA
HETATM   23  C8  UNL     1       0.842  18.320  -2.653  1.00  0.00     0.168 C 
HETATM   24  C9  UNL     1      -0.431  19.094  -2.861  1.00  0.00     0.031 C 
ENDBRANCH  18  19
ENDBRANCH   2  18
BRANCH   1  25
HETATM   25  O1  UNL     1      -3.928  20.349  -1.876  1.00  0.00    -0.388 OA
HETATM   26  C1  UNL     1      -3.143  21.098  -1.018  1.00  0.00     0.202 C 
ENDBRANCH   1  25
TORSDOF 5
ENDMDL
MODEL 2
REMARK VINA RESULT: -6.649577055      2.434      5.251
REMARK  5 active torsions:
REMARK  status: ('A' for Active; 'I' for Inactive)
REMARK    1  A    between atoms: O1_2  and  C2_3 
REMARK    2  A    between atoms: C3_4  and  C4_5 
REMARK    3  A    between atoms: C4_5  and  C5_6 
REMARK    4  A    between atoms: N1_12  and  C10_13 
REMARK    5  A    between atoms: C10_13  and  C11_14 
ROOT
HETATM    1  C2  UNL     1      -3.804  21.771  -3.410  1.00  0.00     0.156 C 
HETATM    2  C3  UNL     1      -4.565  20.719  -4.152  1.00  0.00     0.119 C 
HETATM    3  N1  UNL     1      -3.947  19.512  -3.729  1.00  0.00    -0.358 N 
HETATM    4  C12 UNL     1      -3.527  19.620  -2.399  1.00  0.00     0.075 C 
HETATM    5  C13 UNL     1      -3.062  21.061  -2.294  1.00  0.00     0.013 C 
HETATM    6  C14 UNL     1      -3.383  21.657  -0.946  1.00  0.00     0.023 C 
HETATM    7  C15 UNL     1      -1.559  21.071  -2.521  1.00  0.00     0.023 C 
ENDROOT
BRANCH   3   8
HETATM    8  C10 UNL     1      -3.225  18.774  -4.649  1.00  0.00     0.141 C 
BRANCH   8   9
HETATM    9  C11 UNL     1      -3.335  17.326  -4.628  1.00  0.00     0.152 A 
HETATM   10  N2  UNL     1      -4.393  16.489  -4.562  1.00  0.00    -0.268 N 
HETATM   11  N3  UNL     1      -3.989  15.250  -4.572  1.00  0.00    -0.227 N 
ATOM     12  H2  UNL     1      -5.368  16.784  -4.511  1.00  0.00     0.190 HD
HETATM   13  N4  UNL     1      -2.681  15.266  -4.644  1.00  0.00    -0.227 N 
ATOM     14  H3  UNL     1      -4.582  14.421  -4.532  1.00  0.00     0.210 HD
HETATM   15  N5  UNL     1      -2.271  16.500  -4.678  1.00  0.00    -0.268 N 
ATOM     16  H4  UNL     1      -2.080  14.442  -4.670  1.00  0.00     0.210 HD
ATOM     17  H5  UNL     1      -1.297  16.797  -4.733  1.00  0.00     0.190 HD
ENDBRANCH   8   9
ENDBRANCH   3   8
BRANCH   2  18
HETATM   18  C4  UNL     1      -6.029  20.665  -3.787  1.00  0.00     0.033 C 
BRANCH  18  19
HETATM   19  C5  UNL     1      -6.925  20.477  -4.983  1.00  0.00    -0.009 C 
HETATM   20  C6  UNL     1      -6.224  21.161  -6.158  1.00  0.00     0.031 C 
HETATM   21  C7  UNL     1      -6.637  22.631  -6.135  1.00  0.00     0.168 C 
HETATM   22  O2  UNL     1      -7.962  22.785  -6.493  1.00  0.00    -0.391 OA
HETATM   23  C8  UNL     1      -8.752  21.697  -6.125  1.00  0.00     0.168 C 
HETATM   24  C9  UNL     1      -8.245  21.196  -4.800  1.00  0.00     0.031 C 
ENDBRANCH  18  19
ENDBRANCH   2  18
BRANCH   1  25
HETATM   25  O1  UNL     1      -2.854  22.421  -4.177  1.00  0.00    -0.388 OA
HETATM   26  C1  UNL     1      -3.236  23.685  -4.588  1.00  0.00     0.202 C 
ENDBRANCH   1  25
TORSDOF 5
ENDMDL
MODEL 3
REMARK VINA RESULT: -6.639038965      2.273      5.121
REMARK  5 active torsions:
REMARK  status: ('A' for Active; 'I' for Inactive)
REMARK    1  A    between atoms: O1_2  and  C2_3 
REMARK    2  A    between atoms: C3_4  and  C4_5 
REMARK    3  A    between atoms: C4_5  and  C5_6 
REMARK    4  A    between atoms: N1_12  and  C10_13 
REMARK    5  A    between atoms: C10_13  and  C11_14 
ROOT
HETATM    1  C2  UNL     1      -3.835  20.696  -3.969  1.00  0.00     0.156 C 
HETATM    2  C3  UNL     1      -4.376  19.646  -4.886  1.00  0.00     0.119 C 
HETATM    3  N1  UNL     1      -4.306  18.463  -4.104  1.00  0.00    -0.358 N 
HETATM    4  C12 UNL     1      -4.537  18.756  -2.756  1.00  0.00     0.075 C 
HETATM    5  C13 UNL     1      -3.870  20.106  -2.572  1.00  0.00     0.013 C 
HETATM    6  C14 UNL     1      -4.639  20.986  -1.616  1.00  0.00     0.023 C 
HETATM    7  C15 UNL     1      -2.472  19.853  -2.031  1.00  0.00     0.023 C 
ENDROOT
BRANCH   3   8
HETATM    8  C10 UNL     1      -3.423  17.467  -4.478  1.00  0.00     0.141 C 
BRANCH   8   9
HETATM    9  C11 UNL     1      -3.936  16.293  -5.161  1.00  0.00     0.152 A 
HETATM   10  N2  UNL     1      -3.698  14.972  -5.016  1.00  0.00    -0.268 N 
HETATM   11  N3  UNL     1      -4.406  14.289  -5.870  1.00  0.00    -0.227 N 
ATOM     12  H2  UNL     1      -3.056  14.566  -4.335  1.00  0.00     0.190 HD
HETATM   13  N4  UNL     1      -5.104  15.147  -6.573  1.00  0.00    -0.227 N 
ATOM     14  H3  UNL     1      -4.415  13.274  -5.974  1.00  0.00     0.210 HD
HETATM   15  N5  UNL     1      -4.835  16.351  -6.163  1.00  0.00    -0.268 N 
ATOM     16  H4  UNL     1      -5.754  14.908  -7.322  1.00  0.00     0.210 HD
ATOM     17  H5  UNL     1      -5.242  17.208  -6.540  1.00  0.00     0.190 HD
ENDBRANCH   8   9
ENDBRANCH   3   8
BRANCH   2  18
HETATM   18  C4  UNL     1      -5.814  19.877  -5.284  1.00  0.00     0.033 C 
BRANCH  18  19
HETATM   19  C5  UNL     1      -6.274  21.289  -5.030  1.00  0.00    -0.009 C 
HETATM   20  C6  UNL     1      -7.658  21.180  -4.386  1.00  0.00     0.031 C 
HETATM   21  C7  UNL     1      -8.677  21.098  -5.519  1.00  0.00     0.168 C 
HETATM   22  O2  UNL     1      -8.789  22.306  -6.182  1.00  0.00    -0.391 OA
HETATM   23  C8  UNL     1      -7.598  23.030  -6.190  1.00  0.00     0.168 C 
HETATM   24  C9  UNL     1      -6.469  22.046  -6.327  1.00  0.00     0.031 C 
ENDBRANCH  18  19
ENDBRANCH   2  18
BRANCH   1  25
HETATM   25  O1  UNL     1      -2.522  21.043  -4.228  1.00  0.00    -0.388 OA
HETATM   26  C1  UNL     1      -2.287  22.405  -4.197  1.00  0.00     0.202 C 
ENDBRANCH   1  25
TORSDOF 5
ENDMDL
MODEL 4
REMARK VINA RESULT: -6.624162900      1.360      1.893
REMARK  5 active torsions:
REMARK  status: ('A' for Active; 'I' for Inactive)
REMARK    1  A    between atoms: O1_2  and  C2_3 
REMARK    2  A    between atoms: C3_4  and  C4_5 
REMARK    3  A    between atoms: C4_5  and  C5_6 
REMARK    4  A    between atoms: N1_12  and  C10_13 
REMARK    5  A    between atoms: C10_13  and  C11_14 
ROOT
HETATM    1  C2  UNL     1      -5.205  21.153  -3.804  1.00  0.00     0.156 C 
HETATM    2  C3  UNL     1      -4.104  20.146  -3.702  1.00  0.00     0.119 C 
HETATM    3  N1  UNL     1      -4.561  19.079  -4.520  1.00  0.00    -0.358 N 
HETATM    4  C12 UNL     1      -5.296  19.576  -5.602  1.00  0.00     0.075 C 
HETATM    5  C13 UNL     1      -6.039  20.758  -5.008  1.00  0.00     0.013 C 
HETATM    6  C14 UNL     1      -6.166  21.894  -5.993  1.00  0.00     0.023 C 
HETATM    7  C15 UNL     1      -7.420  20.269  -4.601  1.00  0.00     0.023 C 
ENDROOT
BRANCH   3   8
HETATM    8  C10 UNL     1      -4.891  17.875  -3.925  1.00  0.00     0.141 C 
BRANCH   8   9
HETATM    9  C11 UNL     1      -4.352  16.646  -4.480  1.00  0.00     0.152 A 
HETATM   10  N2  UNL     1      -4.900  15.657  -5.218  1.00  0.00    -0.268 N 
HETATM   11  N3  UNL     1      -4.008  14.746  -5.485  1.00  0.00    -0.227 N 
ATOM     12  H2  UNL     1      -5.873  15.628  -5.523  1.00  0.00     0.190 HD
HETATM   13  N4  UNL     1      -2.883  15.126  -4.931  1.00  0.00    -0.227 N 
ATOM     14  H3  UNL     1      -4.158  13.894  -6.026  1.00  0.00     0.210 HD
HETATM   15  N5  UNL     1      -3.070  16.262  -4.325  1.00  0.00    -0.268 N 
ATOM     16  H4  UNL     1      -2.002  14.614  -4.970  1.00  0.00     0.210 HD
ATOM     17  H5  UNL     1      -2.357  16.780  -3.811  1.00  0.00     0.190 HD
ENDBRANCH   8   9
ENDBRANCH   3   8
BRANCH   2  18
HETATM   18  C4  UNL     1      -2.785  20.639  -4.245  1.00  0.00     0.033 C 
BRANCH  18  19
HETATM   19  C5  UNL     1      -1.838  19.521  -4.594  1.00  0.00    -0.009 C 
HETATM   20  C6  UNL     1      -1.289  18.993  -3.267  1.00  0.00     0.031 C 
HETATM   21  C7  UNL     1      -0.076  19.849  -2.909  1.00  0.00     0.168 C 
HETATM   22  O2  UNL     1       0.986  19.592  -3.755  1.00  0.00    -0.391 OA
HETATM   23  C8  UNL     1       0.580  19.227  -5.037  1.00  0.00     0.168 C 
HETATM   24  C9  UNL     1      -0.644  20.033  -5.373  1.00  0.00     0.031 C 
ENDBRANCH  18  19
ENDBRANCH   2  18
BRANCH   1  25
HETATM   25  O1  UNL     1      -6.053  21.167  -2.712  1.00  0.00    -0.388 OA
HETATM   26  C1  UNL     1      -5.425  20.887  -1.512  1.00  0.00     0.202 C 
ENDBRANCH   1  25
TORSDOF 5
ENDMDL
MODEL 5
REMARK VINA RESULT: -6.623101648      2.933      4.853
REMARK  5 active torsions:
REMARK  status: ('A' for Active; 'I' for Inactive)
REMARK    1  A    between atoms: O1_2  and  C2_3 
REMARK    2  A    between atoms: C3_4  and  C4_5 
REMARK    3  A    between atoms: C4_5  and  C5_6 
REMARK    4  A    between atoms: N1_12  and  C10_13 
REMARK    5  A    between atoms: C10_13  and  C11_14 
ROOT
HETATM    1  C2  UNL     1      -5.067  20.268  -3.993  1.00  0.00     0.156 C 
HETATM    2  C3  UNL     1      -4.090  19.160  -4.226  1.00  0.00     0.119 C 
HETATM    3  N1  UNL     1      -3.122  19.361  -3.207  1.00  0.00    -0.358 N 
HETATM    4  C12 UNL     1      -3.729  19.864  -2.051  1.00  0.00     0.075 C 
HETATM    5  C13 UNL     1      -4.803  20.788  -2.593  1.00  0.00     0.013 C 
HETATM    6  C14 UNL     1      -6.050  20.759  -1.745  1.00  0.00     0.023 C 
HETATM    7  C15 UNL     1      -4.224  22.195  -2.615  1.00  0.00     0.023 C 
ENDROOT
BRANCH   3   8
HETATM    8  C10 UNL     1      -1.843  19.744  -3.567  1.00  0.00     0.141 C 
BRANCH   8   9
HETATM    9  C11 UNL     1      -0.780  18.754  -3.540  1.00  0.00     0.152 A 
HETATM   10  N2  UNL     1       0.334  18.628  -2.788  1.00  0.00    -0.268 N 
HETATM   11  N3  UNL     1       0.993  17.558  -3.135  1.00  0.00    -0.227 N 
ATOM     12  H2  UNL     1       0.620  19.276  -2.055  1.00  0.00     0.190 HD
HETATM   13  N4  UNL     1       0.323  16.983  -4.103  1.00  0.00    -0.227 N 
ATOM     14  H3  UNL     1       1.868  17.228  -2.726  1.00  0.00     0.210 HD
HETATM   15  N5  UNL     1      -0.741  17.686  -4.360  1.00  0.00    -0.268 N 
ATOM     16  H4  UNL     1       0.593  16.122  -4.580  1.00  0.00     0.210 HD
ATOM     17  H5  UNL     1      -1.438  17.463  -5.071  1.00  0.00     0.190 HD
ENDBRANCH   8   9
ENDBRANCH   3   8
BRANCH   2  18
HETATM   18  C4  UNL     1      -4.688  17.784  -4.059  1.00  0.00     0.033 C 
BRANCH  18  19
HETATM   19  C5  UNL     1      -4.110  16.772  -5.014  1.00  0.00    -0.009 C 
HETATM   20  C6  UNL     1      -4.603  17.167  -6.408  1.00  0.00     0.031 C 
HETATM   21  C7  UNL     1      -5.967  16.509  -6.606  1.00  0.00     0.168 C 
HETATM   22  O2  UNL     1      -5.848  15.140  -6.745  1.00  0.00    -0.391 OA
HETATM   23  C8  UNL     1      -4.772  14.615  -6.032  1.00  0.00     0.168 C 
HETATM   24  C9  UNL     1      -4.660  15.386  -4.746  1.00  0.00     0.031 C 
ENDBRANCH  18  19
ENDBRANCH   2  18
BRANCH   1  25
HETATM   25  O1  UNL     1      -4.918  21.337  -4.857  1.00  0.00    -0.388 OA
HETATM   26  C1  UNL     1      -6.043  21.606  -5.615  1.00  0.00     0.202 C 
ENDBRANCH   1  25
TORSDOF 5
ENDMDL
