MODEL 1
REMARK VINA RESULT: -7.331216680      0.000      0.000
REMARK  7 active torsions:
REMARK  status: ('A' for Active; 'I' for Inactive)
REMARK    1  A    between atoms: C1_4  and  C2_6 
REMARK    2  A    between atoms: N3_9  and  C5_10 
REMARK    3  A    between atoms: C5_10  and  C6_11 
REMARK    4  A    between atoms: C6_11  and  C7_12 
REMARK    5  A    between atoms: C7_12  and  N4_13 
REMARK    6  A    between atoms: C10_16  and  C11_17 
REMARK    7  A    between atoms: N5_18  and  O1_20 
ROOT
HETATM    1  C6  UNL     1     -26.495 -22.003 -11.607  1.00  0.00     0.040 C 
ENDROOT
BRANCH   1   2
HETATM    2  C5  UNL     1     -26.772 -22.050 -10.154  1.00  0.00     0.129 C 
BRANCH   2   3
HETATM    3  N3  UNL     1     -25.643 -21.676  -9.368  1.00  0.00    -0.366 N 
HETATM    4  C4  UNL     1     -24.492 -21.320  -9.960  1.00  0.00     0.091 A 
HETATM    5  C3  UNL     1     -23.353 -20.945  -9.281  1.00  0.00     0.032 A 
HETATM    6  C2  UNL     1     -23.368 -20.924  -7.907  1.00  0.00     0.007 A 
HETATM    7  C15 UNL     1     -24.549 -21.290  -7.303  1.00  0.00     0.032 A 
HETATM    8  C14 UNL     1     -25.670 -21.660  -8.004  1.00  0.00     0.091 A 
BRANCH   6   9
HETATM    9  C1  UNL     1     -22.201 -20.538  -7.104  1.00  0.00     0.120 C 
HETATM   10  N1  UNL     1     -22.159 -19.451  -6.415  1.00  0.00    -0.387 N 
ATOM     11  H12 UNL     1     -21.349 -19.183  -5.858  1.00  0.00     0.157 HD
ATOM     12  H11 UNL     1     -22.987 -18.856  -6.449  1.00  0.00     0.157 HD
HETATM   13  N2  UNL     1     -21.056 -21.363  -7.056  1.00  0.00    -0.082 NA
ENDBRANCH   6   9
ENDBRANCH   2   3
ENDBRANCH   1   2
BRANCH   1  14
HETATM   14  C7  UNL     1     -27.527 -21.210 -12.355  1.00  0.00     0.129 C 
BRANCH  14  15
HETATM   15  N4  UNL     1     -26.913 -19.920 -12.697  1.00  0.00    -0.366 N 
HETATM   16  C8  UNL     1     -25.972 -19.792 -13.638  1.00  0.00     0.091 A 
HETATM   17  C9  UNL     1     -25.388 -18.595 -13.965  1.00  0.00     0.030 A 
HETATM   18  C10 UNL     1     -25.798 -17.437 -13.277  1.00  0.00    -0.016 A 
HETATM   19  C12 UNL     1     -26.767 -17.610 -12.320  1.00  0.00     0.030 A 
HETATM   20  C13 UNL     1     -27.332 -18.844 -12.020  1.00  0.00     0.091 A 
BRANCH  18  21
HETATM   21  C11 UNL     1     -25.210 -16.165 -13.592  1.00  0.00     0.125 C 
HETATM   22  N5  UNL     1     -24.043 -15.725 -13.440  1.00  0.00    -0.280 N 
ATOM     23  H5  UNL     1     -23.893 -14.767 -13.756  1.00  0.00     0.193 HD
BRANCH  22  24
HETATM   24  O1  UNL     1     -22.975 -16.328 -12.926  1.00  0.00    -0.290 OA
ATOM     25  H1  UNL     1     -22.128 -16.494 -13.323  1.00  0.00     0.244 HD
ENDBRANCH  22  24
ENDBRANCH  18  21
ENDBRANCH  14  15
ENDBRANCH   1  14
TORSDOF 7
ENDMDL
MODEL 2
REMARK VINA RESULT: -7.317932244      0.050      1.022
REMARK  7 active torsions:
REMARK  status: ('A' for Active; 'I' for Inactive)
REMARK    1  A    between atoms: C1_4  and  C2_6 
REMARK    2  A    between atoms: N3_9  and  C5_10 
REMARK    3  A    between atoms: C5_10  and  C6_11 
REMARK    4  A    between atoms: C6_11  and  C7_12 
REMARK    5  A    between atoms: C7_12  and  N4_13 
REMARK    6  A    between atoms: C10_16  and  C11_17 
REMARK    7  A    between atoms: N5_18  and  O1_20 
ROOT
HETATM    1  C6  UNL     1     -26.488 -21.998 -11.608  1.00  0.00     0.040 C 
ENDROOT
BRANCH   1   2
HETATM    2  C5  UNL     1     -26.764 -22.045 -10.155  1.00  0.00     0.129 C 
BRANCH   2   3
HETATM    3  N3  UNL     1     -25.635 -21.671  -9.369  1.00  0.00    -0.366 N 
HETATM    4  C4  UNL     1     -24.482 -21.320  -9.962  1.00  0.00     0.091 A 
HETATM    5  C3  UNL     1     -23.343 -20.945  -9.284  1.00  0.00     0.032 A 
HETATM    6  C2  UNL     1     -23.359 -20.921  -7.909  1.00  0.00     0.007 A 
HETATM    7  C15 UNL     1     -24.541 -21.282  -7.305  1.00  0.00     0.032 A 
HETATM    8  C14 UNL     1     -25.663 -21.651  -8.005  1.00  0.00     0.091 A 
BRANCH   6   9
HETATM    9  C1  UNL     1     -22.192 -20.535  -7.107  1.00  0.00     0.120 C 
HETATM   10  N1  UNL     1     -22.147 -19.446  -6.422  1.00  0.00    -0.387 N 
ATOM     11  H12 UNL     1     -21.337 -19.178  -5.865  1.00  0.00     0.157 HD
ATOM     12  H11 UNL     1     -22.973 -18.848  -6.459  1.00  0.00     0.157 HD
HETATM   13  N2  UNL     1     -21.049 -21.363  -7.055  1.00  0.00    -0.082 NA
ENDBRANCH   6   9
ENDBRANCH   2   3
ENDBRANCH   1   2
BRANCH   1  14
HETATM   14  C7  UNL     1     -27.532 -21.222 -12.358  1.00  0.00     0.129 C 
BRANCH  14  15
HETATM   15  N4  UNL     1     -26.962 -19.900 -12.646  1.00  0.00    -0.366 N 
HETATM   16  C8  UNL     1     -27.364 -18.786 -12.026  1.00  0.00     0.091 A 
HETATM   17  C9  UNL     1     -26.841 -17.545 -12.286  1.00  0.00     0.030 A 
HETATM   18  C10 UNL     1     -25.828 -17.432 -13.258  1.00  0.00    -0.016 A 
HETATM   19  C12 UNL     1     -25.442 -18.599 -13.871  1.00  0.00     0.030 A 
HETATM   20  C13 UNL     1     -26.000 -19.837 -13.575  1.00  0.00     0.091 A 
BRANCH  18  21
HETATM   21  C11 UNL     1     -25.257 -16.150 -13.558  1.00  0.00     0.125 C 
HETATM   22  N5  UNL     1     -24.085 -15.712 -13.442  1.00  0.00    -0.280 N 
ATOM     23  H5  UNL     1     -23.949 -14.744 -13.734  1.00  0.00     0.193 HD
BRANCH  22  24
HETATM   24  O1  UNL     1     -22.994 -16.327 -12.993  1.00  0.00    -0.290 OA
ATOM     25  H1  UNL     1     -22.174 -15.955 -12.691  1.00  0.00     0.244 HD
ENDBRANCH  22  24
ENDBRANCH  18  21
ENDBRANCH  14  15
ENDBRANCH   1  14
TORSDOF 7
ENDMDL
MODEL 3
REMARK VINA RESULT: -7.299063287      0.170      1.448
REMARK  7 active torsions:
REMARK  status: ('A' for Active; 'I' for Inactive)
REMARK    1  A    between atoms: C1_4  and  C2_6 
REMARK    2  A    between atoms: N3_9  and  C5_10 
REMARK    3  A    between atoms: C5_10  and  C6_11 
REMARK    4  A    between atoms: C6_11  and  C7_12 
REMARK    5  A    between atoms: C7_12  and  N4_13 
REMARK    6  A    between atoms: C10_16  and  C11_17 
REMARK    7  A    between atoms: N5_18  and  O1_20 
ROOT
HETATM    1  C6  UNL     1     -26.654 -22.072 -11.637  1.00  0.00     0.040 C 
ENDROOT
BRANCH   1   2
HETATM    2  C5  UNL     1     -26.864 -22.073 -10.172  1.00  0.00     0.129 C 
BRANCH   2   3
HETATM    3  N3  UNL     1     -25.695 -21.693  -9.450  1.00  0.00    -0.366 N 
HETATM    4  C4  UNL     1     -25.700 -21.680  -8.107  1.00  0.00     0.091 A 
HETATM    5  C3  UNL     1     -24.619 -21.327  -7.330  1.00  0.00     0.032 A 
HETATM    6  C2  UNL     1     -23.445 -20.957  -7.942  1.00  0.00     0.007 A 
HETATM    7  C15 UNL     1     -23.443 -20.971  -9.318  1.00  0.00     0.032 A 
HETATM    8  C14 UNL     1     -24.535 -21.328 -10.069  1.00  0.00     0.091 A 
BRANCH   6   9
HETATM    9  C1  UNL     1     -22.246 -20.566  -7.192  1.00  0.00     0.120 C 
HETATM   10  N1  UNL     1     -22.181 -19.485  -6.496  1.00  0.00    -0.387 N 
ATOM     11  H12 UNL     1     -21.348 -19.214  -5.975  1.00  0.00     0.157 HD
ATOM     12  H11 UNL     1     -23.015 -18.898  -6.485  1.00  0.00     0.157 HD
HETATM   13  N2  UNL     1     -21.092 -21.380  -7.206  1.00  0.00    -0.082 NA
ENDBRANCH   6   9
ENDBRANCH   2   3
ENDBRANCH   1   2
BRANCH   1  14
HETATM   14  C7  UNL     1     -27.649 -21.204 -12.351  1.00  0.00     0.129 C 
BRANCH  14  15
HETATM   15  N4  UNL     1     -26.984 -19.923 -12.624  1.00  0.00    -0.366 N 
HETATM   16  C8  UNL     1     -27.292 -18.795 -11.977  1.00  0.00     0.091 A 
HETATM   17  C9  UNL     1     -26.681 -17.591 -12.224  1.00  0.00     0.030 A 
HETATM   18  C10 UNL     1     -25.677 -17.537 -13.211  1.00  0.00    -0.016 A 
HETATM   19  C12 UNL     1     -25.390 -18.717 -13.851  1.00  0.00     0.030 A 
HETATM   20  C13 UNL     1     -26.036 -19.915 -13.569  1.00  0.00     0.091 A 
BRANCH  18  21
HETATM   21  C11 UNL     1     -25.015 -16.296 -13.497  1.00  0.00     0.125 C 
HETATM   22  N5  UNL     1     -23.810 -15.952 -13.400  1.00  0.00    -0.280 N 
ATOM     23  H5  UNL     1     -23.607 -14.991 -13.675  1.00  0.00     0.193 HD
BRANCH  22  24
HETATM   24  O1  UNL     1     -22.761 -16.659 -12.991  1.00  0.00    -0.290 OA
ATOM     25  H1  UNL     1     -21.860 -16.385 -12.868  1.00  0.00     0.244 HD
ENDBRANCH  22  24
ENDBRANCH  18  21
ENDBRANCH  14  15
ENDBRANCH   1  14
TORSDOF 7
ENDMDL
MODEL 4
REMARK VINA RESULT: -7.288609904      0.167      1.028
REMARK  7 active torsions:
REMARK  status: ('A' for Active; 'I' for Inactive)
REMARK    1  A    between atoms: C1_4  and  C2_6 
REMARK    2  A    between atoms: N3_9  and  C5_10 
REMARK    3  A    between atoms: C5_10  and  C6_11 
REMARK    4  A    between atoms: C6_11  and  C7_12 
REMARK    5  A    between atoms: C7_12  and  N4_13 
REMARK    6  A    between atoms: C10_16  and  C11_17 
REMARK    7  A    between atoms: N5_18  and  O1_20 
ROOT
HETATM    1  C6  UNL     1     -26.661 -22.050 -11.665  1.00  0.00     0.040 C 
ENDROOT
BRANCH   1   2
HETATM    2  C5  UNL     1     -26.866 -22.083 -10.200  1.00  0.00     0.129 C 
BRANCH   2   3
HETATM    3  N3  UNL     1     -25.700 -21.701  -9.474  1.00  0.00    -0.366 N 
HETATM    4  C4  UNL     1     -25.708 -21.693  -8.131  1.00  0.00     0.091 A 
HETATM    5  C3  UNL     1     -24.630 -21.338  -7.350  1.00  0.00     0.032 A 
HETATM    6  C2  UNL     1     -23.456 -20.964  -7.958  1.00  0.00     0.007 A 
HETATM    7  C15 UNL     1     -23.450 -20.973  -9.334  1.00  0.00     0.032 A 
HETATM    8  C14 UNL     1     -24.540 -21.331 -10.089  1.00  0.00     0.091 A 
BRANCH   6   9
HETATM    9  C1  UNL     1     -22.259 -20.571  -7.204  1.00  0.00     0.120 C 
HETATM   10  N1  UNL     1     -22.204 -19.498  -6.496  1.00  0.00    -0.387 N 
ATOM     11  H12 UNL     1     -21.373 -19.226  -5.972  1.00  0.00     0.157 HD
ATOM     12  H11 UNL     1     -23.042 -18.918  -6.478  1.00  0.00     0.157 HD
HETATM   13  N2  UNL     1     -21.099 -21.375  -7.228  1.00  0.00    -0.082 NA
ENDBRANCH   6   9
ENDBRANCH   2   3
ENDBRANCH   1   2
BRANCH   1  14
HETATM   14  C7  UNL     1     -27.650 -21.154 -12.355  1.00  0.00     0.129 C 
BRANCH  14  15
HETATM   15  N4  UNL     1     -26.948 -19.903 -12.672  1.00  0.00    -0.366 N 
HETATM   16  C8  UNL     1     -25.996 -19.823 -13.607  1.00  0.00     0.091 A 
HETATM   17  C9  UNL     1     -25.332 -18.662 -13.911  1.00  0.00     0.030 A 
HETATM   18  C10 UNL     1     -25.666 -17.491 -13.204  1.00  0.00    -0.016 A 
HETATM   19  C12 UNL     1     -26.649 -17.615 -12.253  1.00  0.00     0.030 A 
HETATM   20  C13 UNL     1     -27.296 -18.813 -11.977  1.00  0.00     0.091 A 
BRANCH  18  21
HETATM   21  C11 UNL     1     -24.992 -16.256 -13.494  1.00  0.00     0.125 C 
HETATM   22  N5  UNL     1     -23.787 -15.918 -13.384  1.00  0.00    -0.280 N 
ATOM     23  H5  UNL     1     -23.574 -14.962 -13.666  1.00  0.00     0.193 HD
BRANCH  22  24
HETATM   24  O1  UNL     1     -22.748 -16.628 -12.953  1.00  0.00    -0.290 OA
ATOM     25  H1  UNL     1     -22.711 -17.292 -12.275  1.00  0.00     0.244 HD
ENDBRANCH  22  24
ENDBRANCH  18  21
ENDBRANCH  14  15
ENDBRANCH   1  14
TORSDOF 7
ENDMDL
MODEL 5
REMARK VINA RESULT: -7.221089559      1.903      2.761
REMARK  7 active torsions:
REMARK  status: ('A' for Active; 'I' for Inactive)
REMARK    1  A    between atoms: C1_4  and  C2_6 
REMARK    2  A    between atoms: N3_9  and  C5_10 
REMARK    3  A    between atoms: C5_10  and  C6_11 
REMARK    4  A    between atoms: C6_11  and  C7_12 
REMARK    5  A    between atoms: C7_12  and  N4_13 
REMARK    6  A    between atoms: C10_16  and  C11_17 
REMARK    7  A    between atoms: N5_18  and  O1_20 
ROOT
HETATM    1  C6  UNL     1     -28.070 -19.159 -11.929  1.00  0.00     0.040 C 
ENDROOT
BRANCH   1   2
HETATM    2  C5  UNL     1     -28.196 -20.020 -10.732  1.00  0.00     0.129 C 
BRANCH   2   3
HETATM    3  N3  UNL     1     -26.933 -20.440 -10.222  1.00  0.00    -0.366 N 
HETATM    4  C4  UNL     1     -26.682 -20.388  -8.904  1.00  0.00     0.091 A 
HETATM    5  C3  UNL     1     -25.493 -20.771  -8.324  1.00  0.00     0.032 A 
HETATM    6  C2  UNL     1     -24.478 -21.242  -9.123  1.00  0.00     0.007 A 
HETATM    7  C15 UNL     1     -24.738 -21.293 -10.473  1.00  0.00     0.032 A 
HETATM    8  C14 UNL     1     -25.933 -20.905 -11.026  1.00  0.00     0.091 A 
BRANCH   6   9
HETATM    9  C1  UNL     1     -23.179 -21.671  -8.591  1.00  0.00     0.120 C 
HETATM   10  N1  UNL     1     -22.764 -21.341  -7.418  1.00  0.00    -0.387 N 
ATOM     11  H12 UNL     1     -21.862 -21.639  -7.048  1.00  0.00     0.157 HD
ATOM     12  H11 UNL     1     -23.386 -20.756  -6.860  1.00  0.00     0.157 HD
HETATM   13  N2  UNL     1     -22.319 -22.482  -9.363  1.00  0.00    -0.082 NA
ENDBRANCH   6   9
ENDBRANCH   2   3
ENDBRANCH   1   2
BRANCH   1  14
HETATM   14  C7  UNL     1     -27.922 -17.709 -11.570  1.00  0.00     0.129 C 
BRANCH  14  15
HETATM   15  N4  UNL     1     -26.515 -17.351 -11.793  1.00  0.00    -0.366 N 
HETATM   16  C8  UNL     1     -25.598 -17.376 -10.820  1.00  0.00     0.091 A 
HETATM   17  C9  UNL     1     -24.281 -17.043 -11.014  1.00  0.00     0.030 A 
HETATM   18  C10 UNL     1     -23.869 -16.653 -12.303  1.00  0.00    -0.016 A 
HETATM   19  C12 UNL     1     -24.840 -16.642 -13.274  1.00  0.00     0.030 A 
HETATM   20  C13 UNL     1     -26.165 -16.988 -13.032  1.00  0.00     0.091 A 
BRANCH  18  21
HETATM   21  C11 UNL     1     -22.500 -16.297 -12.546  1.00  0.00     0.125 C 
HETATM   22  N5  UNL     1     -21.783 -15.374 -12.081  1.00  0.00    -0.280 N 
ATOM     23  H5  UNL     1     -20.825 -15.348 -12.430  1.00  0.00     0.193 HD
BRANCH  22  24
HETATM   24  O1  UNL     1     -22.093 -14.427 -11.200  1.00  0.00    -0.290 OA
ATOM     25  H1  UNL     1     -21.960 -14.413 -10.260  1.00  0.00     0.244 HD
ENDBRANCH  22  24
ENDBRANCH  18  21
ENDBRANCH  14  15
ENDBRANCH   1  14
TORSDOF 7
ENDMDL
