MODEL 1
REMARK VINA RESULT: -6.385095573      0.000      0.000
REMARK  7 active torsions:
REMARK  status: ('A' for Active; 'I' for Inactive)
REMARK       I    between atoms: C1_2  and  N4_16 
REMARK    1  A    between atoms: N2_3  and  C2_5 
REMARK    2  A    between atoms: C2_5  and  C3_6 
REMARK    3  A    between atoms: C3_6  and  C4_7 
REMARK    4  A    between atoms: C4_7  and  C5_8 
REMARK    5  A    between atoms: C5_8  and  C6_9 
REMARK    6  A    between atoms: C6_9  and  N3_10 
REMARK    7  A    between atoms: N4_16  and  C11_18 
ROOT
HETATM    1  N1  UNL     1     -22.829 -18.815 -12.225  1.00  0.00    -0.063 NA
HETATM    2  C1  UNL     1     -22.293 -18.218 -11.064  1.00  0.00     0.202 C 
HETATM    3  N2  UNL     1     -22.409 -16.957 -10.888  1.00  0.00    -0.364 N 
ATOM      4  H2  UNL     1     -22.025 -16.516 -10.052  1.00  0.00     0.162 HD
HETATM    5  N4  UNL     1     -21.627 -19.015 -10.105  1.00  0.00    -0.163 N 
ATOM      6  H4  UNL     1     -20.616 -18.933 -10.002  1.00  0.00     0.187 HD
ENDROOT
BRANCH   3   7
HETATM    7  C2  UNL     1     -23.090 -16.164 -11.885  1.00  0.00     0.122 C 
BRANCH   7   8
HETATM    8  C3  UNL     1     -24.435 -15.754 -11.307  1.00  0.00     0.020 C 
BRANCH   8   9
HETATM    9  C4  UNL     1     -25.315 -15.343 -12.458  1.00  0.00     0.003 C 
BRANCH   9  10
HETATM   10  C5  UNL     1     -26.570 -16.168 -12.461  1.00  0.00     0.030 C 
BRANCH  10  11
HETATM   11  C6  UNL     1     -26.326 -17.607 -12.753  1.00  0.00     0.272 C 
BRANCH  11  12
HETATM   12  N3  UNL     1     -27.202 -18.510 -12.075  1.00  0.00     0.092 N 
HETATM   13  C7  UNL     1     -27.057 -19.885 -12.384  1.00  0.00     0.298 C 
HETATM   14  C8  UNL     1     -25.969 -20.600 -11.618  1.00  0.00     0.198 C 
HETATM   15  O1  UNL     1     -25.929 -20.285 -10.280  1.00  0.00    -0.388 OA
HETATM   16  C9  UNL     1     -25.855 -18.929 -10.064  1.00  0.00     0.198 C 
HETATM   17  C10 UNL     1     -27.089 -18.291 -10.657  1.00  0.00     0.298 C 
ENDBRANCH  11  12
ENDBRANCH  10  11
ENDBRANCH   9  10
ENDBRANCH   8   9
ENDBRANCH   7   8
ENDBRANCH   3   7
BRANCH   5  18
HETATM   18  C11 UNL     1     -22.278 -19.851  -9.354  1.00  0.00     0.684 A 
HETATM   19  N5  UNL     1     -22.854 -21.016  -9.723  1.00  0.00    -0.200 N 
HETATM   20  C12 UNL     1     -23.434 -21.605  -8.659  1.00  0.00     0.123 A 
ATOM     21  H5  UNL     1     -22.850 -21.395 -10.671  1.00  0.00     0.183 HD
HETATM   22  C13 UNL     1     -23.209 -20.775  -7.589  1.00  0.00     0.123 A 
HETATM   23  N6  UNL     1     -22.518 -19.737  -8.034  1.00  0.00    -0.200 N 
ATOM     24  H6  UNL     1     -22.208 -18.957  -7.455  1.00  0.00     0.183 HD
ENDBRANCH   5  18
TORSDOF 7
ENDMDL
MODEL 2
REMARK VINA RESULT: -6.331124546      0.941      1.662
REMARK  7 active torsions:
REMARK  status: ('A' for Active; 'I' for Inactive)
REMARK       I    between atoms: C1_2  and  N4_16 
REMARK    1  A    between atoms: N2_3  and  C2_5 
REMARK    2  A    between atoms: C2_5  and  C3_6 
REMARK    3  A    between atoms: C3_6  and  C4_7 
REMARK    4  A    between atoms: C4_7  and  C5_8 
REMARK    5  A    between atoms: C5_8  and  C6_9 
REMARK    6  A    between atoms: C6_9  and  N3_10 
REMARK    7  A    between atoms: N4_16  and  C11_18 
ROOT
HETATM    1  N1  UNL     1     -22.799 -18.714 -12.275  1.00  0.00    -0.063 NA
HETATM    2  C1  UNL     1     -22.309 -18.162 -11.072  1.00  0.00     0.202 C 
HETATM    3  N2  UNL     1     -22.393 -16.902 -10.872  1.00  0.00    -0.364 N 
ATOM      4  H2  UNL     1     -22.042 -16.493 -10.006  1.00  0.00     0.162 HD
HETATM    5  N4  UNL     1     -21.725 -19.003 -10.099  1.00  0.00    -0.163 N 
ATOM      6  H4  UNL     1     -20.719 -18.958  -9.938  1.00  0.00     0.187 HD
ENDROOT
BRANCH   3   7
HETATM    7  C2  UNL     1     -22.990 -16.064 -11.885  1.00  0.00     0.122 C 
BRANCH   7   8
HETATM    8  C3  UNL     1     -24.327 -15.576 -11.350  1.00  0.00     0.020 C 
BRANCH   8   9
HETATM    9  C4  UNL     1     -25.221 -15.318 -12.534  1.00  0.00     0.003 C 
BRANCH   9  10
HETATM   10  C5  UNL     1     -26.491 -16.108 -12.397  1.00  0.00     0.030 C 
BRANCH  10  11
HETATM   11  C6  UNL     1     -26.303 -17.566 -12.631  1.00  0.00     0.272 C 
BRANCH  11  12
HETATM   12  N3  UNL     1     -26.647 -18.397 -11.520  1.00  0.00     0.092 N 
HETATM   13  C7  UNL     1     -27.992 -18.338 -11.079  1.00  0.00     0.298 C 
HETATM   14  C8  UNL     1     -28.954 -19.217 -11.844  1.00  0.00     0.198 C 
HETATM   15  O1  UNL     1     -28.471 -20.477 -12.107  1.00  0.00    -0.388 OA
HETATM   16  C9  UNL     1     -27.246 -20.446 -12.734  1.00  0.00     0.198 C 
HETATM   17  C10 UNL     1     -26.267 -19.753 -11.818  1.00  0.00     0.298 C 
ENDBRANCH  11  12
ENDBRANCH  10  11
ENDBRANCH   9  10
ENDBRANCH   8   9
ENDBRANCH   7   8
ENDBRANCH   3   7
BRANCH   5  18
HETATM   18  C11 UNL     1     -22.445 -19.832  -9.405  1.00  0.00     0.684 A 
HETATM   19  N5  UNL     1     -22.645 -19.833  -8.069  1.00  0.00    -0.200 N 
HETATM   20  C12 UNL     1     -23.458 -20.850  -7.722  1.00  0.00     0.123 A 
ATOM     21  H5  UNL     1     -22.239 -19.161  -7.417  1.00  0.00     0.183 HD
HETATM   22  C13 UNL     1     -23.775 -21.505  -8.887  1.00  0.00     0.123 A 
HETATM   23  N6  UNL     1     -23.157 -20.875  -9.874  1.00  0.00    -0.200 N 
ATOM     24  H6  UNL     1     -23.212 -21.144 -10.856  1.00  0.00     0.183 HD
ENDBRANCH   5  18
TORSDOF 7
ENDMDL
MODEL 3
REMARK VINA RESULT: -6.237914213      1.111      1.335
REMARK  7 active torsions:
REMARK  status: ('A' for Active; 'I' for Inactive)
REMARK       I    between atoms: C1_2  and  N4_16 
REMARK    1  A    between atoms: N2_3  and  C2_5 
REMARK    2  A    between atoms: C2_5  and  C3_6 
REMARK    3  A    between atoms: C3_6  and  C4_7 
REMARK    4  A    between atoms: C4_7  and  C5_8 
REMARK    5  A    between atoms: C5_8  and  C6_9 
REMARK    6  A    between atoms: C6_9  and  N3_10 
REMARK    7  A    between atoms: N4_16  and  C11_18 
ROOT
HETATM    1  N1  UNL     1     -22.449 -18.773 -12.321  1.00  0.00    -0.063 NA
HETATM    2  C1  UNL     1     -22.214 -18.169 -11.067  1.00  0.00     0.202 C 
HETATM    3  N2  UNL     1     -22.445 -16.922 -10.911  1.00  0.00    -0.364 N 
ATOM      4  H2  UNL     1     -22.278 -16.475 -10.009  1.00  0.00     0.162 HD
HETATM    5  N4  UNL     1     -21.721 -18.944  -9.994  1.00  0.00    -0.163 N 
ATOM      6  H4  UNL     1     -20.763 -18.804  -9.674  1.00  0.00     0.187 HD
ENDROOT
BRANCH   3   7
HETATM    7  C2  UNL     1     -22.944 -16.150 -12.026  1.00  0.00     0.122 C 
BRANCH   7   8
HETATM    8  C3  UNL     1     -24.369 -15.734 -11.696  1.00  0.00     0.020 C 
BRANCH   8   9
HETATM    9  C4  UNL     1     -25.290 -16.533 -12.578  1.00  0.00     0.003 C 
BRANCH   9  10
HETATM   10  C5  UNL     1     -26.204 -17.375 -11.734  1.00  0.00     0.030 C 
BRANCH  10  11
HETATM   11  C6  UNL     1     -25.895 -18.829 -11.805  1.00  0.00     0.272 C 
BRANCH  11  12
HETATM   12  N3  UNL     1     -26.831 -19.601 -12.560  1.00  0.00     0.092 N 
HETATM   13  C7  UNL     1     -26.291 -20.591 -13.416  1.00  0.00     0.298 C 
HETATM   14  C8  UNL     1     -25.971 -21.908 -12.746  1.00  0.00     0.198 C 
HETATM   15  O1  UNL     1     -26.942 -22.343 -11.875  1.00  0.00    -0.388 OA
HETATM   16  C9  UNL     1     -27.263 -21.391 -10.934  1.00  0.00     0.198 C 
HETATM   17  C10 UNL     1     -27.794 -20.176 -11.657  1.00  0.00     0.298 C 
ENDBRANCH  11  12
ENDBRANCH  10  11
ENDBRANCH   9  10
ENDBRANCH   8   9
ENDBRANCH   7   8
ENDBRANCH   3   7
BRANCH   5  18
HETATM   18  C11 UNL     1     -22.464 -19.833  -9.407  1.00  0.00     0.684 A 
HETATM   19  N5  UNL     1     -23.126 -20.862  -9.979  1.00  0.00    -0.200 N 
HETATM   20  C12 UNL     1     -23.787 -21.569  -9.041  1.00  0.00     0.123 A 
ATOM     21  H5  UNL     1     -23.127 -21.074 -10.978  1.00  0.00     0.183 HD
HETATM   22  C13 UNL     1     -23.524 -20.955  -7.841  1.00  0.00     0.123 A 
HETATM   23  N6  UNL     1     -22.732 -19.924  -8.090  1.00  0.00    -0.200 N 
ATOM     24  H6  UNL     1     -22.375 -19.284  -7.382  1.00  0.00     0.183 HD
ENDBRANCH   5  18
TORSDOF 7
ENDMDL
MODEL 4
REMARK VINA RESULT: -6.234856276      0.770      1.543
REMARK  7 active torsions:
REMARK  status: ('A' for Active; 'I' for Inactive)
REMARK       I    between atoms: C1_2  and  N4_16 
REMARK    1  A    between atoms: N2_3  and  C2_5 
REMARK    2  A    between atoms: C2_5  and  C3_6 
REMARK    3  A    between atoms: C3_6  and  C4_7 
REMARK    4  A    between atoms: C4_7  and  C5_8 
REMARK    5  A    between atoms: C5_8  and  C6_9 
REMARK    6  A    between atoms: C6_9  and  N3_10 
REMARK    7  A    between atoms: N4_16  and  C11_18 
ROOT
HETATM    1  N1  UNL     1     -22.630 -18.672 -12.353  1.00  0.00    -0.063 NA
HETATM    2  C1  UNL     1     -22.285 -18.165 -11.081  1.00  0.00     0.202 C 
HETATM    3  N2  UNL     1     -22.353 -16.908 -10.860  1.00  0.00    -0.364 N 
ATOM      4  H2  UNL     1     -22.105 -16.532  -9.945  1.00  0.00     0.162 HD
HETATM    5  N4  UNL     1     -21.861 -19.048 -10.063  1.00  0.00    -0.163 N 
ATOM      6  H4  UNL     1     -20.883 -19.043  -9.772  1.00  0.00     0.187 HD
ENDROOT
BRANCH   3   7
HETATM    7  C2  UNL     1     -22.785 -16.026 -11.919  1.00  0.00     0.122 C 
BRANCH   7   8
HETATM    8  C3  UNL     1     -24.142 -15.464 -11.526  1.00  0.00     0.020 C 
BRANCH   8   9
HETATM    9  C4  UNL     1     -25.101 -15.774 -12.644  1.00  0.00     0.003 C 
BRANCH   9  10
HETATM   10  C5  UNL     1     -26.465 -16.060 -12.083  1.00  0.00     0.030 C 
BRANCH  10  11
HETATM   11  C6  UNL     1     -26.873 -17.484 -12.231  1.00  0.00     0.272 C 
BRANCH  11  12
HETATM   12  N3  UNL     1     -26.012 -18.422 -11.583  1.00  0.00     0.092 N 
HETATM   13  C7  UNL     1     -26.103 -18.493 -10.171  1.00  0.00     0.298 C 
HETATM   14  C8  UNL     1     -27.213 -19.376  -9.648  1.00  0.00     0.198 C 
HETATM   15  O1  UNL     1     -27.335 -20.574 -10.311  1.00  0.00    -0.388 OA
HETATM   16  C9  UNL     1     -27.457 -20.406 -11.671  1.00  0.00     0.198 C 
HETATM   17  C10 UNL     1     -26.209 -19.720 -12.174  1.00  0.00     0.298 C 
ENDBRANCH  11  12
ENDBRANCH  10  11
ENDBRANCH   9  10
ENDBRANCH   8   9
ENDBRANCH   7   8
ENDBRANCH   3   7
BRANCH   5  18
HETATM   18  C11 UNL     1     -22.691 -19.867  -9.492  1.00  0.00     0.684 A 
HETATM   19  N5  UNL     1     -23.099 -19.863  -8.204  1.00  0.00    -0.200 N 
HETATM   20  C12 UNL     1     -23.970 -20.869  -7.990  1.00  0.00     0.123 A 
ATOM     21  H5  UNL     1     -22.793 -19.195  -7.497  1.00  0.00     0.183 HD
HETATM   22  C13 UNL     1     -24.108 -21.521  -9.190  1.00  0.00     0.123 A 
HETATM   23  N6  UNL     1     -23.334 -20.902 -10.067  1.00  0.00    -0.200 N 
ATOM     24  H6  UNL     1     -23.237 -21.172 -11.046  1.00  0.00     0.183 HD
ENDBRANCH   5  18
TORSDOF 7
ENDMDL
MODEL 5
REMARK VINA RESULT: -6.224235530      2.049      4.410
REMARK  7 active torsions:
REMARK  status: ('A' for Active; 'I' for Inactive)
REMARK       I    between atoms: C1_2  and  N4_16 
REMARK    1  A    between atoms: N2_3  and  C2_5 
REMARK    2  A    between atoms: C2_5  and  C3_6 
REMARK    3  A    between atoms: C3_6  and  C4_7 
REMARK    4  A    between atoms: C4_7  and  C5_8 
REMARK    5  A    between atoms: C5_8  and  C6_9 
REMARK    6  A    between atoms: C6_9  and  N3_10 
REMARK    7  A    between atoms: N4_16  and  C11_18 
ROOT
HETATM    1  N1  UNL     1     -23.984 -19.569  -9.415  1.00  0.00    -0.063 NA
HETATM    2  C1  UNL     1     -23.586 -19.876 -10.734  1.00  0.00     0.202 C 
HETATM    3  N2  UNL     1     -24.273 -20.701 -11.428  1.00  0.00    -0.364 N 
ATOM      4  H2  UNL     1     -23.993 -20.930 -12.382  1.00  0.00     0.162 HD
HETATM    5  N4  UNL     1     -22.428 -19.275 -11.278  1.00  0.00    -0.163 N 
ATOM      6  H4  UNL     1     -21.595 -19.843 -11.433  1.00  0.00     0.187 HD
ENDROOT
BRANCH   3   7
HETATM    7  C2  UNL     1     -25.449 -21.305 -10.847  1.00  0.00     0.122 C 
BRANCH   7   8
HETATM    8  C3  UNL     1     -26.204 -22.010 -11.963  1.00  0.00     0.020 C 
BRANCH   8   9
HETATM    9  C4  UNL     1     -26.802 -20.948 -12.845  1.00  0.00     0.003 C 
BRANCH   9  10
HETATM   10  C5  UNL     1     -27.671 -20.034 -12.029  1.00  0.00     0.030 C 
BRANCH  10  11
HETATM   11  C6  UNL     1     -27.471 -18.594 -12.348  1.00  0.00     0.272 C 
BRANCH  11  12
HETATM   12  N3  UNL     1     -26.106 -18.171 -12.363  1.00  0.00     0.092 N 
HETATM   13  C7  UNL     1     -25.570 -17.806 -13.622  1.00  0.00     0.298 C 
HETATM   14  C8  UNL     1     -25.860 -16.387 -14.052  1.00  0.00     0.198 C 
HETATM   15  O1  UNL     1     -25.707 -15.457 -13.051  1.00  0.00    -0.388 OA
HETATM   16  C9  UNL     1     -26.434 -15.776 -11.928  1.00  0.00     0.198 C 
HETATM   17  C10 UNL     1     -25.939 -17.105 -11.409  1.00  0.00     0.298 C 
ENDBRANCH  11  12
ENDBRANCH  10  11
ENDBRANCH   9  10
ENDBRANCH   8   9
ENDBRANCH   7   8
ENDBRANCH   3   7
BRANCH   5  18
HETATM   18  C11 UNL     1     -22.404 -18.013 -11.583  1.00  0.00     0.684 A 
HETATM   19  N5  UNL     1     -22.503 -16.959 -10.743  1.00  0.00    -0.200 N 
HETATM   20  C12 UNL     1     -22.432 -15.805 -11.435  1.00  0.00     0.123 A 
ATOM     21  H5  UNL     1     -22.616 -17.027  -9.731  1.00  0.00     0.183 HD
HETATM   22  C13 UNL     1     -22.282 -16.156 -12.754  1.00  0.00     0.123 A 
HETATM   23  N6  UNL     1     -22.269 -17.479 -12.812  1.00  0.00    -0.200 N 
ATOM     24  H6  UNL     1     -22.170 -18.020 -13.671  1.00  0.00     0.183 HD
ENDBRANCH   5  18
TORSDOF 7
ENDMDL
