MODEL 1
REMARK VINA RESULT: -7.005973221      0.000      0.000
REMARK  7 active torsions:
REMARK  status: ('A' for Active; 'I' for Inactive)
REMARK    1  A    between atoms: C3_3  and  N1_4 
REMARK    2  A    between atoms: C5_9  and  C6_10 
REMARK    3  A    between atoms: C5_9  and  N3_15 
REMARK    4  A    between atoms: C6_10  and  C7_11 
REMARK    5  A    between atoms: C7_11  and  C8_12 
REMARK    6  A    between atoms: C8_12  and  C9_13 
REMARK    7  A    between atoms: N3_15  and  C11_17 
ROOT
HETATM    1  C1  UNL     1     -22.152 -20.078  -5.725  1.00  0.00     0.098 C 
HETATM    2  C2  UNL     1     -23.172 -20.574  -6.187  1.00  0.00    -0.167 C 
HETATM    3  C3  UNL     1     -24.374 -21.162  -6.758  1.00  0.00     0.216 C 
ENDROOT
BRANCH   3   4
HETATM    4  N1  UNL     1     -24.455 -20.942  -8.203  1.00  0.00    -0.256 N 
HETATM    5  C4  UNL     1     -23.656 -21.670  -9.139  1.00  0.00     0.328 C 
HETATM    6  O1  UNL     1     -22.799 -22.569  -8.846  1.00  0.00    -0.247 OA
HETATM    7  N2  UNL     1     -24.017 -21.181 -10.425  1.00  0.00    -0.308 N 
HETATM    8  C5  UNL     1     -24.638 -19.887 -10.268  1.00  0.00     0.192 C 
ATOM      9  H2  UNL     1     -23.864 -21.664 -11.310  1.00  0.00     0.167 HD
HETATM   10  C14 UNL     1     -25.282 -20.033  -8.912  1.00  0.00     0.278 C 
HETATM   11  O2  UNL     1     -26.311 -19.493  -8.470  1.00  0.00    -0.268 OA
BRANCH   8  12
HETATM   12  C6  UNL     1     -25.673 -19.563 -11.306  1.00  0.00     0.065 C 
BRANCH  12  13
HETATM   13  C7  UNL     1     -26.129 -20.790 -12.077  1.00  0.00     0.008 C 
BRANCH  13  14
HETATM   14  C8  UNL     1     -26.221 -20.339 -13.543  1.00  0.00     0.026 C 
BRANCH  14  15
HETATM   15  C9  UNL     1     -25.659 -18.996 -13.739  1.00  0.00    -0.037 C 
HETATM   16  C10 UNL     1     -25.083 -18.672 -14.884  1.00  0.00     0.007 C 
ENDBRANCH  14  15
ENDBRANCH  13  14
ENDBRANCH  12  13
ENDBRANCH   8  12
BRANCH   8  17
HETATM   17  N3  UNL     1     -23.625 -18.889 -10.241  1.00  0.00    -0.341 N 
ATOM     18  H3  UNL     1     -23.301 -18.597  -9.319  1.00  0.00     0.164 HD
BRANCH  17  19
HETATM   19  C11 UNL     1     -23.081 -18.321 -11.238  1.00  0.00     0.119 A 
HETATM   20  C12 UNL     1     -23.154 -16.919 -11.448  1.00  0.00     0.068 A 
HETATM   21  C13 UNL     1     -22.460 -16.683 -12.606  1.00  0.00     0.111 A 
HETATM   22  N4  UNL     1     -21.992 -17.858 -13.074  1.00  0.00    -0.310 N 
HETATM   23  N5  UNL     1     -22.368 -18.832 -12.251  1.00  0.00    -0.286 N 
ATOM     24  H4  UNL     1     -21.439 -17.980 -13.922  1.00  0.00     0.186 HD
ATOM     25  H5  UNL     1     -22.148 -19.820 -12.373  1.00  0.00     0.188 HD
ENDBRANCH  17  19
ENDBRANCH   8  17
ENDBRANCH   3   4
TORSDOF 7
ENDMDL
MODEL 2
REMARK VINA RESULT: -6.875060235      2.345      4.925
REMARK  7 active torsions:
REMARK  status: ('A' for Active; 'I' for Inactive)
REMARK    1  A    between atoms: C3_3  and  N1_4 
REMARK    2  A    between atoms: C5_9  and  C6_10 
REMARK    3  A    between atoms: C5_9  and  N3_15 
REMARK    4  A    between atoms: C6_10  and  C7_11 
REMARK    5  A    between atoms: C7_11  and  C8_12 
REMARK    6  A    between atoms: C8_12  and  C9_13 
REMARK    7  A    between atoms: N3_15  and  C11_17 
ROOT
HETATM    1  C1  UNL     1     -27.253 -22.919 -11.969  1.00  0.00     0.098 C 
HETATM    2  C2  UNL     1     -27.469 -21.720 -12.089  1.00  0.00    -0.167 C 
HETATM    3  C3  UNL     1     -27.703 -20.292 -12.239  1.00  0.00     0.216 C 
ENDROOT
BRANCH   3   4
HETATM    4  N1  UNL     1     -26.450 -19.538 -12.304  1.00  0.00    -0.256 N 
HETATM    5  C4  UNL     1     -25.613 -19.532 -13.463  1.00  0.00     0.328 C 
HETATM    6  O1  UNL     1     -25.841 -20.162 -14.549  1.00  0.00    -0.247 OA
HETATM    7  N2  UNL     1     -24.507 -18.697 -13.143  1.00  0.00    -0.308 N 
HETATM    8  C5  UNL     1     -24.411 -18.590 -11.707  1.00  0.00     0.192 C 
ATOM      9  H2  UNL     1     -23.886 -18.248 -13.816  1.00  0.00     0.167 HD
HETATM   10  C14 UNL     1     -25.859 -18.721 -11.305  1.00  0.00     0.278 C 
HETATM   11  O2  UNL     1     -26.448 -18.238 -10.322  1.00  0.00    -0.268 OA
BRANCH   8  12
HETATM   12  C6  UNL     1     -23.848 -17.288 -11.215  1.00  0.00     0.065 C 
BRANCH  12  13
HETATM   13  C7  UNL     1     -23.901 -16.195 -12.269  1.00  0.00     0.008 C 
BRANCH  13  14
HETATM   14  C8  UNL     1     -25.011 -15.238 -11.807  1.00  0.00     0.026 C 
BRANCH  14  15
HETATM   15  C9  UNL     1     -26.251 -15.429 -12.570  1.00  0.00    -0.037 C 
HETATM   16  C10 UNL     1     -26.207 -15.810 -13.835  1.00  0.00     0.007 C 
ENDBRANCH  14  15
ENDBRANCH  13  14
ENDBRANCH  12  13
ENDBRANCH   8  12
BRANCH   8  17
HETATM   17  N3  UNL     1     -23.649 -19.684 -11.212  1.00  0.00    -0.341 N 
ATOM     18  H3  UNL     1     -23.065 -20.174 -11.889  1.00  0.00     0.164 HD
BRANCH  17  19
HETATM   19  C11 UNL     1     -23.616 -20.119 -10.019  1.00  0.00     0.119 A 
HETATM   20  C12 UNL     1     -24.202 -21.356  -9.644  1.00  0.00     0.068 A 
HETATM   21  C13 UNL     1     -23.969 -21.483  -8.299  1.00  0.00     0.111 A 
HETATM   22  N4  UNL     1     -23.287 -20.397  -7.878  1.00  0.00    -0.310 N 
HETATM   23  N5  UNL     1     -23.082 -19.588  -8.911  1.00  0.00    -0.286 N 
ATOM     24  H4  UNL     1     -22.979 -20.226  -6.921  1.00  0.00     0.186 HD
ATOM     25  H5  UNL     1     -22.591 -18.695  -8.867  1.00  0.00     0.188 HD
ENDBRANCH  17  19
ENDBRANCH   8  17
ENDBRANCH   3   4
TORSDOF 7
ENDMDL
MODEL 3
REMARK VINA RESULT: -6.776055802      2.428      4.938
REMARK  7 active torsions:
REMARK  status: ('A' for Active; 'I' for Inactive)
REMARK    1  A    between atoms: C3_3  and  N1_4 
REMARK    2  A    between atoms: C5_9  and  C6_10 
REMARK    3  A    between atoms: C5_9  and  N3_15 
REMARK    4  A    between atoms: C6_10  and  C7_11 
REMARK    5  A    between atoms: C7_11  and  C8_12 
REMARK    6  A    between atoms: C8_12  and  C9_13 
REMARK    7  A    between atoms: N3_15  and  C11_17 
ROOT
HETATM    1  C1  UNL     1     -29.760 -18.700 -11.700  1.00  0.00     0.098 C 
HETATM    2  C2  UNL     1     -28.800 -19.449 -11.573  1.00  0.00    -0.167 C 
HETATM    3  C3  UNL     1     -27.645 -20.321 -11.423  1.00  0.00     0.216 C 
ENDROOT
BRANCH   3   4
HETATM    4  N1  UNL     1     -26.396 -19.633 -11.755  1.00  0.00    -0.256 N 
HETATM    5  C4  UNL     1     -25.726 -19.812 -13.005  1.00  0.00     0.328 C 
HETATM    6  O1  UNL     1     -26.115 -20.569 -13.956  1.00  0.00    -0.247 OA
HETATM    7  N2  UNL     1     -24.569 -18.987 -12.951  1.00  0.00    -0.308 N 
HETATM    8  C5  UNL     1     -24.274 -18.698 -11.568  1.00  0.00     0.192 C 
ATOM      9  H2  UNL     1     -24.036 -18.655 -13.755  1.00  0.00     0.167 HD
HETATM   10  C14 UNL     1     -25.656 -18.716 -10.963  1.00  0.00     0.278 C 
HETATM   11  O2  UNL     1     -26.094 -18.086  -9.985  1.00  0.00    -0.268 OA
BRANCH   8  12
HETATM   12  C6  UNL     1     -23.621 -17.366 -11.336  1.00  0.00     0.065 C 
BRANCH  12  13
HETATM   13  C7  UNL     1     -23.892 -16.380 -12.458  1.00  0.00     0.008 C 
BRANCH  13  14
HETATM   14  C8  UNL     1     -24.865 -15.348 -11.868  1.00  0.00     0.026 C 
BRANCH  14  15
HETATM   15  C9  UNL     1     -26.208 -15.466 -12.450  1.00  0.00    -0.037 C 
HETATM   16  C10 UNL     1     -26.375 -16.017 -13.640  1.00  0.00     0.007 C 
ENDBRANCH  14  15
ENDBRANCH  13  14
ENDBRANCH  12  13
ENDBRANCH   8  12
BRANCH   8  17
HETATM   17  N3  UNL     1     -23.476 -19.747 -11.036  1.00  0.00    -0.341 N 
ATOM     18  H3  UNL     1     -22.864 -20.230 -11.693  1.00  0.00     0.164 HD
BRANCH  17  19
HETATM   19  C11 UNL     1     -23.441 -20.150  -9.831  1.00  0.00     0.119 A 
HETATM   20  C12 UNL     1     -24.034 -21.373  -9.421  1.00  0.00     0.068 A 
HETATM   21  C13 UNL     1     -23.796 -21.465  -8.074  1.00  0.00     0.111 A 
HETATM   22  N4  UNL     1     -23.105 -20.373  -7.685  1.00  0.00    -0.310 N 
HETATM   23  N5  UNL     1     -22.899 -19.593  -8.741  1.00  0.00    -0.286 N 
ATOM     24  H4  UNL     1     -22.793 -20.179  -6.734  1.00  0.00     0.186 HD
ATOM     25  H5  UNL     1     -22.401 -18.703  -8.723  1.00  0.00     0.188 HD
ENDBRANCH  17  19
ENDBRANCH   8  17
ENDBRANCH   3   4
TORSDOF 7
ENDMDL
MODEL 4
REMARK VINA RESULT: -6.707745751      1.916      4.885
REMARK  7 active torsions:
REMARK  status: ('A' for Active; 'I' for Inactive)
REMARK    1  A    between atoms: C3_3  and  N1_4 
REMARK    2  A    between atoms: C5_9  and  C6_10 
REMARK    3  A    between atoms: C5_9  and  N3_15 
REMARK    4  A    between atoms: C6_10  and  C7_11 
REMARK    5  A    between atoms: C7_11  and  C8_12 
REMARK    6  A    between atoms: C8_12  and  C9_13 
REMARK    7  A    between atoms: N3_15  and  C11_17 
ROOT
HETATM    1  C1  UNL     1     -26.403 -15.962 -12.925  1.00  0.00     0.098 C 
HETATM    2  C2  UNL     1     -26.988 -16.787 -12.236  1.00  0.00    -0.167 C 
HETATM    3  C3  UNL     1     -27.664 -17.771 -11.404  1.00  0.00     0.216 C 
ENDROOT
BRANCH   3   4
HETATM    4  N1  UNL     1     -26.715 -18.596 -10.654  1.00  0.00    -0.256 N 
HETATM    5  C4  UNL     1     -26.623 -18.562  -9.228  1.00  0.00     0.328 C 
HETATM    6  O1  UNL     1     -27.330 -17.834  -8.454  1.00  0.00    -0.247 OA
HETATM    7  N2  UNL     1     -25.603 -19.489  -8.879  1.00  0.00    -0.308 N 
HETATM    8  C5  UNL     1     -24.772 -19.716 -10.037  1.00  0.00     0.192 C 
ATOM      9  H2  UNL     1     -25.479 -19.921  -7.964  1.00  0.00     0.167 HD
HETATM   10  C14 UNL     1     -25.767 -19.526 -11.155  1.00  0.00     0.278 C 
HETATM   11  O2  UNL     1     -25.790 -20.048 -12.283  1.00  0.00    -0.268 OA
BRANCH   8  12
HETATM   12  C6  UNL     1     -24.163 -21.087 -10.108  1.00  0.00     0.065 C 
BRANCH  12  13
HETATM   13  C7  UNL     1     -23.898 -21.678  -8.734  1.00  0.00     0.008 C 
BRANCH  13  14
HETATM   14  C8  UNL     1     -22.372 -21.642  -8.563  1.00  0.00     0.026 C 
BRANCH  14  15
HETATM   15  C9  UNL     1     -21.956 -20.646  -7.567  1.00  0.00    -0.037 C 
HETATM   16  C10 UNL     1     -22.700 -20.417  -6.499  1.00  0.00     0.007 C 
ENDBRANCH  14  15
ENDBRANCH  13  14
ENDBRANCH  12  13
ENDBRANCH   8  12
BRANCH   8  17
HETATM   17  N3  UNL     1     -23.762 -18.716 -10.085  1.00  0.00    -0.341 N 
ATOM     18  H3  UNL     1     -23.446 -18.346  -9.189  1.00  0.00     0.164 HD
BRANCH  17  19
HETATM   19  C11 UNL     1     -23.210 -18.233 -11.122  1.00  0.00     0.119 A 
HETATM   20  C12 UNL     1     -23.111 -16.835 -11.349  1.00  0.00     0.068 A 
HETATM   21  C13 UNL     1     -22.464 -16.701 -12.550  1.00  0.00     0.111 A 
HETATM   22  N4  UNL     1     -22.185 -17.932 -13.027  1.00  0.00    -0.310 N 
HETATM   23  N5  UNL     1     -22.634 -18.841 -12.168  1.00  0.00    -0.286 N 
ATOM     24  H4  UNL     1     -21.706 -18.132 -13.905  1.00  0.00     0.186 HD
ATOM     25  H5  UNL     1     -22.554 -19.850 -12.287  1.00  0.00     0.188 HD
ENDBRANCH  17  19
ENDBRANCH   8  17
ENDBRANCH   3   4
TORSDOF 7
ENDMDL
MODEL 5
REMARK VINA RESULT: -6.678621420      0.822      1.470
REMARK  7 active torsions:
REMARK  status: ('A' for Active; 'I' for Inactive)
REMARK    1  A    between atoms: C3_3  and  N1_4 
REMARK    2  A    between atoms: C5_9  and  C6_10 
REMARK    3  A    between atoms: C5_9  and  N3_15 
REMARK    4  A    between atoms: C6_10  and  C7_11 
REMARK    5  A    between atoms: C7_11  and  C8_12 
REMARK    6  A    between atoms: C8_12  and  C9_13 
REMARK    7  A    between atoms: N3_15  and  C11_17 
ROOT
HETATM    1  C1  UNL     1     -22.118 -20.080  -5.775  1.00  0.00     0.098 C 
HETATM    2  C2  UNL     1     -23.141 -20.567  -6.238  1.00  0.00    -0.167 C 
HETATM    3  C3  UNL     1     -24.347 -21.144  -6.811  1.00  0.00     0.216 C 
ENDROOT
BRANCH   3   4
HETATM    4  N1  UNL     1     -24.457 -20.865  -8.244  1.00  0.00    -0.256 N 
HETATM    5  C4  UNL     1     -23.708 -21.581  -9.229  1.00  0.00     0.328 C 
HETATM    6  O1  UNL     1     -22.875 -22.520  -8.994  1.00  0.00    -0.247 OA
HETATM    7  N2  UNL     1     -24.085 -21.030 -10.485  1.00  0.00    -0.308 N 
HETATM    8  C5  UNL     1     -24.657 -19.724 -10.262  1.00  0.00     0.192 C 
ATOM      9  H2  UNL     1     -23.971 -21.483 -11.391  1.00  0.00     0.167 HD
HETATM   10  C14 UNL     1     -25.271 -19.902  -8.895  1.00  0.00     0.278 C 
HETATM   11  O2  UNL     1     -26.269 -19.346  -8.405  1.00  0.00    -0.268 OA
BRANCH   8  12
HETATM   12  C6  UNL     1     -25.707 -19.325 -11.258  1.00  0.00     0.065 C 
BRANCH  12  13
HETATM   13  C7  UNL     1     -25.720 -20.223 -12.482  1.00  0.00     0.008 C 
BRANCH  13  14
HETATM   14  C8  UNL     1     -27.195 -20.590 -12.703  1.00  0.00     0.026 C 
BRANCH  14  15
HETATM   15  C9  UNL     1     -27.540 -21.872 -12.074  1.00  0.00    -0.037 C 
HETATM   16  C10 UNL     1     -26.752 -22.923 -12.221  1.00  0.00     0.007 C 
ENDBRANCH  14  15
ENDBRANCH  13  14
ENDBRANCH  12  13
ENDBRANCH   8  12
BRANCH   8  17
HETATM   17  N3  UNL     1     -23.610 -18.762 -10.223  1.00  0.00    -0.341 N 
ATOM     18  H3  UNL     1     -23.240 -18.531  -9.301  1.00  0.00     0.164 HD
BRANCH  17  19
HETATM   19  C11 UNL     1     -23.086 -18.158 -11.210  1.00  0.00     0.119 A 
HETATM   20  C12 UNL     1     -23.112 -16.745 -11.338  1.00  0.00     0.068 A 
HETATM   21  C13 UNL     1     -22.458 -16.469 -12.511  1.00  0.00     0.111 A 
HETATM   22  N4  UNL     1     -22.058 -17.633 -13.064  1.00  0.00    -0.310 N 
HETATM   23  N5  UNL     1     -22.438 -18.637 -12.281  1.00  0.00    -0.286 N 
ATOM     24  H4  UNL     1     -21.547 -17.726 -13.942  1.00  0.00     0.186 HD
ATOM     25  H5  UNL     1     -22.263 -19.624 -12.467  1.00  0.00     0.188 HD
ENDBRANCH  17  19
ENDBRANCH   8  17
ENDBRANCH   3   4
TORSDOF 7
ENDMDL
