MODEL 1
REMARK VINA RESULT: -6.791322085      0.000      0.000
REMARK  8 active torsions:
REMARK  status: ('A' for Active; 'I' for Inactive)
REMARK    1  A    between atoms: N1_2  and  C3_4 
REMARK    2  A    between atoms: C3_4  and  C4_5 
REMARK    3  A    between atoms: C4_5  and  C5_6 
REMARK    4  A    between atoms: C5_6  and  N2_7 
REMARK    5  A    between atoms: N2_7  and  C6_9 
REMARK    6  A    between atoms: C9_14  and  N4_15 
REMARK    7  A    between atoms: N4_15  and  C10_17 
REMARK    8  A    between atoms: C10_17  and  C11_18 
ROOT
HETATM    1  C6  UNL     1     -24.417 -20.907 -10.439  1.00  0.00     0.118 A 
HETATM    2  C7  UNL     1     -23.761 -21.444  -9.345  1.00  0.00     0.066 A 
HETATM    3  C8  UNL     1     -22.633 -20.856  -8.812  1.00  0.00     0.110 A 
HETATM    4  N3  UNL     1     -22.188 -19.718  -9.410  1.00  0.00    -0.202 N 
ATOM      5  H3  UNL     1     -21.356 -19.265  -9.035  1.00  0.00     0.183 HD
HETATM    6  C9  UNL     1     -22.792 -19.169 -10.468  1.00  0.00     0.679 A 
HETATM    7  N5  UNL     1     -23.900 -19.781 -10.960  1.00  0.00    -0.177 N 
ATOM      8  H5  UNL     1     -24.364 -19.364 -11.767  1.00  0.00     0.185 HD
ENDROOT
BRANCH   6   9
HETATM    9  N4  UNL     1     -22.333 -18.092 -10.995  1.00  0.00    -0.222 N 
ATOM     10  H4  UNL     1     -21.843 -17.427 -10.397  1.00  0.00     0.178 HD
BRANCH   9  11
HETATM   11  C10 UNL     1     -22.479 -17.779 -12.393  1.00  0.00     0.176 C 
BRANCH  11  12
HETATM   12  C11 UNL     1     -23.756 -17.069 -12.627  1.00  0.00    -0.040 A 
HETATM   13  C12 UNL     1     -24.060 -15.978 -11.846  1.00  0.00     0.009 A 
HETATM   14  C13 UNL     1     -25.252 -15.271 -12.020  1.00  0.00     0.001 A 
HETATM   15  C14 UNL     1     -26.120 -15.697 -13.000  1.00  0.00     0.000 A 
HETATM   16  C15 UNL     1     -25.821 -16.791 -13.785  1.00  0.00     0.001 A 
HETATM   17  C16 UNL     1     -24.647 -17.491 -13.619  1.00  0.00     0.009 A 
ENDBRANCH  11  12
ENDBRANCH   9  11
ENDBRANCH   6   9
BRANCH   1  18
HETATM   18  N2  UNL     1     -25.472 -21.470 -10.926  1.00  0.00    -0.376 N 
ATOM     19  H2  UNL     1     -26.207 -21.804 -10.303  1.00  0.00     0.161 HD
BRANCH  18  20
HETATM   20  C5  UNL     1     -25.607 -21.624 -12.358  1.00  0.00     0.123 C 
BRANCH  20  21
HETATM   21  C4  UNL     1     -26.597 -20.689 -12.961  1.00  0.00     0.050 C 
BRANCH  21  22
HETATM   22  C3  UNL     1     -27.742 -20.520 -11.998  1.00  0.00     0.273 C 
BRANCH  22  23
HETATM   23  N1  UNL     1     -28.106 -19.126 -11.825  1.00  0.00     0.080 N 
HETATM   24  C1  UNL     1     -27.329 -18.471 -10.821  1.00  0.00     0.309 C 
HETATM   25  C2  UNL     1     -29.509 -18.914 -11.652  1.00  0.00     0.309 C 
ENDBRANCH  22  23
ENDBRANCH  21  22
ENDBRANCH  20  21
ENDBRANCH  18  20
ENDBRANCH   1  18
TORSDOF 8
ENDMDL
MODEL 2
REMARK VINA RESULT: -6.775209580      0.408      1.341
REMARK  8 active torsions:
REMARK  status: ('A' for Active; 'I' for Inactive)
REMARK    1  A    between atoms: N1_2  and  C3_4 
REMARK    2  A    between atoms: C3_4  and  C4_5 
REMARK    3  A    between atoms: C4_5  and  C5_6 
REMARK    4  A    between atoms: C5_6  and  N2_7 
REMARK    5  A    between atoms: N2_7  and  C6_9 
REMARK    6  A    between atoms: C9_14  and  N4_15 
REMARK    7  A    between atoms: N4_15  and  C10_17 
REMARK    8  A    between atoms: C10_17  and  C11_18 
ROOT
HETATM    1  C6  UNL     1     -24.218 -20.947 -10.156  1.00  0.00     0.118 A 
HETATM    2  C7  UNL     1     -23.429 -21.458  -9.141  1.00  0.00     0.066 A 
HETATM    3  C8  UNL     1     -22.276 -20.825  -8.726  1.00  0.00     0.110 A 
HETATM    4  N3  UNL     1     -21.943 -19.668  -9.360  1.00  0.00    -0.202 N 
ATOM      5  H3  UNL     1     -21.096 -19.181  -9.072  1.00  0.00     0.183 HD
HETATM    6  C9  UNL     1     -22.678 -19.142 -10.345  1.00  0.00     0.679 A 
HETATM    7  N5  UNL     1     -23.806 -19.798 -10.721  1.00  0.00    -0.177 N 
ATOM      8  H5  UNL     1     -24.370 -19.400 -11.472  1.00  0.00     0.185 HD
ENDROOT
BRANCH   6   9
HETATM    9  N4  UNL     1     -22.323 -18.046 -10.910  1.00  0.00    -0.222 N 
ATOM     10  H4  UNL     1     -21.893 -17.320 -10.337  1.00  0.00     0.178 HD
BRANCH   9  11
HETATM   11  C10 UNL     1     -22.504 -17.794 -12.316  1.00  0.00     0.176 C 
BRANCH  11  12
HETATM   12  C11 UNL     1     -23.762 -17.049 -12.544  1.00  0.00    -0.040 A 
HETATM   13  C12 UNL     1     -24.615 -17.474 -13.536  1.00  0.00     0.009 A 
HETATM   14  C13 UNL     1     -25.814 -16.808 -13.797  1.00  0.00     0.001 A 
HETATM   15  C14 UNL     1     -26.123 -15.707 -13.030  1.00  0.00     0.000 A 
HETATM   16  C15 UNL     1     -25.272 -15.276 -12.034  1.00  0.00     0.001 A 
HETATM   17  C16 UNL     1     -24.089 -15.929 -11.771  1.00  0.00     0.009 A 
ENDBRANCH  11  12
ENDBRANCH   9  11
ENDBRANCH   6   9
BRANCH   1  18
HETATM   18  N2  UNL     1     -25.294 -21.551 -10.532  1.00  0.00    -0.376 N 
ATOM     19  H2  UNL     1     -25.912 -21.976  -9.840  1.00  0.00     0.161 HD
BRANCH  18  20
HETATM   20  C5  UNL     1     -25.622 -21.625 -11.940  1.00  0.00     0.123 C 
BRANCH  20  21
HETATM   21  C4  UNL     1     -27.066 -21.395 -12.222  1.00  0.00     0.050 C 
BRANCH  21  22
HETATM   22  C3  UNL     1     -27.283 -19.920 -12.432  1.00  0.00     0.273 C 
BRANCH  22  23
HETATM   23  N1  UNL     1     -27.967 -19.305 -11.311  1.00  0.00     0.080 N 
HETATM   24  C1  UNL     1     -29.250 -18.783 -11.663  1.00  0.00     0.309 C 
HETATM   25  C2  UNL     1     -27.170 -18.354 -10.600  1.00  0.00     0.309 C 
ENDBRANCH  22  23
ENDBRANCH  21  22
ENDBRANCH  20  21
ENDBRANCH  18  20
ENDBRANCH   1  18
TORSDOF 8
ENDMDL
MODEL 3
REMARK VINA RESULT: -6.767428500      0.811      1.414
REMARK  8 active torsions:
REMARK  status: ('A' for Active; 'I' for Inactive)
REMARK    1  A    between atoms: N1_2  and  C3_4 
REMARK    2  A    between atoms: C3_4  and  C4_5 
REMARK    3  A    between atoms: C4_5  and  C5_6 
REMARK    4  A    between atoms: C5_6  and  N2_7 
REMARK    5  A    between atoms: N2_7  and  C6_9 
REMARK    6  A    between atoms: C9_14  and  N4_15 
REMARK    7  A    between atoms: N4_15  and  C10_17 
REMARK    8  A    between atoms: C10_17  and  C11_18 
ROOT
HETATM    1  C6  UNL     1     -24.592 -20.922 -11.009  1.00  0.00     0.118 A 
HETATM    2  C7  UNL     1     -24.585 -21.280  -9.672  1.00  0.00     0.066 A 
HETATM    3  C8  UNL     1     -23.850 -20.581  -8.736  1.00  0.00     0.110 A 
HETATM    4  N3  UNL     1     -23.128 -19.519  -9.184  1.00  0.00    -0.202 N 
ATOM      5  H3  UNL     1     -22.576 -18.986  -8.512  1.00  0.00     0.183 HD
HETATM    6  C9  UNL     1     -23.108 -19.142 -10.467  1.00  0.00     0.679 A 
HETATM    7  N5  UNL     1     -23.847 -19.858 -11.354  1.00  0.00    -0.177 N 
ATOM      8  H5  UNL     1     -23.835 -19.574 -12.333  1.00  0.00     0.185 HD
ENDROOT
BRANCH   6   9
HETATM    9  N4  UNL     1     -22.412 -18.130 -10.839  1.00  0.00    -0.222 N 
ATOM     10  H4  UNL     1     -21.822 -17.665 -10.149  1.00  0.00     0.178 HD
BRANCH   9  11
HETATM   11  C10 UNL     1     -22.426 -17.622 -12.186  1.00  0.00     0.176 C 
BRANCH  11  12
HETATM   12  C11 UNL     1     -23.703 -16.924 -12.455  1.00  0.00    -0.040 A 
HETATM   13  C12 UNL     1     -24.489 -17.358 -13.496  1.00  0.00     0.009 A 
HETATM   14  C13 UNL     1     -25.703 -16.735 -13.798  1.00  0.00     0.001 A 
HETATM   15  C14 UNL     1     -26.093 -15.668 -13.021  1.00  0.00     0.000 A 
HETATM   16  C15 UNL     1     -25.308 -15.228 -11.975  1.00  0.00     0.001 A 
HETATM   17  C16 UNL     1     -24.112 -15.838 -11.672  1.00  0.00     0.009 A 
ENDBRANCH  11  12
ENDBRANCH   9  11
ENDBRANCH   6   9
BRANCH   1  18
HETATM   18  N2  UNL     1     -25.285 -21.586 -11.872  1.00  0.00    -0.376 N 
ATOM     19  H2  UNL     1     -25.220 -22.603 -11.907  1.00  0.00     0.161 HD
BRANCH  18  20
HETATM   20  C5  UNL     1     -26.155 -20.881 -12.789  1.00  0.00     0.123 C 
BRANCH  20  21
HETATM   21  C4  UNL     1     -27.532 -20.681 -12.259  1.00  0.00     0.050 C 
BRANCH  21  22
HETATM   22  C3  UNL     1     -27.730 -19.213 -11.987  1.00  0.00     0.273 C 
BRANCH  22  23
HETATM   23  N1  UNL     1     -27.824 -18.931 -10.567  1.00  0.00     0.080 N 
HETATM   24  C1  UNL     1     -26.717 -18.170 -10.079  1.00  0.00     0.309 C 
HETATM   25  C2  UNL     1     -28.085 -20.086  -9.765  1.00  0.00     0.309 C 
ENDBRANCH  22  23
ENDBRANCH  21  22
ENDBRANCH  20  21
ENDBRANCH  18  20
ENDBRANCH   1  18
TORSDOF 8
ENDMDL
MODEL 4
REMARK VINA RESULT: -6.585551495      0.966      1.768
REMARK  8 active torsions:
REMARK  status: ('A' for Active; 'I' for Inactive)
REMARK    1  A    between atoms: N1_2  and  C3_4 
REMARK    2  A    between atoms: C3_4  and  C4_5 
REMARK    3  A    between atoms: C4_5  and  C5_6 
REMARK    4  A    between atoms: C5_6  and  N2_7 
REMARK    5  A    between atoms: N2_7  and  C6_9 
REMARK    6  A    between atoms: C9_14  and  N4_15 
REMARK    7  A    between atoms: N4_15  and  C10_17 
REMARK    8  A    between atoms: C10_17  and  C11_18 
ROOT
HETATM    1  C6  UNL     1     -23.972 -20.975  -9.937  1.00  0.00     0.118 A 
HETATM    2  C7  UNL     1     -23.080 -21.431  -8.982  1.00  0.00     0.066 A 
HETATM    3  C8  UNL     1     -21.925 -20.742  -8.676  1.00  0.00     0.110 A 
HETATM    4  N3  UNL     1     -21.697 -19.586  -9.357  1.00  0.00    -0.202 N 
ATOM      5  H3  UNL     1     -20.850 -19.058  -9.149  1.00  0.00     0.183 HD
HETATM    6  C9  UNL     1     -22.532 -19.112 -10.286  1.00  0.00     0.679 A 
HETATM    7  N5  UNL     1     -23.658 -19.824 -10.555  1.00  0.00    -0.177 N 
ATOM      8  H5  UNL     1     -24.298 -19.465 -11.264  1.00  0.00     0.185 HD
ENDROOT
BRANCH   6   9
HETATM    9  N4  UNL     1     -22.272 -18.015 -10.900  1.00  0.00    -0.222 N 
ATOM     10  H4  UNL     1     -21.886 -17.238 -10.364  1.00  0.00     0.178 HD
BRANCH   9  11
HETATM   11  C10 UNL     1     -22.500 -17.831 -12.309  1.00  0.00     0.176 C 
BRANCH  11  12
HETATM   12  C11 UNL     1     -23.755 -17.078 -12.529  1.00  0.00    -0.040 A 
HETATM   13  C12 UNL     1     -24.617 -17.498 -13.514  1.00  0.00     0.009 A 
HETATM   14  C13 UNL     1     -25.814 -16.823 -13.768  1.00  0.00     0.001 A 
HETATM   15  C14 UNL     1     -26.110 -15.720 -13.001  1.00  0.00     0.000 A 
HETATM   16  C15 UNL     1     -25.249 -15.293 -12.011  1.00  0.00     0.001 A 
HETATM   17  C16 UNL     1     -24.068 -15.954 -11.755  1.00  0.00     0.009 A 
ENDBRANCH  11  12
ENDBRANCH   9  11
ENDBRANCH   6   9
BRANCH   1  18
HETATM   18  N2  UNL     1     -25.048 -21.632 -10.211  1.00  0.00    -0.376 N 
ATOM     19  H2  UNL     1     -25.096 -22.211 -11.050  1.00  0.00     0.161 HD
BRANCH  18  20
HETATM   20  C5  UNL     1     -26.188 -21.544  -9.324  1.00  0.00     0.123 C 
BRANCH  20  21
HETATM   21  C4  UNL     1     -27.485 -21.401 -10.042  1.00  0.00     0.050 C 
BRANCH  21  22
HETATM   22  C3  UNL     1     -27.313 -21.917 -11.446  1.00  0.00     0.273 C 
BRANCH  22  23
HETATM   23  N1  UNL     1     -27.621 -20.906 -12.439  1.00  0.00     0.080 N 
HETATM   24  C1  UNL     1     -26.526 -20.638 -13.317  1.00  0.00     0.309 C 
HETATM   25  C2  UNL     1     -28.183 -19.710 -11.890  1.00  0.00     0.309 C 
ENDBRANCH  22  23
ENDBRANCH  21  22
ENDBRANCH  20  21
ENDBRANCH  18  20
ENDBRANCH   1  18
TORSDOF 8
ENDMDL
MODEL 5
REMARK VINA RESULT: -6.569141330      1.259      1.851
REMARK  8 active torsions:
REMARK  status: ('A' for Active; 'I' for Inactive)
REMARK    1  A    between atoms: N1_2  and  C3_4 
REMARK    2  A    between atoms: C3_4  and  C4_5 
REMARK    3  A    between atoms: C4_5  and  C5_6 
REMARK    4  A    between atoms: C5_6  and  N2_7 
REMARK    5  A    between atoms: N2_7  and  C6_9 
REMARK    6  A    between atoms: C9_14  and  N4_15 
REMARK    7  A    between atoms: N4_15  and  C10_17 
REMARK    8  A    between atoms: C10_17  and  C11_18 
ROOT
HETATM    1  C6  UNL     1     -23.806 -20.801  -9.806  1.00  0.00     0.118 A 
HETATM    2  C7  UNL     1     -22.912 -20.830  -8.749  1.00  0.00     0.066 A 
HETATM    3  C8  UNL     1     -21.804 -20.009  -8.710  1.00  0.00     0.110 A 
HETATM    4  N3  UNL     1     -21.624 -19.164  -9.760  1.00  0.00    -0.202 N 
ATOM      5  H3  UNL     1     -20.812 -18.547  -9.755  1.00  0.00     0.183 HD
HETATM    6  C9  UNL     1     -22.463 -19.105 -10.799  1.00  0.00     0.679 A 
HETATM    7  N5  UNL     1     -23.541 -19.931 -10.796  1.00  0.00    -0.177 N 
ATOM      8  H5  UNL     1     -24.183 -19.889 -11.587  1.00  0.00     0.185 HD
ENDROOT
BRANCH   6   9
HETATM    9  N4  UNL     1     -22.249 -18.287 -11.765  1.00  0.00    -0.222 N 
ATOM     10  H4  UNL     1     -21.808 -18.642 -12.614  1.00  0.00     0.178 HD
BRANCH   9  11
HETATM   11  C10 UNL     1     -22.603 -16.894 -11.706  1.00  0.00     0.176 C 
BRANCH  11  12
HETATM   12  C11 UNL     1     -23.925 -16.676 -12.335  1.00  0.00    -0.040 A 
HETATM   13  C12 UNL     1     -24.737 -15.679 -11.845  1.00  0.00     0.009 A 
HETATM   14  C13 UNL     1     -25.996 -15.431 -12.398  1.00  0.00     0.001 A 
HETATM   15  C14 UNL     1     -26.405 -16.215 -13.452  1.00  0.00     0.000 A 
HETATM   16  C15 UNL     1     -25.596 -17.216 -13.948  1.00  0.00     0.001 A 
HETATM   17  C16 UNL     1     -24.354 -17.465 -13.408  1.00  0.00     0.009 A 
ENDBRANCH  11  12
ENDBRANCH   9  11
ENDBRANCH   6   9
BRANCH   1  18
HETATM   18  N2  UNL     1     -24.838 -21.575  -9.828  1.00  0.00    -0.376 N 
ATOM     19  H2  UNL     1     -24.798 -22.468 -10.318  1.00  0.00     0.161 HD
BRANCH  18  20
HETATM   20  C5  UNL     1     -26.053 -21.170  -9.153  1.00  0.00     0.123 C 
BRANCH  20  21
HETATM   21  C4  UNL     1     -27.222 -21.050 -10.066  1.00  0.00     0.050 C 
BRANCH  21  22
HETATM   22  C3  UNL     1     -27.186 -22.194 -11.044  1.00  0.00     0.273 C 
BRANCH  22  23
HETATM   23  N1  UNL     1     -27.131 -21.735 -12.418  1.00  0.00     0.080 N 
HETATM   24  C1  UNL     1     -26.017 -22.268 -13.138  1.00  0.00     0.309 C 
HETATM   25  C2  UNL     1     -27.240 -20.316 -12.557  1.00  0.00     0.309 C 
ENDBRANCH  22  23
ENDBRANCH  21  22
ENDBRANCH  20  21
ENDBRANCH  18  20
ENDBRANCH   1  18
TORSDOF 8
ENDMDL
