MODEL 1
REMARK VINA RESULT: -6.422920651      0.000      0.000
REMARK  8 active torsions:
REMARK  status: ('A' for Active; 'I' for Inactive)
REMARK    1  A    between atoms: C3_3  and  C4_4 
REMARK    2  A    between atoms: C4_4  and  N1_5 
REMARK    3  A    between atoms: N1_5  and  C5_7 
REMARK    4  A    between atoms: C8_12  and  N3_13 
REMARK    5  A    between atoms: N3_13  and  C9_15 
REMARK    6  A    between atoms: C9_15  and  C10_16 
REMARK    7  A    between atoms: C10_16  and  C11_17 
REMARK    8  A    between atoms: C11_17  and  N4_18 
ROOT
HETATM    1  C1  UNL     1     -26.463 -15.958 -13.384  1.00  0.00     0.012 C 
HETATM    2  C2  UNL     1     -25.667 -16.856 -13.497  1.00  0.00    -0.116 C 
HETATM    3  C3  UNL     1     -24.674 -17.936 -13.635  1.00  0.00     0.113 C 
ENDROOT
BRANCH   3   4
HETATM    4  C4  UNL     1     -23.684 -17.826 -12.483  1.00  0.00     0.150 C 
BRANCH   4   5
HETATM    5  N1  UNL     1     -23.418 -19.152 -11.988  1.00  0.00    -0.225 N 
ATOM      6  H1  UNL     1     -22.736 -19.728 -12.481  1.00  0.00     0.177 HD
BRANCH   5   7
HETATM    7  C5  UNL     1     -24.006 -19.643 -10.946  1.00  0.00     0.679 A 
HETATM    8  N2  UNL     1     -23.724 -20.860 -10.444  1.00  0.00    -0.202 N 
HETATM    9  C6  UNL     1     -24.370 -21.325  -9.352  1.00  0.00     0.110 A 
ATOM     10  H2  UNL     1     -23.014 -21.439 -10.893  1.00  0.00     0.183 HD
HETATM   11  C7  UNL     1     -25.335 -20.572  -8.714  1.00  0.00     0.066 A 
HETATM   12  C8  UNL     1     -25.615 -19.334  -9.233  1.00  0.00     0.118 A 
HETATM   13  N6  UNL     1     -24.944 -18.924 -10.318  1.00  0.00    -0.177 N 
ATOM     14  H6  UNL     1     -25.163 -18.000 -10.691  1.00  0.00     0.185 HD
BRANCH  12  15
HETATM   15  N3  UNL     1     -26.517 -18.607  -8.653  1.00  0.00    -0.376 N 
ATOM     16  H3  UNL     1     -26.257 -17.819  -8.060  1.00  0.00     0.161 HD
BRANCH  15  17
HETATM   17  C9  UNL     1     -27.901 -18.949  -8.874  1.00  0.00     0.123 C 
BRANCH  17  18
HETATM   18  C10 UNL     1     -28.372 -18.289 -10.141  1.00  0.00     0.039 C 
BRANCH  18  19
HETATM   19  C11 UNL     1     -28.919 -19.309 -11.078  1.00  0.00     0.122 C 
BRANCH  19  20
HETATM   20  N4  UNL     1     -28.063 -19.495 -12.224  1.00  0.00    -0.380 N 
HETATM   21  C12 UNL     1     -27.413 -20.602 -12.322  1.00  0.00     0.072 C 
HETATM   22  C13 UNL     1     -27.428 -21.749 -11.381  1.00  0.00     0.077 C 
HETATM   23  N5  UNL     1     -26.520 -20.947 -13.396  1.00  0.00    -0.380 N 
HETATM   24  C14 UNL     1     -26.997 -22.894 -12.274  1.00  0.00     0.027 C 
HETATM   25  C15 UNL     1     -25.887 -22.221 -13.084  1.00  0.00     0.121 C 
ATOM     26  H5  UNL     1     -26.357 -20.392 -14.236  1.00  0.00     0.160 HD
ATOM     27  H4  UNL     1     -27.976 -18.770 -12.937  1.00  0.00     0.160 HD
ENDBRANCH  19  20
ENDBRANCH  18  19
ENDBRANCH  17  18
ENDBRANCH  15  17
ENDBRANCH  12  15
ENDBRANCH   5   7
ENDBRANCH   4   5
ENDBRANCH   3   4
TORSDOF 8
ENDMDL
MODEL 2
REMARK VINA RESULT: -6.403844266      1.820      4.164
REMARK  8 active torsions:
REMARK  status: ('A' for Active; 'I' for Inactive)
REMARK    1  A    between atoms: C3_3  and  C4_4 
REMARK    2  A    between atoms: C4_4  and  N1_5 
REMARK    3  A    between atoms: N1_5  and  C5_7 
REMARK    4  A    between atoms: C8_12  and  N3_13 
REMARK    5  A    between atoms: N3_13  and  C9_15 
REMARK    6  A    between atoms: C9_15  and  C10_16 
REMARK    7  A    between atoms: C10_16  and  C11_17 
REMARK    8  A    between atoms: C11_17  and  N4_18 
ROOT
HETATM    1  C1  UNL     1     -27.017 -22.236  -8.736  1.00  0.00     0.012 C 
HETATM    2  C2  UNL     1     -25.901 -21.868  -9.003  1.00  0.00    -0.116 C 
HETATM    3  C3  UNL     1     -24.546 -21.407  -9.349  1.00  0.00     0.113 C 
ENDROOT
BRANCH   3   4
HETATM    4  C4  UNL     1     -24.573 -19.890  -9.476  1.00  0.00     0.150 C 
BRANCH   4   5
HETATM    5  N1  UNL     1     -23.241 -19.437  -9.783  1.00  0.00    -0.225 N 
ATOM      6  H1  UNL     1     -22.467 -19.779  -9.214  1.00  0.00     0.177 HD
BRANCH   5   7
HETATM    7  C5  UNL     1     -22.984 -18.617 -10.750  1.00  0.00     0.679 A 
HETATM    8  N2  UNL     1     -22.161 -18.916 -11.773  1.00  0.00    -0.202 N 
HETATM    9  C6  UNL     1     -21.928 -18.020 -12.757  1.00  0.00     0.110 A 
ATOM     10  H2  UNL     1     -21.708 -19.829 -11.806  1.00  0.00     0.183 HD
HETATM   11  C7  UNL     1     -22.522 -16.775 -12.751  1.00  0.00     0.066 A 
HETATM   12  C8  UNL     1     -23.359 -16.480 -11.704  1.00  0.00     0.118 A 
HETATM   13  N6  UNL     1     -23.554 -17.406 -10.756  1.00  0.00    -0.177 N 
ATOM     14  H6  UNL     1     -24.180 -17.172  -9.985  1.00  0.00     0.185 HD
BRANCH  12  15
HETATM   15  N3  UNL     1     -23.930 -15.317 -11.675  1.00  0.00    -0.376 N 
ATOM     16  H3  UNL     1     -23.382 -14.460 -11.755  1.00  0.00     0.161 HD
BRANCH  15  17
HETATM   17  C9  UNL     1     -25.364 -15.274 -11.525  1.00  0.00     0.123 C 
BRANCH  17  18
HETATM   18  C10 UNL     1     -26.004 -15.669 -12.827  1.00  0.00     0.039 C 
BRANCH  18  19
HETATM   19  C11 UNL     1     -26.711 -16.971 -12.677  1.00  0.00     0.122 C 
BRANCH  19  20
HETATM   20  N4  UNL     1     -25.988 -18.048 -13.310  1.00  0.00    -0.380 N 
HETATM   21  C12 UNL     1     -26.264 -19.254 -12.954  1.00  0.00     0.072 C 
HETATM   22  C13 UNL     1     -27.258 -19.698 -11.946  1.00  0.00     0.077 C 
HETATM   23  N5  UNL     1     -25.639 -20.438 -13.482  1.00  0.00    -0.380 N 
HETATM   24  C14 UNL     1     -27.539 -21.120 -12.387  1.00  0.00     0.027 C 
HETATM   25  C15 UNL     1     -26.129 -21.593 -12.742  1.00  0.00     0.121 C 
ATOM     26  H5  UNL     1     -24.965 -20.464 -14.247  1.00  0.00     0.160 HD
ATOM     27  H4  UNL     1     -25.279 -17.859 -14.019  1.00  0.00     0.160 HD
ENDBRANCH  19  20
ENDBRANCH  18  19
ENDBRANCH  17  18
ENDBRANCH  15  17
ENDBRANCH  12  15
ENDBRANCH   5   7
ENDBRANCH   4   5
ENDBRANCH   3   4
TORSDOF 8
ENDMDL
MODEL 3
REMARK VINA RESULT: -6.315629608      1.868      5.424
REMARK  8 active torsions:
REMARK  status: ('A' for Active; 'I' for Inactive)
REMARK    1  A    between atoms: C3_3  and  C4_4 
REMARK    2  A    between atoms: C4_4  and  N1_5 
REMARK    3  A    between atoms: N1_5  and  C5_7 
REMARK    4  A    between atoms: C8_12  and  N3_13 
REMARK    5  A    between atoms: N3_13  and  C9_15 
REMARK    6  A    between atoms: C9_15  and  C10_16 
REMARK    7  A    between atoms: C10_16  and  C11_17 
REMARK    8  A    between atoms: C11_17  and  N4_18 
ROOT
HETATM    1  C1  UNL     1     -27.185 -22.107  -9.457  1.00  0.00     0.012 C 
HETATM    2  C2  UNL     1     -27.168 -22.442 -10.615  1.00  0.00    -0.116 C 
HETATM    3  C3  UNL     1     -27.149 -22.827 -12.036  1.00  0.00     0.113 C 
ENDROOT
BRANCH   3   4
HETATM    4  C4  UNL     1     -26.009 -22.083 -12.719  1.00  0.00     0.150 C 
BRANCH   4   5
HETATM    5  N1  UNL     1     -26.571 -20.998 -13.482  1.00  0.00    -0.225 N 
ATOM      6  H1  UNL     1     -26.980 -21.204 -14.393  1.00  0.00     0.177 HD
BRANCH   5   7
HETATM    7  C5  UNL     1     -26.579 -19.775 -13.061  1.00  0.00     0.679 A 
HETATM    8  N2  UNL     1     -27.550 -19.271 -12.274  1.00  0.00    -0.202 N 
HETATM    9  C6  UNL     1     -27.509 -17.985 -11.863  1.00  0.00     0.110 A 
ATOM     10  H2  UNL     1     -28.325 -19.868 -11.985  1.00  0.00     0.183 HD
HETATM   11  C7  UNL     1     -26.476 -17.146 -12.231  1.00  0.00     0.066 A 
HETATM   12  C8  UNL     1     -25.493 -17.669 -13.031  1.00  0.00     0.118 A 
HETATM   13  N6  UNL     1     -25.584 -18.951 -13.409  1.00  0.00    -0.177 N 
ATOM     14  H6  UNL     1     -24.844 -19.324 -14.004  1.00  0.00     0.185 HD
BRANCH  12  15
HETATM   15  N3  UNL     1     -24.513 -16.902 -13.391  1.00  0.00    -0.376 N 
ATOM     16  H3  UNL     1     -24.221 -16.842 -14.367  1.00  0.00     0.161 HD
BRANCH  15  17
HETATM   17  C9  UNL     1     -23.847 -16.134 -12.366  1.00  0.00     0.123 C 
BRANCH  17  18
HETATM   18  C10 UNL     1     -22.411 -16.574 -12.281  1.00  0.00     0.039 C 
BRANCH  18  19
HETATM   19  C11 UNL     1     -22.338 -18.041 -12.034  1.00  0.00     0.122 C 
BRANCH  19  20
HETATM   20  N4  UNL     1     -21.927 -18.335 -10.682  1.00  0.00    -0.380 N 
HETATM   21  C12 UNL     1     -22.618 -19.189 -10.012  1.00  0.00     0.072 C 
HETATM   22  C13 UNL     1     -23.820 -19.935 -10.459  1.00  0.00     0.077 C 
HETATM   23  N5  UNL     1     -22.349 -19.595  -8.658  1.00  0.00    -0.380 N 
HETATM   24  C14 UNL     1     -23.806 -21.137  -9.537  1.00  0.00     0.027 C 
HETATM   25  C15 UNL     1     -23.420 -20.476  -8.212  1.00  0.00     0.121 C 
ATOM     26  H5  UNL     1     -21.541 -19.312  -8.102  1.00  0.00     0.160 HD
ATOM     27  H4  UNL     1     -21.113 -17.879 -10.270  1.00  0.00     0.160 HD
ENDBRANCH  19  20
ENDBRANCH  18  19
ENDBRANCH  17  18
ENDBRANCH  15  17
ENDBRANCH  12  15
ENDBRANCH   5   7
ENDBRANCH   4   5
ENDBRANCH   3   4
TORSDOF 8
ENDMDL
MODEL 4
REMARK VINA RESULT: -6.304191551      1.887      2.793
REMARK  8 active torsions:
REMARK  status: ('A' for Active; 'I' for Inactive)
REMARK    1  A    between atoms: C3_3  and  C4_4 
REMARK    2  A    between atoms: C4_4  and  N1_5 
REMARK    3  A    between atoms: N1_5  and  C5_7 
REMARK    4  A    between atoms: C8_12  and  N3_13 
REMARK    5  A    between atoms: N3_13  and  C9_15 
REMARK    6  A    between atoms: C9_15  and  C10_16 
REMARK    7  A    between atoms: C10_16  and  C11_17 
REMARK    8  A    between atoms: C11_17  and  N4_18 
ROOT
HETATM    1  C1  UNL     1     -25.185 -15.346 -11.902  1.00  0.00     0.012 C 
HETATM    2  C2  UNL     1     -24.061 -15.673 -11.612  1.00  0.00    -0.116 C 
HETATM    3  C3  UNL     1     -22.697 -16.091 -11.245  1.00  0.00     0.113 C 
ENDROOT
BRANCH   3   4
HETATM    4  C4  UNL     1     -22.515 -17.546 -11.655  1.00  0.00     0.150 C 
BRANCH   4   5
HETATM    5  N1  UNL     1     -21.973 -18.267 -10.532  1.00  0.00    -0.225 N 
ATOM      6  H1  UNL     1     -21.094 -17.948 -10.126  1.00  0.00     0.177 HD
BRANCH   5   7
HETATM    7  C5  UNL     1     -22.553 -19.303 -10.018  1.00  0.00     0.679 A 
HETATM    8  N2  UNL     1     -21.895 -20.246  -9.317  1.00  0.00    -0.202 N 
HETATM    9  C6  UNL     1     -22.551 -21.309  -8.802  1.00  0.00     0.110 A 
ATOM     10  H2  UNL     1     -20.889 -20.158  -9.174  1.00  0.00     0.183 HD
HETATM   11  C7  UNL     1     -23.911 -21.465  -8.972  1.00  0.00     0.066 A 
HETATM   12  C8  UNL     1     -24.573 -20.498  -9.686  1.00  0.00     0.118 A 
HETATM   13  N6  UNL     1     -23.872 -19.466 -10.175  1.00  0.00    -0.177 N 
ATOM     14  H6  UNL     1     -24.379 -18.756 -10.703  1.00  0.00     0.185 HD
BRANCH  12  15
HETATM   15  N3  UNL     1     -25.851 -20.621  -9.861  1.00  0.00    -0.376 N 
ATOM     16  H3  UNL     1     -26.430 -19.815 -10.093  1.00  0.00     0.161 HD
BRANCH  15  17
HETATM   17  C9  UNL     1     -26.426 -21.936  -9.716  1.00  0.00     0.123 C 
BRANCH  17  18
HETATM   18  C10 UNL     1     -26.929 -22.400 -11.056  1.00  0.00     0.039 C 
BRANCH  18  19
HETATM   19  C11 UNL     1     -27.363 -21.233 -11.872  1.00  0.00     0.122 C 
BRANCH  19  20
HETATM   20  N4  UNL     1     -26.889 -21.326 -13.232  1.00  0.00    -0.380 N 
HETATM   21  C12 UNL     1     -26.313 -20.296 -13.745  1.00  0.00     0.072 C 
HETATM   22  C13 UNL     1     -26.064 -18.982 -13.102  1.00  0.00     0.077 C 
HETATM   23  N5  UNL     1     -25.786 -20.219 -15.082  1.00  0.00    -0.380 N 
HETATM   24  C14 UNL     1     -24.902 -18.450 -13.916  1.00  0.00     0.027 C 
HETATM   25  C15 UNL     1     -25.330 -18.858 -15.327  1.00  0.00     0.121 C 
ATOM     26  H5  UNL     1     -25.740 -20.991 -15.748  1.00  0.00     0.160 HD
ATOM     27  H4  UNL     1     -27.008 -22.184 -13.771  1.00  0.00     0.160 HD
ENDBRANCH  19  20
ENDBRANCH  18  19
ENDBRANCH  17  18
ENDBRANCH  15  17
ENDBRANCH  12  15
ENDBRANCH   5   7
ENDBRANCH   4   5
ENDBRANCH   3   4
TORSDOF 8
ENDMDL
MODEL 5
REMARK VINA RESULT: -6.253897020      1.883      4.277
REMARK  8 active torsions:
REMARK  status: ('A' for Active; 'I' for Inactive)
REMARK    1  A    between atoms: C3_3  and  C4_4 
REMARK    2  A    between atoms: C4_4  and  N1_5 
REMARK    3  A    between atoms: N1_5  and  C5_7 
REMARK    4  A    between atoms: C8_12  and  N3_13 
REMARK    5  A    between atoms: N3_13  and  C9_15 
REMARK    6  A    between atoms: C9_15  and  C10_16 
REMARK    7  A    between atoms: C10_16  and  C11_17 
REMARK    8  A    between atoms: C11_17  and  N4_18 
ROOT
HETATM    1  C1  UNL     1     -26.292 -15.781 -13.070  1.00  0.00     0.012 C 
HETATM    2  C2  UNL     1     -25.903 -16.635 -13.826  1.00  0.00    -0.116 C 
HETATM    3  C3  UNL     1     -25.405 -17.679 -14.738  1.00  0.00     0.113 C 
ENDROOT
BRANCH   3   4
HETATM    4  C4  UNL     1     -24.925 -18.858 -13.901  1.00  0.00     0.150 C 
BRANCH   4   5
HETATM    5  N1  UNL     1     -25.867 -19.936 -14.058  1.00  0.00    -0.225 N 
ATOM      6  H1  UNL     1     -26.321 -20.059 -14.963  1.00  0.00     0.177 HD
BRANCH   5   7
HETATM    7  C5  UNL     1     -26.160 -20.756 -13.102  1.00  0.00     0.679 A 
HETATM    8  N2  UNL     1     -26.634 -21.999 -13.313  1.00  0.00    -0.202 N 
HETATM    9  C6  UNL     1     -26.925 -22.814 -12.275  1.00  0.00     0.110 A 
ATOM     10  H2  UNL     1     -26.774 -22.330 -14.268  1.00  0.00     0.183 HD
HETATM   11  C7  UNL     1     -26.747 -22.406 -10.969  1.00  0.00     0.066 A 
HETATM   12  C8  UNL     1     -26.264 -21.138 -10.765  1.00  0.00     0.118 A 
HETATM   13  N6  UNL     1     -25.993 -20.373 -11.830  1.00  0.00    -0.177 N 
ATOM     14  H6  UNL     1     -25.633 -19.433 -11.661  1.00  0.00     0.185 HD
BRANCH  12  15
HETATM   15  N3  UNL     1     -26.088 -20.731  -9.547  1.00  0.00    -0.376 N 
ATOM     16  H3  UNL     1     -26.407 -19.808  -9.250  1.00  0.00     0.161 HD
BRANCH  15  17
HETATM   17  C9  UNL     1     -25.428 -21.624  -8.627  1.00  0.00     0.123 C 
BRANCH  17  18
HETATM   18  C10 UNL     1     -23.939 -21.472  -8.781  1.00  0.00     0.039 C 
BRANCH  18  19
HETATM   19  C11 UNL     1     -23.590 -20.041  -8.999  1.00  0.00     0.122 C 
BRANCH  19  20
HETATM   20  N4  UNL     1     -22.597 -19.885 -10.034  1.00  0.00    -0.380 N 
HETATM   21  C12 UNL     1     -22.688 -18.862 -10.810  1.00  0.00     0.072 C 
HETATM   22  C13 UNL     1     -23.711 -17.787 -10.780  1.00  0.00     0.077 C 
HETATM   23  N5  UNL     1     -21.786 -18.556 -11.889  1.00  0.00    -0.380 N 
HETATM   24  C14 UNL     1     -22.989 -16.646 -11.467  1.00  0.00     0.027 C 
HETATM   25  C15 UNL     1     -22.292 -17.393 -12.606  1.00  0.00     0.121 C 
ATOM     26  H5  UNL     1     -20.934 -19.070 -12.115  1.00  0.00     0.160 HD
ATOM     27  H4  UNL     1     -21.846 -20.565 -10.148  1.00  0.00     0.160 HD
ENDBRANCH  19  20
ENDBRANCH  18  19
ENDBRANCH  17  18
ENDBRANCH  15  17
ENDBRANCH  12  15
ENDBRANCH   5   7
ENDBRANCH   4   5
ENDBRANCH   3   4
TORSDOF 8
ENDMDL
